data_PCOD8064141
_publ_section_title
;
Structure prediction by ZEFSAII (Michael W. Deem and Ramdas Pophale) SiO2 
 PCOD8064141
Probable space group: P 2/M
;
_chemical_formula_sum "Si O2"
_cell_formula_units_Z 32
_cell_length_a 17.242226
_cell_length_b 8.744083
_cell_length_c 28.416455
_cell_angle_alpha 90.000000
_cell_angle_beta 23.070597
_cell_angle_gamma 90.000000
_cell_volume 1678.858189
_symmetry_space_group_name_H-M "P 2/M"
_symmetry_group_IT_number 10
_symmetry_cell_setting 'monoclinic'
loop_
_space_group_symop_operation_xyz
x,y,z
-x,y,-z
-x,-y,-z
x,-y,z
loop_
_atom_site_type_symbol
_atom_site_label
_atom_site_fract_x
_atom_site_fract_y
_atom_site_fract_z
Si Si1 0.058572 0.320965 0.774708
Si Si2 0.620074 0.822929 0.670310
Si Si3 0.165753 0.321459 0.609364
Si Si4 0.031713 0.176898 0.592395
Si Si5 0.677836 0.321071 0.735175
Si Si6 0.444946 0.170821 0.585008
Si Si7 0.269427 0.819523 0.982807
Si Si8 0.182492 0.180153 0.927004
O O1 0.082927 0.500000 0.767947
O O2 0.078669 0.276371 0.708786
O O3 0.226938 0.240873 0.712496
O O4 0.846698 0.263945 0.910574
O O5 0.751878 0.793889 0.550843
O O6 0.707651 0.724622 0.664225
O O7 0.393115 0.773682 0.785899
O O8 0.625002 0.000000 0.683608
O O9 0.146942 0.500000 0.609425
O O10 0.037915 0.227971 0.643051
O O11 0.395804 0.273871 0.476637
O O12 0.875149 0.280002 0.652822
O O13 0.970169 0.000000 0.623172
O O14 0.635573 0.500000 0.762762
O O15 0.497156 0.229233 0.859414
O O16 0.500000 0.167751 0.500000
O O17 0.446603 0.000000 0.605647
O O18 0.180959 0.764135 0.981994
O O19 0.251759 0.000000 0.999323
O O20 0.156023 0.000000 0.940805
O O21 0.000000 0.256718 0.000000
#
# Coordination Sequence:
#
# PCOD8064141 Si02
#       8
#     4   4   4   4   4   4   4   4
#     4  10  20  35  55  79 110 147 183 223 272 323
#     4   9  19  35  55  80 109 142 179 219 266 321
#     4  10  21  36  53  78 113 146 179 224 276 325
#     4  11  22  36  56  80 108 141 180 228 277 325
#     4  11  22  37  57  79 106 139 178 225 276 330
#     4   9  17  31  52  76 103 139 182 222 261 311
#     4  10  20  35  57  81 106 141 185 227 268 323
#     4   8  15  30  52  79 110 140 171 211 259 310
#
# _framework density 19.060575
#
# number of rings (size 3 to 8) (size 9 to 14) (size 15 to 20)
#    0.000    2.250    0.000    4.125    0.000    6.500 
#    0.000    3.125    0.000   13.125    0.000    0.000 
#    0.000    0.000    0.000    0.000    0.000    0.000 
#
# Total GULP energy -396844.898515 kJ/mol
# GULP energy per Si atom -12401.403079 kJ/mol
# Density = 1.901719 g / cm^3
# Si number density = 19.060575 Si / 1000 Ang^3
#
#
#
# Elastic Constant Matrix: (Units=GPa)
#
#
# Indices 1 2 3 4 5 6 
#
# 1 92.0050 25.2694 41.4080 0.0000 -12.4652 0.0000
# 2 25.2694 52.9809 22.9711 0.0000 6.3385 0.0000
# 3 41.4080 22.9711 97.5427 0.0000 0.4517 0.0000
# 4 0.0000 0.0000 0.0000 29.6667 0.0000 -2.7108
# 5 -12.4652 6.3385 0.4517 0.0000 23.2864 0.0000
# 6 0.0000 0.0000 0.0000 -2.7108 0.0000 27.7609
#
#
#
# Elastic Compliance Matrix: (Units=1/GPa)
#
#
# Indices 1 2 3 4 5 6 
#
# 1 0.016734 -0.006892 -0.005531 0.000000 0.010941 0.000000
# 2 -0.006892 0.024623 -0.002825 0.000000 -0.010337 0.000000
# 3 -0.005531 -0.002825 0.013277 0.000000 -0.002449 0.000000
# 4 0.000000 0.000000 0.000000 0.034011 0.000000 0.003321
# 5 0.010941 -0.010337 -0.002449 0.000000 0.051661 0.000000
# 6 0.000000 0.000000 0.000000 0.003321 0.000000 0.036346
#
#
# Mechanical properties :
#
#
# Convention : Reuss Voigt Hill
#
# Bulk Modulus (GPa) = 41.43011 46.86951 44.14981
# Shear Modulus (GPa) = 23.23480 26.33482 24.78481
#
# Velocity S-wave (km/s) = 3.49520 3.72107 3.60990
# Velocity P-wave (km/s) = 6.17023 6.56544 6.37090
#
# Compressibility (1/GPa) = 0.02413703
#
# Stress axis : x y z
#
# Youngs Moduli (GPa) = 59.76033 40.61175 75.32010
#
# Poissons Ratio (x) = 0.27989 0.41661
# Poissons Ratio (y) = 0.41186 0.21280
# Poissons Ratio (z) = 0.33055 0.11474
#
# Static dielectric constant tensor:
#      x y z
#    x 3.457200 0.000000 -0.104650 
#    y 0.000000 3.422850 0.000000 
#    z -0.104650 0.000000 3.515120 
# 
# 
# High freq. dielectric constant tensor:
#      x y z
#    x 1.729310 0.000000 -0.007440 
#    y 0.000000 1.737210 0.000000 
#    z -0.007440 0.000000 1.738990 
# 
# From -- ./inp_files/89582.got.cif
#   From: 2010.06.25/outbox.cif.g09.slc.cpg/sg10_45_cif.got.tgz:89582.got - 2010.06.27 22:07:45.
