data_PCOD8064998
_publ_section_title
;
Structure prediction by ZEFSAII (Michael W. Deem and Ramdas Pophale) SiO2 
 PCOD8064998
Probable space group: P 2/M
;
_chemical_formula_sum "Si O2"
_cell_formula_units_Z 28
_cell_length_a 25.404949
_cell_length_b 9.284966
_cell_length_c 9.627528
_cell_angle_alpha 90.000000
_cell_angle_beta 139.863431
_cell_angle_gamma 90.000000
_cell_volume 1463.900724
_symmetry_space_group_name_H-M "P 2/M"
_symmetry_group_IT_number 10
_symmetry_cell_setting 'monoclinic'
loop_
_space_group_symop_operation_xyz
x,y,z
-x,y,-z
-x,-y,-z
x,-y,z
loop_
_atom_site_type_symbol
_atom_site_label
_atom_site_fract_x
_atom_site_fract_y
_atom_site_fract_z
Si Si1 0.922069 0.168797 0.750880
Si Si2 0.926099 0.170853 0.443628
Si Si3 0.329819 0.333746 0.435813
Si Si4 0.337463 0.163072 0.945783
Si Si5 0.488122 0.167731 0.817167
Si Si6 0.235720 0.665811 0.526762
Si Si7 0.244268 0.835286 0.029960
O O1 0.935208 0.226099 0.620200
O O2 0.847586 0.250816 0.673090
O O3 0.902222 0.000000 0.711471
O O4 0.000000 0.206337 0.000000
O O5 0.000000 0.235119 0.500000
O O6 0.930341 0.000000 0.452036
O O7 0.839790 0.222401 0.207069
O O8 0.340822 0.500000 0.418611
O O9 0.416768 0.256174 0.599416
O O10 0.297366 0.312393 0.524958
O O11 0.264399 0.263740 0.200912
O O12 0.277469 0.270421 0.747082
O O13 0.320013 0.000000 0.858117
O O14 0.431149 0.203761 0.107810
O O15 0.318535 0.176558 0.070476
O O16 0.464885 0.000000 0.764518
O O17 0.500000 0.218103 0.000000
O O18 0.215311 0.500000 0.512295
O O19 0.233783 0.000000 0.059076
#
# Coordination Sequence:
#
# PCOD8064998 Si02
#       7
#     4   4   4   4   4   4   4
#     4  10  21  37  61  90 117 148 193 245 290 340
#     4   9  18  34  57  88 118 145 185 237 292 342
#     4  11  25  40  56  84 122 158 197 239 285 351
#     4  10  20  38  63  89 115 148 196 246 291 346
#     4  10  20  36  62  90 115 148 194 247 296 343
#     4  11  23  38  58  84 119 160 195 236 288 347
#     4  10  21  38  61  85 117 155 192 242 292 343
#
# _framework density 19.126978999999999
#
# number of rings (size 3 to 8) (size 9 to 14) (size 15 to 20)
#    0.000    1.857    2.857    0.857    2.000    4.000 
#    0.000    2.857    0.000    0.857    0.000    0.000 
#    0.000    0.000    0.000    0.000    0.000    0.000 
#
# Total GULP energy -347314.051346 kJ/mol
# GULP energy per Si atom -12404.073262 kJ/mol
# Density = 1.908344 g / cm^3
# Si number density = 19.126979 Si / 1000 Ang^3
#
#
#
# Elastic Constant Matrix: (Units=GPa)
#
#
# Indices 1 2 3 4 5 6 
#
# 1 72.8062 23.0325 19.0993 0.0000 21.2964 0.0000
# 2 23.0325 70.7634 44.7104 0.0000 9.0984 0.0000
# 3 19.0993 44.7104 110.6054 0.0000 10.4661 0.0000
# 4 0.0000 0.0000 0.0000 5.4790 0.0000 -2.5513
# 5 21.2964 9.0984 10.4661 0.0000 30.8640 0.0000
# 6 0.0000 0.0000 0.0000 -2.5513 0.0000 21.0691
#
#
#
# Elastic Compliance Matrix: (Units=1/GPa)
#
#
# Indices 1 2 3 4 5 6 
#
# 1 0.018534 -0.004334 -0.000371 0.000000 -0.011385 0.000000
# 2 -0.004334 0.020283 -0.007405 0.000000 -0.000477 0.000000
# 3 -0.000371 -0.007405 0.012261 0.000000 -0.001719 0.000000
# 4 0.000000 0.000000 0.000000 0.193421 0.000000 0.023421
# 5 -0.011385 -0.000477 -0.001719 0.000000 0.040979 0.000000
# 6 0.000000 0.000000 0.000000 0.023421 0.000000 0.050299
#
#
# Mechanical properties :
#
#
# Convention : Reuss Voigt Hill
#
# Bulk Modulus (GPa) = 37.23493 47.53995 42.38744
# Shear Modulus (GPa) = 13.55197 22.63793 18.09495
#
# Velocity S-wave (km/s) = 2.66470 3.44402 3.07912
# Velocity P-wave (km/s) = 5.38303 6.38153 5.90343
#
# Compressibility (1/GPa) = 0.02685650
#
# Stress axis : x y z
#
# Youngs Moduli (GPa) = 53.95566 49.30335 81.55715
#
# Poissons Ratio (x) = 0.21369 0.03026
# Poissons Ratio (y) = 0.23385 0.60396
# Poissons Ratio (z) = 0.02002 0.36511
#
# Static dielectric constant tensor:
#      x y z
#    x 3.647880 0.000000 0.073510 
#    y 0.000000 3.312820 0.000000 
#    z 0.073510 0.000000 3.415660 
# 
# 
# High freq. dielectric constant tensor:
#      x y z
#    x 1.753690 0.000000 0.005650 
#    y 0.000000 1.721150 0.000000 
#    z 0.005650 0.000000 1.744730 
# 
# From -- ./inp_files/37042.got.cif
#   From: 2010.06.25/outbox.cif.g09.slc.cpg/sg10_19_cif.got.tgz:37042.got - 2010.06.27 22:07:45.
