data_PCOD8064569
_publ_section_title
;
Structure prediction by ZEFSAII (Michael W. Deem and Ramdas Pophale) SiO2 
 PCOD8064569
Probable space group: P 2/M
;
_chemical_formula_sum "Si O2"
_cell_formula_units_Z 28
_cell_length_a 12.007132
_cell_length_b 15.655615
_cell_length_c 8.495815
_cell_angle_alpha 90.000000
_cell_angle_beta 58.830614
_cell_angle_gamma 90.000000
_cell_volume 1366.488605
_symmetry_space_group_name_H-M "P 2/M"
_symmetry_group_IT_number 10
_symmetry_cell_setting 'monoclinic'
loop_
_space_group_symop_operation_xyz
x,y,z
-x,y,-z
-x,-y,-z
x,-y,z
loop_
_atom_site_type_symbol
_atom_site_label
_atom_site_fract_x
_atom_site_fract_y
_atom_site_fract_z
Si Si1 0.510215 0.263474 0.311060
Si Si2 0.430493 0.905319 0.889987
Si Si3 0.895099 0.642881 0.689228
Si Si4 0.166190 0.094665 0.236158
Si Si5 0.768171 0.223345 0.568021
Si Si6 0.985160 0.224413 0.193882
Si Si7 0.622814 0.405845 0.022827
O O1 0.500000 0.286988 0.500000
O O2 0.548880 0.164350 0.261743
O O3 0.368769 0.272261 0.335595
O O4 0.613373 0.329277 0.156978
O O5 0.483062 0.000000 0.802686
O O6 0.500000 0.874314 0.000000
O O7 0.276519 0.909476 0.023292
O O8 0.865014 0.723567 0.604327
O O9 0.958072 0.681225 0.803939
O O10 0.762024 0.593746 0.830241
O O11 0.000000 0.590072 0.500000
O O12 0.234614 0.130864 0.345911
O O13 0.049748 0.150376 0.251670
O O14 0.112958 0.000000 0.312942
O O15 0.830898 0.219164 0.347564
O O16 0.000000 0.206715 0.000000
O O17 0.611996 0.500000 0.110599
O O18 0.500000 0.392630 0.000000
#
# Coordination Sequence:
#
# PCOD8064569 Si02
#       7
#     4   4   4   4   4   4   4
#     4  12  24  36  62  90 126 164 197 251 314 363
#     4  10  20  37  60  86 115 153 204 254 299 362
#     4   9  19  39  63  86 117 154 198 249 294 358
#     4  10  20  36  57  78 112 156 199 253 306 357
#     4  10  20  36  55  84 111 153 205 243 292 369
#     4  10  22  35  56  83 116 151 204 250 300 362
#     4  11  23  41  67  95 122 157 205 255 304 369
#
# _framework density 20.490473000000001
#
# number of rings (size 3 to 8) (size 9 to 14) (size 15 to 20)
#    0.000    1.714    2.857    3.429    4.000    2.286 
#    0.000    0.000    0.000    0.429    0.000    0.000 
#    0.000    0.000    0.000    0.000    0.000    0.000 
#
# Total GULP energy -346911.995814 kJ/mol
# GULP energy per Si atom -12389.714136 kJ/mol
# Density = 2.044384 g / cm^3
# Si number density = 20.490473 Si / 1000 Ang^3
#
#
#
# Elastic Constant Matrix: (Units=GPa)
#
#
# Indices 1 2 3 4 5 6 
#
# 1 55.9808 19.9686 31.0095 0.0000 -14.5390 0.0000
# 2 19.9686 106.5931 44.2087 0.0000 2.2872 0.0000
# 3 31.0095 44.2087 122.3679 0.0000 -11.3451 0.0000
# 4 0.0000 0.0000 0.0000 5.3636 0.0000 3.6768
# 5 -14.5390 2.2872 -11.3451 0.0000 38.9669 0.0000
# 6 0.0000 0.0000 0.0000 3.6768 0.0000 0.3678
#
#
#
# Elastic Compliance Matrix: (Units=1/GPa)
#
#
# Indices 1 2 3 4 5 6 
#
# 1 0.023122 -0.002771 -0.004156 0.000000 0.007580 0.000000
# 2 -0.002771 0.011499 -0.003711 0.000000 -0.002789 0.000000
# 3 -0.004156 -0.003711 0.010732 0.000000 0.001792 0.000000
# 4 0.000000 0.000000 0.000000 -0.031856 0.000000 0.318447
# 5 0.007580 -0.002789 0.001792 0.000000 0.029176 0.000000
# 6 0.000000 0.000000 0.000000 0.318447 0.000000 -0.464538
#
#
# Mechanical properties :
#
#
# Convention : Reuss Voigt Hill
#
# Bulk Modulus (GPa) = 41.53011 52.81282 47.17146
# Shear Modulus (GPa) = -12.73680 21.59000 4.42660
#
# Velocity S-wave (km/s) = -2.49589 3.24954 1.47140
# Velocity P-wave (km/s) = 3.46498 6.31740 5.09488
#
# Compressibility (1/GPa) = 0.02407892
#
# Stress axis : x y z
#
# Youngs Moduli (GPa) = 43.24863 86.96069 93.17938
#
# Poissons Ratio (x) = 0.24094 0.38722
# Poissons Ratio (y) = 0.11983 0.34578
# Poissons Ratio (z) = 0.17973 0.32271
#
# Static dielectric constant tensor:
#      x y z
#    x 3.556310 0.000000 -0.330240 
#    y 0.000000 3.630060 0.000000 
#    z -0.330240 0.000000 3.769390 
# 
# 
# High freq. dielectric constant tensor:
#      x y z
#    x 1.788270 0.000000 -0.030070 
#    y 0.000000 1.786900 0.000000 
#    z -0.030070 0.000000 1.798440 
# 
# From -- ./inp_files/25231.got.cif
#   From: 2010.06.25/outbox.cif.g09.slc.cpg/sg10_13_cif.got.tgz:25231.got - 2010.06.27 22:07:45.
