data_PCOD8064396
_publ_section_title
;
Structure prediction by ZEFSAII (Michael W. Deem and Ramdas Pophale) SiO2 
 PCOD8064396
Probable space group: P 2/M
;
_chemical_formula_sum "Si O2"
_cell_formula_units_Z 32
_cell_length_a 8.430730
_cell_length_b 12.634101
_cell_length_c 28.200529
_cell_angle_alpha 90.000000
_cell_angle_beta 31.811603
_cell_angle_gamma 90.000000
_cell_volume 1583.371346
_symmetry_space_group_name_H-M "P 2/M"
_symmetry_group_IT_number 10
_symmetry_cell_setting 'monoclinic'
loop_
_space_group_symop_operation_xyz
x,y,z
-x,y,-z
-x,-y,-z
x,-y,z
loop_
_atom_site_type_symbol
_atom_site_label
_atom_site_fract_x
_atom_site_fract_y
_atom_site_fract_z
Si Si1 0.228684 0.884010 0.478406
Si Si2 0.865742 0.618828 0.276736
Si Si3 0.888801 0.377838 0.098868
Si Si4 0.753679 0.238877 0.222195
Si Si5 0.294711 0.747977 0.598281
Si Si6 0.347820 0.121506 0.088893
Si Si7 0.820574 0.882207 0.670952
Si Si8 0.461135 0.687601 0.900945
O O1 0.530233 0.818653 0.407922
O O2 0.000000 0.826714 0.500000
O O3 0.077229 0.897572 0.567324
O O4 0.314580 0.000000 0.435818
O O5 0.762910 0.500000 0.292684
O O6 0.679257 0.694346 0.288446
O O7 0.789819 0.642563 0.351310
O O8 0.220464 0.629560 0.176618
O O9 0.785760 0.500000 0.129261
O O10 0.875257 0.321820 0.152851
O O11 0.665525 0.314172 0.120396
O O12 0.230140 0.375106 0.993354
O O13 0.463294 0.177033 0.278350
O O14 0.998979 0.150500 0.172258
O O15 0.500000 0.721049 0.500000
O O16 0.978974 0.808184 0.669780
O O17 0.508539 0.191233 0.088858
O O18 0.381121 0.000000 0.096128
O O19 0.500000 0.143849 0.000000
O O20 0.733691 0.000000 0.712635
#
# Coordination Sequence:
#
# PCOD8064396 Si02
#       8
#     4   4   4   4   4   4   4   4
#     4   9  17  32  57  86 115 148 184 230 288 348
#     4  11  23  39  59  83 114 151 198 250 293 341
#     4  11  21  37  59  83 115 151 193 248 296 339
#     4  11  22  37  58  87 116 154 199 241 288 345
#     4  10  21  38  60  86 119 153 190 237 295 358
#     4  10  20  38  57  80 118 160 196 235 285 342
#     4  10  20  35  57  87 117 148 187 233 287 346
#     4  10  21  38  59  86 112 149 196 241 290 345
#
# _framework density 20.210042000000001
#
# number of rings (size 3 to 8) (size 9 to 14) (size 15 to 20)
#    0.000    1.750    1.250    4.125    0.000    1.750 
#    0.000   13.125    0.000    7.875    0.000    0.000 
#    0.000    0.000    0.000    0.000    0.000    0.000 
#
# Total GULP energy -396745.028085 kJ/mol
# GULP energy per Si atom -12398.282128 kJ/mol
# Density = 2.016404 g / cm^3
# Si number density = 20.210042 Si / 1000 Ang^3
#
#
#
# Elastic Constant Matrix: (Units=GPa)
#
#
# Indices 1 2 3 4 5 6 
#
# 1 97.3047 41.6240 24.6586 0.0000 -8.8476 0.0000
# 2 41.6240 120.7556 34.5153 0.0000 -1.0444 0.0000
# 3 24.6586 34.5153 58.7237 0.0000 -4.4846 0.0000
# 4 0.0000 0.0000 0.0000 -18.2044 0.0000 -11.2259
# 5 -8.8476 -1.0444 -4.4846 0.0000 37.6195 0.0000
# 6 0.0000 0.0000 0.0000 -11.2259 0.0000 15.4161
#
#
#
# Elastic Compliance Matrix: (Units=1/GPa)
#
#
# Indices 1 2 3 4 5 6 
#
# 1 0.012795 -0.003495 -0.003124 0.000000 0.002540 0.000000
# 2 -0.003495 0.010915 -0.005033 0.000000 -0.001119 0.000000
# 3 -0.003124 -0.005033 0.021427 0.000000 0.001680 0.000000
# 4 0.000000 0.000000 0.000000 -0.037909 0.000000 -0.027605
# 5 0.002540 -0.001119 0.001680 0.000000 0.027348 0.000000
# 6 0.000000 0.000000 0.000000 -0.027605 0.000000 0.044765
#
#
# Mechanical properties :
#
#
# Convention : Reuss Voigt Hill
#
# Bulk Modulus (GPa) = 45.80501 53.15333 49.47917
# Shear Modulus (GPa) = 45.48561 18.69864 32.09213
#
# Velocity S-wave (km/s) = 4.74924 3.04504 3.98921
# Velocity P-wave (km/s) = 7.26550 6.22258 6.76417
#
# Compressibility (1/GPa) = 0.02183167
#
# Stress axis : x y z
#
# Youngs Moduli (GPa) = 78.15625 91.61751 46.66941
#
# Poissons Ratio (x) = 0.32024 0.14581
# Poissons Ratio (y) = 0.27319 0.23489
# Poissons Ratio (z) = 0.24418 0.46112
#
# Static dielectric constant tensor:
#      x y z
#    x 3.774260 0.000000 0.007220 
#    y 0.000000 3.660130 0.000000 
#    z 0.007220 0.000000 3.551480 
# 
# 
# High freq. dielectric constant tensor:
#      x y z
#    x 1.797490 0.000000 -0.001450 
#    y 0.000000 1.782340 0.000000 
#    z -0.001450 0.000000 1.781880 
# 
# From -- ./inp_files/38259.got.cif
#   From: 2010.06.25/outbox.cif.g09.slc.cpg/sg10_20_cif.got.tgz:38259.got - 2010.06.27 22:07:45.
