data_PCOD8064929
_publ_section_title
;
Structure prediction by ZEFSAII (Michael W. Deem and Ramdas Pophale) SiO2 
 PCOD8064929
Probable space group: P 2/M
;
_chemical_formula_sum "Si O2"
_cell_formula_units_Z 28
_cell_length_a 9.637303
_cell_length_b 8.653205
_cell_length_c 27.541651
_cell_angle_alpha 90.000000
_cell_angle_beta 38.211695
_cell_angle_gamma 90.000000
_cell_volume 1420.726495
_symmetry_space_group_name_H-M "P 2/M"
_symmetry_group_IT_number 10
_symmetry_cell_setting 'monoclinic'
loop_
_space_group_symop_operation_xyz
x,y,z
-x,y,-z
-x,-y,-z
x,-y,z
loop_
_atom_site_type_symbol
_atom_site_label
_atom_site_fract_x
_atom_site_fract_y
_atom_site_fract_z
Si Si1 0.459750 0.822005 0.308839
Si Si2 0.462172 0.180771 0.863221
Si Si3 0.744062 0.820762 0.447134
Si Si4 0.756937 0.327721 0.543976
Si Si5 0.815522 0.319859 0.700879
Si Si6 0.344959 0.320008 0.997322
Si Si7 0.127576 0.178164 0.870941
O O1 0.430707 0.723719 0.365615
O O2 0.278178 0.773800 0.318981
O O3 0.708122 0.793963 0.219630
O O4 0.418877 0.000000 0.332543
O O5 0.683682 0.273049 0.785865
O O6 0.414713 0.220592 0.931687
O O7 0.250901 0.227260 0.887233
O O8 0.510760 0.000000 0.843776
O O9 0.500000 0.759876 0.500000
O O10 0.768651 0.793071 0.497386
O O11 0.923473 0.724489 0.365996
O O12 0.776245 0.000000 0.426082
O O13 0.695118 0.500000 0.542639
O O14 0.000000 0.327620 0.500000
O O15 0.787075 0.500000 0.698535
O O16 0.375264 0.500000 0.977290
O O17 0.500000 0.270183 0.000000
O O18 0.086234 0.285043 0.080180
O O19 0.051264 0.000000 0.895346
#
# Coordination Sequence:
#
# PCOD8064929 Si02
#       7
#     4   4   4   4   4   4   4
#     4  10  20  36  60  89 119 152 195 246 291 342
#     4  10  21  39  64  90 115 150 195 241 287 344
#     4  11  24  41  60  84 116 158 203 243 290 350
#     4  11  22  36  59  90 119 154 197 243 296 348
#     4  11  21  36  60  89 120 152 192 242 296 348
#     4  11  24  40  58  86 122 156 191 234 289 348
#     4   9  20  38  61  89 116 148 194 241 286 343
#
# _framework density 19.708226
#
# number of rings (size 3 to 8) (size 9 to 14) (size 15 to 20)
#    0.000    1.571    1.429    4.714    0.000    8.000 
#    2.571    0.000    0.000    0.000    0.000    0.000 
#    0.000    0.000    0.000    0.000    0.000    0.000 
#
# Total GULP energy -347311.971891 kJ/mol
# GULP energy per Si atom -12403.998996 kJ/mol
# Density = 1.966337 g / cm^3
# Si number density = 19.708226 Si / 1000 Ang^3
#
#
#
# Elastic Constant Matrix: (Units=GPa)
#
#
# Indices 1 2 3 4 5 6 
#
# 1 78.6579 28.0901 46.9079 0.0000 -11.0368 0.0000
# 2 28.0901 60.0835 33.0989 0.0000 -6.5163 0.0000
# 3 46.9079 33.0989 123.4592 0.0000 -8.0779 0.0000
# 4 0.0000 0.0000 0.0000 33.1349 0.0000 0.8235
# 5 -11.0368 -6.5163 -8.0779 0.0000 27.7147 0.0000
# 6 0.0000 0.0000 0.0000 0.8235 0.0000 25.6945
#
#
#
# Elastic Compliance Matrix: (Units=1/GPa)
#
#
# Indices 1 2 3 4 5 6 
#
# 1 0.018353 -0.005174 -0.005288 0.000000 0.004551 0.000000
# 2 -0.005174 0.021255 -0.003609 0.000000 0.001885 0.000000
# 3 -0.005288 -0.003609 0.011095 0.000000 0.000279 0.000000
# 4 0.000000 0.000000 0.000000 0.030204 0.000000 -0.000968
# 5 0.004551 0.001885 0.000279 0.000000 0.038419 0.000000
# 6 0.000000 0.000000 0.000000 -0.000968 0.000000 0.038950
#
#
# Mechanical properties :
#
#
# Convention : Reuss Voigt Hill
#
# Bulk Modulus (GPa) = 44.32515 53.15494 48.74004
# Shear Modulus (GPa) = 25.78132 27.58238 26.68185
#
# Velocity S-wave (km/s) = 3.62076 3.74510 3.68345
# Velocity P-wave (km/s) = 6.32609 6.76243 6.54790
#
# Compressibility (1/GPa) = 0.02256056
#
# Stress axis : x y z
#
# Youngs Moduli (GPa) = 54.48641 47.04764 90.12989
#
# Poissons Ratio (x) = 0.24340 0.47665
# Poissons Ratio (y) = 0.28189 0.32531
# Poissons Ratio (z) = 0.28815 0.16981
#
# Static dielectric constant tensor:
#      x y z
#    x 3.320020 0.000000 -0.059590 
#    y 0.000000 3.617550 0.000000 
#    z -0.059590 0.000000 3.824570 
# 
# 
# High freq. dielectric constant tensor:
#      x y z
#    x 1.742650 0.000000 -0.000160 
#    y 0.000000 1.776830 0.000000 
#    z -0.000160 0.000000 1.783390 
# 
# From -- ./inp_files/91975.got.cif
#   From: 2010.06.25/outbox.cif.g09.slc.cpg/sg10_46_cif.got.tgz:91975.got - 2010.06.27 22:07:45.
