data_PCOD8064261
_publ_section_title
;
Structure prediction by ZEFSAII (Michael W. Deem and Ramdas Pophale) SiO2 
 PCOD8064261
Probable space group: P 2/M
;
_chemical_formula_sum "Si O2"
_cell_formula_units_Z 24
_cell_length_a 18.580877
_cell_length_b 9.099425
_cell_length_c 14.271010
_cell_angle_alpha 90.000000
_cell_angle_beta 31.450245
_cell_angle_gamma 90.000000
_cell_volume 1258.936832
_symmetry_space_group_name_H-M "P 2/M"
_symmetry_group_IT_number 10
_symmetry_cell_setting 'monoclinic'
loop_
_space_group_symop_operation_xyz
x,y,z
-x,y,-z
-x,-y,-z
x,-y,z
loop_
_atom_site_type_symbol
_atom_site_label
_atom_site_fract_x
_atom_site_fract_y
_atom_site_fract_z
Si Si1 0.156694 0.672755 0.323246
Si Si2 0.260746 0.326254 0.004064
Si Si3 0.627774 0.828177 0.797086
Si Si4 0.197223 0.826746 0.722606
Si Si5 0.910699 0.825993 0.959754
Si Si6 0.545577 0.173072 0.678801
O O1 0.163960 0.500000 0.330473
O O2 0.234039 0.748105 0.323677
O O3 0.000000 0.728965 0.500000
O O4 0.227624 0.720043 0.147159
O O5 0.265592 0.500000 0.986400
O O6 0.140167 0.261480 0.073833
O O7 0.405631 0.257954 0.811950
O O8 0.601148 0.787654 0.719531
O O9 0.649207 0.000000 0.788937
O O10 0.500000 0.768997 0.000000
O O11 0.185461 0.782946 0.844612
O O12 0.340398 0.767117 0.521186
O O13 0.194014 0.000000 0.716164
O O14 0.065680 0.769926 0.809465
O O15 0.904805 0.000000 0.946897
O O16 0.517023 0.000000 0.699745
#
# Coordination Sequence:
#
# PCOD8064261 Si02
#       6
#     4   4   4   4   4   4
#     4  10  23  40  55  75 108 148 183 215 261 323
#     4  11  23  37  53  79 111 143 180 220 265 317
#     4  10  20  35  56  83 110 136 174 225 270 311
#     4   8  17  35  59  84 106 137 180 219 265 324
#     4   9  18  36  60  82 107 139 177 222 268 316
#     4  10  20  36  57  81 110 142 178 220 267 318
#
# _framework density 19.063704000000001
#
# number of rings (size 3 to 8) (size 9 to 14) (size 15 to 20)
#    0.000    2.333    1.667    1.500    2.333    2.667 
#    0.000    6.667    0.000    0.000    0.000    0.000 
#    0.000    0.000    0.000    0.000    0.000    0.000 
#
# Total GULP energy -297636.695432 kJ/mol
# GULP energy per Si atom -12401.528976 kJ/mol
# Density = 1.902031 g / cm^3
# Si number density = 19.063704 Si / 1000 Ang^3
#
#
#
# Elastic Constant Matrix: (Units=GPa)
#
#
# Indices 1 2 3 4 5 6 
#
# 1 63.8117 26.2569 -1.8268 0.0000 -13.8899 0.0000
# 2 26.2569 36.1526 15.0397 0.0000 -4.4234 0.0000
# 3 -1.8268 15.0397 90.0034 0.0000 -8.0650 0.0000
# 4 0.0000 0.0000 0.0000 18.3507 0.0000 1.9480
# 5 -13.8899 -4.4234 -8.0650 0.0000 29.5931 0.0000
# 6 0.0000 0.0000 0.0000 1.9480 0.0000 7.3016
#
#
#
# Elastic Compliance Matrix: (Units=1/GPa)
#
#
# Indices 1 2 3 4 5 6 
#
# 1 0.026265 -0.019762 0.004792 0.000000 0.010680 0.000000
# 2 -0.019762 0.044889 -0.008336 0.000000 -0.004838 0.000000
# 3 0.004792 -0.008336 0.013008 0.000000 0.004549 0.000000
# 4 0.000000 0.000000 0.000000 0.056082 0.000000 -0.014962
# 5 0.010680 -0.004838 0.004549 0.000000 0.039321 0.000000
# 6 0.000000 0.000000 0.000000 -0.014962 0.000000 0.140947
#
#
# Mechanical properties :
#
#
# Convention : Reuss Voigt Hill
#
# Bulk Modulus (GPa) = 26.63043 29.87859 28.25451
# Shear Modulus (GPa) = 13.17033 21.08229 17.12631
#
# Velocity S-wave (km/s) = 2.63127 3.32909 3.00054
# Velocity P-wave (km/s) = 4.81985 5.52125 5.18243
#
# Compressibility (1/GPa) = 0.03755103
#
# Stress axis : x y z
#
# Youngs Moduli (GPa) = 38.07390 22.27701 76.87301
#
# Poissons Ratio (x) = 0.44025 -0.36841
# Poissons Ratio (y) = 0.75243 0.64079
# Poissons Ratio (z) = -0.18247 0.18569
#
# Static dielectric constant tensor:
#      x y z
#    x 3.436510 0.000000 0.073380 
#    y 0.000000 3.156840 0.000000 
#    z 0.073380 0.000000 3.943670 
# 
# 
# High freq. dielectric constant tensor:
#      x y z
#    x 1.746380 0.000000 -0.002080 
#    y 0.000000 1.712070 0.000000 
#    z -0.002080 0.000000 1.751680 
# 
# From -- ./inp_files/27088.got.cif
#   From: 2010.06.25/outbox.cif.g09.slc.cpg/sg10_14_cif.got.tgz:27088.got - 2010.06.27 22:07:45.
