data_PCOD8064242
_publ_section_title
;
Structure prediction by ZEFSAII (Michael W. Deem and Ramdas Pophale) SiO2 
 PCOD8064242
Probable space group: P 2/M
;
_chemical_formula_sum "Si O2"
_cell_formula_units_Z 32
_cell_length_a 14.267671
_cell_length_b 9.112278
_cell_length_c 23.605973
_cell_angle_alpha 90.000000
_cell_angle_beta 31.033652
_cell_angle_gamma 90.000000
_cell_volume 1582.215110
_symmetry_space_group_name_H-M "P 2/M"
_symmetry_group_IT_number 10
_symmetry_cell_setting 'monoclinic'
loop_
_space_group_symop_operation_xyz
x,y,z
-x,y,-z
-x,-y,-z
x,-y,z
loop_
_atom_site_type_symbol
_atom_site_label
_atom_site_fract_x
_atom_site_fract_y
_atom_site_fract_z
Si Si1 0.233606 0.829153 0.769926
Si Si2 0.169052 0.171534 0.986258
Si Si3 0.906530 0.672887 0.387834
Si Si4 0.345876 0.827416 0.007362
Si Si5 0.171580 0.327025 0.446255
Si Si6 0.285494 0.832992 0.615502
Si Si7 0.745305 0.172725 0.822715
Si Si8 0.424030 0.673736 0.765882
O O1 0.219496 0.777613 0.711696
O O2 0.390183 0.736564 0.720189
O O3 0.288278 0.000000 0.742740
O O4 0.046597 0.802380 0.901240
O O5 0.243396 0.237532 0.006593
O O6 0.268418 0.259700 0.885857
O O7 0.213401 0.000000 0.955203
O O8 0.907927 0.500000 0.379884
O O9 0.823000 0.722887 0.491043
O O10 0.799922 0.738104 0.390028
O O11 0.110271 0.733212 0.285996
O O12 0.550174 0.766205 0.904040
O O13 0.362463 0.000000 0.993729
O O14 0.231224 0.790271 0.122814
O O15 0.147853 0.500000 0.455478
O O16 0.371737 0.281608 0.318602
O O17 0.000000 0.256451 0.500000
O O18 0.500000 0.818362 0.500000
O O19 0.220216 0.000000 0.640264
O O20 0.770216 0.000000 0.797966
O O21 0.403250 0.500000 0.774608
#
# Coordination Sequence:
#
# PCOD8064242 Si02
#       8
#     4   4   4   4   4   4   4   4
#     4  10  21  38  60  85 117 155 186 224 285 349
#     4  10  20  35  56  81 113 152 191 228 281 346
#     4  11  22  35  57  85 112 146 186 230 283 340
#     4   8  16  32  55  80 108 147 189 228 277 335
#     4   9  21  41  59  77 110 155 194 228 283 349
#     4  10  21  38  62  88 114 148 189 234 284 338
#     4   9  17  33  56  80 110 146 185 231 279 332
#     4  11  23  38  59  83 109 148 195 244 286 329
#
# _framework density 20.224810000000002
#
# number of rings (size 3 to 8) (size 9 to 14) (size 15 to 20)
#    0.000    2.250    0.000    3.375    1.750    4.750 
#    0.000    5.000    0.000    3.000    0.000    0.000 
#    0.000    0.000    0.000    0.000    0.000    0.000 
#
# Total GULP energy -396667.045528 kJ/mol
# GULP energy per Si atom -12395.845173 kJ/mol
# Density = 2.017878 g / cm^3
# Si number density = 20.224810 Si / 1000 Ang^3
#
#
#
# Elastic Constant Matrix: (Units=GPa)
#
#
# Indices 1 2 3 4 5 6 
#
# 1 112.4848 39.9091 31.9083 0.0000 -7.7989 0.0000
# 2 39.9091 58.6651 35.6828 0.0000 0.0041 0.0000
# 3 31.9083 35.6828 103.3952 0.0000 1.7838 0.0000
# 4 0.0000 0.0000 0.0000 23.2418 0.0000 -0.3520
# 5 -7.7989 0.0041 1.7838 0.0000 22.6118 0.0000
# 6 0.0000 0.0000 0.0000 -0.3520 0.0000 27.2212
#
#
#
# Elastic Compliance Matrix: (Units=1/GPa)
#
#
# Indices 1 2 3 4 5 6 
#
# 1 0.012224 -0.007564 -0.001236 0.000000 0.004315 0.000000
# 2 -0.007564 0.026263 -0.006693 0.000000 -0.002086 0.000000
# 3 -0.001236 -0.006693 0.012387 0.000000 -0.001402 0.000000
# 4 0.000000 0.000000 0.000000 0.043034 0.000000 0.000557
# 5 0.004315 -0.002086 -0.001402 0.000000 0.045824 0.000000
# 6 0.000000 0.000000 0.000000 0.000557 0.000000 0.036743
#
#
# Mechanical properties :
#
#
# Convention : Reuss Voigt Hill
#
# Bulk Modulus (GPa) = 50.28499 54.39392 52.33945
# Shear Modulus (GPa) = 23.35451 25.75127 24.55289
#
# Velocity S-wave (km/s) = 3.40184 3.57214 3.48803
# Velocity P-wave (km/s) = 6.35193 6.63073 6.49283
#
# Compressibility (1/GPa) = 0.01988665
#
# Stress axis : x y z
#
# Youngs Moduli (GPa) = 81.80903 38.07661 80.72777
#
# Poissons Ratio (x) = 0.28801 0.09981
# Poissons Ratio (y) = 0.61879 0.54034
# Poissons Ratio (z) = 0.10114 0.25486
#
# Static dielectric constant tensor:
#      x y z
#    x 4.203560 0.000000 -0.045250 
#    y 0.000000 3.307980 0.000000 
#    z -0.045250 0.000000 3.804250 
# 
# 
# High freq. dielectric constant tensor:
#      x y z
#    x 1.803260 0.000000 -0.003670 
#    y 0.000000 1.750650 0.000000 
#    z -0.003670 0.000000 1.801980 
# 
# From -- ./inp_files/89359.got.cif
#   From: 2010.06.25/outbox.cif.g09.slc.cpg/sg10_45_cif.got.tgz:89359.got - 2010.06.27 22:07:45.
