data_PCOD8064070
_publ_section_title
;
Structure prediction by ZEFSAII (Michael W. Deem and Ramdas Pophale) SiO2 
 PCOD8064070
Probable space group: P 2/M
;
_chemical_formula_sum "Si O2"
_cell_formula_units_Z 32
_cell_length_a 28.323430
_cell_length_b 8.737922
_cell_length_c 22.121976
_cell_angle_alpha 90.000000
_cell_angle_beta 161.355029
_cell_angle_gamma 90.000000
_cell_volume 1750.349533
_symmetry_space_group_name_H-M "P 2/M"
_symmetry_group_IT_number 10
_symmetry_cell_setting 'monoclinic'
loop_
_space_group_symop_operation_xyz
x,y,z
-x,y,-z
-x,-y,-z
x,-y,z
loop_
_atom_site_type_symbol
_atom_site_label
_atom_site_fract_x
_atom_site_fract_y
_atom_site_fract_z
Si Si1 0.318606 0.818720 0.522495
Si Si2 0.659430 0.179581 0.216439
Si Si3 0.430301 0.320966 0.476877
Si Si4 0.190213 0.680957 0.487999
Si Si5 0.090648 0.181871 0.795757
Si Si6 0.050738 0.179534 0.498220
Si Si7 0.593472 0.679905 0.797102
Si Si8 0.161576 0.180199 0.209708
O O1 0.249124 0.748809 0.497560
O O2 0.480930 0.748071 0.709758
O O3 0.213404 0.769674 0.339299
O O4 0.333435 0.000000 0.546592
O O5 0.697284 0.271501 0.322701
O O6 0.778135 0.218560 0.308011
O O7 0.662809 0.000000 0.236388
O O8 0.500000 0.233012 0.000000
O O9 0.500000 0.254554 0.500000
O O10 0.403498 0.500000 0.439214
O O11 0.538145 0.279844 0.662886
O O12 0.271563 0.244394 0.292690
O O13 0.181623 0.500000 0.473128
O O14 0.026969 0.747300 0.300589
O O15 0.050958 0.240242 0.679980
O O16 0.080025 0.000000 0.787706
O O17 0.251269 0.238370 0.007353
O O18 0.000000 0.257477 0.500000
O O19 0.027484 0.000000 0.475260
O O20 0.609888 0.500000 0.827697
O O21 0.160437 0.000000 0.201924
O O22 0.000000 0.248937 0.000000
#
# Coordination Sequence:
#
# PCOD8064070 Si02
#       8
#     4   4   4   4   4   4   4   4
#     4  10  20  36  56  77 105 140 178 218 264 321
#     4   9  18  33  53  76 103 136 174 215 260 313
#     4   9  19  35  53  75 104 138 174 210 253 311
#     4  11  22  36  54  77 108 142 178 223 269 311
#     4  10  20  35  55  78 105 139 178 217 261 315
#     4   8  15  29  49  73  98 126 165 209 248 293
#     4  10  20  35  54  78 108 138 173 218 265 312
#     4   9  19  35  54  78 105 133 170 218 266 311
#
# _framework density 18.282063000000001
#
# number of rings (size 3 to 8) (size 9 to 14) (size 15 to 20)
#    0.000    2.500    0.000    3.000    0.000    3.750 
#    0.000    5.000    0.000    9.375    0.000    0.000 
#    0.000    0.000    0.000    0.000    0.000    0.000 
#
# Total GULP energy -396823.443367 kJ/mol
# GULP energy per Si atom -12400.732605 kJ/mol
# Density = 1.824045 g / cm^3
# Si number density = 18.282063 Si / 1000 Ang^3
#
#
#
# Elastic Constant Matrix: (Units=GPa)
#
#
# Indices 1 2 3 4 5 6 
#
# 1 169.5475 49.6228 75.7092 0.0000 20.5240 0.0000
# 2 49.6228 79.6962 55.0803 0.0000 8.3752 0.0000
# 3 75.7092 55.0803 165.9418 0.0000 25.2648 0.0000
# 4 0.0000 0.0000 0.0000 17.8536 0.0000 6.5639
# 5 20.5240 8.3752 25.2648 0.0000 18.2371 0.0000
# 6 0.0000 0.0000 0.0000 6.5639 0.0000 18.3491
#
#
#
# Elastic Compliance Matrix: (Units=1/GPa)
#
#
# Indices 1 2 3 4 5 6 
#
# 1 0.008361 -0.003335 -0.001911 0.000000 -0.005230 0.000000
# 2 -0.003335 0.017614 -0.004644 0.000000 0.002099 0.000000
# 3 -0.001911 -0.004644 0.009869 0.000000 -0.009388 0.000000
# 4 0.000000 0.000000 0.000000 0.064493 0.000000 -0.023071
# 5 -0.005230 0.002099 -0.009388 0.000000 0.072761 0.000000
# 6 0.000000 0.000000 0.000000 -0.023071 0.000000 0.062752
#
#
# Mechanical properties :
#
#
# Convention : Reuss Voigt Hill
#
# Bulk Modulus (GPa) = 62.25874 86.22334 74.24104
# Shear Modulus (GPa) = 19.15823 26.53953 22.84888
#
# Velocity S-wave (km/s) = 3.24068 3.81421 3.53908
# Velocity P-wave (km/s) = 6.93766 8.16473 7.57608
#
# Compressibility (1/GPa) = 0.01606200
#
# Stress axis : x y z
#
# Youngs Moduli (GPa) = 119.60713 56.77439 101.32650
#
# Poissons Ratio (x) = 0.18936 0.19365
# Poissons Ratio (y) = 0.39893 0.47058
# Poissons Ratio (z) = 0.22859 0.26367
#
# Static dielectric constant tensor:
#      x y z
#    x 3.517760 0.000000 -0.128590 
#    y 0.000000 3.262770 0.000000 
#    z -0.128590 0.000000 3.136180 
# 
# 
# High freq. dielectric constant tensor:
#      x y z
#    x 1.714560 0.000000 0.006210 
#    y 0.000000 1.700100 0.000000 
#    z 0.006210 0.000000 1.712190 
# 
# From -- ./inp_files/87071.got.cif
#   From: 2010.06.25/outbox.cif.g09.slc.cpg/sg10_44_cif.got.tgz:87071.got - 2010.06.27 22:07:45.
