data_PCOD8064912
_publ_section_title
;
Structure prediction by ZEFSAII (Michael W. Deem and Ramdas Pophale) SiO2 
 PCOD8064912
Probable space group: P 2/M
;
_chemical_formula_sum "Si O2"
_cell_formula_units_Z 24
_cell_length_a 10.625398
_cell_length_b 12.761786
_cell_length_c 11.665833
_cell_angle_alpha 90.000000
_cell_angle_beta 126.546745
_cell_angle_gamma 90.000000
_cell_volume 1270.833734
_symmetry_space_group_name_H-M "P 2/M"
_symmetry_group_IT_number 10
_symmetry_cell_setting 'monoclinic'
loop_
_space_group_symop_operation_xyz
x,y,z
-x,y,-z
-x,-y,-z
x,-y,z
loop_
_atom_site_type_symbol
_atom_site_label
_atom_site_fract_x
_atom_site_fract_y
_atom_site_fract_z
Si Si1 0.972751 0.880495 0.712908
Si Si2 0.000000 0.241601 0.500000
Si Si3 0.553515 0.377139 0.653695
Si Si4 0.157908 0.233744 0.143940
Si Si5 0.698569 0.377755 0.291400
Si Si6 0.290080 0.883215 0.010881
Si Si7 0.500000 0.273730 0.000000
O O1 0.871727 0.813339 0.747226
O O2 0.946094 0.832421 0.573902
O O3 0.156004 0.875488 0.842256
O O4 0.912347 0.000000 0.680827
O O5 0.858123 0.315263 0.388004
O O6 0.500000 0.336571 0.500000
O O7 0.586003 0.500000 0.669741
O O8 0.716612 0.325908 0.779350
O O9 0.418281 0.346827 0.669551
O O10 0.219929 0.139625 0.097926
O O11 0.000000 0.280472 0.000000
O O12 0.738390 0.500000 0.315166
O O13 0.624330 0.348866 0.128650
O O14 0.423546 0.799732 0.054991
O O15 0.362478 0.000000 0.051873
#
# Coordination Sequence:
#
# PCOD8064912 Si02
#       7
#     4   2   4   4   4   4   2
#     4  10  21  37  59  88 121 157 195 238 293 346
#     4  12  22  40  62  88 120 156 196 242 290 356
#     4  10  21  39  60  83 117 157 193 238 296 349
#     4  10  20  37  61  86 116 154 196 245 287 340
#     4  11  24  40  62  88 117 155 196 244 298 350
#     4  10  20  36  60  87 117 153 198 243 292 346
#     4  12  20  40  60  88 118 156 190 248 298 348
#
# _framework density 18.88524
#
# number of rings (size 3 to 8) (size 9 to 14) (size 15 to 20)
#    0.000    1.500    3.333    2.500    0.000    2.333 
#    0.000    0.833    0.000    2.000    0.000    0.000 
#    0.000    0.000    0.000    0.000    0.000    0.000 
#
# Total GULP energy -297700.480927 kJ/mol
# GULP energy per Si atom -12404.186705 kJ/mol
# Density = 1.884226 g / cm^3
# Si number density = 18.885240 Si / 1000 Ang^3
#
#
#
# Elastic Constant Matrix: (Units=GPa)
#
#
# Indices 1 2 3 4 5 6 
#
# 1 76.7830 23.2675 32.2002 0.0000 -6.5812 0.0000
# 2 23.2675 63.2183 34.0867 0.0000 3.8834 0.0000
# 3 32.2002 34.0867 107.7945 0.0000 -4.9448 0.0000
# 4 0.0000 0.0000 0.0000 6.8686 0.0000 -10.5813
# 5 -6.5812 3.8834 -4.9448 0.0000 36.8109 0.0000
# 6 0.0000 0.0000 0.0000 -10.5813 0.0000 24.0491
#
#
#
# Elastic Compliance Matrix: (Units=1/GPa)
#
#
# Indices 1 2 3 4 5 6 
#
# 1 0.015939 -0.004274 -0.003278 0.000000 0.002860 0.000000
# 2 -0.004274 0.020515 -0.005378 0.000000 -0.003651 0.000000
# 3 -0.003278 -0.005378 0.012030 0.000000 0.001597 0.000000
# 4 0.000000 0.000000 0.000000 0.451878 0.000000 0.198820
# 5 0.002860 -0.003651 0.001597 0.000000 0.028277 0.000000
# 6 0.000000 0.000000 0.000000 0.198820 0.000000 0.129060
#
#
# Mechanical properties :
#
#
# Convention : Reuss Voigt Hill
#
# Bulk Modulus (GPa) = 44.20292 47.43386 45.81839
# Shear Modulus (GPa) = 7.23483 24.09515 15.66499
#
# Velocity S-wave (km/s) = 1.95940 3.57581 2.88320
# Velocity P-wave (km/s) = 5.34564 6.49769 5.94962
#
# Compressibility (1/GPa) = 0.02262294
#
# Stress axis : x y z
#
# Youngs Moduli (GPa) = 62.73920 48.74382 83.12450
#
# Poissons Ratio (x) = 0.20835 0.27252
# Poissons Ratio (y) = 0.26817 0.44705
# Poissons Ratio (z) = 0.20569 0.26215
#
# Static dielectric constant tensor:
#      x y z
#    x 3.479370 0.000000 -0.088680 
#    y 0.000000 3.389720 0.000000 
#    z -0.088680 0.000000 3.496300 
# 
# 
# High freq. dielectric constant tensor:
#      x y z
#    x 1.739750 0.000000 -0.009210 
#    y 0.000000 1.735180 0.000000 
#    z -0.009210 0.000000 1.734740 
# 
# From -- ./inp_files/46794.got.cif
#   From: 2010.06.25/outbox.cif.g09.slc.cpg/sg10_24_cif.got.tgz:46794.got - 2010.06.27 22:07:45.
