data_PCOD8064593
_publ_section_title
;
Structure prediction by ZEFSAII (Michael W. Deem and Ramdas Pophale) SiO2 
 PCOD8064593
Probable space group: P 2/M
;
_chemical_formula_sum "Si O2"
_cell_formula_units_Z 28
_cell_length_a 11.825803
_cell_length_b 8.822435
_cell_length_c 15.673129
_cell_angle_alpha 90.000000
_cell_angle_beta 123.778379
_cell_angle_gamma 90.000000
_cell_volume 1359.181294
_symmetry_space_group_name_H-M "P 2/M"
_symmetry_group_IT_number 10
_symmetry_cell_setting 'monoclinic'
loop_
_space_group_symop_operation_xyz
x,y,z
-x,y,-z
-x,-y,-z
x,-y,z
loop_
_atom_site_type_symbol
_atom_site_label
_atom_site_fract_x
_atom_site_fract_y
_atom_site_fract_z
Si Si1 0.901501 0.179229 0.382465
Si Si2 0.349773 0.176053 0.464150
Si Si3 0.839841 0.177682 0.773370
Si Si4 0.916774 0.679299 0.210754
Si Si5 0.644698 0.320837 0.823467
Si Si6 0.635071 0.320257 0.012730
Si Si7 0.347244 0.322341 0.638710
O O1 0.958093 0.246185 0.317927
O O2 0.749589 0.239971 0.334113
O O3 0.000000 0.233936 0.500000
O O4 0.900304 0.000000 0.374538
O O5 0.500000 0.224130 0.500000
O O6 0.251949 0.218474 0.346220
O O7 0.303956 0.273750 0.525832
O O8 0.341522 0.000000 0.486138
O O9 0.768034 0.238254 0.828001
O O10 0.983031 0.261776 0.821224
O O11 0.864555 0.000000 0.793031
O O12 0.928270 0.500000 0.223073
O O13 0.765466 0.732016 0.121492
O O14 0.667171 0.500000 0.826628
O O15 0.501925 0.272317 0.721163
O O16 0.646094 0.260826 0.920792
O O17 0.624314 0.500000 0.006166
O O18 0.500000 0.251166 0.000000
O O19 0.327773 0.500000 0.643404
#
# Coordination Sequence:
#
# PCOD8064593 Si02
#       7
#     4   4   4   4   4   4   4
#     4  11  24  41  60  84 119 161 198 234 290 361
#     4  10  20  36  56  80 117 164 201 233 288 356
#     4  11  23  39  59  85 122 162 198 240 295 357
#     4  11  23  40  64  90 118 153 197 249 296 344
#     4  10  21  38  61  89 118 152 198 246 294 349
#     4   9  19  39  65  89 116 151 193 242 299 355
#     4  11  22  35  59  91 119 150 196 254 299 339
#
# _framework density 20.600636999999999
#
# number of rings (size 3 to 8) (size 9 to 14) (size 15 to 20)
#    0.000    1.571    1.429    3.429    0.000    9.429 
#    0.000    4.286    0.000    3.000    0.000    0.000 
#    0.000    0.000    0.000    0.000    0.000    0.000 
#
# Total GULP energy -347371.690907 kJ/mol
# GULP energy per Si atom -12406.131818 kJ/mol
# Density = 2.055375 g / cm^3
# Si number density = 20.600637 Si / 1000 Ang^3
#
#
#
# Elastic Constant Matrix: (Units=GPa)
#
#
# Indices 1 2 3 4 5 6 
#
# 1 160.9900 43.1119 57.4256 0.0000 -5.2391 0.0000
# 2 43.1119 61.1958 39.2797 0.0000 1.7825 0.0000
# 3 57.4256 39.2797 109.8967 0.0000 -12.8600 0.0000
# 4 0.0000 0.0000 0.0000 16.6541 0.0000 3.3549
# 5 -5.2391 1.7825 -12.8600 0.0000 36.8390 0.0000
# 6 0.0000 0.0000 0.0000 3.3549 0.0000 26.8111
#
#
#
# Elastic Compliance Matrix: (Units=1/GPa)
#
#
# Indices 1 2 3 4 5 6 
#
# 1 0.008327 -0.004040 -0.002863 0.000000 0.000380 0.000000
# 2 -0.004040 0.023697 -0.006840 0.000000 -0.004109 0.000000
# 3 -0.002863 -0.006840 0.013586 0.000000 0.004667 0.000000
# 4 0.000000 0.000000 0.000000 0.061598 0.000000 -0.007708
# 5 0.000380 -0.004109 0.004667 0.000000 0.029027 0.000000
# 6 0.000000 0.000000 0.000000 -0.007708 0.000000 0.038262
#
#
# Mechanical properties :
#
#
# Convention : Reuss Voigt Hill
#
# Bulk Modulus (GPa) = 55.17103 67.96856 61.56979
# Shear Modulus (GPa) = 24.03575 28.87853 26.45714
#
# Velocity S-wave (km/s) = 3.41947 3.74816 3.58758
# Velocity P-wave (km/s) = 6.51381 7.19699 6.86391
#
# Compressibility (1/GPa) = 0.01812546
#
# Stress axis : x y z
#
# Youngs Moduli (GPa) = 120.09245 42.19963 73.60473
#
# Poissons Ratio (x) = 0.17048 0.21071
# Poissons Ratio (y) = 0.48515 0.50343
# Poissons Ratio (z) = 0.34379 0.28863
#
# Static dielectric constant tensor:
#      x y z
#    x 3.916440 0.000000 0.009110 
#    y 0.000000 3.475870 0.000000 
#    z 0.009110 0.000000 3.781890 
# 
# 
# High freq. dielectric constant tensor:
#      x y z
#    x 1.823810 0.000000 -0.002600 
#    y 0.000000 1.789250 0.000000 
#    z -0.002600 0.000000 1.805990 
# 
# From -- ./inp_files/63910.got.cif
#   From: 2010.06.25/outbox.cif.g09.slc.cpg/sg10_32_cif.got.tgz:63910.got - 2010.06.27 22:07:45.
