data_PCOD8064152
_publ_section_title
;
Structure prediction by ZEFSAII (Michael W. Deem and Ramdas Pophale) SiO2 
 PCOD8064152
Probable space group: P 2/M
;
_chemical_formula_sum "Si O2"
_cell_formula_units_Z 32
_cell_length_a 14.795389
_cell_length_b 9.068734
_cell_length_c 11.768858
_cell_angle_alpha 90.000000
_cell_angle_beta 93.309898
_cell_angle_gamma 90.000000
_cell_volume 1576.457636
_symmetry_space_group_name_H-M "P 2/M"
_symmetry_group_IT_number 10
_symmetry_cell_setting 'monoclinic'
loop_
_space_group_symop_operation_xyz
x,y,z
-x,y,-z
-x,-y,-z
x,-y,z
loop_
_atom_site_type_symbol
_atom_site_label
_atom_site_fract_x
_atom_site_fract_y
_atom_site_fract_z
Si Si1 0.486922 0.674180 0.367287
Si Si2 0.338252 0.169544 0.211914
Si Si3 0.177941 0.673940 0.573097
Si Si4 0.333734 0.674557 0.747444
Si Si5 0.169463 0.167246 0.347788
Si Si6 0.966054 0.168715 0.305060
Si Si7 0.720848 0.324631 0.007397
Si Si8 0.093143 0.171191 0.949878
O O1 0.500000 0.717549 0.500000
O O2 0.471269 0.500000 0.353926
O O3 0.400730 0.758782 0.312513
O O4 0.572222 0.729774 0.299294
O O5 0.234967 0.183533 0.245500
O O6 0.366510 0.000000 0.195058
O O7 0.344723 0.257184 0.093655
O O8 0.175764 0.500000 0.574632
O O9 0.252158 0.738532 0.665597
O O10 0.204248 0.727157 0.449954
O O11 0.079266 0.734316 0.599772
O O12 0.330139 0.500000 0.742230
O O13 0.321627 0.729057 0.875904
O O14 0.070277 0.215802 0.298190
O O15 0.169183 0.000000 0.393691
O O16 0.913847 0.197287 0.184567
O O17 0.958451 0.000000 0.342553
O O18 0.721697 0.500000 0.996879
O O19 0.822851 0.265907 0.999038
O O20 0.109904 0.000000 0.982288
O O21 0.000000 0.226628 0.000000
#
# Coordination Sequence:
#
# PCOD8064152 Si02
#       8
#     4   4   4   4   4   4   4   4
#     4  10  21  41  68  93 119 156 199 241 297 367
#     4  11  24  42  62  88 122 155 196 250 301 355
#     4  11  21  36  58  86 119 152 196 248 295 348
#     4   9  20  38  60  87 121 157 193 244 304 357
#     4  10  22  39  57  80 116 159 197 239 298 359
#     4  10  20  35  55  80 114 157 200 239 292 358
#     4  11  22  39  61  86 120 159 202 248 298 358
#     4  10  20  36  58  83 116 161 208 251 297 351
#
# _framework density 20.298674999999999
#
# number of rings (size 3 to 8) (size 9 to 14) (size 15 to 20)
#    0.000    1.750    1.250    3.000    0.000    7.000 
#    0.000    6.250    0.000    0.000    0.000    0.000 
#    0.000    0.000    0.000    0.000    0.000    0.000 
#
# Total GULP energy -396917.359682 kJ/mol
# GULP energy per Si atom -12403.667490 kJ/mol
# Density = 2.025247 g / cm^3
# Si number density = 20.298675 Si / 1000 Ang^3
#
#
#
# Elastic Constant Matrix: (Units=GPa)
#
#
# Indices 1 2 3 4 5 6 
#
# 1 97.4624 33.9806 37.6864 0.0000 1.7318 0.0000
# 2 33.9806 73.9282 47.6175 0.0000 7.8679 0.0000
# 3 37.6864 47.6175 115.9459 0.0000 8.4023 0.0000
# 4 0.0000 0.0000 0.0000 31.3961 0.0000 3.8955
# 5 1.7318 7.8679 8.4023 0.0000 38.4878 0.0000
# 6 0.0000 0.0000 0.0000 3.8955 0.0000 28.8501
#
#
#
# Elastic Compliance Matrix: (Units=1/GPa)
#
#
# Indices 1 2 3 4 5 6 
#
# 1 0.012699 -0.004390 -0.002386 0.000000 0.000847 0.000000
# 2 -0.004390 0.020085 -0.006644 0.000000 -0.002458 0.000000
# 3 -0.002386 -0.006644 0.012216 0.000000 -0.001201 0.000000
# 4 0.000000 0.000000 0.000000 0.032394 0.000000 -0.004374
# 5 0.000847 -0.002458 -0.001201 0.000000 0.026709 0.000000
# 6 0.000000 0.000000 0.000000 -0.004374 0.000000 0.035253
#
#
# Mechanical properties :
#
#
# Convention : Reuss Voigt Hill
#
# Bulk Modulus (GPa) = 55.06563 58.43395 56.74979
# Shear Modulus (GPa) = 29.02794 30.95025 29.98910
#
# Velocity S-wave (km/s) = 3.78569 3.90903 3.84786
# Velocity P-wave (km/s) = 6.80406 7.01595 6.91082
#
# Compressibility (1/GPa) = 0.01816015
#
# Stress axis : x y z
#
# Youngs Moduli (GPa) = 78.74933 49.78737 81.86155
#
# Poissons Ratio (x) = 0.21858 0.19531
# Poissons Ratio (y) = 0.34573 0.54387
# Poissons Ratio (z) = 0.18788 0.33077
#
# Static dielectric constant tensor:
#      x y z
#    x 3.714560 0.000000 -0.023630 
#    y 0.000000 3.460640 0.000000 
#    z -0.023630 0.000000 3.788340 
# 
# 
# High freq. dielectric constant tensor:
#      x y z
#    x 1.795000 0.000000 0.000330 
#    y 0.000000 1.774240 0.000000 
#    z 0.000330 0.000000 1.805640 
# 
# From -- ./inp_files/49942.got.cif
#   From: 2010.06.25/outbox.cif.g09.slc.cpg/sg10_25_cif.got.tgz:49942.got - 2010.06.27 22:07:45.
