data_PCOD8064968
_publ_section_title
;
Structure prediction by ZEFSAII (Michael W. Deem and Ramdas Pophale) SiO2 
 PCOD8064968
Probable space group: P 2/M
;
_chemical_formula_sum "Si O2"
_cell_formula_units_Z 28
_cell_length_a 14.974728
_cell_length_b 9.803017
_cell_length_c 19.684176
_cell_angle_alpha 90.000000
_cell_angle_beta 147.890029
_cell_angle_gamma 90.000000
_cell_volume 1535.948969
_symmetry_space_group_name_H-M "P 2/M"
_symmetry_group_IT_number 10
_symmetry_cell_setting 'monoclinic'
loop_
_space_group_symop_operation_xyz
x,y,z
-x,y,-z
-x,-y,-z
x,-y,z
loop_
_atom_site_type_symbol
_atom_site_label
_atom_site_fract_x
_atom_site_fract_y
_atom_site_fract_z
Si Si1 0.472225 0.853182 0.904170
Si Si2 0.602685 0.654773 0.635622
Si Si3 0.810416 0.650010 0.304897
Si Si4 0.181785 0.347608 0.530025
Si Si5 0.987622 0.656661 0.912761
Si Si6 0.277184 0.841832 0.047168
Si Si7 0.468723 0.839926 0.666632
O O1 0.315274 0.757089 0.805152
O O2 0.631989 0.796145 0.964726
O O3 0.428003 0.000000 0.841191
O O4 0.500000 0.878696 0.000000
O O5 0.500000 0.678577 0.500000
O O6 0.568101 0.500000 0.639562
O O7 0.803985 0.675665 0.760505
O O8 0.540620 0.769489 0.646514
O O9 0.744923 0.500000 0.243545
O O10 0.816784 0.666613 0.388963
O O11 0.989347 0.674818 0.383875
O O12 0.243706 0.500000 0.548191
O O13 0.290558 0.229533 0.566524
O O14 0.046765 0.500000 0.944784
O O15 0.000000 0.701722 0.000000
O O16 0.112147 0.750477 0.949351
O O17 0.405943 0.811673 0.190879
O O18 0.221713 0.000000 0.010239
O O19 0.441866 0.000000 0.635904
#
# Coordination Sequence:
#
# PCOD8064968 Si02
#       7
#     4   4   4   4   4   4   4
#     4  10  21  38  56  76 112 155 190 230 285 341
#     4  10  22  41  61  82 115 152 183 228 291 343
#     4   9  18  33  54  79 106 139 182 230 276 324
#     4   9  18  33  54  80 109 140 177 227 281 326
#     4  10  20  36  61  89 111 143 192 235 278 340
#     4  10  21  36  56  84 113 147 189 235 285 332
#     4  11  21  34  57  86 112 143 188 233 278 337
#
# _framework density 18.229771
#
# number of rings (size 3 to 8) (size 9 to 14) (size 15 to 20)
#    0.000    2.143    2.857    1.286    0.000    3.143 
#    2.571    1.429    0.000    0.000    0.000    0.000 
#    0.000    0.000    0.000    0.000    0.000    0.000 
#
# Total GULP energy -347031.172368 kJ/mol
# GULP energy per Si atom -12393.970442 kJ/mol
# Density = 1.818828 g / cm^3
# Si number density = 18.229771 Si / 1000 Ang^3
#
#
#
# Elastic Constant Matrix: (Units=GPa)
#
#
# Indices 1 2 3 4 5 6 
#
# 1 96.4696 60.3126 41.0771 0.0000 7.3446 0.0000
# 2 60.3126 122.0823 53.7143 0.0000 16.2637 0.0000
# 3 41.0771 53.7143 86.8236 0.0000 4.3812 0.0000
# 4 0.0000 0.0000 0.0000 31.7880 0.0000 10.0019
# 5 7.3446 16.2637 4.3812 0.0000 20.6819 0.0000
# 6 0.0000 0.0000 0.0000 10.0019 0.0000 37.9027
#
#
#
# Elastic Compliance Matrix: (Units=1/GPa)
#
#
# Indices 1 2 3 4 5 6 
#
# 1 0.015791 -0.006209 -0.003632 0.000000 0.000044 0.000000
# 2 -0.006209 0.014961 -0.005899 0.000000 -0.008311 0.000000
# 3 -0.003632 -0.005899 0.016765 0.000000 0.002377 0.000000
# 4 0.000000 0.000000 0.000000 0.034307 0.000000 -0.009053
# 5 0.000044 -0.008311 0.002377 0.000000 0.054367 0.000000
# 6 0.000000 0.000000 0.000000 -0.009053 0.000000 0.028772
#
#
# Mechanical properties :
#
#
# Convention : Reuss Voigt Hill
#
# Bulk Modulus (GPa) = 62.35273 68.39817 65.37545
# Shear Modulus (GPa) = 24.77823 28.09262 26.43543
#
# Velocity S-wave (km/s) = 3.69076 3.92985 3.81218
# Velocity P-wave (km/s) = 7.24157 7.62844 7.43752
#
# Compressibility (1/GPa) = 0.01603779
#
# Stress axis : x y z
#
# Youngs Moduli (GPa) = 63.32722 66.83878 59.64703
#
# Poissons Ratio (x) = 0.41502 0.21662
# Poissons Ratio (y) = 0.39322 0.35186
# Poissons Ratio (z) = 0.22998 0.39428
#
# Static dielectric constant tensor:
#      x y z
#    x 3.318010 0.000000 0.127160 
#    y 0.000000 8.676050 0.000000 
#    z 0.127160 0.000000 3.146210 
# 
# 
# High freq. dielectric constant tensor:
#      x y z
#    x 1.699960 0.000000 0.012620 
#    y 0.000000 1.714720 0.000000 
#    z 0.012620 0.000000 1.696790 
# 
# From -- ./inp_files/84960.got.cif
#   From: 2010.06.25/outbox.cif.g09.slc.cpg/sg10_43_cif.got.tgz:84960.got - 2010.06.27 22:07:45.
