data_PCOD8064905
_publ_section_title
;
Structure prediction by ZEFSAII (Michael W. Deem and Ramdas Pophale) SiO2 
 PCOD8064905
Probable space group: P 2/M
;
_chemical_formula_sum "Si O2"
_cell_formula_units_Z 28
_cell_length_a 17.231922
_cell_length_b 9.308963
_cell_length_c 11.059791
_cell_angle_alpha 90.000000
_cell_angle_beta 52.032509
_cell_angle_gamma 90.000000
_cell_volume 1398.641775
_symmetry_space_group_name_H-M "P 2/M"
_symmetry_group_IT_number 10
_symmetry_cell_setting 'monoclinic'
loop_
_space_group_symop_operation_xyz
x,y,z
-x,y,-z
-x,-y,-z
x,-y,z
loop_
_atom_site_type_symbol
_atom_site_label
_atom_site_fract_x
_atom_site_fract_y
_atom_site_fract_z
Si Si1 0.260823 0.167660 0.208253
Si Si2 0.599380 0.838076 0.346983
Si Si3 0.548602 0.839321 0.120563
Si Si4 0.050049 0.831154 0.328608
Si Si5 0.251583 0.336033 0.658369
Si Si6 0.353479 0.337168 0.311936
Si Si7 0.051538 0.170113 0.823001
O O1 0.165163 0.211092 0.222164
O O2 0.264067 0.255761 0.330057
O O3 0.256690 0.000000 0.243376
O O4 0.359307 0.214146 0.045132
O O5 0.500000 0.773258 0.500000
O O6 0.587893 0.838692 0.216761
O O7 0.693914 0.739952 0.282425
O O8 0.617549 0.000000 0.379763
O O9 0.457738 0.735780 0.184123
O O10 0.515230 0.000000 0.115328
O O11 0.000000 0.766982 0.500000
O O12 0.008175 0.774861 0.239342
O O13 0.033260 0.000000 0.346224
O O14 0.225032 0.500000 0.716921
O O15 0.330099 0.328363 0.475260
O O16 0.154262 0.250932 0.717937
O O17 0.358854 0.500000 0.260949
O O18 0.069223 0.000000 0.800872
O O19 0.000000 0.211692 0.000000
#
# Coordination Sequence:
#
# PCOD8064905 Si02
#       7
#     4   4   4   4   4   4   4
#     4  10  21  36  59  85 114 148 189 241 295 349
#     4  10  20  36  60  87 114 150 195 242 289 345
#     4  10  21  36  57  86 117 149 190 242 296 346
#     4   9  18  35  59  87 115 147 190 241 294 347
#     4  11  24  39  58  84 119 159 195 235 289 353
#     4  11  23  38  56  82 118 157 196 235 280 347
#     4  10  22  39  64  92 117 149 196 253 302 347
#
# _framework density 20.019421000000001
#
# number of rings (size 3 to 8) (size 9 to 14) (size 15 to 20)
#    0.000    1.857    1.429    2.143    2.000    6.286 
#    0.000    0.714    0.000    2.571    0.000    0.000 
#    0.000    0.000    0.000    0.000    0.000    0.000 
#
# Total GULP energy -347147.703483 kJ/mol
# GULP energy per Si atom -12398.132267 kJ/mol
# Density = 1.997386 g / cm^3
# Si number density = 20.019421 Si / 1000 Ang^3
#
#
#
# Elastic Constant Matrix: (Units=GPa)
#
#
# Indices 1 2 3 4 5 6 
#
# 1 155.9375 56.4803 42.6908 0.0000 -2.7382 0.0000
# 2 56.4803 69.6116 30.3531 0.0000 -12.1273 0.0000
# 3 42.6908 30.3531 80.7361 0.0000 2.5071 0.0000
# 4 0.0000 0.0000 0.0000 21.2577 0.0000 15.9839
# 5 -2.7382 -12.1273 2.5071 0.0000 35.6225 0.0000
# 6 0.0000 0.0000 0.0000 15.9839 0.0000 22.7708
#
#
#
# Elastic Compliance Matrix: (Units=1/GPa)
#
#
# Indices 1 2 3 4 5 6 
#
# 1 0.009569 -0.006978 -0.002391 0.000000 -0.001472 0.000000
# 2 -0.006978 0.023817 -0.005512 0.000000 0.007960 0.000000
# 3 -0.002391 -0.005512 0.015821 0.000000 -0.003174 0.000000
# 4 0.000000 0.000000 0.000000 0.099623 0.000000 -0.069930
# 5 -0.001472 0.007960 -0.003174 0.000000 0.030892 0.000000
# 6 0.000000 0.000000 0.000000 -0.069930 0.000000 0.093003
#
#
# Mechanical properties :
#
#
# Convention : Reuss Voigt Hill
#
# Bulk Modulus (GPa) = 51.42338 62.81486 57.11912
# Shear Modulus (GPa) = 16.18297 27.71427 21.94862
#
# Velocity S-wave (km/s) = 2.84626 3.72475 3.31473
# Velocity P-wave (km/s) = 6.04517 7.06706 6.57600
#
# Compressibility (1/GPa) = 0.01944641
#
# Stress axis : x y z
#
# Youngs Moduli (GPa) = 104.50621 41.98705 63.20787
#
# Poissons Ratio (x) = 0.29298 0.15111
# Poissons Ratio (y) = 0.72922 0.34838
# Poissons Ratio (z) = 0.24984 0.23142
#
# Static dielectric constant tensor:
#      x y z
#    x 3.782430 0.000000 0.182200 
#    y 0.000000 3.525550 0.000000 
#    z 0.182200 0.000000 3.892000 
# 
# 
# High freq. dielectric constant tensor:
#      x y z
#    x 1.796300 0.000000 0.005010 
#    y 0.000000 1.753860 0.000000 
#    z 0.005010 0.000000 1.784080 
# 
# From -- ./inp_files/49569.got.cif
#   From: 2010.06.25/outbox.cif.g09.slc.cpg/sg10_25_cif.got.tgz:49569.got - 2010.06.27 22:07:45.
