data_PCOD8064734
_publ_section_title
;
Structure prediction by ZEFSAII (Michael W. Deem and Ramdas Pophale) SiO2 
 PCOD8064734
Probable space group: P 2/M
;
_chemical_formula_sum "Si O2"
_cell_formula_units_Z 28
_cell_length_a 9.761941
_cell_length_b 8.871898
_cell_length_c 27.190875
_cell_angle_alpha 90.000000
_cell_angle_beta 38.167595
_cell_angle_gamma 90.000000
_cell_volume 1455.254539
_symmetry_space_group_name_H-M "P 2/M"
_symmetry_group_IT_number 10
_symmetry_cell_setting 'monoclinic'
loop_
_space_group_symop_operation_xyz
x,y,z
-x,y,-z
-x,-y,-z
x,-y,z
loop_
_atom_site_type_symbol
_atom_site_label
_atom_site_fract_x
_atom_site_fract_y
_atom_site_fract_z
Si Si1 0.774940 0.825283 0.829420
Si Si2 0.021684 0.177391 0.857738
Si Si3 0.756096 0.675422 0.567027
Si Si4 0.506507 0.320803 0.265928
Si Si5 0.712857 0.324582 0.469056
Si Si6 0.625436 0.331421 0.015829
Si Si7 0.143602 0.175723 0.304064
O O1 0.942845 0.772566 0.825187
O O2 0.540854 0.738174 0.897063
O O3 0.887597 0.791734 0.745160
O O4 0.718915 0.000000 0.852637
O O5 0.247933 0.258290 0.807656
O O6 0.054926 0.000000 0.851977
O O7 0.844082 0.229478 0.948752
O O8 0.782373 0.500000 0.571578
O O9 0.598900 0.744106 0.653498
O O10 0.652079 0.704461 0.543024
O O11 0.000000 0.750907 0.500000
O O12 0.515555 0.500000 0.262192
O O13 0.359731 0.263059 0.262002
O O14 0.500000 0.265486 0.500000
O O15 0.762113 0.500000 0.444748
O O16 0.926883 0.231544 0.393400
O O17 0.692918 0.500000 0.013122
O O18 0.500000 0.333470 0.000000
O O19 0.176471 0.000000 0.305235
#
# Coordination Sequence:
#
# PCOD8064734 Si02
#       7
#     4   4   4   4   4   4   4
#     4   9  20  37  57  81 114 152 184 223 278 334
#     4  10  20  36  58  84 114 147 184 225 277 335
#     4   9  17  34  56  78 106 142 183 228 277 325
#     4  11  22  37  58  82 112 147 189 235 277 327
#     4  10  21  37  58  82 109 144 187 232 280 330
#     4   9  17  32  56  86 114 142 183 229 273 324
#     4  11  23  39  56  80 116 152 186 227 279 333
#
# _framework density 19.240618999999999
#
# number of rings (size 3 to 8) (size 9 to 14) (size 15 to 20)
#    0.000    2.143    1.429    1.714    2.000    3.714 
#    0.000    2.857    0.000    4.286    0.000    0.000 
#    0.000    0.000    0.000    0.000    0.000    0.000 
#
# Total GULP energy -347223.720962 kJ/mol
# GULP energy per Si atom -12400.847177 kJ/mol
# Density = 1.919683 g / cm^3
# Si number density = 19.240619 Si / 1000 Ang^3
#
#
#
# Elastic Constant Matrix: (Units=GPa)
#
#
# Indices 1 2 3 4 5 6 
#
# 1 84.7384 26.9495 19.3163 0.0000 -21.0477 0.0000
# 2 26.9495 72.9865 26.8931 0.0000 -8.7636 0.0000
# 3 19.3163 26.8931 67.4911 0.0000 -17.5872 0.0000
# 4 0.0000 0.0000 0.0000 27.3942 0.0000 -5.3689
# 5 -21.0477 -8.7636 -17.5872 0.0000 32.3375 0.0000
# 6 0.0000 0.0000 0.0000 -5.3689 0.0000 24.0353
#
#
#
# Elastic Compliance Matrix: (Units=1/GPa)
#
#
# Indices 1 2 3 4 5 6 
#
# 1 0.015476 -0.004541 -0.000368 0.000000 0.008642 0.000000
# 2 -0.004541 0.017420 -0.006037 0.000000 -0.001518 0.000000
# 3 -0.000368 -0.006037 0.019620 0.000000 0.008795 0.000000
# 4 0.000000 0.000000 0.000000 0.038175 0.000000 0.008527
# 5 0.008642 -0.001518 0.008795 0.000000 0.040921 0.000000
# 6 0.000000 0.000000 0.000000 0.008527 0.000000 0.043510
#
#
# Mechanical properties :
#
#
# Convention : Reuss Voigt Hill
#
# Bulk Modulus (GPa) = 32.65518 41.28154 36.96836
# Shear Modulus (GPa) = 24.12879 26.89054 25.50966
#
# Velocity S-wave (km/s) = 3.54511 3.74249 3.64514
# Velocity P-wave (km/s) = 5.81084 6.33853 6.08041
#
# Compressibility (1/GPa) = 0.03062302
#
# Stress axis : x y z
#
# Youngs Moduli (GPa) = 64.61788 57.40473 50.96958
#
# Poissons Ratio (x) = 0.26068 0.01874
# Poissons Ratio (y) = 0.29343 0.30772
# Poissons Ratio (z) = 0.02376 0.34657
#
# Static dielectric constant tensor:
#      x y z
#    x 3.477030 0.000000 0.018260 
#    y 0.000000 3.444050 0.000000 
#    z 0.018260 0.000000 3.607870 
# 
# 
# High freq. dielectric constant tensor:
#      x y z
#    x 1.738200 0.000000 -0.002020 
#    y 0.000000 1.738730 0.000000 
#    z -0.002020 0.000000 1.753590 
# 
# From -- ./inp_files/91941.got.cif
#   From: 2010.06.25/outbox.cif.g09.slc.cpg/sg10_46_cif.got.tgz:91941.got - 2010.06.27 22:07:45.
