data_PCOD8064380
_publ_section_title
;
Structure prediction by ZEFSAII (Michael W. Deem and Ramdas Pophale) SiO2 
 PCOD8064380
Probable space group: P 2/M
;
_chemical_formula_sum "Si O2"
_cell_formula_units_Z 28
_cell_length_a 14.338840
_cell_length_b 8.540364
_cell_length_c 13.147206
_cell_angle_alpha 90.000000
_cell_angle_beta 57.166221
_cell_angle_gamma 90.000000
_cell_volume 1352.791560
_symmetry_space_group_name_H-M "P 2/M"
_symmetry_group_IT_number 10
_symmetry_cell_setting 'monoclinic'
loop_
_space_group_symop_operation_xyz
x,y,z
-x,y,-z
-x,-y,-z
x,-y,z
loop_
_atom_site_type_symbol
_atom_site_label
_atom_site_fract_x
_atom_site_fract_y
_atom_site_fract_z
Si Si1 0.819211 0.320485 0.774524
Si Si2 0.392166 0.680483 0.782985
Si Si3 0.393351 0.817813 0.998839
Si Si4 0.621111 0.320094 0.548589
Si Si5 0.755536 0.182074 0.290280
Si Si6 0.939501 0.318595 0.312348
Si Si7 0.198599 0.817728 0.429927
O O1 0.812414 0.500000 0.742565
O O2 0.713256 0.279747 0.904301
O O3 0.829368 0.211004 0.670515
O O4 0.928838 0.293011 0.778528
O O5 0.385490 0.500000 0.820435
O O6 0.491888 0.710457 0.644662
O O7 0.279330 0.730483 0.792908
O O8 0.414551 0.785807 0.868057
O O9 0.370521 0.000000 0.031256
O O10 0.500000 0.761863 0.000000
O O11 0.642185 0.500000 0.506092
O O12 0.664913 0.212740 0.431517
O O13 0.689078 0.276530 0.610050
O O14 0.876447 0.242316 0.253748
O O15 0.762091 0.000000 0.262636
O O16 0.906934 0.500000 0.336735
O O17 0.902204 0.239184 0.439897
O O18 0.219014 0.000000 0.437044
#
# Coordination Sequence:
#
# PCOD8064380 Si02
#       7
#     4   4   4   4   4   4   4
#     4  11  23  39  60  84 113 153 195 236 284 338
#     4  11  23  39  60  84 114 154 196 236 281 337
#     4  11  25  43  63  88 117 148 186 235 286 336
#     4  10  20  35  57  85 118 155 193 234 283 341
#     4  11  22  36  58  87 119 152 188 236 289 339
#     4  10  21  38  59  84 116 152 192 236 283 340
#     4  11  21  33  55  87 121 154 189 235 288 340
#
# _framework density 20.697941
#
# number of rings (size 3 to 8) (size 9 to 14) (size 15 to 20)
#    0.000    1.286    0.000    8.143    0.000   11.429 
#    0.000    0.714    0.000    4.286    0.000    0.000 
#    0.000    0.000    0.000    0.000    0.000    0.000 
#
# Total GULP energy -347340.972437 kJ/mol
# GULP energy per Si atom -12405.034730 kJ/mol
# Density = 2.065083 g / cm^3
# Si number density = 20.697941 Si / 1000 Ang^3
#
#
#
# Elastic Constant Matrix: (Units=GPa)
#
#
# Indices 1 2 3 4 5 6 
#
# 1 137.8088 30.6116 40.9553 0.0000 -0.6478 0.0000
# 2 30.6116 76.4998 15.3194 0.0000 -10.1333 0.0000
# 3 40.9553 15.3194 47.4088 0.0000 -2.6039 0.0000
# 4 0.0000 0.0000 0.0000 27.0959 0.0000 10.3656
# 5 -0.6478 -10.1333 -2.6039 0.0000 35.4704 0.0000
# 6 0.0000 0.0000 0.0000 10.3656 0.0000 19.6439
#
#
#
# Elastic Compliance Matrix: (Units=1/GPa)
#
#
# Indices 1 2 3 4 5 6 
#
# 1 0.010228 -0.002634 -0.008048 0.000000 -0.001157 0.000000
# 2 -0.002634 0.015149 -0.002394 0.000000 0.004104 0.000000
# 3 -0.008048 -0.002394 0.028890 0.000000 0.001290 0.000000
# 4 0.000000 0.000000 0.000000 0.046240 0.000000 -0.024400
# 5 -0.001157 0.004104 0.001290 0.000000 0.029439 0.000000
# 6 0.000000 0.000000 0.000000 -0.024400 0.000000 0.063782
#
#
# Mechanical properties :
#
#
# Convention : Reuss Voigt Hill
#
# Bulk Modulus (GPa) = 35.56899 48.38780 41.97840
# Shear Modulus (GPa) = 21.81014 28.09745 24.95379
#
# Velocity S-wave (km/s) = 3.24965 3.68842 3.47597
# Velocity P-wave (km/s) = 5.59485 6.44733 6.03616
#
# Compressibility (1/GPa) = 0.02811438
#
# Stress axis : x y z
#
# Youngs Moduli (GPa) = 97.77167 66.01052 34.61408
#
# Poissons Ratio (x) = 0.17389 0.27857
# Poissons Ratio (y) = 0.25756 0.08287
# Poissons Ratio (z) = 0.78686 0.15803
#
# Static dielectric constant tensor:
#      x y z
#    x 3.958180 0.000000 -0.039970 
#    y 0.000000 3.757430 0.000000 
#    z -0.039970 0.000000 3.385410 
# 
# 
# High freq. dielectric constant tensor:
#      x y z
#    x 1.825840 0.000000 0.000980 
#    y 0.000000 1.821380 0.000000 
#    z 0.000980 0.000000 1.780310 
# 
# From -- ./inp_files/65931.got.cif
#   From: 2010.06.25/outbox.cif.g09.slc.cpg/sg10_33_cif.got.tgz:65931.got - 2010.06.27 22:07:45.
