data_PCOD8064451
_publ_section_title
;
Structure prediction by ZEFSAII (Michael W. Deem and Ramdas Pophale) SiO2 
 PCOD8064451
Probable space group: P 2/M
;
_chemical_formula_sum "Si O2"
_cell_formula_units_Z 24
_cell_length_a 20.361405
_cell_length_b 14.032610
_cell_length_c 12.064973
_cell_angle_alpha 90.000000
_cell_angle_beta 159.925257
_cell_angle_gamma 90.000000
_cell_volume 1183.253089
_symmetry_space_group_name_H-M "P 2/M"
_symmetry_group_IT_number 10
_symmetry_cell_setting 'monoclinic'
loop_
_space_group_symop_operation_xyz
x,y,z
-x,y,-z
-x,-y,-z
x,-y,z
loop_
_atom_site_type_symbol
_atom_site_label
_atom_site_fract_x
_atom_site_fract_y
_atom_site_fract_z
Si Si1 0.662782 0.698773 0.530377
Si Si2 0.220236 0.000000 0.826927
Si Si3 0.722112 0.000000 0.339879
Si Si4 0.803901 0.500000 0.015999
Si Si5 0.634236 0.178842 0.812859
Si Si6 0.456855 0.500000 0.613908
Si Si7 0.283125 0.794176 0.614886
Si Si8 0.063006 0.300141 0.831512
O O1 0.476947 0.743390 0.292324
O O2 0.600389 0.590923 0.402678
O O3 0.731436 0.753361 0.530946
O O4 0.840443 0.699921 0.895107
O O5 0.000000 0.000000 0.500000
O O6 0.234580 0.000000 0.719659
O O7 0.321760 0.091617 0.038122
O O8 0.800917 0.902795 0.521123
O O9 0.500000 0.000000 0.000000
O O10 0.680921 0.500000 0.934827
O O11 0.660985 0.500000 0.686522
O O12 0.935531 0.405487 0.220227
O O13 0.500000 0.142712 0.500000
O O14 0.829388 0.225916 0.078122
O O15 0.155891 0.732789 0.499105
O O16 0.500000 0.790855 0.000000
#
# Coordination Sequence:
#
# PCOD8064451 Si02
#       8
#     4   2   2   2   4   2   4   4
#     4  10  20  36  61  88 115 148 192 238 284 341
#     4  12  23  37  58  83 112 153 196 234 283 352
#     4  10  22  41  59  75 105 159 201 230 276 342
#     4   9  16  33  61  88 118 150 185 228 285 354
#     4  10  20  35  58  88 116 142 185 247 296 331
#     4   9  16  33  61  90 114 150 189 230 285 344
#     4  11  23  40  58  81 115 156 200 237 282 341
#     4  10  20  36  60  89 117 148 188 236 290 339
#
# _framework density 20.283066000000002
#
# number of rings (size 3 to 8) (size 9 to 14) (size 15 to 20)
#    0.000    1.833    1.667    3.750    0.000    0.667 
#    0.000    7.500    0.000    1.000    0.000    0.000 
#    0.000    0.000    0.000    0.000    0.000    0.000 
#
# Total GULP energy -297595.875955 kJ/mol
# GULP energy per Si atom -12399.828165 kJ/mol
# Density = 2.023690 g / cm^3
# Si number density = 20.283066 Si / 1000 Ang^3
#
#
#
# Elastic Constant Matrix: (Units=GPa)
#
#
# Indices 1 2 3 4 5 6 
#
# 1 117.2470 58.6272 21.2918 0.0000 14.5113 0.0000
# 2 58.6272 164.2320 39.8001 0.0000 -2.5211 0.0000
# 3 21.2918 39.8001 52.9461 0.0000 24.2049 0.0000
# 4 0.0000 0.0000 0.0000 22.8888 0.0000 -1.2451
# 5 14.5113 -2.5211 24.2049 0.0000 31.6129 0.0000
# 6 0.0000 0.0000 0.0000 -1.2451 0.0000 51.1805
#
#
#
# Elastic Compliance Matrix: (Units=1/GPa)
#
#
# Indices 1 2 3 4 5 6 
#
# 1 0.011398 -0.004767 0.002409 0.000000 -0.007456 0.000000
# 2 -0.004767 0.010810 -0.011698 0.000000 0.012007 0.000000
# 3 0.002409 -0.011698 0.042532 0.000000 -0.034604 0.000000
# 4 0.000000 0.000000 0.000000 0.043747 0.000000 0.001064
# 5 -0.007456 0.012007 -0.034604 0.000000 0.062508 0.000000
# 6 0.000000 0.000000 0.000000 0.001064 0.000000 0.019565
#
#
# Mechanical properties :
#
#
# Convention : Reuss Voigt Hill
#
# Bulk Modulus (GPa) = 27.30267 63.76259 45.53263
# Shear Modulus (GPa) = 21.65614 35.45017 28.55315
#
# Velocity S-wave (km/s) = 3.27111 4.18517 3.75605
# Velocity P-wave (km/s) = 5.26848 7.40667 6.42712
#
# Compressibility (1/GPa) = 0.03662645
#
# Stress axis : x y z
#
# Youngs Moduli (GPa) = 87.73359 92.50751 23.51193
#
# Poissons Ratio (x) = 0.44099 -0.05663
# Poissons Ratio (y) = 0.41823 0.27505
# Poissons Ratio (z) = -0.21131 1.08217
#
# Static dielectric constant tensor:
#      x y z
#    x 3.707440 0.000000 0.076150 
#    y 0.000000 4.206260 0.000000 
#    z 0.076150 0.000000 3.520830 
# 
# 
# High freq. dielectric constant tensor:
#      x y z
#    x 1.796040 0.000000 0.017630 
#    y 0.000000 1.808660 0.000000 
#    z 0.017630 0.000000 1.767370 
# 
# From -- ./inp_files/56077.got.cif
#   From: 2010.06.25/outbox.cif.g09.slc.cpg/sg10_29_cif.got.tgz:56077.got - 2010.06.27 22:07:45.
