data_PCOD8064725
_publ_section_title
;
Structure prediction by ZEFSAII (Michael W. Deem and Ramdas Pophale) SiO2 
 PCOD8064725
Probable space group: P 2/M
;
_chemical_formula_sum "Si O2"
_cell_formula_units_Z 24
_cell_length_a 16.109440
_cell_length_b 8.608119
_cell_length_c 22.493987
_cell_angle_alpha 90.000000
_cell_angle_beta 22.741695
_cell_angle_gamma 90.000000
_cell_volume 1205.844973
_symmetry_space_group_name_H-M "P 2/M"
_symmetry_group_IT_number 10
_symmetry_cell_setting 'monoclinic'
loop_
_space_group_symop_operation_xyz
x,y,z
-x,y,-z
-x,-y,-z
x,-y,z
loop_
_atom_site_type_symbol
_atom_site_label
_atom_site_fract_x
_atom_site_fract_y
_atom_site_fract_z
Si Si1 0.465257 0.683993 0.112278
Si Si2 0.531216 0.317133 0.201105
Si Si3 0.821247 0.817787 0.796425
Si Si4 0.569082 0.821535 0.389712
Si Si5 0.961096 0.821929 0.960200
Si Si6 0.282436 0.317888 0.480072
O O1 0.436824 0.500000 0.126013
O O2 0.453899 0.743038 0.187808
O O3 0.269550 0.766087 0.207541
O O4 0.693085 0.730816 0.933342
O O5 0.524306 0.500000 0.207057
O O6 0.374569 0.253703 0.356355
O O7 0.775722 0.268708 0.049117
O O8 0.069808 0.775719 0.636969
O O9 0.788700 0.000000 0.826539
O O10 0.500000 0.763394 0.500000
O O11 0.824620 0.802711 0.219530
O O12 0.460418 0.713102 0.412440
O O13 0.500531 0.000000 0.423503
O O14 0.887714 0.000000 0.014834
O O15 0.000000 0.751180 0.000000
O O16 0.230462 0.500000 0.511374
#
# Coordination Sequence:
#
# PCOD8064725 Si02
#       6
#     4   4   4   4   4   4
#     4  10  21  41  64  89 118 152 193 239 292 351
#     4  10  23  39  60  88 118 154 196 240 289 346
#     4  11  23  40  62  89 119 153 193 241 292 347
#     4  10  22  39  57  84 119 155 196 241 290 343
#     4  10  20  36  58  83 116 156 193 236 288 341
#     4  11  23  40  60  86 119 157 196 241 292 344
#
# _framework density 19.903057
#
# number of rings (size 3 to 8) (size 9 to 14) (size 15 to 20)
#    0.000    1.667    1.667    3.500    2.333    4.000 
#    0.000    3.333    0.000    0.000    0.000    0.000 
#    0.000    0.000    0.000    0.000    0.000    0.000 
#
# Total GULP energy -297695.966300 kJ/mol
# GULP energy per Si atom -12403.998596 kJ/mol
# Density = 1.985776 g / cm^3
# Si number density = 19.903057 Si / 1000 Ang^3
#
#
#
# Elastic Constant Matrix: (Units=GPa)
#
#
# Indices 1 2 3 4 5 6 
#
# 1 85.3114 15.5138 17.3227 0.0000 20.9114 0.0000
# 2 15.5138 28.8470 5.4748 0.0000 3.1859 0.0000
# 3 17.3227 5.4748 75.5189 0.0000 7.3829 0.0000
# 4 0.0000 0.0000 0.0000 17.2702 0.0000 -16.2927
# 5 20.9114 3.1859 7.3829 0.0000 37.6740 0.0000
# 6 0.0000 0.0000 0.0000 -16.2927 0.0000 23.7484
#
#
#
# Elastic Compliance Matrix: (Units=1/GPa)
#
#
# Indices 1 2 3 4 5 6 
#
# 1 0.015273 -0.006961 -0.002271 0.000000 -0.007444 0.000000
# 2 -0.006961 0.038558 -0.001282 0.000000 0.000854 0.000000
# 3 -0.002271 -0.001282 0.013990 0.000000 -0.001373 0.000000
# 4 0.000000 0.000000 0.000000 0.164138 0.000000 0.112608
# 5 -0.007444 0.000854 -0.001373 0.000000 0.030872 0.000000
# 6 0.000000 0.000000 0.000000 0.112608 0.000000 0.119364
#
#
# Mechanical properties :
#
#
# Convention : Reuss Voigt Hill
#
# Bulk Modulus (GPa) = 21.37057 29.58885 25.47971
# Shear Modulus (GPa) = 11.93828 25.82958 18.88393
#
# Velocity S-wave (km/s) = 2.45178 3.60637 3.08359
# Velocity P-wave (km/s) = 4.33308 5.67802 5.05052
#
# Compressibility (1/GPa) = 0.04679332
#
# Stress axis : x y z
#
# Youngs Moduli (GPa) = 65.47338 25.93483 71.48065
#
# Poissons Ratio (x) = 0.18053 0.16234
# Poissons Ratio (y) = 0.45575 0.09165
# Poissons Ratio (z) = 0.14869 0.03325
#
# Static dielectric constant tensor:
#      x y z
#    x 3.787350 0.000000 0.215090 
#    y 0.000000 3.535540 0.000000 
#    z 0.215090 0.000000 3.706680 
# 
# 
# High freq. dielectric constant tensor:
#      x y z
#    x 1.781410 0.000000 0.005050 
#    y 0.000000 1.770600 0.000000 
#    z 0.005050 0.000000 1.783700 
# 
# From -- ./inp_files/90011.got.cif
#   From: 2010.06.25/outbox.cif.g09.slc.cpg/sg10_46_cif.got.tgz:90011.got - 2010.06.27 22:07:45.
