data_PCOD8064002
_publ_section_title
;
Structure prediction by ZEFSAII (Michael W. Deem and Ramdas Pophale) SiO2 
 PCOD8064002
Probable space group: P 2/M
;
_chemical_formula_sum "Si O2"
_cell_formula_units_Z 28
_cell_length_a 9.984180
_cell_length_b 7.652813
_cell_length_c 29.051632
_cell_angle_alpha 90.000000
_cell_angle_beta 140.079187
_cell_angle_gamma 90.000000
_cell_volume 1424.476230
_symmetry_space_group_name_H-M "P 2/M"
_symmetry_group_IT_number 10
_symmetry_cell_setting 'monoclinic'
loop_
_space_group_symop_operation_xyz
x,y,z
-x,y,-z
-x,-y,-z
x,-y,z
loop_
_atom_site_type_symbol
_atom_site_label
_atom_site_fract_x
_atom_site_fract_y
_atom_site_fract_z
Si Si1 0.809070 0.796067 0.182549
Si Si2 0.510624 0.798888 0.823553
Si Si3 0.424647 0.205387 0.696884
Si Si4 0.446410 0.707410 0.535516
Si Si5 0.717693 0.200904 0.693848
Si Si6 0.245459 0.500000 0.065355
Si Si7 0.557518 0.500000 0.068239
Si Si8 0.985701 0.701192 0.545939
O O1 0.707498 0.771437 0.206555
O O2 0.687312 0.675687 0.113918
O O3 0.046893 0.724528 0.246976
O O4 0.793610 0.000000 0.163262
O O5 0.490002 0.740491 0.765238
O O6 0.686862 0.675987 0.890937
O O7 0.584424 0.000000 0.846802
O O8 0.583274 0.287212 0.700422
O O9 0.193772 0.279361 0.629952
O O10 0.413649 0.000000 0.687810
O O11 0.500000 0.785523 0.500000
O O12 0.458410 0.500000 0.538620
O O13 0.605818 0.774713 0.615831
O O14 0.215051 0.784427 0.482527
O O15 0.739842 0.000000 0.711644
O O16 0.341227 0.500000 0.039454
O O17 0.000000 0.500000 0.000000
O O18 0.500000 0.500000 0.000000
O O19 0.932283 0.500000 0.524466
O O20 0.000000 0.794094 0.500000
#
# Coordination Sequence:
#
# PCOD8064002 Si02
#       8
#     4   4   4   4   4   2   2   4
#     4   9  20  39  59  84 118 152 187 230 276 330
#     4   9  20  39  59  85 118 151 187 228 278 332
#     4  10  21  35  54  79 107 144 188 232 283 336
#     4  10  22  37  50  74 106 143 188 236 285 335
#     4  10  21  36  54  78 108 143 188 235 280 332
#     4  10  22  40  62  92 120 148 186 224 272 334
#     4  10  22  40  62  92 118 150 188 221 274 334
#     4  10  20  35  51  73 106 142 185 234 288 332
#
# _framework density 19.656347
#
# number of rings (size 3 to 8) (size 9 to 14) (size 15 to 20)
#    0.000    2.286    1.429    0.000    4.000    2.857 
#    0.000    0.000    0.000    0.000    0.000    0.000 
#    0.000    0.000    0.000    0.000    0.000    0.000 
#
# Total GULP energy -347086.443655 kJ/mol
# GULP energy per Si atom -12395.944416 kJ/mol
# Density = 1.961161 g / cm^3
# Si number density = 19.656347 Si / 1000 Ang^3
#
#
#
# Elastic Constant Matrix: (Units=GPa)
#
#
# Indices 1 2 3 4 5 6 
#
# 1 172.2153 35.7214 108.8387 0.0000 2.6673 0.0000
# 2 35.7214 56.0774 40.0020 0.0000 0.4317 0.0000
# 3 108.8387 40.0020 150.3023 0.0000 7.3273 0.0000
# 4 0.0000 0.0000 0.0000 32.4440 0.0000 0.6231
# 5 2.6673 0.4317 7.3273 0.0000 47.6600 0.0000
# 6 0.0000 0.0000 0.0000 0.6231 0.0000 13.6657
#
#
#
# Elastic Compliance Matrix: (Units=1/GPa)
#
#
# Indices 1 2 3 4 5 6 
#
# 1 0.010837 -0.001593 -0.007451 0.000000 0.000553 0.000000
# 2 -0.001593 0.022269 -0.004804 0.000000 0.000626 0.000000
# 3 -0.007451 -0.004804 0.013405 0.000000 -0.001600 0.000000
# 4 0.000000 0.000000 0.000000 0.030849 0.000000 -0.001407
# 5 0.000553 0.000626 -0.001600 0.000000 0.021191 0.000000
# 6 0.000000 0.000000 0.000000 -0.001407 0.000000 0.073240
#
#
# Mechanical properties :
#
#
# Convention : Reuss Voigt Hill
#
# Bulk Modulus (GPa) = 53.14432 83.07990 68.11211
# Shear Modulus (GPa) = 24.30029 31.68948 27.99489
#
# Velocity S-wave (km/s) = 3.51986 4.01955 3.77797
# Velocity P-wave (km/s) = 6.60414 7.99377 7.33195
#
# Compressibility (1/GPa) = 0.01881669
#
# Stress axis : x y z
#
# Youngs Moduli (GPa) = 92.27423 44.90535 74.59857
#
# Poissons Ratio (x) = 0.07152 0.55581
# Poissons Ratio (y) = 0.14697 0.35836
# Poissons Ratio (z) = 0.68751 0.21572
#
# Static dielectric constant tensor:
#      x y z
#    x 4.077620 0.000000 0.063590 
#    y 0.000000 3.578600 0.000000 
#    z 0.063590 0.000000 3.325790 
# 
# 
# High freq. dielectric constant tensor:
#      x y z
#    x 1.781150 0.000000 0.003690 
#    y 0.000000 1.763770 0.000000 
#    z 0.003690 0.000000 1.749330 
# 
# From -- ./inp_files/37401.got.cif
#   From: 2010.06.25/outbox.cif.g09.slc.cpg/sg10_19_cif.got.tgz:37401.got - 2010.06.27 22:07:45.
