data_PCOD8064285
_publ_section_title
;
Structure prediction by ZEFSAII (Michael W. Deem and Ramdas Pophale) SiO2 
 PCOD8064285
Probable space group: P 2/M
;
_chemical_formula_sum "Si O2"
_cell_formula_units_Z 20
_cell_length_a 30.814545
_cell_length_b 7.684127
_cell_length_c 10.403827
_cell_angle_alpha 90.000000
_cell_angle_beta 25.470897
_cell_angle_gamma 90.000000
_cell_volume 1059.412206
_symmetry_space_group_name_H-M "P 2/M"
_symmetry_group_IT_number 10
_symmetry_cell_setting 'monoclinic'
loop_
_space_group_symop_operation_xyz
x,y,z
-x,y,-z
-x,-y,-z
x,-y,z
loop_
_atom_site_type_symbol
_atom_site_label
_atom_site_fract_x
_atom_site_fract_y
_atom_site_fract_z
Si Si1 0.156849 0.500000 0.149567
Si Si2 0.514772 0.203303 0.318488
Si Si3 0.050865 0.500000 0.162035
Si Si4 0.294612 0.801636 0.875580
Si Si5 0.916678 0.803205 0.120185
Si Si6 0.274873 0.302286 0.221119
O O1 0.116178 0.500000 0.115313
O O2 0.067785 0.500000 0.491731
O O3 0.221922 0.673545 0.993973
O O4 0.500000 0.280237 0.500000
O O5 0.410422 0.242961 0.521821
O O6 0.536594 0.000000 0.264457
O O7 0.617174 0.292957 0.991397
O O8 0.079041 0.674379 0.011162
O O9 0.267836 0.000000 0.908964
O O10 0.283608 0.785518 0.058341
O O11 0.806846 0.800220 0.477639
O O12 0.938891 0.000000 0.013159
O O13 0.000000 0.742352 0.000000
O O14 0.239012 0.500000 0.301303
#
# Coordination Sequence:
#
# PCOD8064285 Si02
#       6
#     2   4   2   4   4   4
#     4  11  24  40  60  79 109 147 189 233 270 323
#     4   8  16  29  48  80 118 147 178 221 274 332
#     4  11  25  42  57  83 111 144 187 231 277 322
#     4  10  20  35  56  85 117 149 185 225 273 329
#     4  11  23  39  61  85 113 146 181 225 280 336
#     4  11  19  30  56  88 118 147 179 227 284 333
#
# _framework density 18.878392999999999
#
# number of rings (size 3 to 8) (size 9 to 14) (size 15 to 20)
#    0.000    1.800    2.000    4.500    1.400    4.400 
#    0.000    2.000    0.000    2.400    0.000    4.200 
#    0.000    0.000    0.000    0.000    0.000    0.000 
#
# Total GULP energy -247931.955753 kJ/mol
# GULP energy per Si atom -12396.597788 kJ/mol
# Density = 1.883543 g / cm^3
# Si number density = 18.878393 Si / 1000 Ang^3
#
#
#
# Elastic Constant Matrix: (Units=GPa)
#
#
# Indices 1 2 3 4 5 6 
#
# 1 66.5629 40.0092 46.9166 0.0000 -15.0917 0.0000
# 2 40.0092 110.7779 34.7458 0.0000 -12.4848 0.0000
# 3 46.9166 34.7458 119.2968 0.0000 -22.5739 0.0000
# 4 0.0000 0.0000 0.0000 25.7047 0.0000 -9.8716
# 5 -15.0917 -12.4848 -22.5739 0.0000 27.7621 0.0000
# 6 0.0000 0.0000 0.0000 -9.8716 0.0000 19.3634
#
#
#
# Elastic Compliance Matrix: (Units=1/GPa)
#
#
# Indices 1 2 3 4 5 6 
#
# 1 0.024829 -0.006204 -0.007010 0.000000 0.005007 0.000000
# 2 -0.006204 0.011634 -0.000705 0.000000 0.001286 0.000000
# 3 -0.007010 -0.000705 0.012485 0.000000 0.006024 0.000000
# 4 0.000000 0.000000 0.000000 0.048374 0.000000 0.024662
# 5 0.005007 0.001286 0.006024 0.000000 0.044218 0.000000
# 6 0.000000 0.000000 0.000000 0.024662 0.000000 0.064217
#
#
# Mechanical properties :
#
#
# Convention : Reuss Voigt Hill
#
# Bulk Modulus (GPa) = 47.37484 59.99788 53.68636
# Shear Modulus (GPa) = 20.77862 26.23042 23.50452
#
# Velocity S-wave (km/s) = 3.32121 3.73157 3.53235
# Velocity P-wave (km/s) = 6.31320 7.10045 6.71836
#
# Compressibility (1/GPa) = 0.02110825
#
# Stress axis : x y z
#
# Youngs Moduli (GPa) = 40.27557 85.95544 80.09898
#
# Poissons Ratio (x) = 0.53330 0.56151
# Poissons Ratio (y) = 0.24988 0.05648
# Poissons Ratio (z) = 0.28234 0.06061
#
# Static dielectric constant tensor:
#      x y z
#    x 3.107740 0.000000 -0.386170 
#    y 0.000000 3.484160 0.000000 
#    z -0.386170 0.000000 3.722240 
# 
# 
# High freq. dielectric constant tensor:
#      x y z
#    x 1.686030 0.000000 -0.037500 
#    y 0.000000 1.748550 0.000000 
#    z -0.037500 0.000000 1.740960 
# 
# From -- ./inp_files/36636.got.cif
#   From: 2010.06.25/outbox.cif.g09.slc.cpg/sg10_19_cif.got.tgz:36636.got - 2010.06.27 22:07:45.
