data_PCOD8064674
_publ_section_title
;
Structure prediction by ZEFSAII (Michael W. Deem and Ramdas Pophale) SiO2 
 PCOD8064674
Probable space group: P 2/M
;
_chemical_formula_sum "Si O2"
_cell_formula_units_Z 28
_cell_length_a 12.481670
_cell_length_b 8.626673
_cell_length_c 14.889037
_cell_angle_alpha 90.000000
_cell_angle_beta 74.229499
_cell_angle_gamma 90.000000
_cell_volume 1542.834441
_symmetry_space_group_name_H-M "P 2/M"
_symmetry_group_IT_number 10
_symmetry_cell_setting 'monoclinic'
loop_
_space_group_symop_operation_xyz
x,y,z
-x,y,-z
-x,-y,-z
x,-y,z
loop_
_atom_site_type_symbol
_atom_site_label
_atom_site_fract_x
_atom_site_fract_y
_atom_site_fract_z
Si Si1 0.762672 0.178967 0.580480
Si Si2 0.085333 0.680748 0.095666
Si Si3 0.701005 0.680614 0.271410
Si Si4 0.871488 0.320068 0.387057
Si Si5 0.145235 0.818895 0.901928
Si Si6 0.899686 0.178830 0.722476
Si Si7 0.510913 0.819206 0.599776
O O1 0.829459 0.286355 0.496583
O O2 0.806254 0.215277 0.669923
O O3 0.632856 0.220275 0.608481
O O4 0.782719 0.000000 0.549022
O O5 0.098000 0.500000 0.074050
O O6 0.132575 0.721848 0.182711
O O7 0.955488 0.726503 0.122061
O O8 0.154854 0.772407 0.004206
O O9 0.710369 0.500000 0.248603
O O10 0.775115 0.729682 0.339982
O O11 0.741583 0.773844 0.174495
O O12 0.573966 0.725152 0.318864
O O13 0.902166 0.500000 0.370318
O O14 0.980082 0.220027 0.343757
O O15 0.121018 0.000000 0.899285
O O16 0.900183 0.000000 0.750078
O O17 0.500000 0.761155 0.500000
O O18 0.481923 0.000000 0.613048
#
# Coordination Sequence:
#
# PCOD8064674 Si02
#       7
#     4   4   4   4   4   4   4
#     4  10  22  38  55  78 109 147 190 233 272 322
#     4  11  21  35  55  81 114 144 177 224 275 326
#     4  11  22  35  54  82 115 145 179 227 277 321
#     4  11  22  34  52  79 113 148 183 225 276 328
#     4  11  21  35  57  83 110 144 182 221 272 328
#     4  11  22  36  55  79 111 149 187 225 273 330
#     4  10  20  36  58  79 105 143 189 232 273 321
#
# _framework density 18.148415
#
# number of rings (size 3 to 8) (size 9 to 14) (size 15 to 20)
#    0.000    1.286    2.857    5.143    0.000    4.857 
#    0.000    0.000    0.000    0.857    0.000    6.000 
#    0.000    0.000    0.000    0.000    0.000    0.000 
#
# Total GULP energy -347386.806689 kJ/mol
# GULP energy per Si atom -12406.671667 kJ/mol
# Density = 1.810711 g / cm^3
# Si number density = 18.148415 Si / 1000 Ang^3
#
#
#
# Elastic Constant Matrix: (Units=GPa)
#
#
# Indices 1 2 3 4 5 6 
#
# 1 86.4009 20.5176 47.1389 0.0000 8.9300 0.0000
# 2 20.5176 70.6213 31.2824 0.0000 2.8782 0.0000
# 3 47.1389 31.2824 120.6497 0.0000 -1.7426 0.0000
# 4 0.0000 0.0000 0.0000 33.3424 0.0000 -0.5741
# 5 8.9300 2.8782 -1.7426 0.0000 23.8206 0.0000
# 6 0.0000 0.0000 0.0000 -0.5741 0.0000 19.0898
#
#
#
# Elastic Compliance Matrix: (Units=1/GPa)
#
#
# Indices 1 2 3 4 5 6 
#
# 1 0.015792 -0.001769 -0.005800 0.000000 -0.006131 0.000000
# 2 -0.001769 0.016316 -0.003562 0.000000 -0.001569 0.000000
# 3 -0.005800 -0.003562 0.011528 0.000000 0.003448 0.000000
# 4 0.000000 0.000000 0.000000 0.030007 0.000000 0.000902
# 5 -0.006131 -0.001569 0.003448 0.000000 0.044721 0.000000
# 6 0.000000 0.000000 0.000000 0.000902 0.000000 0.052411
#
#
# Mechanical properties :
#
#
# Convention : Reuss Voigt Hill
#
# Bulk Modulus (GPa) = 46.78604 52.83885 49.81245
# Shear Modulus (GPa) = 24.97989 27.16610 26.07299
#
# Velocity S-wave (km/s) = 3.71404 3.87316 3.79443
# Velocity P-wave (km/s) = 6.65040 7.01284 6.83402
#
# Compressibility (1/GPa) = 0.02137390
#
# Stress axis : x y z
#
# Youngs Moduli (GPa) = 63.32295 61.29071 86.74625
#
# Poissons Ratio (x) = 0.10843 0.50312
# Poissons Ratio (y) = 0.11202 0.30898
# Poissons Ratio (z) = 0.36727 0.21831
#
# Static dielectric constant tensor:
#      x y z
#    x 3.210280 0.000000 0.054310 
#    y 0.000000 3.369390 0.000000 
#    z 0.054310 0.000000 3.410590 
# 
# 
# High freq. dielectric constant tensor:
#      x y z
#    x 1.678070 0.000000 -0.000350 
#    y 0.000000 1.713060 0.000000 
#    z -0.000350 0.000000 1.707920 
# 
# From -- ./inp_files/49184.got.cif
#   From: 2010.06.25/outbox.cif.g09.slc.cpg/sg10_25_cif.got.tgz:49184.got - 2010.06.27 22:07:45.
