data_PCOD8064781
_publ_section_title
;
Structure prediction by ZEFSAII (Michael W. Deem and Ramdas Pophale) SiO2 
 PCOD8064781
Probable space group: P 2/M
;
_chemical_formula_sum "Si O2"
_cell_formula_units_Z 28
_cell_length_a 8.524510
_cell_length_b 10.367817
_cell_length_c 23.987534
_cell_angle_alpha 90.000000
_cell_angle_beta 138.374090
_cell_angle_gamma 90.000000
_cell_volume 1408.261382
_symmetry_space_group_name_H-M "P 2/M"
_symmetry_group_IT_number 10
_symmetry_cell_setting 'monoclinic'
loop_
_space_group_symop_operation_xyz
x,y,z
-x,y,-z
-x,-y,-z
x,-y,z
loop_
_atom_site_type_symbol
_atom_site_label
_atom_site_fract_x
_atom_site_fract_y
_atom_site_fract_z
Si Si1 0.584725 0.641058 0.708467
Si Si2 0.793228 0.849997 0.401797
Si Si3 0.066295 0.721397 0.793551
Si Si4 0.587209 0.642767 0.940599
Si Si5 0.325771 0.245404 0.151258
Si Si6 0.172338 0.143770 0.713554
Si Si7 0.860652 0.144870 0.076448
O O1 0.466695 0.500000 0.667673
O O2 0.424693 0.756290 0.640746
O O3 0.624613 0.657517 0.784918
O O4 0.836887 0.636604 0.744810
O O5 0.888577 0.811892 0.365681
O O6 0.000000 0.824379 0.500000
O O7 0.708514 0.000000 0.380484
O O8 0.304463 0.638248 0.860283
O O9 0.034515 0.771441 0.722013
O O10 0.078907 0.837072 0.842234
O O11 0.669975 0.500000 0.982420
O O12 0.709759 0.671671 0.913959
O O13 0.666101 0.750053 0.006334
O O14 0.545885 0.149247 0.201575
O O15 0.094720 0.160662 0.101399
O O16 0.082827 0.000000 0.698946
O O17 0.761841 0.000000 0.041048
#
# Coordination Sequence:
#
# PCOD8064781 Si02
#       7
#     4   4   4   4   4   4   4
#     4  10  20  36  59  83 108 142 181 220 263 314
#     4   9  19  37  61  89 116 139 169 212 262 317
#     4  10  22  36  53  76 108 143 182 223 266 319
#     4  11  23  37  53  74 104 143 184 229 279 324
#     4   9  20  35  54  77 104 137 183 232 275 319
#     4   9  17  33  57  81 106 140 178 217 263 316
#     4  11  23  36  52  76 106 141 183 232 279 321
#
# _framework density 19.882673
#
# number of rings (size 3 to 8) (size 9 to 14) (size 15 to 20)
#    0.000    2.143    0.000    2.571    0.000   13.429 
#    0.000    1.429    0.000    3.429    0.000    0.000 
#    0.000    0.000    0.000    0.000    0.000    0.000 
#
# Total GULP energy -347138.389706 kJ/mol
# GULP energy per Si atom -12397.799632 kJ/mol
# Density = 1.983742 g / cm^3
# Si number density = 19.882673 Si / 1000 Ang^3
#
#
#
# Elastic Constant Matrix: (Units=GPa)
#
#
# Indices 1 2 3 4 5 6 
#
# 1 102.7611 31.3486 31.1755 0.0000 -8.1908 0.0000
# 2 31.3486 140.8892 46.7627 0.0000 -5.0822 0.0000
# 3 31.1755 46.7627 87.1751 0.0000 -10.5335 0.0000
# 4 0.0000 0.0000 0.0000 22.2244 0.0000 2.5706
# 5 -8.1908 -5.0822 -10.5335 0.0000 23.6310 0.0000
# 6 0.0000 0.0000 0.0000 2.5706 0.0000 0.9742
#
#
#
# Elastic Compliance Matrix: (Units=1/GPa)
#
#
# Indices 1 2 3 4 5 6 
#
# 1 0.011254 -0.001432 -0.002983 0.000000 0.002263 0.000000
# 2 -0.001432 0.008819 -0.004280 0.000000 -0.000508 0.000000
# 3 -0.002983 -0.004280 0.015428 0.000000 0.004923 0.000000
# 4 0.000000 0.000000 0.000000 0.064763 0.000000 -0.170897
# 5 0.002263 -0.000508 0.004923 0.000000 0.045187 0.000000
# 6 0.000000 0.000000 0.000000 -0.170897 0.000000 1.477497
#
#
# Mechanical properties :
#
#
# Convention : Reuss Voigt Hill
#
# Bulk Modulus (GPa) = 55.21436 61.04433 58.12935
# Shear Modulus (GPa) = 3.03698 24.13514 13.58606
#
# Velocity S-wave (km/s) = 1.23724 3.48786 2.61686
# Velocity P-wave (km/s) = 5.46547 6.85486 6.19921
#
# Compressibility (1/GPa) = 0.01811123
#
# Stress axis : x y z
#
# Youngs Moduli (GPa) = 88.86105 113.39643 64.81570
#
# Poissons Ratio (x) = 0.16242 0.19333
# Poissons Ratio (y) = 0.12728 0.27739
# Poissons Ratio (z) = 0.26504 0.48529
#
# Static dielectric constant tensor:
#      x y z
#    x 3.776270 0.000000 -0.109160 
#    y 0.000000 3.443720 0.000000 
#    z -0.109160 0.000000 3.378740 
# 
# 
# High freq. dielectric constant tensor:
#      x y z
#    x 1.786720 0.000000 -0.007150 
#    y 0.000000 1.769090 0.000000 
#    z -0.007150 0.000000 1.743350 
# 
# From -- ./inp_files/92066.got.cif
#   From: 2010.06.25/outbox.cif.g09.slc.cpg/sg10_47_cif.got.tgz:92066.got - 2010.06.27 22:07:45.
