data_PCOD8064138
_publ_section_title
;
Structure prediction by ZEFSAII (Michael W. Deem and Ramdas Pophale) SiO2 
 PCOD8064138
Probable space group: P 2/M
;
_chemical_formula_sum "Si O2"
_cell_formula_units_Z 24
_cell_length_a 21.149044
_cell_length_b 8.675141
_cell_length_c 8.058199
_cell_angle_alpha 90.000000
_cell_angle_beta 124.777682
_cell_angle_gamma 90.000000
_cell_volume 1214.352792
_symmetry_space_group_name_H-M "P 2/M"
_symmetry_group_IT_number 10
_symmetry_cell_setting 'monoclinic'
loop_
_space_group_symop_operation_xyz
x,y,z
-x,y,-z
-x,-y,-z
x,-y,z
loop_
_atom_site_type_symbol
_atom_site_label
_atom_site_fract_x
_atom_site_fract_y
_atom_site_fract_z
Si Si1 0.169432 0.319236 0.766170
Si Si2 0.671026 0.180072 0.941312
Si Si3 0.083798 0.317265 0.300641
Si Si4 0.915369 0.816899 0.045705
Si Si5 0.489764 0.166049 0.172233
Si Si6 0.583568 0.674917 0.543299
O O1 0.156276 0.500000 0.775149
O O2 0.130183 0.265578 0.534765
O O3 0.138318 0.228485 0.880299
O O4 0.259028 0.279399 0.882869
O O5 0.594668 0.239419 0.922915
O O6 0.652747 0.222483 0.721743
O O7 0.689471 0.000000 0.990093
O O8 0.086332 0.500000 0.281627
O O9 0.997091 0.262242 0.198552
O O10 0.118294 0.240788 0.183256
O O11 0.924415 0.000000 0.052970
O O12 0.563701 0.272525 0.327535
O O13 0.492709 0.000000 0.271904
O O14 0.500000 0.131131 0.000000
O O15 0.500000 0.707678 0.500000
O O16 0.610569 0.500000 0.593839
#
# Coordination Sequence:
#
# PCOD8064138 Si02
#       6
#     4   4   4   4   4   4
#     4  11  23  39  59  84 118 157 195 238 293 349
#     4  10  20  35  55  79 108 144 184 231 283 337
#     4  10  21  39  62  86 117 157 197 241 287 343
#     4  11  22  37  61  90 118 152 195 243 289 344
#     4   9  18  34  55  79 107 141 182 229 280 335
#     4   9  17  31  52  75 101 136 177 221 266 324
#
# _framework density 19.763614
#
# number of rings (size 3 to 8) (size 9 to 14) (size 15 to 20)
#    0.000    2.000    0.000    5.000    0.000    7.667 
#    3.000    0.000    0.000    0.000    0.000    0.000 
#    0.000    0.000    0.000    0.000    0.000    0.000 
#
# Total GULP energy -297402.738127 kJ/mol
# GULP energy per Si atom -12391.780755 kJ/mol
# Density = 1.971863 g / cm^3
# Si number density = 19.763614 Si / 1000 Ang^3
#
#
#
# Elastic Constant Matrix: (Units=GPa)
#
#
# Indices 1 2 3 4 5 6 
#
# 1 64.0548 8.4410 49.7317 0.0000 -7.6745 0.0000
# 2 8.4410 46.9800 22.7260 0.0000 -6.9154 0.0000
# 3 49.7317 22.7260 128.5974 0.0000 -7.3984 0.0000
# 4 0.0000 0.0000 0.0000 25.4908 0.0000 3.6062
# 5 -7.6745 -6.9154 -7.3984 0.0000 27.1086 0.0000
# 6 0.0000 0.0000 0.0000 3.6062 0.0000 25.7059
#
#
#
# Elastic Compliance Matrix: (Units=1/GPa)
#
#
# Indices 1 2 3 4 5 6 
#
# 1 0.022774 0.000741 -0.008693 0.000000 0.004264 0.000000
# 2 0.000741 0.023956 -0.004223 0.000000 0.005168 0.000000
# 3 -0.008693 -0.004223 0.011867 0.000000 -0.000299 0.000000
# 4 0.000000 0.000000 0.000000 0.040024 0.000000 -0.005615
# 5 0.004264 0.005168 -0.000299 0.000000 0.039333 0.000000
# 6 0.000000 0.000000 0.000000 -0.005615 0.000000 0.039689
#
#
# Mechanical properties :
#
#
# Convention : Reuss Voigt Hill
#
# Bulk Modulus (GPa) = 29.19923 44.60330 36.90127
# Shear Modulus (GPa) = 23.42928 26.24329 24.83628
#
# Velocity S-wave (km/s) = 3.44681 3.64793 3.54880
# Velocity P-wave (km/s) = 5.53597 6.35300 5.95851
#
# Compressibility (1/GPa) = 0.03424748
#
# Stress axis : x y z
#
# Youngs Moduli (GPa) = 43.90981 41.74316 84.26751
#
# Poissons Ratio (x) = -0.03093 0.73253
# Poissons Ratio (y) = -0.03253 0.35584
# Poissons Ratio (z) = 0.38170 0.17627
#
# Static dielectric constant tensor:
#      x y z
#    x 3.398180 0.000000 -0.154920 
#    y 0.000000 3.609940 0.000000 
#    z -0.154920 0.000000 3.895890 
# 
# 
# High freq. dielectric constant tensor:
#      x y z
#    x 1.743790 0.000000 -0.005840 
#    y 0.000000 1.780220 0.000000 
#    z -0.005840 0.000000 1.780430 
# 
# From -- ./inp_files/33948.got.cif
#   From: 2010.06.25/outbox.cif.g09.slc.cpg/sg10_17_cif.got.tgz:33948.got - 2010.06.27 22:07:45.
