data_PCOD8064077
_publ_section_title
;
Structure prediction by ZEFSAII (Michael W. Deem and Ramdas Pophale) SiO2 
 PCOD8064077
Probable space group: P 2/M
;
_chemical_formula_sum "Si O2"
_cell_formula_units_Z 32
_cell_length_a 16.506308
_cell_length_b 18.609525
_cell_length_c 9.667931
_cell_angle_alpha 90.000000
_cell_angle_beta 145.257454
_cell_angle_gamma 90.000000
_cell_volume 1692.426074
_symmetry_space_group_name_H-M "P 2/M"
_symmetry_group_IT_number 10
_symmetry_cell_setting 'monoclinic'
loop_
_space_group_symop_operation_xyz
x,y,z
-x,y,-z
-x,-y,-z
x,-y,z
loop_
_atom_site_type_symbol
_atom_site_label
_atom_site_fract_x
_atom_site_fract_y
_atom_site_fract_z
Si Si1 0.693130 0.698710 0.016187
Si Si2 0.070412 0.198212 0.743855
Si Si3 0.821331 0.703736 0.495090
Si Si4 0.463391 0.918949 0.661557
Si Si5 0.561570 0.775896 0.233348
Si Si6 0.839567 0.420540 0.731426
Si Si7 0.739320 0.081053 0.873932
Si Si8 0.666527 0.582113 0.753375
O O1 0.783671 0.760986 0.074585
O O2 0.752286 0.683269 0.251819
O O3 0.531166 0.729117 0.787807
O O4 0.709624 0.627126 0.949000
O O5 0.000000 0.173344 0.500000
O O6 0.965605 0.250755 0.680619
O O7 0.119468 0.128992 0.901794
O O8 0.724595 0.751731 0.461241
O O9 0.840216 0.628171 0.596618
O O10 0.446546 0.861527 0.759231
O O11 0.346607 0.896476 0.383715
O O12 0.625344 0.913969 0.837380
O O13 0.433453 0.000000 0.673053
O O14 0.500000 0.756026 0.000000
O O15 0.779853 0.500000 0.608590
O O16 0.745618 0.388787 0.726428
O O17 0.000000 0.427446 0.000000
O O18 0.796330 0.000000 0.939951
O O19 0.500000 0.589225 0.500000
O O20 0.713146 0.500000 0.846798
#
# Coordination Sequence:
#
# PCOD8064077 Si02
#       8
#     4   4   4   4   4   4   4   4
#     4  10  20  36  56  78 108 145 185 224 268 326
#     4  10  20  35  55  80 111 144 182 227 269 322
#     4  10  22  36  53  82 113 143 181 226 276 328
#     4   9  18  34  56  81 107 139 183 227 266 321
#     4  10  20  35  54  79 110 142 180 225 272 324
#     4  10  21  38  56  77 109 145 180 222 273 328
#     4   9  18  34  56  81 107 139 183 227 268 321
#     4  10  21  36  56  83 110 138 182 234 274 319
#
# _framework density 18.907768000000001
#
# number of rings (size 3 to 8) (size 9 to 14) (size 15 to 20)
#    0.000    2.250    1.250    2.250    0.000    4.000 
#    0.000    0.625    0.000   10.500    0.000    0.000 
#    0.000    0.000    0.000    0.000    0.000    0.000 
#
# Total GULP energy -396647.435651 kJ/mol
# GULP energy per Si atom -12395.232364 kJ/mol
# Density = 1.886473 g / cm^3
# Si number density = 18.907768 Si / 1000 Ang^3
#
#
#
# Elastic Constant Matrix: (Units=GPa)
#
#
# Indices 1 2 3 4 5 6 
#
# 1 98.8338 42.4765 33.3410 0.0000 10.8859 0.0000
# 2 42.4765 104.1499 39.4898 0.0000 -11.3152 0.0000
# 3 33.3410 39.4898 58.7594 0.0000 6.5603 0.0000
# 4 0.0000 0.0000 0.0000 32.9698 0.0000 -3.5603
# 5 10.8859 -11.3152 6.5603 0.0000 16.8762 0.0000
# 6 0.0000 0.0000 0.0000 -3.5603 0.0000 36.1896
#
#
#
# Elastic Compliance Matrix: (Units=1/GPa)
#
#
# Indices 1 2 3 4 5 6 
#
# 1 0.015386 -0.006680 -0.002752 0.000000 -0.013334 0.000000
# 2 -0.006680 0.018953 -0.011339 0.000000 0.021424 0.000000
# 3 -0.002752 -0.011339 0.028069 0.000000 -0.016739 0.000000
# 4 0.000000 0.000000 0.000000 0.030656 0.000000 0.003016
# 5 -0.013334 0.021424 -0.016739 0.000000 0.088727 0.000000
# 6 0.000000 0.000000 0.000000 0.003016 0.000000 0.027929
#
#
# Mechanical properties :
#
#
# Convention : Reuss Voigt Hill
#
# Bulk Modulus (GPa) = 47.92534 54.70642 51.31588
# Shear Modulus (GPa) = 19.36340 26.96951 23.16646
#
# Velocity S-wave (km/s) = 3.20362 3.78083 3.50413
# Velocity P-wave (km/s) = 6.25190 6.93222 6.60083
#
# Compressibility (1/GPa) = 0.02086579
#
# Stress axis : x y z
#
# Youngs Moduli (GPa) = 64.99416 52.76232 35.62587
#
# Poissons Ratio (x) = 0.35246 0.09805
# Poissons Ratio (y) = 0.43417 0.40396
# Poissons Ratio (z) = 0.17887 0.59827
#
# Static dielectric constant tensor:
#      x y z
#    x 3.511320 0.000000 0.228560 
#    y 0.000000 3.549720 0.000000 
#    z 0.228560 0.000000 3.287890 
# 
# 
# High freq. dielectric constant tensor:
#      x y z
#    x 1.731970 0.000000 0.010100 
#    y 0.000000 1.737090 0.000000 
#    z 0.010100 0.000000 1.723400 
# 
# From -- ./inp_files/30321.got.cif
#   From: 2010.06.25/outbox.cif.g09.slc.cpg/sg10_16_cif.got.tgz:30321.got - 2010.06.27 22:07:45.
