data_PCOD8064119
_publ_section_title
;
Structure prediction by ZEFSAII (Michael W. Deem and Ramdas Pophale) SiO2 
 PCOD8064119
Probable space group: P 2/M
;
_chemical_formula_sum "Si O2"
_cell_formula_units_Z 30
_cell_length_a 16.083495
_cell_length_b 9.264438
_cell_length_c 14.537650
_cell_angle_alpha 90.000000
_cell_angle_beta 138.860346
_cell_angle_gamma 90.000000
_cell_volume 1425.119801
_symmetry_space_group_name_H-M "P 2/M"
_symmetry_group_IT_number 10
_symmetry_cell_setting 'monoclinic'
loop_
_space_group_symop_operation_xyz
x,y,z
-x,y,-z
-x,-y,-z
x,-y,z
loop_
_atom_site_type_symbol
_atom_site_label
_atom_site_fract_x
_atom_site_fract_y
_atom_site_fract_z
Si Si1 0.561071 0.166791 0.146391
Si Si2 0.231498 0.337400 0.585721
Si Si3 0.605396 0.831621 0.815361
Si Si4 0.962490 0.162418 0.676928
Si Si5 0.599258 0.338604 0.454139
Si Si6 0.213886 0.844383 0.294301
Si Si7 0.000000 0.730203 0.000000
Si Si8 0.143597 0.660716 0.946217
O O1 0.686503 0.261194 0.266525
O O2 0.457605 0.195049 0.138426
O O3 0.602672 0.000000 0.179365
O O4 0.500000 0.216215 0.000000
O O5 0.196510 0.500000 0.587444
O O6 0.103274 0.245843 0.462993
O O7 0.311261 0.341565 0.559295
O O8 0.518854 0.765686 0.662739
O O9 0.736314 0.748246 0.919281
O O10 0.627193 0.000000 0.813807
O O11 0.864850 0.152589 0.678105
O O12 0.003038 0.000000 0.680466
O O13 0.084361 0.252657 0.811092
O O14 0.552639 0.500000 0.439492
O O15 0.677550 0.277422 0.607016
O O16 0.121378 0.823742 0.130656
O O17 0.280000 0.000000 0.336323
O O18 0.043927 0.639838 0.947429
O O19 0.181036 0.500000 0.944160
#
# Coordination Sequence:
#
# PCOD8064119 Si02
#       8
#     4   4   4   4   4   4   2   4
#     4   9  18  33  54  80 109 140 172 207 251 306
#     4   9  16  27  47  76 106 135 170 211 254 301
#     4  10  20  35  55  78 105 137 173 211 254 305
#     4   9  17  30  49  73 100 134 175 213 253 303
#     4   9  17  30  49  73 102 135 170 209 255 307
#     4   9  17  30  50  74 100 131 170 216 259 303
#     4  10  22  36  54  76 102 136 176 216 260 308
#     4  11  22  36  54  76 104 136 173 216 261 307
#
# _framework density 21.050861000000001
#
# number of rings (size 3 to 8) (size 9 to 14) (size 15 to 20)
#    0.000    2.533    0.000    2.400    0.000    9.333 
#    0.000    0.667    0.000    4.000    0.000    5.600 
#    0.000    0.000    0.000    0.000    0.000    0.000 
#
# Total GULP energy -371902.019981 kJ/mol
# GULP energy per Si atom -12396.733999 kJ/mol
# Density = 2.100295 g / cm^3
# Si number density = 21.050861 Si / 1000 Ang^3
#
#
#
# Elastic Constant Matrix: (Units=GPa)
#
#
# Indices 1 2 3 4 5 6 
#
# 1 20.9840 14.2540 20.6446 0.0000 -0.8861 0.0000
# 2 14.2540 189.5757 95.1162 0.0000 8.1125 0.0000
# 3 20.6446 95.1162 185.8815 0.0000 0.2133 0.0000
# 4 0.0000 0.0000 0.0000 25.7261 0.0000 11.4582
# 5 -0.8861 8.1125 0.2133 0.0000 25.4883 0.0000
# 6 0.0000 0.0000 0.0000 11.4582 0.0000 10.8728
#
#
#
# Elastic Compliance Matrix: (Units=1/GPa)
#
#
# Indices 1 2 3 4 5 6 
#
# 1 0.053924 -0.001549 -0.005199 0.000000 0.002411 0.000000
# 2 -0.001549 0.007270 -0.003546 0.000000 -0.002338 0.000000
# 3 -0.005199 -0.003546 0.007770 0.000000 0.000883 0.000000
# 4 0.000000 0.000000 0.000000 0.073255 0.000000 -0.077199
# 5 0.002411 -0.002338 0.000883 0.000000 0.040054 0.000000
# 6 0.000000 0.000000 0.000000 -0.077199 0.000000 0.173328
#
#
# Mechanical properties :
#
#
# Convention : Reuss Voigt Hill
#
# Bulk Modulus (GPa) = 20.67070 72.94118 46.80594
# Shear Modulus (GPa) = 12.74483 30.17919 21.46201
#
# Velocity S-wave (km/s) = 2.46322 3.79044 3.19647
# Velocity P-wave (km/s) = 4.23446 7.34042 5.99218
#
# Compressibility (1/GPa) = 0.04837766
#
# Stress axis : x y z
#
# Youngs Moduli (GPa) = 18.54450 137.54419 128.69264
#
# Poissons Ratio (x) = 0.21308 0.66908
# Poissons Ratio (y) = 0.02873 0.45629
# Poissons Ratio (z) = 0.09641 0.48767
#
# Static dielectric constant tensor:
#      x y z
#    x 3.263540 0.000000 -0.023610 
#    y 0.000000 4.010820 0.000000 
#    z -0.023610 0.000000 3.962530 
# 
# 
# High freq. dielectric constant tensor:
#      x y z
#    x 1.769590 0.000000 0.001210 
#    y 0.000000 1.834750 0.000000 
#    z 0.001210 0.000000 1.836440 
# 
# From -- ./inp_files/79388.got.cif
#   From: 2010.06.25/outbox.cif.g09.slc.cpg/sg10_40_cif.got.tgz:79388.got - 2010.06.27 22:07:45.
