data_PCOD8064604
_publ_section_title
;
Structure prediction by ZEFSAII (Michael W. Deem and Ramdas Pophale) SiO2 
 PCOD8064604
Probable space group: P 2/M
;
_chemical_formula_sum "Si O2"
_cell_formula_units_Z 24
_cell_length_a 15.833029
_cell_length_b 12.431857
_cell_length_c 13.468255
_cell_angle_alpha 90.000000
_cell_angle_beta 150.706849
_cell_angle_gamma 90.000000
_cell_volume 1297.081343
_symmetry_space_group_name_H-M "P 2/M"
_symmetry_group_IT_number 10
_symmetry_cell_setting 'monoclinic'
loop_
_space_group_symop_operation_xyz
x,y,z
-x,y,-z
-x,-y,-z
x,-y,z
loop_
_atom_site_type_symbol
_atom_site_label
_atom_site_fract_x
_atom_site_fract_y
_atom_site_fract_z
Si Si1 0.093571 0.500000 0.756462
Si Si2 0.264647 0.875158 0.512279
Si Si3 0.631138 0.619625 0.872351
Si Si4 0.756981 0.500000 0.311010
Si Si5 0.417344 0.277545 0.818540
Si Si6 0.569082 0.806471 0.681122
Si Si7 0.955390 0.875423 0.060911
O O1 0.165201 0.500000 0.718222
O O2 0.889674 0.500000 0.539984
O O3 0.165594 0.604124 0.891277
O O4 0.280059 0.804147 0.628685
O O5 0.431082 0.862090 0.611810
O O6 0.091165 0.830207 0.281214
O O7 0.249000 0.000000 0.526745
O O8 0.542573 0.500000 0.779577
O O9 0.559656 0.698458 0.882383
O O10 0.597875 0.679294 0.733890
O O11 0.652327 0.391432 0.215206
O O12 0.500000 0.219791 0.000000
O O13 0.500000 0.821201 0.500000
O O14 0.756612 0.860170 0.887997
O O15 0.998433 0.000000 0.096435
O O16 0.000000 0.820606 0.000000
#
# Coordination Sequence:
#
# PCOD8064604 Si02
#       7
#     2   4   4   2   4   4   4
#     4   9  19  32  50  79 108 137 176 228 267 318
#     4  10  23  37  54  83 110 145 184 218 273 325
#     4   9  19  35  50  75 108 139 179 213 268 322
#     4  11  18  31  58  82 104 137 178 228 271 311
#     4  11  19  35  58  78 108 143 179 225 266 321
#     4  11  21  34  57  80 108 144 179 226 271 320
#     4  10  20  36  57  78 104 136 182 232 267 316
#
# _framework density 18.503079
#
# number of rings (size 3 to 8) (size 9 to 14) (size 15 to 20)
#    0.500    1.333    4.167    0.750    2.333    1.333 
#    0.000    0.000    0.000    0.500    0.000    8.167 
#    0.000    0.000    0.000    0.000    0.000    0.000 
#
# Total GULP energy -297314.445806 kJ/mol
# GULP energy per Si atom -12388.101909 kJ/mol
# Density = 1.846096 g / cm^3
# Si number density = 18.503079 Si / 1000 Ang^3
#
#
#
# Elastic Constant Matrix: (Units=GPa)
#
#
# Indices 1 2 3 4 5 6 
#
# 1 43.1698 9.9663 29.1053 0.0000 -4.2151 0.0000
# 2 9.9663 68.8976 39.9480 0.0000 -21.0496 0.0000
# 3 29.1053 39.9480 150.8053 0.0000 -6.2660 0.0000
# 4 0.0000 0.0000 0.0000 30.0453 0.0000 -4.9773
# 5 -4.2151 -21.0496 -6.2660 0.0000 33.5209 0.0000
# 6 0.0000 0.0000 0.0000 -4.9773 0.0000 -37.2253
#
#
#
# Elastic Compliance Matrix: (Units=1/GPa)
#
#
# Indices 1 2 3 4 5 6 
#
# 1 0.026827 -0.000288 -0.005008 0.000000 0.002257 0.000000
# 2 -0.000288 0.021274 -0.005066 0.000000 0.012376 0.000000
# 3 -0.005008 -0.005066 0.008850 0.000000 -0.002156 0.000000
# 4 0.000000 0.000000 0.000000 0.032562 0.000000 -0.004354
# 5 0.002257 0.012376 -0.002156 0.000000 0.037484 0.000000
# 6 0.000000 0.000000 0.000000 -0.004354 0.000000 -0.026281
#
#
# Mechanical properties :
#
#
# Convention : Reuss Voigt Hill
#
# Bulk Modulus (GPa) = 27.60200 46.76798 37.18499
# Shear Modulus (GPa) = 37.44893 17.52505 27.48699
#
# Velocity S-wave (km/s) = 4.50369 3.08091 3.85845
# Velocity P-wave (km/s) = 6.48029 6.16333 6.32380
#
# Compressibility (1/GPa) = 0.03622926
#
# Stress axis : x y z
#
# Youngs Moduli (GPa) = 37.27544 47.00501 112.99615
#
# Poissons Ratio (x) = 0.01352 0.56585
# Poissons Ratio (y) = 0.01072 0.57241
# Poissons Ratio (z) = 0.18666 0.23812
#
# Static dielectric constant tensor:
#      x y z
#    x 3.246550 0.000000 -0.149370 
#    y 0.000000 3.343770 0.000000 
#    z -0.149370 0.000000 3.784860 
# 
# 
# High freq. dielectric constant tensor:
#      x y z
#    x 1.696260 0.000000 -0.006960 
#    y 0.000000 1.701880 0.000000 
#    z -0.006960 0.000000 1.733770 
# 
# From -- ./inp_files/51473.got.cif
#   From: 2010.06.25/outbox.cif.g09.slc.cpg/sg10_26_cif.got.tgz:51473.got - 2010.06.27 22:07:45.
