data_PCOD8064911
_publ_section_title
;
Structure prediction by ZEFSAII (Michael W. Deem and Ramdas Pophale) SiO2 
 PCOD8064911
Probable space group: P 2/M
;
_chemical_formula_sum "Si O2"
_cell_formula_units_Z 32
_cell_length_a 25.093521
_cell_length_b 8.971498
_cell_length_c 15.364071
_cell_angle_alpha 90.000000
_cell_angle_beta 27.409682
_cell_angle_gamma 90.000000
_cell_volume 1592.285118
_symmetry_space_group_name_H-M "P 2/M"
_symmetry_group_IT_number 10
_symmetry_cell_setting 'monoclinic'
loop_
_space_group_symop_operation_xyz
x,y,z
-x,y,-z
-x,-y,-z
x,-y,z
loop_
_atom_site_type_symbol
_atom_site_label
_atom_site_fract_x
_atom_site_fract_y
_atom_site_fract_z
Si Si1 0.622792 0.823028 0.857505
Si Si2 0.031844 0.670671 0.353529
Si Si3 0.626261 0.676229 0.346216
Si Si4 0.670187 0.174626 0.464137
Si Si5 0.150549 0.328640 0.527148
Si Si6 0.260369 0.824331 0.973188
Si Si7 0.891577 0.672412 0.216864
Si Si8 0.423785 0.174962 0.886087
O O1 0.729216 0.760635 0.647592
O O2 0.628260 0.000000 0.843476
O O3 0.500000 0.764846 0.000000
O O4 0.630258 0.763245 0.946014
O O5 0.067465 0.500000 0.280299
O O6 0.928743 0.722426 0.438829
O O7 0.000000 0.687087 0.500000
O O8 0.134217 0.785642 0.189973
O O9 0.500000 0.733787 0.500000
O O10 0.634072 0.500000 0.333592
O O11 0.657897 0.733687 0.394481
O O12 0.721876 0.742853 0.143667
O O13 0.784057 0.224326 0.349092
O O14 0.559667 0.213705 0.684356
O O15 0.676004 0.000000 0.434164
O O16 0.183979 0.500000 0.468163
O O17 0.083631 0.301487 0.716115
O O18 0.273501 0.000000 0.941100
O O19 0.354302 0.757471 0.905104
O O20 0.861261 0.500000 0.242169
O O21 0.000000 0.721832 0.000000
O O22 0.404778 0.000000 0.911637
#
# Coordination Sequence:
#
# PCOD8064911 Si02
#       8
#     4   4   4   4   4   4   4   4
#     4  10  20  36  60  87 116 152 195 241 298 360
#     4  10  22  40  61  88 123 162 205 254 306 361
#     4  11  23  39  60  89 124 162 201 243 300 368
#     4  11  22  39  63  89 121 155 198 253 304 355
#     4  10  22  40  60  85 119 158 200 251 304 355
#     4  11  22  37  59  87 120 158 203 248 302 360
#     4  10  23  42  61  83 116 161 206 251 305 362
#     4   9  19  35  56  85 121 154 185 240 305 357
#
# _framework density 20.096903000000001
#
# number of rings (size 3 to 8) (size 9 to 14) (size 15 to 20)
#    0.000    1.750    1.250    2.625    1.750    3.250 
#    0.000    1.875    0.000    0.000    0.000    0.000 
#    0.000    0.000    0.000    0.000    0.000    0.000 
#
# Total GULP energy -396859.333790 kJ/mol
# GULP energy per Si atom -12401.854181 kJ/mol
# Density = 2.005116 g / cm^3
# Si number density = 20.096903 Si / 1000 Ang^3
#
#
#
# Elastic Constant Matrix: (Units=GPa)
#
#
# Indices 1 2 3 4 5 6 
#
# 1 109.3871 26.3460 42.0269 0.0000 2.4934 0.0000
# 2 26.3460 53.1886 31.7376 0.0000 -1.5480 0.0000
# 3 42.0269 31.7376 117.9463 0.0000 3.2005 0.0000
# 4 0.0000 0.0000 0.0000 33.8025 0.0000 -4.6725
# 5 2.4934 -1.5480 3.2005 0.0000 39.9830 0.0000
# 6 0.0000 0.0000 0.0000 -4.6725 0.0000 25.4902
#
#
#
# Elastic Compliance Matrix: (Units=1/GPa)
#
#
# Indices 1 2 3 4 5 6 
#
# 1 0.011207 -0.003807 -0.002952 0.000000 -0.000610 0.000000
# 2 -0.003807 0.023764 -0.005080 0.000000 0.001564 0.000000
# 3 -0.002952 -0.005080 0.010921 0.000000 -0.000887 0.000000
# 4 0.000000 0.000000 0.000000 0.030353 0.000000 0.005564
# 5 -0.000610 0.001564 -0.000887 0.000000 0.025180 0.000000
# 6 0.000000 0.000000 0.000000 0.005564 0.000000 0.040251
#
#
# Mechanical properties :
#
#
# Convention : Reuss Voigt Hill
#
# Bulk Modulus (GPa) = 45.01960 53.41591 49.21775
# Shear Modulus (GPa) = 28.94191 31.88257 30.41224
#
# Velocity S-wave (km/s) = 3.79901 3.98734 3.89431
# Velocity P-wave (km/s) = 6.45702 6.91631 6.69061
#
# Compressibility (1/GPa) = 0.02221255
#
# Stress axis : x y z
#
# Youngs Moduli (GPa) = 89.22981 42.08073 91.56260
#
# Poissons Ratio (x) = 0.16022 0.27032
# Poissons Ratio (y) = 0.33973 0.46517
# Poissons Ratio (z) = 0.26343 0.21378
#
# Static dielectric constant tensor:
#      x y z
#    x 3.928660 0.000000 0.239210 
#    y 0.000000 3.455940 0.000000 
#    z 0.239210 0.000000 4.419540 
# 
# 
# High freq. dielectric constant tensor:
#      x y z
#    x 1.797620 0.000000 0.008240 
#    y 0.000000 1.768050 0.000000 
#    z 0.008240 0.000000 1.790720 
# 
# From -- ./inp_files/71488.got.cif
#   From: 2010.06.25/outbox.cif.g09.slc.cpg/sg10_36_cif.got.tgz:71488.got - 2010.06.27 22:07:45.
