data_PCOD8064548
_publ_section_title
;
Structure prediction by ZEFSAII (Michael W. Deem and Ramdas Pophale) SiO2 
 PCOD8064548
Probable space group: P 2/M
;
_chemical_formula_sum "Si O2"
_cell_formula_units_Z 28
_cell_length_a 9.742551
_cell_length_b 9.419793
_cell_length_c 27.132566
_cell_angle_alpha 90.000000
_cell_angle_beta 38.181233
_cell_angle_gamma 90.000000
_cell_volume 1539.215620
_symmetry_space_group_name_H-M "P 2/M"
_symmetry_group_IT_number 10
_symmetry_cell_setting 'monoclinic'
loop_
_space_group_symop_operation_xyz
x,y,z
-x,y,-z
-x,-y,-z
x,-y,z
loop_
_atom_site_type_symbol
_atom_site_label
_atom_site_fract_x
_atom_site_fract_y
_atom_site_fract_z
Si Si1 0.005032 0.164837 0.135410
Si Si2 0.751488 0.662006 0.568332
Si Si3 0.627804 0.660164 0.015067
Si Si4 0.284632 0.662345 0.533939
Si Si5 0.502387 0.164137 0.719290
Si Si6 0.876989 0.164081 0.689537
Si Si7 0.745949 0.835148 0.835081
O O1 0.080710 0.198128 0.170089
O O2 0.750629 0.209800 0.199896
O O3 0.045700 0.000000 0.111676
O O4 0.141063 0.257459 0.057545
O O5 0.754399 0.500000 0.586564
O O6 0.660914 0.674533 0.538875
O O7 0.590380 0.750296 0.648049
O O8 0.000000 0.725191 0.500000
O O9 0.673745 0.500000 0.020720
O O10 0.477758 0.743107 0.096934
O O11 0.500000 0.658833 0.000000
O O12 0.500000 0.726641 0.500000
O O13 0.243653 0.500000 0.561479
O O14 0.066770 0.747811 0.609464
O O15 0.643753 0.197075 0.728407
O O16 0.514785 0.000000 0.701062
O O17 0.860061 0.208091 0.751458
O O18 0.940753 0.000000 0.666238
O O19 0.675842 0.000000 0.854848
#
# Coordination Sequence:
#
# PCOD8064548 Si02
#       7
#     4   4   4   4   4   4   4
#     4   9  18  33  53  76 102 134 171 209 252 305
#     4  10  20  36  55  74 100 138 177 210 254 309
#     4   9  17  31  52  79 105 130 167 212 255 300
#     4  10  22  38  54  75 104 137 173 214 260 309
#     4  10  21  35  53  78 106 136 173 215 257 303
#     4  10  21  36  53  77 107 137 171 213 260 306
#     4   9  18  33  53  75 102 136 170 207 255 307
#
# _framework density 18.191082999999999
#
# number of rings (size 3 to 8) (size 9 to 14) (size 15 to 20)
#    0.000    2.429    1.429    0.429    2.000    4.000 
#    0.000    0.714    0.000    4.286    0.000    0.000 
#    0.000    0.000    0.000    0.000    0.000    0.000 
#
# Total GULP energy -347255.202156 kJ/mol
# GULP energy per Si atom -12401.971506 kJ/mol
# Density = 1.814968 g / cm^3
# Si number density = 18.191083 Si / 1000 Ang^3
#
#
#
# Elastic Constant Matrix: (Units=GPa)
#
#
# Indices 1 2 3 4 5 6 
#
# 1 74.2977 21.6382 23.6994 0.0000 -16.4185 0.0000
# 2 21.6382 67.9557 46.2847 0.0000 -9.7131 0.0000
# 3 23.6994 46.2847 81.6494 0.0000 -19.7875 0.0000
# 4 0.0000 0.0000 0.0000 -333.4091 0.0000 121.5038
# 5 -16.4185 -9.7131 -19.7875 0.0000 32.3365 0.0000
# 6 0.0000 0.0000 0.0000 121.5038 0.0000 -21.5938
#
#
#
# Elastic Compliance Matrix: (Units=1/GPa)
#
#
# Indices 1 2 3 4 5 6 
#
# 1 0.016280 -0.003436 -0.001203 0.000000 0.006498 0.000000
# 2 -0.003436 0.024743 -0.013679 0.000000 -0.002683 0.000000
# 3 -0.001203 -0.013679 0.022551 0.000000 0.009080 0.000000
# 4 0.000000 0.000000 0.000000 0.002855 0.000000 0.016064
# 5 0.006498 -0.002683 0.009080 0.000000 0.038974 0.000000
# 6 0.000000 0.000000 0.000000 0.016064 0.000000 0.044081
#
#
# Mechanical properties :
#
#
# Convention : Reuss Voigt Hill
#
# Bulk Modulus (GPa) = 37.12142 45.23859 41.18000
# Shear Modulus (GPa) = 25.62815 -55.71457 -15.04321
#
# Velocity S-wave (km/s) = 3.75751 -5.54021 -2.87880
# Velocity P-wave (km/s) = 6.26705 4.00033 3.41125
#
# Compressibility (1/GPa) = 0.02693863
#
# Stress axis : x y z
#
# Youngs Moduli (GPa) = 61.42689 40.41613 44.34324
#
# Poissons Ratio (x) = 0.13885 0.05335
# Poissons Ratio (y) = 0.21103 0.60656
# Poissons Ratio (z) = 0.07390 0.55284
#
# Static dielectric constant tensor:
#      x y z
#    x 3.376950 0.000000 -0.055760 
#    y 0.000000 3.396980 0.000000 
#    z -0.055760 0.000000 3.290150 
# 
# 
# High freq. dielectric constant tensor:
#      x y z
#    x 1.697050 0.000000 -0.004080 
#    y 0.000000 1.701170 0.000000 
#    z -0.004080 0.000000 1.704240 
# 
# From -- ./inp_files/37356.got.cif
#   From: 2010.06.25/outbox.cif.g09.slc.cpg/sg10_19_cif.got.tgz:37356.got - 2010.06.27 22:07:45.
