data_PCOD8064802
_publ_section_title
;
Structure prediction by ZEFSAII (Michael W. Deem and Ramdas Pophale) SiO2 
 PCOD8064802
Probable space group: P 2/M
;
_chemical_formula_sum "Si O2"
_cell_formula_units_Z 28
_cell_length_a 19.165305
_cell_length_b 8.957982
_cell_length_c 14.073976
_cell_angle_alpha 90.000000
_cell_angle_beta 144.639892
_cell_angle_gamma 90.000000
_cell_volume 1398.319267
_symmetry_space_group_name_H-M "P 2/M"
_symmetry_group_IT_number 10
_symmetry_cell_setting 'monoclinic'
loop_
_space_group_symop_operation_xyz
x,y,z
-x,y,-z
-x,-y,-z
x,-y,z
loop_
_atom_site_type_symbol
_atom_site_label
_atom_site_fract_x
_atom_site_fract_y
_atom_site_fract_z
Si Si1 0.806837 0.827937 0.543393
Si Si2 0.800787 0.670256 0.004375
Si Si3 0.532724 0.174461 0.247237
Si Si4 0.305152 0.322221 0.919242
Si Si5 0.542409 0.328750 0.648579
Si Si6 0.979959 0.322232 0.870940
Si Si7 0.122234 0.826002 0.585048
O O1 0.668612 0.785657 0.367364
O O2 0.885333 0.793795 0.535917
O O3 0.854903 0.733217 0.686294
O O4 0.816641 0.000000 0.583467
O O5 0.836096 0.500000 0.061875
O O6 0.686488 0.684381 0.808483
O O7 0.768754 0.741364 0.071243
O O8 0.913491 0.747043 0.076725
O O9 0.516858 0.225833 0.337837
O O10 0.505723 0.000000 0.209218
O O11 0.441342 0.259644 0.074925
O O12 0.313663 0.500000 0.929975
O O13 0.236888 0.265087 0.750702
O O14 0.500000 0.268876 0.500000
O O15 0.501966 0.500000 0.621342
O O16 0.980934 0.500000 0.873693
O O17 0.000000 0.261087 0.000000
O O18 0.000000 0.769155 0.500000
O O19 0.144001 0.000000 0.630104
#
# Coordination Sequence:
#
# PCOD8064802 Si02
#       7
#     4   4   4   4   4   4   4
#     4  10  23  40  56  80 115 150 184 231 285 335
#     4   8  16  32  50  77 110 138 174 223 278 327
#     4  10  21  37  55  78 114 151 187 229 278 338
#     4  10  20  36  59  84 113 147 187 234 284 333
#     4   9  18  32  55  80 107 143 183 232 280 325
#     4  10  21  35  56  82 109 144 186 230 276 334
#     4  10  21  38  61  86 113 148 191 232 278 337
#
# _framework density 20.024037
#
# number of rings (size 3 to 8) (size 9 to 14) (size 15 to 20)
#    0.000    2.429    0.000    2.571    2.000    3.143 
#    0.000    5.714    0.000    0.000    0.000    0.000 
#    0.000    0.000    0.000    0.000    0.000    0.000 
#
# Total GULP energy -347188.883309 kJ/mol
# GULP energy per Si atom -12399.602975 kJ/mol
# Density = 1.997846 g / cm^3
# Si number density = 20.024037 Si / 1000 Ang^3
#
#
#
# Elastic Constant Matrix: (Units=GPa)
#
#
# Indices 1 2 3 4 5 6 
#
# 1 79.5317 27.8805 41.7898 0.0000 8.0721 0.0000
# 2 27.8805 53.0139 39.8554 0.0000 1.2198 0.0000
# 3 41.7898 39.8554 115.3298 0.0000 -10.4580 0.0000
# 4 0.0000 0.0000 0.0000 33.6124 0.0000 -1.3434
# 5 8.0721 1.2198 -10.4580 0.0000 31.8104 0.0000
# 6 0.0000 0.0000 0.0000 -1.3434 0.0000 22.1824
#
#
#
# Elastic Compliance Matrix: (Units=1/GPa)
#
#
# Indices 1 2 3 4 5 6 
#
# 1 0.017748 -0.005341 -0.005128 0.000000 -0.005985 0.000000
# 2 -0.005341 0.027592 -0.007806 0.000000 -0.002269 0.000000
# 3 -0.005128 -0.007806 0.013782 0.000000 0.006132 0.000000
# 4 0.000000 0.000000 0.000000 0.029823 0.000000 0.001806
# 5 -0.005985 -0.002269 0.006132 0.000000 0.035058 0.000000
# 6 0.000000 0.000000 0.000000 0.001806 0.000000 0.045190
#
#
# Mechanical properties :
#
#
# Convention : Reuss Voigt Hill
#
# Bulk Modulus (GPa) = 44.30001 51.88075 48.09038
# Shear Modulus (GPa) = 23.44480 26.74436 25.09458
#
# Velocity S-wave (km/s) = 3.42546 3.65857 3.54393
# Velocity P-wave (km/s) = 6.14951 6.61909 6.38861
#
# Compressibility (1/GPa) = 0.02257336
#
# Stress axis : x y z
#
# Youngs Moduli (GPa) = 56.34512 36.24202 72.55644
#
# Poissons Ratio (x) = 0.19356 0.37206
# Poissons Ratio (y) = 0.30093 0.56636
# Poissons Ratio (z) = 0.28893 0.28290
#
# Static dielectric constant tensor:
#      x y z
#    x 3.781950 0.000000 0.067510 
#    y 0.000000 3.351920 0.000000 
#    z 0.067510 0.000000 3.634750 
# 
# 
# High freq. dielectric constant tensor:
#      x y z
#    x 1.779610 0.000000 0.001370 
#    y 0.000000 1.757150 0.000000 
#    z 0.001370 0.000000 1.789400 
# 
# From -- ./inp_files/70295.got.cif
#   From: 2010.06.25/outbox.cif.g09.slc.cpg/sg10_36_cif.got.tgz:70295.got - 2010.06.27 22:07:45.
