data_PCOD8064286
_publ_section_title
;
Structure prediction by ZEFSAII (Michael W. Deem and Ramdas Pophale) SiO2 
 PCOD8064286
Probable space group: P 2/M
;
_chemical_formula_sum "Si O2"
_cell_formula_units_Z 24
_cell_length_a 15.318172
_cell_length_b 10.563011
_cell_length_c 14.378265
_cell_angle_alpha 90.000000
_cell_angle_beta 149.535240
_cell_angle_gamma 90.000000
_cell_volume 1179.549694
_symmetry_space_group_name_H-M "P 2/M"
_symmetry_group_IT_number 10
_symmetry_cell_setting 'monoclinic'
loop_
_space_group_symop_operation_xyz
x,y,z
-x,y,-z
-x,-y,-z
x,-y,z
loop_
_atom_site_type_symbol
_atom_site_label
_atom_site_fract_x
_atom_site_fract_y
_atom_site_fract_z
Si Si1 0.808232 0.358700 0.235906
Si Si2 0.687081 0.854525 0.659655
Si Si3 0.734414 0.145871 0.909615
Si Si4 0.449713 0.641335 0.162822
Si Si5 0.817001 0.708526 0.443355
Si Si6 0.096017 0.854088 0.307910
O O1 0.767927 0.500000 0.236275
O O2 0.799704 0.263010 0.316931
O O3 0.001482 0.362457 0.370612
O O4 0.662209 0.317467 0.029722
O O5 0.500000 0.789039 0.500000
O O6 0.787049 0.843723 0.849446
O O7 0.791719 0.787427 0.671322
O O8 0.656646 0.000000 0.602882
O O9 0.581862 0.246493 0.791377
O O10 0.676673 0.000000 0.879353
O O11 0.898219 0.192015 0.120102
O O12 0.391910 0.500000 0.143853
O O13 0.650942 0.630078 0.323375
O O14 0.826700 0.832443 0.518148
O O15 0.091895 0.000000 0.280672
#
# Coordination Sequence:
#
# PCOD8064286 Si02
#       6
#     4   4   4   4   4   4
#     4  10  21  38  57  81 111 147 197 243 282 341
#     4   9  17  31  55  84 111 146 192 236 278 336
#     4  10  20  37  59  85 118 154 192 235 284 342
#     4  11  22  37  60  88 117 150 193 241 288 340
#     4  11  20  35  58  83 111 148 190 239 286 336
#     4  10  20  35  56  85 117 152 192 235 286 343
#
# _framework density 20.346747000000001
#
# number of rings (size 3 to 8) (size 9 to 14) (size 15 to 20)
#    0.000    1.833    1.667    4.000    0.000    5.333 
#    0.000    2.500    0.000   10.500    0.000    0.000 
#    0.000    0.000    0.000    0.000    0.000    0.000 
#
# Total GULP energy -297313.556121 kJ/mol
# GULP energy per Si atom -12388.064838 kJ/mol
# Density = 2.030044 g / cm^3
# Si number density = 20.346747 Si / 1000 Ang^3
#
#
#
# Elastic Constant Matrix: (Units=GPa)
#
#
# Indices 1 2 3 4 5 6 
#
# 1 110.0776 41.2985 35.6222 0.0000 9.5382 0.0000
# 2 41.2985 56.6747 20.5097 0.0000 5.5212 0.0000
# 3 35.6222 20.5097 90.0877 0.0000 4.9712 0.0000
# 4 0.0000 0.0000 0.0000 14.0771 0.0000 3.1001
# 5 9.5382 5.5212 4.9712 0.0000 33.6638 0.0000
# 6 0.0000 0.0000 0.0000 3.1001 0.0000 19.0984
#
#
#
# Elastic Compliance Matrix: (Units=1/GPa)
#
#
# Indices 1 2 3 4 5 6 
#
# 1 0.013491 -0.008445 -0.003304 0.000000 -0.001950 0.000000
# 2 -0.008445 0.024731 -0.002217 0.000000 -0.001336 0.000000
# 3 -0.003304 -0.002217 0.012945 0.000000 -0.000612 0.000000
# 4 0.000000 0.000000 0.000000 0.073671 0.000000 -0.011959
# 5 -0.001950 -0.001336 -0.000612 0.000000 0.030567 0.000000
# 6 0.000000 0.000000 0.000000 -0.011959 0.000000 0.054302
#
#
# Mechanical properties :
#
#
# Convention : Reuss Voigt Hill
#
# Bulk Modulus (GPa) = 43.04048 50.18898 46.61473
# Shear Modulus (GPa) = 20.37604 23.99514 22.18559
#
# Velocity S-wave (km/s) = 3.16799 3.43784 3.30567
# Velocity P-wave (km/s) = 5.88056 6.36228 6.12616
#
# Compressibility (1/GPa) = 0.02323394
#
# Stress axis : x y z
#
# Youngs Moduli (GPa) = 74.12229 40.43497 77.24716
#
# Poissons Ratio (x) = 0.34148 0.25526
# Poissons Ratio (y) = 0.62598 0.17128
# Poissons Ratio (z) = 0.24493 0.08966
#
# Static dielectric constant tensor:
#      x y z
#    x 3.796380 0.000000 0.177650 
#    y 0.000000 3.231800 0.000000 
#    z 0.177650 0.000000 3.887240 
# 
# 
# High freq. dielectric constant tensor:
#      x y z
#    x 1.795070 0.000000 0.005530 
#    y 0.000000 1.737970 0.000000 
#    z 0.005530 0.000000 1.813980 
# 
# From -- ./inp_files/67417.got.cif
#   From: 2010.06.25/outbox.cif.g09.slc.cpg/sg10_34_cif.got.tgz:67417.got - 2010.06.27 22:07:45.
