data_PCOD8064026
_publ_section_title
;
Structure prediction by ZEFSAII (Michael W. Deem and Ramdas Pophale) SiO2 
 PCOD8064026
Probable space group: P 2/M
;
_chemical_formula_sum "Si O2"
_cell_formula_units_Z 28
_cell_length_a 22.904673
_cell_length_b 9.015404
_cell_length_c 18.522946
_cell_angle_alpha 90.000000
_cell_angle_beta 24.169395
_cell_angle_gamma 90.000000
_cell_volume 1566.048183
_symmetry_space_group_name_H-M "P 2/M"
_symmetry_group_IT_number 10
_symmetry_cell_setting 'monoclinic'
loop_
_space_group_symop_operation_xyz
x,y,z
-x,y,-z
-x,-y,-z
x,-y,z
loop_
_atom_site_type_symbol
_atom_site_label
_atom_site_fract_x
_atom_site_fract_y
_atom_site_fract_z
Si Si1 0.993235 0.673010 0.725033
Si Si2 0.690195 0.674113 0.588628
Si Si3 0.563636 0.175361 0.591825
Si Si4 0.271268 0.324746 0.881263
Si Si5 0.941138 0.827354 0.491174
Si Si6 0.375970 0.172367 0.194123
Si Si7 0.341592 0.663314 0.648519
O O1 0.982300 0.500000 0.722582
O O2 0.143262 0.714485 0.592228
O O3 0.974262 0.751688 0.669647
O O4 0.868850 0.728027 0.918437
O O5 0.663842 0.500000 0.607812
O O6 0.631364 0.763033 0.587732
O O7 0.607234 0.728954 0.753334
O O8 0.405263 0.238859 0.762758
O O9 0.665516 0.222876 0.409934
O O10 0.556299 0.000000 0.603118
O O11 0.300509 0.500000 0.856423
O O12 0.245921 0.284790 0.824942
O O13 0.773281 0.793419 0.676618
O O14 0.000000 0.761910 0.500000
O O15 0.974991 0.000000 0.447619
O O16 0.388287 0.000000 0.201899
O O17 0.500000 0.220766 0.000000
O O18 0.500000 0.653545 0.500000
O O19 0.293167 0.500000 0.675671
#
# Coordination Sequence:
#
# PCOD8064026 Si02
#       7
#     4   4   4   4   4   4   4
#     4   9  19  35  54  75  99 130 167 206 248 293
#     4  10  20  35  53  73 101 135 169 205 248 296
#     4  11  21  32  50  76 103 132 168 207 248 295
#     4   9  18  34  54  76 101 129 165 208 251 296
#     4   9  18  32  49  70  98 131 163 197 242 294
#     4   9  18  33  51  71  98 130 164 203 245 291
#     4   8  15  30  51  72  98 131 164 203 250 294
#
# _framework density 17.879398999999999
#
# number of rings (size 3 to 8) (size 9 to 14) (size 15 to 20)
#    0.000    2.714    0.000    2.571    0.000    5.429 
#    0.000    2.143    0.000    4.286    0.000    0.000 
#    0.000    0.000    0.000    0.000    0.000    0.000 
#
# Total GULP energy -347174.927980 kJ/mol
# GULP energy per Si atom -12399.104571 kJ/mol
# Density = 1.783870 g / cm^3
# Si number density = 17.879399 Si / 1000 Ang^3
#
#
#
# Elastic Constant Matrix: (Units=GPa)
#
#
# Indices 1 2 3 4 5 6 
#
# 1 116.2650 58.7804 67.4069 0.0000 23.2967 0.0000
# 2 58.7804 80.7692 53.0260 0.0000 12.1157 0.0000
# 3 67.4069 53.0260 157.5495 0.0000 27.1201 0.0000
# 4 0.0000 0.0000 0.0000 11.3784 0.0000 7.5116
# 5 23.2967 12.1157 27.1201 0.0000 19.9798 0.0000
# 6 0.0000 0.0000 0.0000 7.5116 0.0000 27.8492
#
#
#
# Elastic Compliance Matrix: (Units=1/GPa)
#
#
# Indices 1 2 3 4 5 6 
#
# 1 0.016623 -0.009016 -0.002195 0.000000 -0.010936 0.000000
# 2 -0.009016 0.020931 -0.003669 0.000000 0.002801 0.000000
# 3 -0.002195 -0.003669 0.010045 0.000000 -0.008850 0.000000
# 4 0.000000 0.000000 0.000000 0.106926 0.000000 -0.028841
# 5 -0.010936 0.002801 -0.008850 0.000000 0.073116 0.000000
# 6 0.000000 0.000000 0.000000 -0.028841 0.000000 0.043687
#
#
# Mechanical properties :
#
#
# Convention : Reuss Voigt Hill
#
# Bulk Modulus (GPa) = 56.06030 79.22337 67.64184
# Shear Modulus (GPa) = 16.28473 23.53281 19.90877
#
# Velocity S-wave (km/s) = 3.02124 3.63188 3.34054
# Velocity P-wave (km/s) = 6.60252 7.87359 7.26590
#
# Compressibility (1/GPa) = 0.01783793
#
# Stress axis : x y z
#
# Youngs Moduli (GPa) = 60.15618 47.77500 99.55371
#
# Poissons Ratio (x) = 0.43075 0.21854
# Poissons Ratio (y) = 0.54238 0.36531
# Poissons Ratio (z) = 0.13206 0.17531
#
# Static dielectric constant tensor:
#      x y z
#    x 3.297780 0.000000 0.252320 
#    y 0.000000 3.255930 0.000000 
#    z 0.252320 0.000000 3.693370 
# 
# 
# High freq. dielectric constant tensor:
#      x y z
#    x 1.684360 0.000000 0.017600 
#    y 0.000000 1.686560 0.000000 
#    z 0.017600 0.000000 1.692610 
# 
# From -- ./inp_files/70216.got.cif
#   From: 2010.06.25/outbox.cif.g09.slc.cpg/sg10_36_cif.got.tgz:70216.got - 2010.06.27 22:07:45.
