data_PCOD8064192
_publ_section_title
;
Structure prediction by ZEFSAII (Michael W. Deem and Ramdas Pophale) SiO2 
 PCOD8064192
Probable space group: P 2/M
;
_chemical_formula_sum "Si O2"
_cell_formula_units_Z 28
_cell_length_a 23.578122
_cell_length_b 9.330119
_cell_length_c 20.705307
_cell_angle_alpha 90.000000
_cell_angle_beta 160.602233
_cell_angle_gamma 90.000000
_cell_volume 1512.790585
_symmetry_space_group_name_H-M "P 2/M"
_symmetry_group_IT_number 10
_symmetry_cell_setting 'monoclinic'
loop_
_space_group_symop_operation_xyz
x,y,z
-x,y,-z
-x,-y,-z
x,-y,z
loop_
_atom_site_type_symbol
_atom_site_label
_atom_site_fract_x
_atom_site_fract_y
_atom_site_fract_z
Si Si1 0.753754 0.833215 0.378906
Si Si2 0.086346 0.168532 0.943670
Si Si3 0.693135 0.846929 0.701443
Si Si4 0.107094 0.168990 0.822232
Si Si5 0.625892 0.832909 0.997343
Si Si6 0.196698 0.669644 0.697991
Si Si7 0.867831 0.338306 0.798953
O O1 0.741558 0.737283 0.302404
O O2 0.920407 0.779627 0.597244
O O3 0.773251 0.000000 0.380287
O O4 0.578705 0.810922 0.232394
O O5 0.134107 0.227709 0.923941
O O6 0.920617 0.253071 0.791466
O O7 0.045368 0.000000 0.897121
O O8 0.237814 0.210313 0.155529
O O9 0.500000 0.882571 0.500000
O O10 0.702870 0.736240 0.652494
O O11 0.787158 0.000000 0.786706
O O12 0.265018 0.222758 0.947441
O O13 0.110911 0.000000 0.827618
O O14 0.685218 0.738476 0.120882
O O15 0.666402 0.000000 0.054656
O O16 0.226426 0.500000 0.728192
O O17 0.000000 0.708868 0.500000
O O18 0.828718 0.500000 0.737094
O O19 0.000000 0.323878 0.000000
#
# Coordination Sequence:
#
# PCOD8064192 Si02
#       7
#     4   4   4   4   4   4   4
#     4  10  20  35  56  80 102 133 175 215 262 311
#     4   9  17  32  52  73 100 133 167 205 254 303
#     4   9  17  30  49  77 105 131 166 211 257 301
#     4   9  18  34  53  76 106 137 170 214 259 307
#     4  10  20  35  56  79 103 133 173 216 260 310
#     4  11  22  35  54  79 105 138 175 213 262 308
#     4   9  17  30  49  71  95 128 166 204 246 295
#
# _framework density 18.508842000000001
#
# number of rings (size 3 to 8) (size 9 to 14) (size 15 to 20)
#    0.000    2.429    1.429    1.286    0.000    4.857 
#    2.571    1.429    0.000    0.000    0.000    0.000 
#    0.000    0.000    0.000    0.000    0.000    0.000 
#
# Total GULP energy -346973.707959 kJ/mol
# GULP energy per Si atom -12391.918141 kJ/mol
# Density = 1.846672 g / cm^3
# Si number density = 18.508842 Si / 1000 Ang^3
#
#
#
# Elastic Constant Matrix: (Units=GPa)
#
#
# Indices 1 2 3 4 5 6 
#
# 1 158.1791 48.8241 60.1379 0.0000 3.4011 0.0000
# 2 48.8241 67.2965 23.9746 0.0000 4.7104 0.0000
# 3 60.1379 23.9746 81.5944 0.0000 16.5385 0.0000
# 4 0.0000 0.0000 0.0000 13.0470 0.0000 2.3167
# 5 3.4011 4.7104 16.5385 0.0000 27.8827 0.0000
# 6 0.0000 0.0000 0.0000 2.3167 0.0000 1.2248
#
#
#
# Elastic Compliance Matrix: (Units=1/GPa)
#
#
# Indices 1 2 3 4 5 6 
#
# 1 0.010565 -0.005453 -0.006945 0.000000 0.003752 0.000000
# 2 -0.005453 0.019412 -0.001312 0.000000 -0.001836 0.000000
# 3 -0.006945 -0.001312 0.019941 0.000000 -0.010759 0.000000
# 4 0.000000 0.000000 0.000000 0.115406 0.000000 -0.218285
# 5 0.003752 -0.001836 -0.010759 0.000000 0.042099 0.000000
# 6 0.000000 0.000000 0.000000 -0.218285 0.000000 1.229337
#
#
# Mechanical properties :
#
#
# Convention : Reuss Voigt Hill
#
# Bulk Modulus (GPa) = 44.45130 63.66036 54.05583
# Shear Modulus (GPa) = 3.39748 20.03978 11.71863
#
# Velocity S-wave (km/s) = 1.35631 3.29403 2.51895
# Velocity P-wave (km/s) = 5.14987 6.99548 6.14239
#
# Compressibility (1/GPa) = 0.02249653
#
# Stress axis : x y z
#
# Youngs Moduli (GPa) = 94.65328 51.51422 50.14889
#
# Poissons Ratio (x) = 0.28093 0.34827
# Poissons Ratio (y) = 0.51618 0.06581
# Poissons Ratio (z) = 0.65735 0.06760
#
# Static dielectric constant tensor:
#      x y z
#    x 3.648790 0.000000 0.127160 
#    y 0.000000 3.261000 0.000000 
#    z 0.127160 0.000000 3.360010 
# 
# 
# High freq. dielectric constant tensor:
#      x y z
#    x 1.719750 0.000000 0.012530 
#    y 0.000000 1.700930 0.000000 
#    z 0.012530 0.000000 1.703110 
# 
# From -- ./inp_files/37950.got.cif
#   From: 2010.06.25/outbox.cif.g09.slc.cpg/sg10_19_cif.got.tgz:37950.got - 2010.06.27 22:07:45.
