data_PCOD8064212
_publ_section_title
;
Structure prediction by ZEFSAII (Michael W. Deem and Ramdas Pophale) SiO2 
 PCOD8064212
Probable space group: P 2/M
;
_chemical_formula_sum "Si O2"
_cell_formula_units_Z 32
_cell_length_a 20.269480
_cell_length_b 9.120704
_cell_length_c 24.958552
_cell_angle_alpha 90.000000
_cell_angle_beta 22.778378
_cell_angle_gamma 90.000000
_cell_volume 1786.444137
_symmetry_space_group_name_H-M "P 2/M"
_symmetry_group_IT_number 10
_symmetry_cell_setting 'monoclinic'
loop_
_space_group_symop_operation_xyz
x,y,z
-x,y,-z
-x,-y,-z
x,-y,z
loop_
_atom_site_type_symbol
_atom_site_label
_atom_site_fract_x
_atom_site_fract_y
_atom_site_fract_z
Si Si1 0.948739 0.327063 0.907510
Si Si2 0.534062 0.667789 0.824100
Si Si3 0.154304 0.673800 0.849645
Si Si4 0.630549 0.673460 0.218722
Si Si5 0.055843 0.827015 0.302854
Si Si6 0.184217 0.827419 0.090281
Si Si7 0.293586 0.670312 0.415742
Si Si8 0.337668 0.328962 0.155832
O O1 0.947578 0.500000 0.897065
O O2 0.951934 0.242340 0.848926
O O3 0.120026 0.280101 0.813330
O O4 0.781067 0.277252 0.065995
O O5 0.468843 0.500000 0.874750
O O6 0.665272 0.691920 0.677627
O O7 0.631653 0.709421 0.805273
O O8 0.371739 0.769505 0.936936
O O9 0.146772 0.500000 0.857871
O O10 0.327615 0.725665 0.750765
O O11 0.000000 0.738553 0.000000
O O12 0.619186 0.500000 0.224178
O O13 0.449475 0.735309 0.334698
O O14 0.866919 0.766371 0.448884
O O15 0.131985 0.778955 0.188807
O O16 0.171781 0.759592 0.262566
O O17 0.052245 0.000000 0.312584
O O18 0.181411 0.000000 0.085212
O O19 0.257102 0.500000 0.455752
O O20 0.302449 0.500000 0.172757
O O21 0.500000 0.276145 0.000000
#
# Coordination Sequence:
#
# PCOD8064212 Si02
#       8
#     4   4   4   4   4   4   4   4
#     4   9  15  27  50  78 106 134 171 218 263 309
#     4  10  20  36  59  85 106 130 171 219 265 314
#     4   7  11  20  41  75 107 132 162 208 264 310
#     4   8  13  25  48  78 107 134 167 211 264 312
#     4  11  25  40  53  74 108 145 180 215 257 314
#     4  11  22  34  51  76 106 141 178 218 259 306
#     4  10  20  35  56  80 108 139 174 217 261 309
#     4  10  20  36  61  85 105 132 170 218 266 314
#
# _framework density 17.912680000000002
#
# number of rings (size 3 to 8) (size 9 to 14) (size 15 to 20)
#    0.000    2.500    2.500    2.250    0.000    3.250 
#    0.000    2.500    0.000    4.875    0.000    5.250 
#    0.000    0.000    0.000    0.000    0.000    0.000 
#
# Total GULP energy -396578.810354 kJ/mol
# GULP energy per Si atom -12393.087824 kJ/mol
# Density = 1.787191 g / cm^3
# Si number density = 17.912680 Si / 1000 Ang^3
#
#
#
# Elastic Constant Matrix: (Units=GPa)
#
#
# Indices 1 2 3 4 5 6 
#
# 1 136.6705 39.7982 29.4518 0.0000 -26.6871 0.0000
# 2 39.7982 41.1660 19.4540 0.0000 -2.7937 0.0000
# 3 29.4518 19.4540 56.1767 0.0000 -16.2947 0.0000
# 4 0.0000 0.0000 0.0000 16.6332 0.0000 6.4128
# 5 -26.6871 -2.7937 -16.2947 0.0000 25.3011 0.0000
# 6 0.0000 0.0000 0.0000 6.4128 0.0000 12.4209
#
#
#
# Elastic Compliance Matrix: (Units=1/GPa)
#
#
# Indices 1 2 3 4 5 6 
#
# 1 0.013346 -0.012592 0.001283 0.000000 0.013513 0.000000
# 2 -0.012592 0.041262 -0.012566 0.000000 -0.016818 0.000000
# 3 0.001283 -0.012566 0.026402 0.000000 0.016970 0.000000
# 4 0.000000 0.000000 0.000000 0.075062 0.000000 -0.038754
# 5 0.013513 -0.016818 0.016970 0.000000 0.062849 0.000000
# 6 0.000000 0.000000 0.000000 -0.038754 0.000000 0.100517
#
#
# Mechanical properties :
#
#
# Convention : Reuss Voigt Hill
#
# Bulk Modulus (GPa) = 30.06495 45.71347 37.88921
# Shear Modulus (GPa) = 13.21797 20.55834 16.88815
#
# Velocity S-wave (km/s) = 2.71940 3.39144 3.07384
# Velocity P-wave (km/s) = 5.16534 6.39620 5.81344
#
# Compressibility (1/GPa) = 0.03326132
#
# Stress axis : x y z
#
# Youngs Moduli (GPa) = 74.93136 24.23535 37.87588
#
# Poissons Ratio (x) = 0.30516 -0.04861
# Poissons Ratio (y) = 0.94350 0.47594
# Poissons Ratio (z) = -0.09616 0.30454
#
# Static dielectric constant tensor:
#      x y z
#    x 3.889500 0.000000 -0.219870 
#    y 0.000000 2.985380 0.000000 
#    z -0.219870 0.000000 3.076550 
# 
# 
# High freq. dielectric constant tensor:
#      x y z
#    x 1.718540 0.000000 -0.016140 
#    y 0.000000 1.660520 0.000000 
#    z -0.016140 0.000000 1.659390 
# 
# From -- ./inp_files/93675.got.cif
#   From: 2010.06.25/outbox.cif.g09.slc.cpg/sg10_47_cif.got.tgz:93675.got - 2010.06.27 22:07:45.
