data_PCOD8064232
_publ_section_title
;
Structure prediction by ZEFSAII (Michael W. Deem and Ramdas Pophale) SiO2 
 PCOD8064232
Probable space group: P 2/M
;
_chemical_formula_sum "Si O2"
_cell_formula_units_Z 32
_cell_length_a 25.800379
_cell_length_b 9.086354
_cell_length_c 19.965857
_cell_angle_alpha 90.000000
_cell_angle_beta 21.232191
_cell_angle_gamma 90.000000
_cell_volume 1695.079923
_symmetry_space_group_name_H-M "P 2/M"
_symmetry_group_IT_number 10
_symmetry_cell_setting 'monoclinic'
loop_
_space_group_symop_operation_xyz
x,y,z
-x,y,-z
-x,-y,-z
x,-y,z
loop_
_atom_site_type_symbol
_atom_site_label
_atom_site_fract_x
_atom_site_fract_y
_atom_site_fract_z
Si Si1 0.838652 0.173616 0.197910
Si Si2 0.298534 0.174378 0.131998
Si Si3 0.669785 0.326542 0.138006
Si Si4 0.205208 0.669796 0.375969
Si Si5 0.874202 0.328411 0.772304
Si Si6 0.640124 0.669864 0.537642
Si Si7 0.589231 0.668823 0.750163
Si Si8 0.342709 0.826568 0.710092
O O1 0.764562 0.240797 0.352065
O O2 0.762131 0.225538 0.222306
O O3 0.830857 0.000000 0.215391
O O4 0.000000 0.231695 0.000000
O O5 0.271564 0.227256 0.239647
O O6 0.175299 0.239366 0.233079
O O7 0.291601 0.000000 0.137421
O O8 0.454055 0.226476 0.921669
O O9 0.674837 0.500000 0.142435
O O10 0.514392 0.272676 0.300710
O O11 0.710259 0.249890 0.158584
O O12 0.785128 0.275887 0.944070
O O13 0.226043 0.500000 0.329679
O O14 0.288238 0.706120 0.344162
O O15 0.039373 0.706591 0.587454
O O16 0.847127 0.500000 0.790338
O O17 0.657900 0.500000 0.497578
O O18 0.657514 0.697442 0.595523
O O19 0.536278 0.500000 0.820258
O O20 0.500000 0.771836 0.500000
O O21 0.339682 0.000000 0.725445
#
# Coordination Sequence:
#
# PCOD8064232 Si02
#       8
#     4   4   4   4   4   4   4   4
#     4  10  22  39  57  81 116 154 188 225 277 339
#     4  12  24  37  58  87 118 154 194 238 286 338
#     4  10  20  35  59  88 114 142 184 238 284 328
#     4  10  22  39  62  85 113 154 192 235 292 347
#     4  10  21  40  61  85 115 150 193 238 289 348
#     4  10  20  36  60  87 114 144 185 238 283 329
#     4  10  21  40  62  86 115 151 196 238 286 348
#     4  10  20  35  56  81 109 146 188 226 267 329
#
# _framework density 18.878164999999999
#
# number of rings (size 3 to 8) (size 9 to 14) (size 15 to 20)
#    0.000    1.750    2.500    1.875    0.000    7.000 
#    0.000    1.250    0.000    0.000    0.000    0.000 
#    0.000    0.000    0.000    0.000    0.000    0.000 
#
# Total GULP energy -396975.088123 kJ/mol
# GULP energy per Si atom -12405.471504 kJ/mol
# Density = 1.883520 g / cm^3
# Si number density = 18.878165 Si / 1000 Ang^3
#
#
#
# Elastic Constant Matrix: (Units=GPa)
#
#
# Indices 1 2 3 4 5 6 
#
# 1 135.6107 41.2647 47.3407 0.0000 -0.3288 0.0000
# 2 41.2647 54.9084 29.9156 0.0000 0.4070 0.0000
# 3 47.3407 29.9156 93.6589 0.0000 -5.2492 0.0000
# 4 0.0000 0.0000 0.0000 8.6006 0.0000 -10.6055
# 5 -0.3288 0.4070 -5.2492 0.0000 38.1364 0.0000
# 6 0.0000 0.0000 0.0000 -10.6055 0.0000 -1.3855
#
#
#
# Elastic Compliance Matrix: (Units=1/GPa)
#
#
# Indices 1 2 3 4 5 6 
#
# 1 0.010354 -0.005955 -0.003349 0.000000 -0.000308 0.000000
# 2 -0.005955 0.025530 -0.005203 0.000000 -0.001040 0.000000
# 3 -0.003349 -0.005203 0.014142 0.000000 0.001973 0.000000
# 4 0.000000 0.000000 0.000000 0.011138 0.000000 -0.085258
# 5 -0.000308 -0.001040 0.001973 0.000000 0.026502 0.000000
# 6 0.000000 0.000000 0.000000 -0.085258 0.000000 -0.069141
#
#
# Mechanical properties :
#
#
# Convention : Reuss Voigt Hill
#
# Bulk Modulus (GPa) = 47.58915 57.91336 52.75125
# Shear Modulus (GPa) = 91.67176 20.11409 55.89293
#
# Velocity S-wave (km/s) = 6.97604 3.26769 5.44715
# Velocity P-wave (km/s) = 9.49474 6.70680 8.21983
#
# Compressibility (1/GPa) = 0.02101319
#
# Stress axis : x y z
#
# Youngs Moduli (GPa) = 96.57807 39.17034 70.71003
#
# Poissons Ratio (x) = 0.23324 0.23681
# Poissons Ratio (y) = 0.57508 0.36790
# Poissons Ratio (z) = 0.32344 0.20380
#
# Static dielectric constant tensor:
#      x y z
#    x 3.582090 0.000000 -0.034750 
#    y 0.000000 3.300870 0.000000 
#    z -0.034750 0.000000 3.511930 
# 
# 
# High freq. dielectric constant tensor:
#      x y z
#    x 1.746320 0.000000 0.002210 
#    y 0.000000 1.718840 0.000000 
#    z 0.002210 0.000000 1.738570 
# 
# From -- ./inp_files/86752.got.cif
#   From: 2010.06.25/outbox.cif.g09.slc.cpg/sg10_44_cif.got.tgz:86752.got - 2010.06.27 22:07:45.
