data_PCOD8064701
_publ_section_title
;
Structure prediction by ZEFSAII (Michael W. Deem and Ramdas Pophale) SiO2 
 PCOD8064701
Probable space group: P 2/M
;
_chemical_formula_sum "Si O2"
_cell_formula_units_Z 32
_cell_length_a 12.254441
_cell_length_b 9.063536
_cell_length_c 28.789814
_cell_angle_alpha 90.000000
_cell_angle_beta 149.017608
_cell_angle_gamma 90.000000
_cell_volume 1646.065687
_symmetry_space_group_name_H-M "P 2/M"
_symmetry_group_IT_number 10
_symmetry_cell_setting 'monoclinic'
loop_
_space_group_symop_operation_xyz
x,y,z
-x,y,-z
-x,-y,-z
x,-y,z
loop_
_atom_site_type_symbol
_atom_site_label
_atom_site_fract_x
_atom_site_fract_y
_atom_site_fract_z
Si Si1 0.727603 0.838172 0.106199
Si Si2 0.364874 0.326213 0.745893
Si Si3 0.498639 0.825691 0.613142
Si Si4 0.114336 0.328504 0.918650
Si Si5 0.064843 0.175057 0.403830
Si Si6 0.491334 0.175033 0.108161
Si Si7 0.631141 0.330186 0.753335
Si Si8 0.714836 0.172295 0.604053
O O1 0.869437 0.722680 0.129374
O O2 0.686492 0.786396 0.144257
O O3 0.838509 0.000000 0.145926
O O4 0.500000 0.851986 0.000000
O O5 0.352882 0.500000 0.750278
O O6 0.459995 0.247437 0.825282
O O7 0.518332 0.284942 0.759655
O O8 0.134145 0.263457 0.648874
O O9 0.267618 0.782840 0.508998
O O10 0.525770 0.759326 0.673435
O O11 0.686638 0.765226 0.646498
O O12 0.516045 0.000000 0.623332
O O13 0.173335 0.500000 0.943112
O O14 0.878478 0.294749 0.849971
O O15 0.270033 0.237762 0.008473
O O16 0.098202 0.229505 0.361846
O O17 0.021285 0.000000 0.389614
O O18 0.467605 0.000000 0.104714
O O19 0.595293 0.500000 0.728161
O O20 0.500000 0.210995 0.500000
O O21 0.746204 0.000000 0.619885
#
# Coordination Sequence:
#
# PCOD8064701 Si02
#       8
#     4   4   4   4   4   4   4   4
#     4   8  16  32  54  82 113 140 169 211 267 325
#     4  11  24  40  55  74 105 147 190 224 264 321
#     4   9  18  34  59  85 108 140 179 219 266 322
#     4  10  20  36  58  82 110 144 180 219 265 319
#     4   9  18  35  58  84 112 139 174 223 272 316
#     4  10  21  38  59  83 111 140 173 221 275 321
#     4  10  24  41  53  73 109 148 184 225 269 314
#     4   7  12  27  52  81 110 137 167 209 266 324
#
# _framework density 19.440294000000002
#
# number of rings (size 3 to 8) (size 9 to 14) (size 15 to 20)
#    0.000    2.750    0.000    3.375    0.000    7.250 
#    0.000    9.375    0.000    2.250    0.000    0.000 
#    0.000    0.000    0.000    0.000    0.000    0.000 
#
# Total GULP energy -396528.317423 kJ/mol
# GULP energy per Si atom -12391.509919 kJ/mol
# Density = 1.939605 g / cm^3
# Si number density = 19.440294 Si / 1000 Ang^3
#
#
#
# Elastic Constant Matrix: (Units=GPa)
#
#
# Indices 1 2 3 4 5 6 
#
# 1 -53.0499 -24.2154 -136.5699 0.0000 -27.0437 0.0000
# 2 -24.2154 39.8970 -39.7061 0.0000 -12.2338 0.0000
# 3 -136.5699 -39.7061 -109.8685 0.0000 -31.6916 0.0000
# 4 0.0000 0.0000 0.0000 25.1184 0.0000 -0.2203
# 5 -27.0437 -12.2338 -31.6916 0.0000 30.9066 0.0000
# 6 0.0000 0.0000 0.0000 -0.2203 0.0000 38.8418
#
#
#
# Elastic Compliance Matrix: (Units=1/GPa)
#
#
# Indices 1 2 3 4 5 6 
#
# 1 0.009899 -0.004633 -0.009724 0.000000 -0.003143 0.000000
# 2 -0.004633 0.020608 -0.002217 0.000000 0.001830 0.000000
# 3 -0.009724 -0.002217 0.005011 0.000000 -0.004247 0.000000
# 4 0.000000 0.000000 0.000000 0.039813 0.000000 0.000226
# 5 -0.003143 0.001830 -0.004247 0.000000 0.025975 0.000000
# 6 0.000000 0.000000 0.000000 0.000226 0.000000 0.025747
#
#
# Mechanical properties :
#
#
# Convention : Reuss Voigt Hill
#
# Bulk Modulus (GPa) = 421.72052 -58.22268 181.74892
# Shear Modulus (GPa) = 31.05797 24.13804 27.59800
#
# Velocity S-wave (km/s) = 4.00134 3.52753 3.77188
# Velocity P-wave (km/s) = 15.45153 3.66377 10.61430
#
# Compressibility (1/GPa) = 0.00237124
#
# Stress axis : x y z
#
# Youngs Moduli (GPa) = 101.02328 48.52558 199.55317
#
# Poissons Ratio (x) = 0.22481 1.94037
# Poissons Ratio (y) = 0.46802 0.44238
# Poissons Ratio (z) = 0.98231 0.10757
#
# Static dielectric constant tensor:
#      x y z
#    x 3.969550 0.000000 0.038840 
#    y 0.000000 3.387470 0.000000 
#    z 0.038840 0.000000 3.399080 
# 
# 
# High freq. dielectric constant tensor:
#      x y z
#    x 1.767240 0.000000 0.000450 
#    y 0.000000 1.737260 0.000000 
#    z 0.000450 0.000000 1.751450 
# 
# From -- ./inp_files/95028.got.cif
#   From: 2010.06.25/outbox.cif.g09.slc.cpg/sg10_48_cif.got.tgz:95028.got - 2010.06.27 22:07:45.
