data_PCOD8064253
_publ_section_title
;
Structure prediction by ZEFSAII (Michael W. Deem and Ramdas Pophale) SiO2 
 PCOD8064253
Probable space group: P 2/M
;
_chemical_formula_sum "Si O2"
_cell_formula_units_Z 28
_cell_length_a 10.273851
_cell_length_b 8.947169
_cell_length_c 27.938220
_cell_angle_alpha 90.000000
_cell_angle_beta 145.559804
_cell_angle_gamma 90.000000
_cell_volume 1452.397057
_symmetry_space_group_name_H-M "P 2/M"
_symmetry_group_IT_number 10
_symmetry_cell_setting 'monoclinic'
loop_
_space_group_symop_operation_xyz
x,y,z
-x,y,-z
-x,-y,-z
x,-y,z
loop_
_atom_site_type_symbol
_atom_site_label
_atom_site_fract_x
_atom_site_fract_y
_atom_site_fract_z
Si Si1 0.130319 0.328325 0.169861
Si Si2 0.875613 0.323534 0.722454
Si Si3 0.325173 0.823283 0.818433
Si Si4 0.557095 0.822965 0.252112
Si Si5 0.614923 0.327800 0.985722
Si Si6 0.465996 0.825666 0.544801
Si Si7 0.016362 0.823129 0.558289
O O1 0.207917 0.500000 0.192568
O O2 0.112178 0.271231 0.218800
O O3 0.312477 0.233028 0.195905
O O4 0.887342 0.305668 0.070214
O O5 0.903981 0.500000 0.726626
O O6 0.633863 0.272337 0.627873
O O7 0.079295 0.246972 0.755149
O O8 0.401048 0.767563 0.789105
O O9 0.520917 0.771782 0.914332
O O10 0.298450 0.000000 0.812468
O O11 0.759752 0.756824 0.347206
O O12 0.557330 0.000000 0.254393
O O13 0.545557 0.500000 0.955675
O O14 0.500000 0.272017 0.000000
O O15 0.500000 0.785820 0.500000
O O16 0.208126 0.778002 0.479912
O O17 0.513205 0.000000 0.569448
O O18 0.000000 0.754482 0.500000
O O19 0.039798 0.000000 0.562280
#
# Coordination Sequence:
#
# PCOD8064253 Si02
#       7
#     4   4   4   4   4   4   4
#     4  10  22  39  60  85 114 151 194 240 289 347
#     4  11  22  38  59  85 117 154 197 242 292 348
#     4  11  23  38  59  88 120 154 194 241 295 350
#     4  10  22  39  58  85 120 153 190 241 294 347
#     4  10  20  40  63  84 116 154 194 240 290 344
#     4  10  20  35  56  82 113 149 193 243 291 342
#     4   9  17  32  55  79 107 147 190 230 281 339
#
# _framework density 19.278473999999999
#
# number of rings (size 3 to 8) (size 9 to 14) (size 15 to 20)
#    0.000    1.857    1.429    2.571    0.000    7.429 
#    0.000    3.571    0.000    2.571    0.000    0.000 
#    0.000    0.000    0.000    0.000    0.000    0.000 
#
# Total GULP energy -347324.004058 kJ/mol
# GULP energy per Si atom -12404.428716 kJ/mol
# Density = 1.923460 g / cm^3
# Si number density = 19.278474 Si / 1000 Ang^3
#
#
#
# Elastic Constant Matrix: (Units=GPa)
#
#
# Indices 1 2 3 4 5 6 
#
# 1 144.3669 33.3573 47.4008 0.0000 -0.3423 0.0000
# 2 33.3573 40.8676 26.3206 0.0000 -4.4688 0.0000
# 3 47.4008 26.3206 111.4340 0.0000 -2.0428 0.0000
# 4 0.0000 0.0000 0.0000 29.2854 0.0000 0.8061
# 5 -0.3423 -4.4688 -2.0428 0.0000 33.8174 0.0000
# 6 0.0000 0.0000 0.0000 0.8061 0.0000 26.1954
#
#
#
# Elastic Compliance Matrix: (Units=1/GPa)
#
#
# Indices 1 2 3 4 5 6 
#
# 1 0.009112 -0.005924 -0.002492 0.000000 -0.000841 0.000000
# 2 -0.005924 0.033109 -0.005227 0.000000 0.003999 0.000000
# 3 -0.002492 -0.005227 0.011268 0.000000 -0.000035 0.000000
# 4 0.000000 0.000000 0.000000 0.034176 0.000000 -0.001052
# 5 -0.000841 0.003999 -0.000035 0.000000 0.030088 0.000000
# 6 0.000000 0.000000 0.000000 -0.001052 0.000000 0.038207
#
#
# Mechanical properties :
#
#
# Convention : Reuss Voigt Hill
#
# Bulk Modulus (GPa) = 38.16522 56.75844 47.46183
# Shear Modulus (GPa) = 26.04436 30.49894 28.27165
#
# Velocity S-wave (km/s) = 3.67952 3.98178 3.83363
# Velocity P-wave (km/s) = 6.15562 7.11651 6.65343
#
# Compressibility (1/GPa) = 0.02620187
#
# Stress axis : x y z
#
# Youngs Moduli (GPa) = 109.74646 30.20359 88.74776
#
# Poissons Ratio (x) = 0.17894 0.22116
# Poissons Ratio (y) = 0.65018 0.46387
# Poissons Ratio (z) = 0.27349 0.15787
#
# Static dielectric constant tensor:
#      x y z
#    x 3.652760 0.000000 -0.102660 
#    y 0.000000 3.290590 0.000000 
#    z -0.102660 0.000000 3.670890 
# 
# 
# High freq. dielectric constant tensor:
#      x y z
#    x 1.762550 0.000000 0.000420 
#    y 0.000000 1.727570 0.000000 
#    z 0.000420 0.000000 1.766070 
# 
# From -- ./inp_files/91876.got.cif
#   From: 2010.06.25/outbox.cif.g09.slc.cpg/sg10_46_cif.got.tgz:91876.got - 2010.06.27 22:07:45.
