data_PCOD8064217
_publ_section_title
;
Structure prediction by ZEFSAII (Michael W. Deem and Ramdas Pophale) SiO2 
 PCOD8064217
Probable space group: P 2/M
;
_chemical_formula_sum "Si O2"
_cell_formula_units_Z 32
_cell_length_a 25.720163
_cell_length_b 9.594469
_cell_length_c 18.497914
_cell_angle_alpha 90.000000
_cell_angle_beta 157.798680
_cell_angle_gamma 90.000000
_cell_volume 1724.847765
_symmetry_space_group_name_H-M "P 2/M"
_symmetry_group_IT_number 10
_symmetry_cell_setting 'monoclinic'
loop_
_space_group_symop_operation_xyz
x,y,z
-x,y,-z
-x,-y,-z
x,-y,z
loop_
_atom_site_type_symbol
_atom_site_label
_atom_site_fract_x
_atom_site_fract_y
_atom_site_fract_z
Si Si1 0.166717 0.835872 0.417448
Si Si2 0.886074 0.835287 0.127769
Si Si3 0.855353 0.834078 0.775791
Si Si4 0.133187 0.653430 0.763252
Si Si5 0.813373 0.653385 0.324219
Si Si6 0.647979 0.835237 0.216598
Si Si7 0.627590 0.344886 0.560688
Si Si8 0.667942 0.654978 0.781699
O O1 0.155692 0.776711 0.321407
O O2 0.305776 0.792027 0.641442
O O3 0.037839 0.784349 0.299539
O O4 0.159401 0.000000 0.400629
O O5 0.837149 0.772298 0.140707
O O6 0.874690 0.000000 0.116717
O O7 0.781174 0.774677 0.934734
O O8 0.727534 0.767197 0.653100
O O9 0.838963 0.000000 0.758233
O O10 0.000000 0.789463 0.000000
O O11 0.175953 0.500000 0.847765
O O12 0.220558 0.687403 0.803375
O O13 0.974677 0.651891 0.540401
O O14 0.753438 0.500000 0.267710
O O15 0.755744 0.774094 0.299588
O O16 0.654405 0.000000 0.217225
O O17 0.500000 0.777556 0.000000
O O18 0.662367 0.500000 0.575203
O O19 0.465894 0.308738 0.340642
O O20 0.638619 0.344359 0.660079
O O21 0.721051 0.500000 0.872170
#
# Coordination Sequence:
#
# PCOD8064217 Si02
#       8
#     4   4   4   4   4   4   4   4
#     4   9  19  35  52  76 109 140 178 225 271 323
#     4  11  20  32  54  82 107 136 179 225 266 320
#     4  10  20  35  56  80 111 149 180 221 277 319
#     4   9  18  33  53  77 107 138 166 213 277 324
#     4   9  18  34  55  77 103 136 175 218 268 324
#     4  10  20  36  56  75 104 148 186 225 275 320
#     4   9  19  37  57  77 105 143 182 219 265 322
#     4   9  19  36  56  77 108 144 173 215 275 327
#
# _framework density 18.552361999999999
#
# number of rings (size 3 to 8) (size 9 to 14) (size 15 to 20)
#    0.000    2.500    1.250    2.625    0.000    3.000 
#    2.250    4.375    0.000    0.000    0.000    0.000 
#    0.000    0.000    0.000    0.000    0.000    0.000 
#
# Total GULP energy -396444.551438 kJ/mol
# GULP energy per Si atom -12388.892232 kJ/mol
# Density = 1.851014 g / cm^3
# Si number density = 18.552362 Si / 1000 Ang^3
#
#
#
# Elastic Constant Matrix: (Units=GPa)
#
#
# Indices 1 2 3 4 5 6 
#
# 1 98.4653 31.0551 38.4762 0.0000 -7.0181 0.0000
# 2 31.0551 56.6554 30.4082 0.0000 0.6820 0.0000
# 3 38.4762 30.4082 89.0885 0.0000 -11.2771 0.0000
# 4 0.0000 0.0000 0.0000 20.4659 0.0000 6.5256
# 5 -7.0181 0.6820 -11.2771 0.0000 23.7657 0.0000
# 6 0.0000 0.0000 0.0000 6.5256 0.0000 7.1245
#
#
#
# Elastic Compliance Matrix: (Units=1/GPa)
#
#
# Indices 1 2 3 4 5 6 
#
# 1 0.013475 -0.005454 -0.003654 0.000000 0.002402 0.000000
# 2 -0.005454 0.024255 -0.006612 0.000000 -0.005444 0.000000
# 3 -0.003654 -0.006612 0.015903 0.000000 0.006657 0.000000
# 4 0.000000 0.000000 0.000000 0.069019 0.000000 -0.063217
# 5 0.002402 -0.005444 0.006657 0.000000 0.046102 0.000000
# 6 0.000000 0.000000 0.000000 -0.063217 0.000000 0.198264
#
#
# Mechanical properties :
#
#
# Convention : Reuss Voigt Hill
#
# Bulk Modulus (GPa) = 45.06249 49.34313 47.20281
# Shear Modulus (GPa) = 12.31970 19.88919 16.10445
#
# Velocity S-wave (km/s) = 2.57971 3.27778 2.94947
# Velocity P-wave (km/s) = 5.76327 6.40153 6.09077
#
# Compressibility (1/GPa) = 0.02219140
#
# Stress axis : x y z
#
# Youngs Moduli (GPa) = 74.21134 41.22931 62.88299
#
# Poissons Ratio (x) = 0.22486 0.22978
# Poissons Ratio (y) = 0.40474 0.41581
# Poissons Ratio (z) = 0.27118 0.27262
#
# Static dielectric constant tensor:
#      x y z
#    x 3.743480 0.000000 -0.172640 
#    y 0.000000 3.295770 0.000000 
#    z -0.172640 0.000000 3.651560 
# 
# 
# High freq. dielectric constant tensor:
#      x y z
#    x 1.719070 0.000000 -0.010540 
#    y 0.000000 1.705610 0.000000 
#    z -0.010540 0.000000 1.713960 
# 
# From -- ./inp_files/87012.got.cif
#   From: 2010.06.25/outbox.cif.g09.slc.cpg/sg10_44_cif.got.tgz:87012.got - 2010.06.27 22:07:45.
