data_PCOD8064764
_publ_section_title
;
Structure prediction by ZEFSAII (Michael W. Deem and Ramdas Pophale) SiO2 
 PCOD8064764
Probable space group: P 2/M
;
_chemical_formula_sum "Si O2"
_cell_formula_units_Z 26
_cell_length_a 13.473197
_cell_length_b 11.274556
_cell_length_c 8.464081
_cell_angle_alpha 90.000000
_cell_angle_beta 79.317413
_cell_angle_gamma 90.000000
_cell_volume 1263.447653
_symmetry_space_group_name_H-M "P 2/M"
_symmetry_group_IT_number 10
_symmetry_cell_setting 'monoclinic'
loop_
_space_group_symop_operation_xyz
x,y,z
-x,y,-z
-x,-y,-z
x,-y,z
loop_
_atom_site_type_symbol
_atom_site_label
_atom_site_fract_x
_atom_site_fract_y
_atom_site_fract_z
Si Si1 0.500000 0.238710 0.000000
Si Si2 0.859185 0.860705 0.661655
Si Si3 0.552218 0.862494 0.327567
Si Si4 0.936803 0.761390 0.320560
Si Si5 0.229558 0.136076 0.824429
Si Si6 0.279968 0.275358 0.101445
Si Si7 0.943404 0.500000 0.257176
Si Si8 0.842554 0.500000 0.970488
O O1 0.488511 0.170383 0.835922
O O2 0.602141 0.313873 0.938527
O O3 0.888909 0.839488 0.472804
O O4 0.758695 0.781122 0.721947
O O5 0.950215 0.810177 0.745714
O O6 0.840615 0.000000 0.696152
O O7 0.500000 0.802072 0.500000
O O8 0.671548 0.833611 0.309969
O O9 0.530638 0.000000 0.344685
O O10 0.866344 0.782245 0.190212
O O11 0.937000 0.620389 0.363292
O O12 0.197722 0.000000 0.817050
O O13 0.258770 0.163277 0.994876
O O14 0.217668 0.387600 0.069692
O O15 0.048058 0.500000 0.136032
O O16 0.852000 0.500000 0.157386
#
# Coordination Sequence:
#
# PCOD8064764 Si02
#       8
#     2   4   4   4   4   4   2   2
#     4  10  23  39  60  90 124 162 217 267 312 378
#     4  11  24  39  59  93 132 164 199 249 319 382
#     4   9  19  35  58  86 121 167 210 259 317 376
#     4  11  22  39  60  90 125 165 202 254 306 372
#     4  10  20  36  58  89 122 160 207 252 313 377
#     4  11  23  41  63  89 121 164 208 260 313 365
#     4  11  22  40  67  89 120 160 214 260 300 360
#     4  11  22  42  64  90 120 157 215 262 307 373
#
# _framework density 20.578614000000002
#
# number of rings (size 3 to 8) (size 9 to 14) (size 15 to 20)
#    0.000    1.538    3.077    2.538    2.154    4.615 
#    0.000    1.538    0.000    0.000    0.000    4.308 
#    0.000    0.000    0.000    0.000    0.000    0.000 
#
# Total GULP energy -322106.078554 kJ/mol
# GULP energy per Si atom -12388.695329 kJ/mol
# Density = 2.053178 g / cm^3
# Si number density = 20.578614 Si / 1000 Ang^3
#
#
#
# Elastic Constant Matrix: (Units=GPa)
#
#
# Indices 1 2 3 4 5 6 
#
# 1 84.8926 36.8152 17.2711 0.0000 -3.4214 0.0000
# 2 36.8152 106.6816 8.1127 0.0000 -6.3056 0.0000
# 3 17.2711 8.1127 73.0307 0.0000 -3.6155 0.0000
# 4 0.0000 0.0000 0.0000 22.2057 0.0000 -0.2008
# 5 -3.4214 -6.3056 -3.6155 0.0000 30.7406 0.0000
# 6 0.0000 0.0000 0.0000 -0.2008 0.0000 50.7494
#
#
#
# Elastic Compliance Matrix: (Units=1/GPa)
#
#
# Indices 1 2 3 4 5 6 
#
# 1 0.014434 -0.004745 -0.002872 0.000000 0.000295 0.000000
# 2 -0.004745 0.011117 -0.000026 0.000000 0.001749 0.000000
# 3 -0.002872 -0.000026 0.014443 0.000000 0.001374 0.000000
# 4 0.000000 0.000000 0.000000 0.045035 0.000000 0.000178
# 5 0.000295 0.001749 0.001374 0.000000 0.033083 0.000000
# 6 0.000000 0.000000 0.000000 0.000178 0.000000 0.019705
#
#
# Mechanical properties :
#
#
# Convention : Reuss Voigt Hill
#
# Bulk Modulus (GPa) = 40.47403 43.22256 41.84830
# Shear Modulus (GPa) = 30.99076 34.23286 32.61181
#
# Velocity S-wave (km/s) = 3.88489 4.08305 3.98520
# Velocity P-wave (km/s) = 6.31141 6.57857 6.44637
#
# Compressibility (1/GPa) = 0.02470720
#
# Stress axis : x y z
#
# Youngs Moduli (GPa) = 69.28318 89.95595 69.23816
#
# Poissons Ratio (x) = 0.42685 0.19883
# Poissons Ratio (y) = 0.32875 0.00181
# Poissons Ratio (z) = 0.19896 0.00235
#
# Static dielectric constant tensor:
#      x y z
#    x 4.166050 0.000000 -0.118100 
#    y 0.000000 3.731400 0.000000 
#    z -0.118100 0.000000 3.768310 
# 
# 
# High freq. dielectric constant tensor:
#      x y z
#    x 1.812950 0.000000 -0.005150 
#    y 0.000000 1.787410 0.000000 
#    z -0.005150 0.000000 1.801420 
# 
# From -- ./inp_files/27871.got.cif
#   From: 2010.06.25/outbox.cif.g09.slc.cpg/sg10_14_cif.got.tgz:27871.got - 2010.06.27 22:07:45.
