data_PCOD8064381
_publ_section_title
;
Structure prediction by ZEFSAII (Michael W. Deem and Ramdas Pophale) SiO2 
 PCOD8064381
Probable space group: P 2/M
;
_chemical_formula_sum "Si O2"
_cell_formula_units_Z 26
_cell_length_a 21.441398
_cell_length_b 9.788434
_cell_length_c 8.252909
_cell_angle_alpha 90.000000
_cell_angle_beta 48.085053
_cell_angle_gamma 90.000000
_cell_volume 1288.921435
_symmetry_space_group_name_H-M "P 2/M"
_symmetry_group_IT_number 10
_symmetry_cell_setting 'monoclinic'
loop_
_space_group_symop_operation_xyz
x,y,z
-x,y,-z
-x,-y,-z
x,-y,z
loop_
_atom_site_type_symbol
_atom_site_label
_atom_site_fract_x
_atom_site_fract_y
_atom_site_fract_z
Si Si1 0.025322 0.660897 0.282230
Si Si2 0.677471 0.851290 0.253396
Si Si3 0.193825 0.652047 0.844235
Si Si4 0.500000 0.738082 0.500000
Si Si5 0.439822 0.346989 0.951786
Si Si6 0.715109 0.843993 0.822782
Si Si7 0.852983 0.347799 0.443635
O O1 0.040192 0.500000 0.264299
O O2 0.950369 0.696285 0.288606
O O3 0.000000 0.721837 0.500000
O O4 0.114898 0.723401 0.072372
O O5 0.721246 0.738982 0.289574
O O6 0.578611 0.831556 0.406883
O O7 0.691773 0.000000 0.307594
O O8 0.721019 0.843497 0.004662
O O9 0.213485 0.500000 0.877396
O O10 0.169970 0.643265 0.701073
O O11 0.517817 0.654387 0.302150
O O12 0.403143 0.500000 0.037187
O O13 0.500000 0.314626 0.000000
O O14 0.366731 0.236266 0.096193
O O15 0.798061 0.766590 0.624446
O O16 0.712203 0.000000 0.760957
O O17 0.840309 0.500000 0.544940
#
# Coordination Sequence:
#
# PCOD8064381 Si02
#       7
#     4   4   4   2   4   4   4
#     4   9  17  32  56  84 114 151 192 234 285 343
#     4  10  22  40  60  82 114 153 197 243 292 351
#     4  10  21  35  56  87 118 150 190 238 293 349
#     4  10  22  40  62  88 118 158 198 250 302 356
#     4  10  22  39  61  88 118 151 196 248 298 355
#     4  10  22  39  57  82 114 153 194 236 290 348
#     4  10  20  35  57  85 119 153 190 239 288 342
#
# _framework density 20.171904000000001
#
# number of rings (size 3 to 8) (size 9 to 14) (size 15 to 20)
#    0.000    2.154    0.000    2.308    2.154    8.308 
#    0.000    0.769    0.000    4.615    0.000    0.000 
#    0.000    0.000    0.000    0.000    0.000    0.000 
#
# Total GULP energy -322240.585850 kJ/mol
# GULP energy per Si atom -12393.868687 kJ/mol
# Density = 2.012599 g / cm^3
# Si number density = 20.171904 Si / 1000 Ang^3
#
#
#
# Elastic Constant Matrix: (Units=GPa)
#
#
# Indices 1 2 3 4 5 6 
#
# 1 124.0855 53.1618 25.7749 0.0000 -14.9410 0.0000
# 2 53.1618 123.0382 31.5263 0.0000 -19.4128 0.0000
# 3 25.7749 31.5263 74.4007 0.0000 -19.5577 0.0000
# 4 0.0000 0.0000 0.0000 10.9138 0.0000 -2.1319
# 5 -14.9410 -19.4128 -19.5577 0.0000 31.8261 0.0000
# 6 0.0000 0.0000 0.0000 -2.1319 0.0000 3.4292
#
#
#
# Elastic Compliance Matrix: (Units=1/GPa)
#
#
# Indices 1 2 3 4 5 6 
#
# 1 0.010173 -0.003761 -0.001524 0.000000 0.001545 0.000000
# 2 -0.003761 0.010911 -0.002427 0.000000 0.003398 0.000000
# 3 -0.001524 -0.002427 0.017198 0.000000 0.008373 0.000000
# 4 0.000000 0.000000 0.000000 0.104293 0.000000 0.064839
# 5 0.001545 0.003398 0.008373 0.000000 0.039364 0.000000
# 6 0.000000 0.000000 0.000000 0.064839 0.000000 0.331924
#
#
# Mechanical properties :
#
#
# Convention : Reuss Voigt Hill
#
# Bulk Modulus (GPa) = 43.75108 60.27228 52.01168
# Shear Modulus (GPa) = 9.31260 23.30457 16.30858
#
# Velocity S-wave (km/s) = 2.15096 3.40266 2.84646
# Velocity P-wave (km/s) = 5.28252 6.73659 6.05337
#
# Compressibility (1/GPa) = 0.02285658
#
# Stress axis : x y z
#
# Youngs Moduli (GPa) = 98.29930 91.65335 58.14576
#
# Poissons Ratio (x) = 0.34472 0.08864
# Poissons Ratio (y) = 0.36972 0.14112
# Poissons Ratio (z) = 0.14985 0.22245
#
# Static dielectric constant tensor:
#      x y z
#    x 3.648310 0.000000 0.020760 
#    y 0.000000 3.687470 0.000000 
#    z 0.020760 0.000000 3.839950 
# 
# 
# High freq. dielectric constant tensor:
#      x y z
#    x 1.796640 0.000000 -0.002830 
#    y 0.000000 1.764710 0.000000 
#    z -0.002830 0.000000 1.788520 
# 
# From -- ./inp_files/34200.got.cif
#   From: 2010.06.25/outbox.cif.g09.slc.cpg/sg10_18_cif.got.tgz:34200.got - 2010.06.27 22:07:45.
