data_PCOD8064876
_publ_section_title
;
Structure prediction by ZEFSAII (Michael W. Deem and Ramdas Pophale) SiO2 
 PCOD8064876
Probable space group: P 2/M
;
_chemical_formula_sum "Si O2"
_cell_formula_units_Z 28
_cell_length_a 24.326960
_cell_length_b 9.027626
_cell_length_c 21.818352
_cell_angle_alpha 90.000000
_cell_angle_beta 162.065899
_cell_angle_gamma 90.000000
_cell_volume 1475.452973
_symmetry_space_group_name_H-M "P 2/M"
_symmetry_group_IT_number 10
_symmetry_cell_setting 'monoclinic'
loop_
_space_group_symop_operation_xyz
x,y,z
-x,y,-z
-x,-y,-z
x,-y,z
loop_
_atom_site_type_symbol
_atom_site_label
_atom_site_fract_x
_atom_site_fract_y
_atom_site_fract_z
Si Si1 0.676060 0.176164 0.528191
Si Si2 0.742290 0.169494 0.118985
Si Si3 0.581524 0.327550 0.651338
Si Si4 0.393986 0.824450 0.681963
Si Si5 0.298587 0.674508 0.798580
Si Si6 0.011730 0.327532 0.941919
Si Si7 0.865656 0.169509 0.488981
O O1 0.514873 0.233767 0.398830
O O2 0.640831 0.239011 0.422560
O O3 0.869071 0.233816 0.753016
O O4 0.677426 0.000000 0.532231
O O5 0.765095 0.263124 0.204431
O O6 0.924453 0.181993 0.273434
O O7 0.701803 0.000000 0.094695
O O8 0.584097 0.233646 0.908826
O O9 0.500000 0.278635 0.500000
O O10 0.542563 0.500000 0.621581
O O11 0.792029 0.292562 0.876098
O O12 0.240532 0.766400 0.565226
O O13 0.392096 0.000000 0.676288
O O14 0.277419 0.500000 0.777419
O O15 0.174248 0.736890 0.613568
O O16 0.500000 0.725697 0.000000
O O17 0.963601 0.500000 0.884611
O O18 0.000000 0.278622 0.000000
O O19 0.808985 0.000000 0.416119
#
# Coordination Sequence:
#
# PCOD8064876 Si02
#       7
#     4   4   4   4   4   4   4
#     4  11  23  37  58  90 123 150 184 238 298 345
#     4  10  20  36  60  83 105 144 194 231 269 330
#     4  10  20  38  62  84 111 152 195 233 277 338
#     4   9  20  38  56  79 114 152 184 226 278 332
#     4  11  22  35  54  83 115 146 179 230 293 331
#     4  10  20  38  62  84 111 152 195 233 277 338
#     4  10  20  36  60  83 105 144 194 231 269 330
#
# _framework density 18.977222999999999
#
# number of rings (size 3 to 8) (size 9 to 14) (size 15 to 20)
#    0.000    1.857    2.857    1.286    0.000    5.143 
#    0.000    5.714    0.000    0.000    0.000    0.000 
#    0.000    0.000    0.000    0.000    0.000    0.000 
#
# Total GULP energy -347277.490521 kJ/mol
# GULP energy per Si atom -12402.767519 kJ/mol
# Density = 1.893403 g / cm^3
# Si number density = 18.977223 Si / 1000 Ang^3
#
#
#
# Elastic Constant Matrix: (Units=GPa)
#
#
# Indices 1 2 3 4 5 6 
#
# 1 137.9288 43.1882 98.8902 0.0000 -14.5538 0.0000
# 2 43.1882 53.3315 41.5792 0.0000 -1.5175 0.0000
# 3 98.8902 41.5792 131.4731 0.0000 8.6872 0.0000
# 4 0.0000 0.0000 0.0000 14.6675 0.0000 23.1314
# 5 -14.5538 -1.5175 8.6872 0.0000 33.7360 0.0000
# 6 0.0000 0.0000 0.0000 23.1314 0.0000 -9.8720
#
#
#
# Elastic Compliance Matrix: (Units=1/GPa)
#
#
# Indices 1 2 3 4 5 6 
#
# 1 0.020833 -0.004837 -0.014975 0.000000 0.012626 0.000000
# 2 -0.004837 0.026354 -0.004717 0.000000 0.000314 0.000000
# 3 -0.014975 -0.004717 0.021163 0.000000 -0.012122 0.000000
# 4 0.000000 0.000000 0.000000 0.014521 0.000000 0.034024
# 5 0.012626 0.000314 -0.012122 0.000000 0.038224 0.000000
# 6 0.000000 0.000000 0.000000 0.034024 0.000000 -0.021574
#
#
# Mechanical properties :
#
#
# Convention : Reuss Voigt Hill
#
# Bulk Modulus (GPa) = 51.83427 76.67209 64.25318
# Shear Modulus (GPa) = 32.25614 16.97802 24.61708
#
# Velocity S-wave (km/s) = 4.12725 2.99432 3.60556
# Velocity P-wave (km/s) = 7.07711 7.24186 7.15996
#
# Compressibility (1/GPa) = 0.01929226
#
# Stress axis : x y z
#
# Youngs Moduli (GPa) = 48.00015 37.94462 47.25325
#
# Poissons Ratio (x) = 0.18353 0.70761
# Poissons Ratio (y) = 0.23217 0.22291
# Poissons Ratio (z) = 0.71879 0.17900
#
# Static dielectric constant tensor:
#      x y z
#    x 3.577550 0.000000 0.063600 
#    y 0.000000 3.250690 0.000000 
#    z 0.063600 0.000000 3.644260 
# 
# 
# High freq. dielectric constant tensor:
#      x y z
#    x 1.739420 0.000000 0.011050 
#    y 0.000000 1.717390 0.000000 
#    z 0.011050 0.000000 1.751050 
# 
# From -- ./inp_files/86526.got.cif
#   From: 2010.06.25/outbox.cif.g09.slc.cpg/sg10_44_cif.got.tgz:86526.got - 2010.06.27 22:07:45.
