data_PCOD8064268
_publ_section_title
;
Structure prediction by ZEFSAII (Michael W. Deem and Ramdas Pophale) SiO2 
 PCOD8064268
Probable space group: P 2/M
;
_chemical_formula_sum "Si O2"
_cell_formula_units_Z 28
_cell_length_a 14.652877
_cell_length_b 8.550954
_cell_length_c 21.661795
_cell_angle_alpha 90.000000
_cell_angle_beta 149.183153
_cell_angle_gamma 90.000000
_cell_volume 1390.440401
_symmetry_space_group_name_H-M "P 2/M"
_symmetry_group_IT_number 10
_symmetry_cell_setting 'monoclinic'
loop_
_space_group_symop_operation_xyz
x,y,z
-x,y,-z
-x,-y,-z
x,-y,z
loop_
_atom_site_type_symbol
_atom_site_label
_atom_site_fract_x
_atom_site_fract_y
_atom_site_fract_z
Si Si1 0.046418 0.682054 0.117937
Si Si2 0.264023 0.183077 0.137009
Si Si3 0.739381 0.317414 0.282606
Si Si4 0.672885 0.182871 0.371696
Si Si5 0.434122 0.182657 0.029185
Si Si6 0.975042 0.182744 0.202929
Si Si7 0.941936 0.682909 0.619907
O O1 0.079598 0.500000 0.126793
O O2 0.191947 0.776572 0.163066
O O3 0.073096 0.725615 0.204903
O O4 0.847801 0.726861 0.980271
O O5 0.467813 0.236050 0.249755
O O6 0.242609 0.000000 0.111748
O O7 0.760384 0.500000 0.308274
O O8 0.769683 0.226483 0.364059
O O9 0.544196 0.280256 0.143043
O O10 0.887991 0.258042 0.320662
O O11 0.762155 0.277647 0.479151
O O12 0.692876 0.000000 0.396400
O O13 0.462945 0.000000 0.059617
O O14 0.500000 0.229390 0.000000
O O15 0.230510 0.233773 0.916060
O O16 0.065614 0.226903 0.319910
O O17 0.996386 0.000000 0.203613
O O18 0.955338 0.500000 0.641071
#
# Coordination Sequence:
#
# PCOD8064268 Si02
#       7
#     4   4   4   4   4   4   4
#     4  11  22  37  62  93 121 150 186 233 292 349
#     4  10  21  40  63  89 118 149 191 239 288 342
#     4  11  23  37  57  85 118 155 194 240 292 342
#     4  11  24  40  61  85 112 152 199 242 286 340
#     4  10  20  35  56  83 114 151 193 235 280 336
#     4  11  22  38  60  85 118 157 195 237 287 342
#     4  11  24  40  57  82 118 156 196 241 288 341
#
# _framework density 20.137505999999998
#
# number of rings (size 3 to 8) (size 9 to 14) (size 15 to 20)
#    0.000    1.286    1.429    5.571    0.000   10.571 
#    0.000    0.714    0.000    4.286    0.000    0.000 
#    0.000    0.000    0.000    0.000    0.000    0.000 
#
# Total GULP energy -347410.587967 kJ/mol
# GULP energy per Si atom -12407.520999 kJ/mol
# Density = 2.009167 g / cm^3
# Si number density = 20.137506 Si / 1000 Ang^3
#
#
#
# Elastic Constant Matrix: (Units=GPa)
#
#
# Indices 1 2 3 4 5 6 
#
# 1 96.4279 9.3795 30.8045 0.0000 -20.3777 0.0000
# 2 9.3795 42.6529 15.2451 0.0000 1.9348 0.0000
# 3 30.8045 15.2451 77.9659 0.0000 -14.0689 0.0000
# 4 0.0000 0.0000 0.0000 28.2625 0.0000 -8.4045
# 5 -20.3777 1.9348 -14.0689 0.0000 28.7274 0.0000
# 6 0.0000 0.0000 0.0000 -8.4045 0.0000 28.5400
#
#
#
# Elastic Compliance Matrix: (Units=1/GPa)
#
#
# Indices 1 2 3 4 5 6 
#
# 1 0.013344 -0.002064 -0.003439 0.000000 0.007920 0.000000
# 2 -0.002064 0.026070 -0.005335 0.000000 -0.005833 0.000000
# 3 -0.003439 -0.005335 0.016293 0.000000 0.005899 0.000000
# 4 0.000000 0.000000 0.000000 0.038778 0.000000 0.011419
# 5 0.007920 -0.005833 0.005899 0.000000 0.043710 0.000000
# 6 0.000000 0.000000 0.000000 0.011419 0.000000 0.038401
#
#
# Mechanical properties :
#
#
# Convention : Reuss Voigt Hill
#
# Bulk Modulus (GPa) = 29.38574 36.43387 32.90981
# Shear Modulus (GPa) = 23.85323 27.88051 25.86687
#
# Velocity S-wave (km/s) = 3.44542 3.72493 3.58790
# Velocity P-wave (km/s) = 5.51834 6.05244 5.79155
#
# Compressibility (1/GPa) = 0.03403011
#
# Stress axis : x y z
#
# Youngs Moduli (GPa) = 74.94220 38.35791 61.37787
#
# Poissons Ratio (x) = 0.07918 0.21110
# Poissons Ratio (y) = 0.15470 0.32743
# Poissons Ratio (z) = 0.25775 0.20462
#
# Static dielectric constant tensor:
#      x y z
#    x 3.737580 0.000000 -0.024890 
#    y 0.000000 3.595410 0.000000 
#    z -0.024890 0.000000 3.585640 
# 
# 
# High freq. dielectric constant tensor:
#      x y z
#    x 1.790390 0.000000 -0.009830 
#    y 0.000000 1.790140 0.000000 
#    z -0.009830 0.000000 1.779140 
# 
# From -- ./inp_files/84988.got.cif
#   From: 2010.06.25/outbox.cif.g09.slc.cpg/sg10_43_cif.got.tgz:84988.got - 2010.06.27 22:07:45.
