data_PCOD8064852
_publ_section_title
;
Structure prediction by ZEFSAII (Michael W. Deem and Ramdas Pophale) SiO2 
 PCOD8064852
Probable space group: P 2/M
;
_chemical_formula_sum "Si O2"
_cell_formula_units_Z 28
_cell_length_a 14.411687
_cell_length_b 13.549595
_cell_length_c 9.201818
_cell_angle_alpha 90.000000
_cell_angle_beta 54.613486
_cell_angle_gamma 90.000000
_cell_volume 1464.917290
_symmetry_space_group_name_H-M "P 2/M"
_symmetry_group_IT_number 10
_symmetry_cell_setting 'monoclinic'
loop_
_space_group_symop_operation_xyz
x,y,z
-x,y,-z
-x,-y,-z
x,-y,z
loop_
_atom_site_type_symbol
_atom_site_label
_atom_site_fract_x
_atom_site_fract_y
_atom_site_fract_z
Si Si1 0.304708 0.886296 0.446689
Si Si2 0.160160 0.388605 0.246790
Si Si3 0.469041 0.783465 0.693567
Si Si4 0.580120 0.611438 0.055088
Si Si5 0.756508 0.113568 0.166418
Si Si6 0.902671 0.786448 0.491441
Si Si7 0.053309 0.733884 0.099668
O O1 0.424069 0.830131 0.318516
O O2 0.253981 0.869242 0.652292
O O3 0.214774 0.847048 0.408322
O O4 0.328391 0.000000 0.393817
O O5 0.118063 0.500000 0.313983
O O6 0.116229 0.320459 0.417595
O O7 0.114583 0.353589 0.131088
O O8 0.294726 0.382862 0.122269
O O9 0.500000 0.763197 0.500000
O O10 0.435624 0.678519 0.789858
O O11 0.362029 0.857226 0.803265
O O12 0.547983 0.500000 0.130492
O O13 0.500000 0.650774 0.000000
O O14 0.782732 0.000000 0.106346
O O15 0.859382 0.177512 0.010224
O O16 0.000000 0.842014 0.500000
O O17 0.947984 0.775455 0.287474
O O18 0.000000 0.690678 0.000000
#
# Coordination Sequence:
#
# PCOD8064852 Si02
#       7
#     4   4   4   4   4   4   4
#     4  10  20  36  59  87 119 155 195 238 288 342
#     4  10  22  41  61  84 116 155 194 238 292 349
#     4  10  20  36  61  88 118 147 189 244 292 343
#     4  10  20  36  61  86 114 154 193 233 292 352
#     4  10  20  36  60  88 116 153 193 238 295 347
#     4  10  22  37  59  84 117 158 193 240 283 341
#     4  11  21  37  61  87 117 150 195 242 290 339
#
# _framework density 19.113707999999999
#
# number of rings (size 3 to 8) (size 9 to 14) (size 15 to 20)
#    0.000    1.857    2.857    1.286    0.000    6.000 
#    0.000    2.143    0.000    2.571    0.000    0.000 
#    0.000    0.000    0.000    0.000    0.000    0.000 
#
# Total GULP energy -347203.029267 kJ/mol
# GULP energy per Si atom -12400.108188 kJ/mol
# Density = 1.907020 g / cm^3
# Si number density = 19.113708 Si / 1000 Ang^3
#
#
#
# Elastic Constant Matrix: (Units=GPa)
#
#
# Indices 1 2 3 4 5 6 
#
# 1 132.1234 36.3850 24.5968 0.0000 -2.4318 0.0000
# 2 36.3850 100.2000 38.5938 0.0000 -7.6576 0.0000
# 3 24.5968 38.5938 75.5369 0.0000 -3.1189 0.0000
# 4 0.0000 0.0000 0.0000 27.6729 0.0000 17.1551
# 5 -2.4318 -7.6576 -3.1189 0.0000 25.0821 0.0000
# 6 0.0000 0.0000 0.0000 17.1551 0.0000 -92.8130
#
#
#
# Elastic Compliance Matrix: (Units=1/GPa)
#
#
# Indices 1 2 3 4 5 6 
#
# 1 0.008543 -0.002538 -0.001490 0.000000 -0.000132 0.000000
# 2 -0.002538 0.013411 -0.005897 0.000000 0.003115 0.000000
# 3 -0.001490 -0.005897 0.016742 0.000000 0.000137 0.000000
# 4 0.000000 0.000000 0.000000 0.032421 0.000000 0.005993
# 5 -0.000132 0.003115 0.000137 0.000000 0.040824 0.000000
# 6 0.000000 0.000000 0.000000 0.005993 0.000000 -0.009667
#
#
# Mechanical properties :
#
#
# Convention : Reuss Voigt Hill
#
# Bulk Modulus (GPa) = 53.06369 56.33460 54.69915
# Shear Modulus (GPa) = 38.93839 5.87405 22.40622
#
# Velocity S-wave (km/s) = 4.51843 1.75496 3.42754
# Velocity P-wave (km/s) = 7.41916 5.80034 6.65912
#
# Compressibility (1/GPa) = 0.01884528
#
# Stress axis : x y z
#
# Youngs Moduli (GPa) = 117.05946 74.56532 59.72834
#
# Poissons Ratio (x) = 0.18925 0.08902
# Poissons Ratio (y) = 0.29711 0.35222
# Poissons Ratio (z) = 0.17447 0.43971
#
# Static dielectric constant tensor:
#      x y z
#    x 3.821970 0.000000 -0.075160 
#    y 0.000000 3.401150 0.000000 
#    z -0.075160 0.000000 3.351580 
# 
# 
# High freq. dielectric constant tensor:
#      x y z
#    x 1.763950 0.000000 -0.011940 
#    y 0.000000 1.733320 0.000000 
#    z -0.011940 0.000000 1.735630 
# 
# From -- ./inp_files/28480.got.cif
#   From: 2010.06.25/outbox.cif.g09.slc.cpg/sg10_15_cif.got.tgz:28480.got - 2010.06.27 22:07:45.
