data_PCOD8064590
_publ_section_title
;
Structure prediction by ZEFSAII (Michael W. Deem and Ramdas Pophale) SiO2 
 PCOD8064590
Probable space group: P 2/M
;
_chemical_formula_sum "Si O2"
_cell_formula_units_Z 30
_cell_length_a 26.648123
_cell_length_b 13.599781
_cell_length_c 23.835100
_cell_angle_alpha 90.000000
_cell_angle_beta 9.663938
_cell_angle_gamma 90.000000
_cell_volume 1450.059676
_symmetry_space_group_name_H-M "P 2/M"
_symmetry_group_IT_number 10
_symmetry_cell_setting 'monoclinic'
loop_
_space_group_symop_operation_xyz
x,y,z
-x,y,-z
-x,-y,-z
x,-y,z
loop_
_atom_site_type_symbol
_atom_site_label
_atom_site_fract_x
_atom_site_fract_y
_atom_site_fract_z
Si Si1 0.905560 0.386895 0.854798
Si Si2 0.036702 0.713906 0.893059
Si Si3 0.143038 0.112779 0.600825
Si Si4 0.863460 0.227775 0.706422
Si Si5 0.289248 0.231307 0.850958
Si Si6 0.728535 0.888202 0.664424
Si Si7 0.481625 0.300137 0.816261
Si Si8 0.857541 0.500000 0.097741
O O1 0.850241 0.500000 0.926947
O O2 0.242130 0.364010 0.464151
O O3 0.864934 0.331838 0.958502
O O4 0.661365 0.348828 0.080338
O O5 0.360136 0.758979 0.523195
O O6 0.000000 0.726680 0.000000
O O7 0.797859 0.777487 0.119421
O O8 0.982225 0.600709 0.932420
O O9 0.073604 0.124099 0.610746
O O10 0.414298 0.188848 0.315122
O O11 0.239142 0.000000 0.508791
O O12 0.847326 0.140300 0.962772
O O13 0.000000 0.279373 0.500000
O O14 0.113341 0.158413 0.456894
O O15 0.588285 0.160866 0.993637
O O16 0.760966 0.306060 0.866218
O O17 0.670553 0.000000 0.742857
O O18 0.500000 0.500000 0.500000
O O19 0.000000 0.500000 0.000000
#
# Coordination Sequence:
#
# PCOD8064590 Si02
#       8
#     4   4   4   4   4   4   4   2
#     4  11  23  39  63  88 120 151 188 249 305 350
#     4  11  23  38  58  83 122 158 187 235 287 350
#     4   9  20  40  63  88 119 156 200 249 295 342
#     4  11  21  34  55  80 115 157 196 242 291 348
#     4  11  22  37  60  89 116 149 199 238 284 354
#     4  10  21  35  54  81 116 153 193 245 302 357
#     4  10  21  40  58  87 120 154 200 237 299 359
#     4  10  20  36  56  80 110 154 190 214 275 350
#
# _framework density 20.688804999999999
#
# number of rings (size 3 to 8) (size 9 to 14) (size 15 to 20)
#    0.000    1.600    0.000    7.200    1.867    3.200 
#    0.000    8.667    0.000    4.800    0.000    0.000 
#    0.000    0.000    0.000    0.000    0.000    0.000 
#
# Total GULP energy -371770.969692 kJ/mol
# GULP energy per Si atom -12392.365656 kJ/mol
# Density = 2.064172 g / cm^3
# Si number density = 20.688805 Si / 1000 Ang^3
#
#
#
# Elastic Constant Matrix: (Units=GPa)
#
#
# Indices 1 2 3 4 5 6 
#
# 1 83.0197 18.4761 23.2944 0.0000 -7.3665 0.0000
# 2 18.4761 79.9974 13.5107 0.0000 -0.4282 0.0000
# 3 23.2944 13.5107 90.4652 0.0000 -9.7836 0.0000
# 4 0.0000 0.0000 0.0000 20.1815 0.0000 -6.5885
# 5 -7.3665 -0.4282 -9.7836 0.0000 45.8377 0.0000
# 6 0.0000 0.0000 0.0000 -6.5885 0.0000 27.3843
#
#
#
# Elastic Compliance Matrix: (Units=1/GPa)
#
#
# Indices 1 2 3 4 5 6 
#
# 1 0.013593 -0.002634 -0.002941 0.000000 0.001532 0.000000
# 2 -0.002634 0.013338 -0.001378 0.000000 -0.000593 0.000000
# 3 -0.002941 -0.001378 0.012247 0.000000 0.002129 0.000000
# 4 0.000000 0.000000 0.000000 0.053774 0.000000 0.012938
# 5 0.001532 -0.000593 0.002129 0.000000 0.022511 0.000000
# 6 0.000000 0.000000 0.000000 0.012938 0.000000 0.039630
#
#
# Mechanical properties :
#
#
# Convention : Reuss Voigt Hill
#
# Bulk Modulus (GPa) = 39.56951 40.44940 40.00946
# Shear Modulus (GPa) = 28.18111 31.89410 30.03761
#
# Velocity S-wave (km/s) = 3.69473 3.93060 3.81448
# Velocity P-wave (km/s) = 6.11301 6.33981 6.22745
#
# Compressibility (1/GPa) = 0.02527198
#
# Stress axis : x y z
#
# Youngs Moduli (GPa) = 73.56846 74.97158 81.65120
#
# Poissons Ratio (x) = 0.19751 0.24013
# Poissons Ratio (y) = 0.19381 0.11250
# Poissons Ratio (z) = 0.21636 0.10330
#
# Static dielectric constant tensor:
#      x y z
#    x 3.941580 0.000000 0.092860 
#    y 0.000000 2.261570 0.000000 
#    z 0.092860 0.000000 3.893840 
# 
# 
# High freq. dielectric constant tensor:
#      x y z
#    x 1.822630 0.000000 -0.008590 
#    y 0.000000 1.772400 0.000000 
#    z -0.008590 0.000000 1.814410 
# 
# From -- ./inp_files/91298.got.cif
#   From: 2010.06.25/outbox.cif.g09.slc.cpg/sg10_46_cif.got.tgz:91298.got - 2010.06.27 22:07:45.
