data_PCOD8064937
_publ_section_title
;
Structure prediction by ZEFSAII (Michael W. Deem and Ramdas Pophale) SiO2 
 PCOD8064937
Probable space group: P 2/M
;
_chemical_formula_sum "Si O2"
_cell_formula_units_Z 32
_cell_length_a 15.286845
_cell_length_b 8.832148
_cell_length_c 25.009858
_cell_angle_alpha 90.000000
_cell_angle_beta 27.531631
_cell_angle_gamma 90.000000
_cell_volume 1560.850429
_symmetry_space_group_name_H-M "P 2/M"
_symmetry_group_IT_number 10
_symmetry_cell_setting 'monoclinic'
loop_
_space_group_symop_operation_xyz
x,y,z
-x,y,-z
-x,-y,-z
x,-y,z
loop_
_atom_site_type_symbol
_atom_site_label
_atom_site_fract_x
_atom_site_fract_y
_atom_site_fract_z
Si Si1 0.710260 0.678061 0.401317
Si Si2 0.048006 0.826839 0.819188
Si Si3 0.133710 0.821935 0.473526
Si Si4 0.134845 0.671329 0.879828
Si Si5 0.947477 0.819637 0.363920
Si Si6 0.630449 0.820635 0.882357
Si Si7 0.513610 0.670059 0.240314
Si Si8 0.626483 0.173993 0.074493
O O1 0.500000 0.736396 0.500000
O O2 0.708565 0.500000 0.411442
O O3 0.853932 0.718259 0.276332
O O4 0.779651 0.754974 0.418403
O O5 0.118548 0.785309 0.839775
O O6 0.103946 0.000000 0.776516
O O7 0.822941 0.804340 0.936452
O O8 0.081256 0.756502 0.560329
O O9 0.346451 0.784872 0.342580
O O10 0.000000 0.750776 0.500000
O O11 0.105772 0.000000 0.490220
O O12 0.076263 0.500000 0.894875
O O13 0.349808 0.675326 0.782873
O O14 0.000000 0.730916 0.000000
O O15 0.153109 0.762003 0.231681
O O16 0.936198 0.000000 0.368278
O O17 0.543010 0.774603 0.872568
O O18 0.628883 0.000000 0.889117
O O19 0.500000 0.749025 0.000000
O O20 0.436812 0.500000 0.273532
O O21 0.626764 0.720677 0.126224
O O22 0.601401 0.000000 0.106039
#
# Coordination Sequence:
#
# PCOD8064937 Si02
#       8
#     4   4   4   4   4   4   4   4
#     4  11  26  45  63  84 118 165 207 249 307 369
#     4  11  23  38  63  93 120 153 202 258 301 351
#     4  10  22  41  64  90 124 164 203 251 310 364
#     4  10  21  39  59  84 124 167 198 239 304 368
#     4  10  21  39  64  92 120 155 203 254 299 353
#     4   9  17  33  60  89 118 149 186 236 300 361
#     4  11  23  37  58  86 119 160 202 244 295 359
#     4  10  20  36  60  90 121 154 192 241 300 363
#
# _framework density 20.501643999999999
#
# number of rings (size 3 to 8) (size 9 to 14) (size 15 to 20)
#    0.000    1.750    1.250    2.625    1.750    7.500 
#    0.000    1.875    0.000    1.500    0.000    0.000 
#    0.000    0.000    0.000    0.000    0.000    0.000 
#
# Total GULP energy -396896.253728 kJ/mol
# GULP energy per Si atom -12403.007929 kJ/mol
# Density = 2.045498 g / cm^3
# Si number density = 20.501644 Si / 1000 Ang^3
#
#
#
# Elastic Constant Matrix: (Units=GPa)
#
#
# Indices 1 2 3 4 5 6 
#
# 1 134.9521 29.9518 50.2939 0.0000 -7.1441 0.0000
# 2 29.9518 29.2584 19.0440 0.0000 -3.6523 0.0000
# 3 50.2939 19.0440 104.8093 0.0000 -1.6169 0.0000
# 4 0.0000 0.0000 0.0000 24.1711 0.0000 1.9806
# 5 -7.1441 -3.6523 -1.6169 0.0000 36.9056 0.0000
# 6 0.0000 0.0000 0.0000 1.9806 0.0000 14.2579
#
#
#
# Elastic Compliance Matrix: (Units=1/GPa)
#
#
# Indices 1 2 3 4 5 6 
#
# 1 0.010677 -0.008474 -0.003567 0.000000 0.001072 0.000000
# 2 -0.008474 0.045954 -0.004241 0.000000 0.002722 0.000000
# 3 -0.003567 -0.004241 0.012015 0.000000 -0.000584 0.000000
# 4 0.000000 0.000000 0.000000 0.041848 0.000000 -0.005813
# 5 0.001072 0.002722 -0.000584 0.000000 0.027547 0.000000
# 6 0.000000 0.000000 0.000000 -0.005813 0.000000 0.070944
#
#
# Mechanical properties :
#
#
# Convention : Reuss Voigt Hill
#
# Bulk Modulus (GPa) = 27.71654 51.95548 39.83601
# Shear Modulus (GPa) = 19.71785 26.38225 23.05005
#
# Velocity S-wave (km/s) = 3.10461 3.59114 3.35670
# Velocity P-wave (km/s) = 5.13809 6.52627 5.87334
#
# Compressibility (1/GPa) = 0.03607953
#
# Stress axis : x y z
#
# Youngs Moduli (GPa) = 93.65898 21.76098 83.23263
#
# Poissons Ratio (x) = 0.18441 0.29690
# Poissons Ratio (y) = 0.79371 0.35302
# Poissons Ratio (z) = 0.33409 0.09230
#
# Static dielectric constant tensor:
#      x y z
#    x 3.922000 0.000000 -0.015210 
#    y 0.000000 3.456970 0.000000 
#    z -0.015210 0.000000 3.785480 
# 
# 
# High freq. dielectric constant tensor:
#      x y z
#    x 1.814690 0.000000 -0.002800 
#    y 0.000000 1.775070 0.000000 
#    z -0.002800 0.000000 1.808260 
# 
# From -- ./inp_files/89506.got.cif
#   From: 2010.06.25/outbox.cif.g09.slc.cpg/sg10_45_cif.got.tgz:89506.got - 2010.06.27 22:07:45.
