data_PCOD8064270
_publ_section_title
;
Structure prediction by ZEFSAII (Michael W. Deem and Ramdas Pophale) SiO2 
 PCOD8064270
Probable space group: P 2/M
;
_chemical_formula_sum "Si O2"
_cell_formula_units_Z 28
_cell_length_a 19.764153
_cell_length_b 8.665235
_cell_length_c 14.213594
_cell_angle_alpha 90.000000
_cell_angle_beta 36.915823
_cell_angle_gamma 90.000000
_cell_volume 1462.101308
_symmetry_space_group_name_H-M "P 2/M"
_symmetry_group_IT_number 10
_symmetry_cell_setting 'monoclinic'
loop_
_space_group_symop_operation_xyz
x,y,z
-x,y,-z
-x,-y,-z
x,-y,z
loop_
_atom_site_type_symbol
_atom_site_label
_atom_site_fract_x
_atom_site_fract_y
_atom_site_fract_z
Si Si1 0.231191 0.677978 0.610494
Si Si2 0.881550 0.181513 0.095877
Si Si3 0.160520 0.181818 0.066854
Si Si4 0.934085 0.320333 0.373479
Si Si5 0.585413 0.680342 0.738547
Si Si6 0.253517 0.819716 0.294868
Si Si7 0.325829 0.680553 0.023241
O O1 0.231727 0.500000 0.638055
O O2 0.217087 0.774798 0.721548
O O3 0.129246 0.716978 0.653387
O O4 0.348231 0.725861 0.430533
O O5 0.893390 0.000000 0.076177
O O6 0.851548 0.245588 0.026134
O O7 0.000000 0.254184 0.000000
O O8 0.266469 0.271308 0.992517
O O9 0.048266 0.222427 0.250023
O O10 0.182381 0.000000 0.046600
O O11 0.962921 0.500000 0.351259
O O12 0.855653 0.271103 0.547211
O O13 0.603856 0.500000 0.739907
O O14 0.634421 0.772345 0.772846
O O15 0.456422 0.725157 0.868068
O O16 0.269668 0.778111 0.168503
O O17 0.231696 0.000000 0.330687
O O18 0.310848 0.500000 0.060221
#
# Coordination Sequence:
#
# PCOD8064270 Si02
#       7
#     4   4   4   4   4   4   4
#     4   9  18  33  57  86 111 139 185 235 274 321
#     4  10  20  35  56  83 115 148 181 222 281 340
#     4  11  23  38  56  82 117 149 187 234 282 337
#     4  10  20  36  57  84 115 148 188 230 280 335
#     4   9  20  39  60  84 113 148 190 235 277 326
#     4  11  22  36  59  88 115 145 187 234 281 331
#     4  11  23  40  59  79 112 154 192 231 280 333
#
# _framework density 19.15052
#
# number of rings (size 3 to 8) (size 9 to 14) (size 15 to 20)
#    0.000    1.857    1.429    3.857    0.000    7.143 
#    0.000    3.571    0.000    4.286    0.000    0.000 
#    0.000    0.000    0.000    0.000    0.000    0.000 
#
# Total GULP energy -347325.214713 kJ/mol
# GULP energy per Si atom -12404.471954 kJ/mol
# Density = 1.910693 g / cm^3
# Si number density = 19.150520 Si / 1000 Ang^3
#
#
#
# Elastic Constant Matrix: (Units=GPa)
#
#
# Indices 1 2 3 4 5 6 
#
# 1 98.5636 17.3557 40.7860 0.0000 8.5315 0.0000
# 2 17.3557 41.4141 12.6085 0.0000 1.3323 0.0000
# 3 40.7860 12.6085 76.9813 0.0000 12.7902 0.0000
# 4 0.0000 0.0000 0.0000 26.9367 0.0000 4.1864
# 5 8.5315 1.3323 12.7902 0.0000 25.3769 0.0000
# 6 0.0000 0.0000 0.0000 4.1864 0.0000 28.9934
#
#
#
# Elastic Compliance Matrix: (Units=1/GPa)
#
#
# Indices 1 2 3 4 5 6 
#
# 1 0.013533 -0.003694 -0.006375 0.000000 -0.001143 0.000000
# 2 -0.003694 0.026438 -0.002564 0.000000 0.001146 0.000000
# 3 -0.006375 -0.002564 0.017909 0.000000 -0.006748 0.000000
# 4 0.000000 0.000000 0.000000 0.037976 0.000000 -0.005483
# 5 -0.001143 0.001146 -0.006748 0.000000 0.043131 0.000000
# 6 0.000000 0.000000 0.000000 -0.005483 0.000000 0.035282
#
#
# Mechanical properties :
#
#
# Convention : Reuss Voigt Hill
#
# Bulk Modulus (GPa) = 30.66076 39.82882 35.24479
# Shear Modulus (GPa) = 23.76350 26.00865 24.88608
#
# Velocity S-wave (km/s) = 3.52643 3.68926 3.60877
# Velocity P-wave (km/s) = 5.71193 6.24423 5.98400
#
# Compressibility (1/GPa) = 0.03261498
#
# Stress axis : x y z
#
# Youngs Moduli (GPa) = 73.89250 37.82444 55.83781
#
# Poissons Ratio (x) = 0.13971 0.35598
# Poissons Ratio (y) = 0.27294 0.14314
# Poissons Ratio (z) = 0.47109 0.09696
#
# Static dielectric constant tensor:
#      x y z
#    x 3.459820 0.000000 0.027180 
#    y 0.000000 3.396240 0.000000 
#    z 0.027180 0.000000 3.566170 
# 
# 
# High freq. dielectric constant tensor:
#      x y z
#    x 1.731550 0.000000 0.005530 
#    y 0.000000 1.743280 0.000000 
#    z 0.005530 0.000000 1.749700 
# 
# From -- ./inp_files/70179.got.cif
#   From: 2010.06.25/outbox.cif.g09.slc.cpg/sg10_36_cif.got.tgz:70179.got - 2010.06.27 22:07:45.
