data_PCOD8064374
_publ_section_title
;
Structure prediction by ZEFSAII (Michael W. Deem and Ramdas Pophale) SiO2 
 PCOD8064374
Probable space group: P 2/M
;
_chemical_formula_sum "Si O2"
_cell_formula_units_Z 28
_cell_length_a 10.113172
_cell_length_b 19.751576
_cell_length_c 14.899365
_cell_angle_alpha 90.000000
_cell_angle_beta 28.670935
_cell_angle_gamma 90.000000
_cell_volume 1427.899590
_symmetry_space_group_name_H-M "P 2/M"
_symmetry_group_IT_number 10
_symmetry_cell_setting 'monoclinic'
loop_
_space_group_symop_operation_xyz
x,y,z
-x,y,-z
-x,-y,-z
x,-y,z
loop_
_atom_site_type_symbol
_atom_site_label
_atom_site_fract_x
_atom_site_fract_y
_atom_site_fract_z
Si Si1 0.254564 0.424657 0.915144
Si Si2 0.445871 0.925378 0.714540
Si Si3 0.964632 0.925378 0.874955
Si Si4 0.293871 0.201410 0.370790
Si Si5 0.700113 0.798590 0.964549
Si Si6 0.447445 0.670081 0.388456
Si Si7 0.939743 0.670082 0.224354
O O1 0.355694 0.500000 0.881436
O O2 0.506011 0.385528 0.717010
O O3 0.000000 0.430122 0.000000
O O4 0.163052 0.385527 0.059966
O O5 0.679117 0.868568 0.589514
O O6 0.271509 0.909149 0.728489
O O7 0.584592 0.000000 0.623441
O O8 0.242815 0.925165 0.919061
O O9 0.873214 0.868570 0.858150
O O10 0.960485 0.000000 0.831479
O O11 0.315763 0.262717 0.426544
O O12 0.000000 0.202386 0.500000
O O13 0.534911 0.209014 0.155030
O O14 0.911164 0.737285 0.831148
O O15 0.500000 0.797609 0.000000
O O16 0.738495 0.688855 0.261503
O O17 0.235177 0.639827 0.588276
#
# Coordination Sequence:
#
# PCOD8064374 Si02
#       7
#     4   4   4   4   4   4   4
#     4   9  18  34  58  88 117 145 180 223 275 331
#     4   8  15  29  50  75 103 140 187 235 283 336
#     4   8  15  29  50  75 103 140 187 235 283 336
#     4  11  21  33  51  77 109 149 190 234 282 330
#     4  11  21  33  51  77 109 149 190 234 282 330
#     4  10  20  35  57  85 114 146 185 230 277 330
#     4  10  20  35  57  85 114 146 185 230 277 330
#
# _framework density 19.609221999999999
#
# number of rings (size 3 to 8) (size 9 to 14) (size 15 to 20)
#    0.000    2.429    1.429    2.571    0.000    2.286 
#    0.000    2.857    0.000    3.429    0.000   10.000 
#    0.000    0.000    0.000    0.000    0.000    0.000 
#
# Total GULP energy -347145.770454 kJ/mol
# GULP energy per Si atom -12398.063231 kJ/mol
# Density = 1.956459 g / cm^3
# Si number density = 19.609222 Si / 1000 Ang^3
#
#
#
# Elastic Constant Matrix: (Units=GPa)
#
#
# Indices 1 2 3 4 5 6 
#
# 1 80.5921 63.3588 37.5755 0.0000 -8.9825 0.0000
# 2 63.3588 170.4893 53.8625 0.0000 -7.0862 0.0000
# 3 37.5755 53.8625 80.3514 0.0000 8.7933 0.0000
# 4 0.0000 0.0000 0.0000 7.0090 0.0000 -2.6230
# 5 -8.9825 -7.0862 8.7933 0.0000 28.7475 0.0000
# 6 0.0000 0.0000 0.0000 -2.6230 0.0000 10.5255
#
#
#
# Elastic Compliance Matrix: (Units=1/GPa)
#
#
# Indices 1 2 3 4 5 6 
#
# 1 0.020474 -0.005114 -0.006941 0.000000 0.007260 0.000000
# 2 -0.005114 0.009071 -0.003889 0.000000 0.001827 0.000000
# 3 -0.006941 -0.003889 0.019286 0.000000 -0.009026 0.000000
# 4 0.000000 0.000000 0.000000 0.157349 0.000000 0.039211
# 5 0.007260 0.001827 -0.009026 0.000000 0.040265 0.000000
# 6 0.000000 0.000000 0.000000 0.039211 0.000000 0.104779
#
#
# Mechanical properties :
#
#
# Convention : Reuss Voigt Hill
#
# Bulk Modulus (GPa) = 59.02153 71.22517 65.12335
# Shear Modulus (GPa) = 12.86148 21.03213 16.94680
#
# Velocity S-wave (km/s) = 2.56381 3.27855 2.94296
# Velocity P-wave (km/s) = 6.23926 7.12271 6.69557
#
# Compressibility (1/GPa) = 0.01694297
#
# Stress axis : x y z
#
# Youngs Moduli (GPa) = 48.84246 110.24663 51.85217
#
# Poissons Ratio (x) = 0.56383 0.35989
# Poissons Ratio (y) = 0.24979 0.20164
# Poissons Ratio (z) = 0.33900 0.42872
#
# Static dielectric constant tensor:
#      x y z
#    x 3.387210 0.000000 0.068290 
#    y 0.000000 3.837000 0.000000 
#    z 0.068290 0.000000 3.478840 
# 
# 
# High freq. dielectric constant tensor:
#      x y z
#    x 1.742160 0.000000 0.009160 
#    y 0.000000 1.763650 0.000000 
#    z 0.009160 0.000000 1.754440 
# 
# From -- ./inp_files/62564.got.cif
#   From: 2010.06.25/outbox.cif.g09.slc.cpg/sg10_32_cif.got.tgz:62564.got - 2010.06.27 22:07:45.
