data_PCOD8064568
_publ_section_title
;
Structure prediction by ZEFSAII (Michael W. Deem and Ramdas Pophale) SiO2 
 PCOD8064568
Probable space group: P 2/M
;
_chemical_formula_sum "Si O2"
_cell_formula_units_Z 28
_cell_length_a 19.890205
_cell_length_b 15.153555
_cell_length_c 8.426443
_cell_angle_alpha 90.000000
_cell_angle_beta 148.838548
_cell_angle_gamma 90.000000
_cell_volume 1314.218731
_symmetry_space_group_name_H-M "P 2/M"
_symmetry_group_IT_number 10
_symmetry_cell_setting 'monoclinic'
loop_
_space_group_symop_operation_xyz
x,y,z
-x,y,-z
-x,-y,-z
x,-y,z
loop_
_atom_site_type_symbol
_atom_site_label
_atom_site_fract_x
_atom_site_fract_y
_atom_site_fract_z
Si Si1 0.754302 0.235369 0.217273
Si Si2 0.621187 0.251637 0.637599
Si Si3 0.148627 0.665841 0.298437
Si Si4 0.031918 0.902079 0.391624
Si Si5 0.616125 0.098794 0.119710
Si Si6 0.399128 0.400502 0.659932
Si Si7 0.788233 0.154921 0.732905
O O1 0.792181 0.317255 0.406055
O O2 0.866774 0.164756 0.476447
O O3 0.625215 0.178942 0.010345
O O4 0.735917 0.270087 0.000363
O O5 0.500000 0.221547 0.500000
O O6 0.586380 0.338887 0.465992
O O7 0.671380 0.173394 0.623508
O O8 0.250512 0.598802 0.423553
O O9 0.148054 0.752786 0.189408
O O10 0.000000 0.628242 0.000000
O O11 0.000000 0.866279 0.500000
O O12 0.093796 0.000000 0.520845
O O13 0.898385 0.906353 0.026812
O O14 0.741400 0.101080 0.486380
O O15 0.602352 0.000000 0.016706
O O16 0.500000 0.123695 0.000000
O O17 0.434889 0.500000 0.680864
O O18 0.500000 0.367457 0.000000
#
# Coordination Sequence:
#
# PCOD8064568 Si02
#       7
#     4   4   4   4   4   4   4
#     4  11  21  36  58  87 117 154 203 250 295 350
#     4  11  22  37  62  90 115 152 193 243 294 358
#     4  10  20  36  63  91 121 159 199 244 295 348
#     4  11  21  34  54  81 118 161 203 254 302 339
#     4  10  21  36  53  77 117 160 203 256 304 349
#     4  10  23  44  67  93 124 154 188 233 295 372
#     4  10  20  36  55  83 114 158 205 250 294 350
#
# _framework density 21.305434000000002
#
# number of rings (size 3 to 8) (size 9 to 14) (size 15 to 20)
#    0.000    1.571    2.857    2.571    0.000    4.571 
#    0.000    2.857    0.000    4.286    0.000    0.000 
#    0.000    0.000    0.000    0.000    0.000    0.000 
#
# Total GULP energy -347033.596704 kJ/mol
# GULP energy per Si atom -12394.057025 kJ/mol
# Density = 2.125694 g / cm^3
# Si number density = 21.305434 Si / 1000 Ang^3
#
#
#
# Elastic Constant Matrix: (Units=GPa)
#
#
# Indices 1 2 3 4 5 6 
#
# 1 85.2786 15.3896 25.8189 0.0000 -3.8929 0.0000
# 2 15.3896 58.8627 14.8199 0.0000 -9.8216 0.0000
# 3 25.8189 14.8199 85.8920 0.0000 -7.7905 0.0000
# 4 0.0000 0.0000 0.0000 24.7355 0.0000 -1.3240
# 5 -3.8929 -9.8216 -7.7905 0.0000 49.2747 0.0000
# 6 0.0000 0.0000 0.0000 -1.3240 0.0000 15.7960
#
#
#
# Elastic Compliance Matrix: (Units=1/GPa)
#
#
# Indices 1 2 3 4 5 6 
#
# 1 0.013264 -0.002580 -0.003544 0.000000 -0.000027 0.000000
# 2 -0.002580 0.018741 -0.002169 0.000000 0.003189 0.000000
# 3 -0.003544 -0.002169 0.013207 0.000000 0.001376 0.000000
# 4 0.000000 0.000000 0.000000 0.040610 0.000000 0.003404
# 5 -0.000027 0.003189 0.001376 0.000000 0.021145 0.000000
# 6 0.000000 0.000000 0.000000 0.003404 0.000000 0.063593
#
#
# Mechanical properties :
#
#
# Convention : Reuss Voigt Hill
#
# Bulk Modulus (GPa) = 34.93355 38.01000 36.47178
# Shear Modulus (GPa) = 25.42094 29.56154 27.49124
#
# Velocity S-wave (km/s) = 3.45797 3.72897 3.59603
# Velocity P-wave (km/s) = 5.68995 6.03486 5.86494
#
# Compressibility (1/GPa) = 0.02862577
#
# Stress axis : x y z
#
# Youngs Moduli (GPa) = 75.39370 53.35793 75.71768
#
# Poissons Ratio (x) = 0.13766 0.26837
# Poissons Ratio (y) = 0.19451 0.16422
# Poissons Ratio (z) = 0.26722 0.11573
#
# Static dielectric constant tensor:
#      x y z
#    x 4.053660 0.000000 0.086610 
#    y 0.000000 3.380590 0.000000 
#    z 0.086610 0.000000 4.289910 
# 
# 
# High freq. dielectric constant tensor:
#      x y z
#    x 1.842800 0.000000 0.002040 
#    y 0.000000 1.797420 0.000000 
#    z 0.002040 0.000000 1.846780 
# 
# From -- ./inp_files/35296.got.cif
#   From: 2010.06.25/outbox.cif.g09.slc.cpg/sg10_18_cif.got.tgz:35296.got - 2010.06.27 22:07:45.
