data_PCOD8064067
_publ_section_title
;
Structure prediction by ZEFSAII (Michael W. Deem and Ramdas Pophale) SiO2 
 PCOD8064067
Probable space group: P 2/M
;
_chemical_formula_sum "Si O2"
_cell_formula_units_Z 32
_cell_length_a 15.977603
_cell_length_b 9.023522
_cell_length_c 24.212122
_cell_angle_alpha 90.000000
_cell_angle_beta 151.030053
_cell_angle_gamma 90.000000
_cell_volume 1690.754600
_symmetry_space_group_name_H-M "P 2/M"
_symmetry_group_IT_number 10
_symmetry_cell_setting 'monoclinic'
loop_
_space_group_symop_operation_xyz
x,y,z
-x,y,-z
-x,-y,-z
x,-y,z
loop_
_atom_site_type_symbol
_atom_site_label
_atom_site_fract_x
_atom_site_fract_y
_atom_site_fract_z
Si Si1 0.930393 0.827186 0.648187
Si Si2 0.250856 0.175696 0.152964
Si Si3 0.799555 0.339180 0.384677
Si Si4 0.064375 0.673583 0.829115
Si Si5 0.351800 0.170665 0.600921
Si Si6 0.037822 0.677032 0.940938
Si Si7 0.549675 0.339553 0.967515
Si Si8 0.765142 0.172267 0.254467
O O1 0.934855 0.751527 0.711056
O O2 0.742176 0.797243 0.512070
O O3 0.081295 0.760103 0.695116
O O4 0.962809 0.000000 0.676187
O O5 0.446066 0.210326 0.284196
O O6 0.132251 0.255026 0.129694
O O7 0.214304 0.000000 0.129821
O O8 0.206436 0.247946 0.067348
O O9 0.708640 0.500000 0.324450
O O10 0.740927 0.270521 0.408017
O O11 0.756656 0.229848 0.311133
O O12 0.000000 0.365349 0.500000
O O13 0.039674 0.500000 0.806776
O O14 0.027044 0.721231 0.870471
O O15 0.258139 0.724660 0.926820
O O16 0.324498 0.000000 0.601869
O O17 0.045905 0.500000 0.953935
O O18 0.534285 0.500000 0.926458
O O19 0.423475 0.210368 0.876033
O O20 0.500000 0.378013 0.000000
O O21 0.796046 0.000000 0.274896
#
# Coordination Sequence:
#
# PCOD8064067 Si02
#       8
#     4   4   4   4   4   4   4   4
#     4  10  21  37  57  80 113 153 191 234 282 333
#     4  10  21  39  64  89 113 144 185 232 284 344
#     4  11  23  36  54  81 112 151 195 233 276 335
#     4  10  22  38  57  83 114 151 191 233 282 338
#     4  10  22  40  59  84 116 150 190 238 288 335
#     4  10  21  39  62  87 118 148 179 230 289 341
#     4  10  20  35  54  77 111 150 189 233 277 328
#     4  11  22  35  53  77 111 152 192 236 281 330
#
# _framework density 18.926461
#
# number of rings (size 3 to 8) (size 9 to 14) (size 15 to 20)
#    0.000    1.750    2.500    2.250    1.750    4.250 
#    0.000    0.625    0.000    3.750    0.000    0.000 
#    0.000    0.000    0.000    0.000    0.000    0.000 
#
# Total GULP energy -396638.232999 kJ/mol
# GULP energy per Si atom -12394.944781 kJ/mol
# Density = 1.888338 g / cm^3
# Si number density = 18.926461 Si / 1000 Ang^3
#
#
#
# Elastic Constant Matrix: (Units=GPa)
#
#
# Indices 1 2 3 4 5 6 
#
# 1 105.6215 45.1438 59.9196 0.0000 -19.3429 0.0000
# 2 45.1438 82.1113 51.3699 0.0000 -8.6640 0.0000
# 3 59.9196 51.3699 140.2811 0.0000 -11.0655 0.0000
# 4 0.0000 0.0000 0.0000 23.1643 0.0000 -10.7247
# 5 -19.3429 -8.6640 -11.0655 0.0000 30.8197 0.0000
# 6 0.0000 0.0000 0.0000 -10.7247 0.0000 26.2736
#
#
#
# Elastic Compliance Matrix: (Units=1/GPa)
#
#
# Indices 1 2 3 4 5 6 
#
# 1 0.015179 -0.005081 -0.004100 0.000000 0.006626 0.000000
# 2 -0.005081 0.017678 -0.004284 0.000000 0.000243 0.000000
# 3 -0.004100 -0.004284 0.010447 0.000000 -0.000027 0.000000
# 4 0.000000 0.000000 0.000000 0.053230 0.000000 0.021728
# 5 0.006626 0.000243 -0.000027 0.000000 0.036664 0.000000
# 6 0.000000 0.000000 0.000000 0.021728 0.000000 0.046930
#
#
# Mechanical properties :
#
#
# Convention : Reuss Voigt Hill
#
# Bulk Modulus (GPa) = 61.07672 71.20894 66.14283
# Shear Modulus (GPa) = 23.52775 27.49022 25.50898
#
# Velocity S-wave (km/s) = 3.52961 3.81527 3.67522
# Velocity P-wave (km/s) = 6.99653 7.55739 7.28236
#
# Compressibility (1/GPa) = 0.01637285
#
# Stress axis : x y z
#
# Youngs Moduli (GPa) = 65.88071 56.56829 95.72483
#
# Poissons Ratio (x) = 0.28741 0.39250
# Poissons Ratio (y) = 0.33473 0.41009
# Poissons Ratio (z) = 0.27013 0.24234
#
# Static dielectric constant tensor:
#      x y z
#    x 3.290770 0.000000 -0.136750 
#    y 0.000000 3.493610 0.000000 
#    z -0.136750 0.000000 3.443380 
# 
# 
# High freq. dielectric constant tensor:
#      x y z
#    x 1.723800 0.000000 -0.008420 
#    y 0.000000 1.740850 0.000000 
#    z -0.008420 0.000000 1.737210 
# 
# From -- ./inp_files/89629.got.cif
#   From: 2010.06.25/outbox.cif.g09.slc.cpg/sg10_45_cif.got.tgz:89629.got - 2010.06.27 22:07:45.
