data_PCOD8064971
_publ_section_title
;
Structure prediction by ZEFSAII (Michael W. Deem and Ramdas Pophale) SiO2 
 PCOD8064971
Probable space group: P 2/M
;
_chemical_formula_sum "Si O2"
_cell_formula_units_Z 24
_cell_length_a 24.132444
_cell_length_b 8.940294
_cell_length_c 12.260855
_cell_angle_alpha 90.000000
_cell_angle_beta 152.867944
_cell_angle_gamma 90.000000
_cell_volume 1206.367303
_symmetry_space_group_name_H-M "P 2/M"
_symmetry_group_IT_number 10
_symmetry_cell_setting 'monoclinic'
loop_
_space_group_symop_operation_xyz
x,y,z
-x,y,-z
-x,-y,-z
x,-y,z
loop_
_atom_site_type_symbol
_atom_site_label
_atom_site_fract_x
_atom_site_fract_y
_atom_site_fract_z
Si Si1 0.023893 0.823013 0.418010
Si Si2 0.508899 0.327647 0.823145
Si Si3 0.749318 0.676376 0.553050
Si Si4 0.179082 0.323075 0.085901
Si Si5 0.223301 0.673330 0.634703
Si Si6 0.423560 0.168641 0.473973
O O1 0.000000 0.767129 0.500000
O O2 0.156309 0.769194 0.610213
O O3 0.015624 0.000000 0.398241
O O4 0.928426 0.754522 0.167026
O O5 0.491425 0.500000 0.757789
O O6 0.391931 0.273071 0.687729
O O7 0.514960 0.227339 0.726088
O O8 0.632206 0.304404 0.105009
O O9 0.752404 0.500000 0.551298
O O10 0.823147 0.728752 0.790238
O O11 0.809723 0.734054 0.545473
O O12 0.164342 0.500000 0.049338
O O13 0.306425 0.274197 0.256771
O O14 0.186572 0.500000 0.586343
O O15 0.500000 0.175851 0.500000
O O16 0.380229 0.000000 0.423690
#
# Coordination Sequence:
#
# PCOD8064971 Si02
#       6
#     4   4   4   4   4   4
#     4  11  26  44  58  77 114 158 194 236 291 344
#     4   9  18  33  56  88 119 150 188 234 281 333
#     4   8  16  34  60  90 120 146 179 233 295 340
#     4  10  21  39  63  86 111 145 192 243 283 333
#     4  10  20  36  61  89 116 151 194 236 281 338
#     4  10  21  35  54  81 116 157 190 227 286 342
#
# _framework density 19.894437
#
# number of rings (size 3 to 8) (size 9 to 14) (size 15 to 20)
#    0.000    2.333    0.000    3.000    2.333    6.000 
#    0.000    7.500    0.000    5.000    0.000    0.000 
#    0.000    0.000    0.000    0.000    0.000    0.000 
#
# Total GULP energy -297493.393315 kJ/mol
# GULP energy per Si atom -12395.558055 kJ/mol
# Density = 1.984916 g / cm^3
# Si number density = 19.894437 Si / 1000 Ang^3
#
#
#
# Elastic Constant Matrix: (Units=GPa)
#
#
# Indices 1 2 3 4 5 6 
#
# 1 134.7722 48.8130 46.9484 0.0000 -18.1989 0.0000
# 2 48.8130 52.3220 25.8197 0.0000 -5.6137 0.0000
# 3 46.9484 25.8197 88.3097 0.0000 -9.2568 0.0000
# 4 0.0000 0.0000 0.0000 19.2551 0.0000 8.3286
# 5 -18.1989 -5.6137 -9.2568 0.0000 19.3184 0.0000
# 6 0.0000 0.0000 0.0000 8.3286 0.0000 0.8960
#
#
#
# Elastic Compliance Matrix: (Units=1/GPa)
#
#
# Indices 1 2 3 4 5 6 
#
# 1 0.013218 -0.009838 -0.003311 0.000000 0.008006 0.000000
# 2 -0.009838 0.029890 -0.003759 0.000000 -0.002384 0.000000
# 3 -0.003311 -0.003759 0.014468 0.000000 0.002721 0.000000
# 4 0.000000 0.000000 0.000000 -0.017194 0.000000 0.159821
# 5 0.008006 -0.002384 0.002721 0.000000 0.059918 0.000000
# 6 0.000000 0.000000 0.000000 0.159821 0.000000 -0.369495
#
#
# Mechanical properties :
#
#
# Convention : Reuss Voigt Hill
#
# Bulk Modulus (GPa) = 42.08808 57.61847 49.85328
# Shear Modulus (GPa) = -21.98198 18.14877 -1.91660
#
# Velocity S-wave (km/s) = -3.32766 3.02363 -0.98259
# Velocity P-wave (km/s) = 2.53717 6.41987 4.88119
#
# Compressibility (1/GPa) = 0.02375970
#
# Stress axis : x y z
#
# Youngs Moduli (GPa) = 75.65475 33.45599 69.11636
#
# Poissons Ratio (x) = 0.32915 0.22887
# Poissons Ratio (y) = 0.74432 0.25978
# Poissons Ratio (z) = 0.25052 0.12575
#
# Static dielectric constant tensor:
#      x y z
#    x 3.882940 0.000000 -0.198060 
#    y 0.000000 3.577220 0.000000 
#    z -0.198060 0.000000 3.692430 
# 
# 
# High freq. dielectric constant tensor:
#      x y z
#    x 1.782820 0.000000 -0.007350 
#    y 0.000000 1.755930 0.000000 
#    z -0.007350 0.000000 1.776860 
# 
# From -- ./inp_files/45157.got.cif
#   From: 2010.06.25/outbox.cif.g09.slc.cpg/sg10_23_cif.got.tgz:45157.got - 2010.06.27 22:07:45.
