data_PCOD8064777
_publ_section_title
;
Structure prediction by ZEFSAII (Michael W. Deem and Ramdas Pophale) SiO2 
 PCOD8064777
Probable space group: P 2/M
;
_chemical_formula_sum "Si O2"
_cell_formula_units_Z 24
_cell_length_a 9.156702
_cell_length_b 8.782604
_cell_length_c 20.618506
_cell_angle_alpha 90.000000
_cell_angle_beta 131.918423
_cell_angle_gamma 90.000000
_cell_volume 1233.812016
_symmetry_space_group_name_H-M "P 2/M"
_symmetry_group_IT_number 10
_symmetry_cell_setting 'monoclinic'
loop_
_space_group_symop_operation_xyz
x,y,z
-x,y,-z
-x,-y,-z
x,-y,z
loop_
_atom_site_type_symbol
_atom_site_label
_atom_site_fract_x
_atom_site_fract_y
_atom_site_fract_z
Si Si1 0.491449 0.180173 0.598564
Si Si2 0.946233 0.676170 0.909822
Si Si3 0.781603 0.679977 0.248747
Si Si4 0.184232 0.180217 0.403377
Si Si5 0.289443 0.319405 0.916619
Si Si6 0.458382 0.179382 0.241916
O O1 0.294868 0.230674 0.502327
O O2 0.686015 0.239530 0.618948
O O3 0.486471 0.242618 0.670169
O O4 0.504410 0.000000 0.602055
O O5 0.893957 0.500000 0.880067
O O6 0.766385 0.783437 0.838630
O O7 0.128224 0.733319 0.920666
O O8 0.000000 0.700659 0.000000
O O9 0.785557 0.500000 0.250729
O O10 0.770238 0.743063 0.171908
O O11 0.589899 0.735001 0.229031
O O12 0.974180 0.741291 0.341210
O O13 0.154108 0.000000 0.392168
O O14 0.304530 0.500000 0.919314
O O15 0.500000 0.250360 0.000000
O O16 0.494471 0.000000 0.247505
#
# Coordination Sequence:
#
# PCOD8064777 Si02
#       6
#     4   4   4   4   4   4
#     4   8  17  34  57  80 103 137 178 219 263 316
#     4  10  20  36  59  83 107 137 173 215 265 316
#     4  11  22  35  52  78 110 141 176 217 263 313
#     4   9  17  35  59  79 102 136 178 219 265 317
#     4   9  18  34  56  79 104 137 174 210 254 313
#     4  11  22  36  54  78 108 141 179 219 260 308
#
# _framework density 19.451910999999999
#
# number of rings (size 3 to 8) (size 9 to 14) (size 15 to 20)
#    0.000    2.333    0.000    4.000    0.000    3.667 
#    0.000    8.333    0.000    3.500    0.000    0.000 
#    0.000    0.000    0.000    0.000    0.000    0.000 
#
# Total GULP energy -297621.230291 kJ/mol
# GULP energy per Si atom -12400.884595 kJ/mol
# Density = 1.940764 g / cm^3
# Si number density = 19.451911 Si / 1000 Ang^3
#
#
#
# Elastic Constant Matrix: (Units=GPa)
#
#
# Indices 1 2 3 4 5 6 
#
# 1 140.7017 19.5858 68.1556 0.0000 -2.2401 0.0000
# 2 19.5858 36.3979 26.5131 0.0000 -0.9108 0.0000
# 3 68.1556 26.5131 127.1496 0.0000 1.1780 0.0000
# 4 0.0000 0.0000 0.0000 22.7913 0.0000 6.1253
# 5 -2.2401 -0.9108 1.1780 0.0000 42.9242 0.0000
# 6 0.0000 0.0000 0.0000 6.1253 0.0000 28.8609
#
#
#
# Elastic Compliance Matrix: (Units=1/GPa)
#
#
# Indices 1 2 3 4 5 6 
#
# 1 0.009702 -0.001666 -0.004859 0.000000 0.000604 0.000000
# 2 -0.001666 0.032713 -0.005935 0.000000 0.000770 0.000000
# 3 -0.004859 -0.005935 0.011713 0.000000 -0.000701 0.000000
# 4 0.000000 0.000000 0.000000 0.046531 0.000000 -0.009875
# 5 0.000604 0.000770 -0.000701 0.000000 0.023364 0.000000
# 6 0.000000 0.000000 0.000000 -0.009875 0.000000 0.036745
#
#
# Mechanical properties :
#
#
# Convention : Reuss Voigt Hill
#
# Bulk Modulus (GPa) = 34.23707 59.19535 46.71621
# Shear Modulus (GPa) = 25.58514 31.58158 28.58336
#
# Velocity S-wave (km/s) = 3.63064 4.03373 3.83748
# Velocity P-wave (km/s) = 5.93418 7.22443 6.61086
#
# Compressibility (1/GPa) = 0.02920811
#
# Stress axis : x y z
#
# Youngs Moduli (GPa) = 103.06657 30.56842 85.37274
#
# Poissons Ratio (x) = 0.05094 0.41482
# Poissons Ratio (y) = 0.17176 0.50671
# Poissons Ratio (z) = 0.50079 0.18143
#
# Static dielectric constant tensor:
#      x y z
#    x 3.708210 0.000000 -0.175430 
#    y 0.000000 3.159940 0.000000 
#    z -0.175430 0.000000 3.856550 
# 
# 
# High freq. dielectric constant tensor:
#      x y z
#    x 1.767780 0.000000 -0.001580 
#    y 0.000000 1.721330 0.000000 
#    z -0.001580 0.000000 1.772740 
# 
# From -- ./inp_files/33721.got.cif
#   From: 2010.06.25/outbox.cif.g09.slc.cpg/sg10_17_cif.got.tgz:33721.got - 2010.06.27 22:07:45.
