data_PCOD8064987
_publ_section_title
;
Structure prediction by ZEFSAII (Michael W. Deem and Ramdas Pophale) SiO2 
 PCOD8064987
Probable space group: P 2/M
;
_chemical_formula_sum "Si O2"
_cell_formula_units_Z 20
_cell_length_a 9.858018
_cell_length_b 13.968556
_cell_length_c 7.076248
_cell_angle_alpha 90.000000
_cell_angle_beta 75.008681
_cell_angle_gamma 90.000000
_cell_volume 941.251257
_symmetry_space_group_name_H-M "P 2/M"
_symmetry_group_IT_number 10
_symmetry_cell_setting 'monoclinic'
loop_
_space_group_symop_operation_xyz
x,y,z
-x,y,-z
-x,-y,-z
x,-y,z
loop_
_atom_site_type_symbol
_atom_site_label
_atom_site_fract_x
_atom_site_fract_y
_atom_site_fract_z
Si Si1 0.602087 0.606959 0.126558
Si Si2 0.838353 0.887800 0.014102
Si Si3 0.089818 0.394133 0.141816
Si Si4 0.646713 0.779364 0.380152
Si Si5 0.137554 0.220510 0.365561
O O1 0.555214 0.500000 0.210256
O O2 0.751897 0.601252 0.978753
O O3 0.500000 0.646991 0.000000
O O4 0.604600 0.677976 0.302950
O O5 0.732142 0.847331 0.208323
O O6 0.813542 0.000000 0.010194
O O7 0.797627 0.840782 0.828912
O O8 0.000000 0.862388 0.000000
O O9 0.034653 0.500000 0.220064
O O10 0.075307 0.322434 0.320741
O O11 0.000000 0.352594 0.000000
O O12 0.500000 0.828517 0.500000
O O13 0.741291 0.760484 0.528390
O O14 0.000000 0.165826 0.500000
#
# Coordination Sequence:
#
# PCOD8064987 Si02
#       5
#     4   4   4   4   4
#     4  10  21  40  65  91 133 186 223 258 320 397
#     4  11  25  48  73  97 133 175 221 278 340 403
#     4  10  20  36  61  92 130 173 218 271 326 383
#     4  12  26  41  69 104 135 171 223 279 334 390
#     4  12  23  40  69  98 129 176 225 268 331 409
#
# _framework density 21.248311999999999
#
# number of rings (size 3 to 8) (size 9 to 14) (size 15 to 20)
#    0.000    1.000    4.000    3.000    0.000    3.200 
#    0.000    1.000    0.000    0.000    0.000    0.000 
#    0.000    0.000    0.000    0.000    0.000    0.000 
#
# Total GULP energy -248008.864096 kJ/mol
# GULP energy per Si atom -12400.443205 kJ/mol
# Density = 2.119995 g / cm^3
# Si number density = 21.248312 Si / 1000 Ang^3
#
#
#
# Elastic Constant Matrix: (Units=GPa)
#
#
# Indices 1 2 3 4 5 6 
#
# 1 148.6795 39.6032 71.9306 0.0000 19.5749 0.0000
# 2 39.6032 123.7015 69.9644 0.0000 11.9597 0.0000
# 3 71.9306 69.9644 146.9392 0.0000 16.5519 0.0000
# 4 0.0000 0.0000 0.0000 7.1958 0.0000 -0.8054
# 5 19.5749 11.9597 16.5519 0.0000 54.6508 0.0000
# 6 0.0000 0.0000 0.0000 -0.8054 0.0000 25.1711
#
#
#
# Elastic Compliance Matrix: (Units=1/GPa)
#
#
# Indices 1 2 3 4 5 6 
#
# 1 0.009029 -0.000448 -0.003990 0.000000 -0.001928 0.000000
# 2 -0.000448 0.011124 -0.004992 0.000000 -0.000762 0.000000
# 3 -0.003990 -0.004992 0.011235 0.000000 -0.000881 0.000000
# 4 0.000000 0.000000 0.000000 0.139470 0.000000 0.004463
# 5 -0.001928 -0.000762 -0.000881 0.000000 0.019422 0.000000
# 6 0.000000 0.000000 0.000000 0.004463 0.000000 0.039871
#
#
# Mechanical properties :
#
#
# Convention : Reuss Voigt Hill
#
# Bulk Modulus (GPa) = 79.81011 86.92407 83.36709
# Shear Modulus (GPa) = 19.74836 33.25833 26.50335
#
# Velocity S-wave (km/s) = 3.05193 3.96058 3.53557
# Velocity P-wave (km/s) = 7.07540 7.86845 7.48244
#
# Compressibility (1/GPa) = 0.01252974
#
# Stress axis : x y z
#
# Youngs Moduli (GPa) = 110.75262 89.89329 89.01070
#
# Poissons Ratio (x) = 0.04026 0.35512
# Poissons Ratio (y) = 0.04960 0.44432
# Poissons Ratio (z) = 0.44186 0.44872
#
# Static dielectric constant tensor:
#      x y z
#    x 3.957460 0.000000 -0.015220 
#    y 0.000000 4.003390 0.000000 
#    z -0.015220 0.000000 3.858930 
# 
# 
# High freq. dielectric constant tensor:
#      x y z
#    x 1.845240 0.000000 0.002740 
#    y 0.000000 1.822880 0.000000 
#    z 0.002740 0.000000 1.838110 
# 
# From -- ./inp_files/6711.got.cif
#   From: 2010.06.25/outbox.cif.g09.slc.cpg/sg10_4_cif.got.tgz:6711.got - 2010.06.27 22:07:45.
