data_PCOD8064191
_publ_section_title
;
Structure prediction by ZEFSAII (Michael W. Deem and Ramdas Pophale) SiO2 
 PCOD8064191
Probable space group: P 2/M
;
_chemical_formula_sum "Si O2"
_cell_formula_units_Z 28
_cell_length_a 18.633608
_cell_length_b 8.854860
_cell_length_c 18.627027
_cell_angle_alpha 90.000000
_cell_angle_beta 28.872035
_cell_angle_gamma 90.000000
_cell_volume 1484.017274
_symmetry_space_group_name_H-M "P 2/M"
_symmetry_group_IT_number 10
_symmetry_cell_setting 'monoclinic'
loop_
_space_group_symop_operation_xyz
x,y,z
-x,y,-z
-x,-y,-z
x,-y,z
loop_
_atom_site_type_symbol
_atom_site_label
_atom_site_fract_x
_atom_site_fract_y
_atom_site_fract_z
Si Si1 0.555540 0.819954 0.376484
Si Si2 0.874630 0.822131 0.059332
Si Si3 0.524234 0.179162 0.706856
Si Si4 0.670338 0.824490 0.839191
Si Si5 0.909987 0.322197 0.729015
Si Si6 0.196371 0.177233 0.035520
Si Si7 0.782663 0.822878 0.582304
O O1 0.500000 0.748903 0.500000
O O2 0.719264 0.753769 0.221558
O O3 0.458079 0.770526 0.392233
O O4 0.556561 0.000000 0.380065
O O5 0.871513 0.000000 0.074579
O O6 0.896482 0.788084 0.955848
O O7 0.000000 0.747023 0.000000
O O8 0.663570 0.243690 0.629425
O O9 0.522236 0.000000 0.714196
O O10 0.366693 0.235206 0.877650
O O11 0.769349 0.728150 0.806054
O O12 0.717691 0.786852 0.717100
O O13 0.693578 0.000000 0.837273
O O14 0.500000 0.776868 0.000000
O O15 0.922307 0.500000 0.717003
O O16 0.888865 0.267045 0.828526
O O17 0.060156 0.256826 0.563887
O O18 0.194031 0.000000 0.055856
O O19 0.807292 0.000000 0.549105
#
# Coordination Sequence:
#
# PCOD8064191 Si02
#       7
#     4   4   4   4   4   4   4
#     4   8  13  21  36  64 103 135 157 194 251 307
#     4   8  14  24  42  72 104 131 163 208 260 308
#     4   8  15  29  50  75 100 131 172 213 253 301
#     4  10  21  39  63  85 103 129 169 212 255 309
#     4  12  25  37  51  76 110 141 172 211 255 304
#     4   9  17  33  55  76 103 138 177 218 258 307
#     4  10  20  35  56  79 103 133 170 212 258 305
#
# _framework density 18.867705000000001
#
# number of rings (size 3 to 8) (size 9 to 14) (size 15 to 20)
#    0.000    2.714    0.000    4.286    0.000    6.000 
#    0.000    6.429    0.000    0.429    0.000    0.000 
#    0.000    5.143    0.000    0.000    0.000    0.000 
#
# Total GULP energy -347072.207398 kJ/mol
# GULP energy per Si atom -12395.435979 kJ/mol
# Density = 1.882476 g / cm^3
# Si number density = 18.867705 Si / 1000 Ang^3
#
#
#
# Elastic Constant Matrix: (Units=GPa)
#
#
# Indices 1 2 3 4 5 6 
#
# 1 148.7373 36.8849 72.8977 0.0000 0.9017 0.0000
# 2 36.8849 42.7205 40.9909 0.0000 4.8491 0.0000
# 3 72.8977 40.9909 135.4774 0.0000 10.3245 0.0000
# 4 0.0000 0.0000 0.0000 1.9513 0.0000 0.3795
# 5 0.9017 4.8491 10.3245 0.0000 34.6400 0.0000
# 6 0.0000 0.0000 0.0000 0.3795 0.0000 4.7200
#
#
#
# Elastic Compliance Matrix: (Units=1/GPa)
#
#
# Indices 1 2 3 4 5 6 
#
# 1 0.009865 -0.004917 -0.003943 0.000000 0.001607 0.000000
# 2 -0.004917 0.035530 -0.007915 0.000000 -0.002487 0.000000
# 3 -0.003943 -0.007915 0.012080 0.000000 -0.002390 0.000000
# 4 0.000000 0.000000 0.000000 0.520624 0.000000 -0.041860
# 5 0.001607 -0.002487 -0.002390 0.000000 0.029887 0.000000
# 6 0.000000 0.000000 0.000000 -0.041860 0.000000 0.215230
#
#
# Mechanical properties :
#
#
# Convention : Reuss Voigt Hill
#
# Bulk Modulus (GPa) = 41.79651 69.83137 55.81394
# Shear Modulus (GPa) = 5.78208 20.00636 12.89422
#
# Velocity S-wave (km/s) = 1.75248 3.25983 2.61703
# Velocity P-wave (km/s) = 5.12791 7.15961 6.22718
#
# Compressibility (1/GPa) = 0.02392544
#
# Stress axis : x y z
#
# Youngs Moduli (GPa) = 101.36444 28.14530 82.78109
#
# Poissons Ratio (x) = 0.13838 0.32642
# Poissons Ratio (y) = 0.49837 0.65522
# Poissons Ratio (z) = 0.39970 0.22277
#
# Static dielectric constant tensor:
#      x y z
#    x 3.887350 0.000000 -0.030170 
#    y 0.000000 2.886680 0.000000 
#    z -0.030170 0.000000 3.623100 
# 
# 
# High freq. dielectric constant tensor:
#      x y z
#    x 1.753030 0.000000 0.004550 
#    y 0.000000 1.670890 0.000000 
#    z 0.004550 0.000000 1.737340 
# 
# From -- ./inp_files/78748.got.cif
#   From: 2010.06.25/outbox.cif.g09.slc.cpg/sg10_40_cif.got.tgz:78748.got - 2010.06.27 22:07:45.
