data_PCOD8064474
_publ_section_title
;
Structure prediction by ZEFSAII (Michael W. Deem and Ramdas Pophale) SiO2 
 PCOD8064474
Probable space group: P 2/M
;
_chemical_formula_sum "Si O2"
_cell_formula_units_Z 24
_cell_length_a 17.710635
_cell_length_b 8.815165
_cell_length_c 23.947972
_cell_angle_alpha 90.000000
_cell_angle_beta 19.682755
_cell_angle_gamma 90.000000
_cell_volume 1259.275397
_symmetry_space_group_name_H-M "P 2/M"
_symmetry_group_IT_number 10
_symmetry_cell_setting 'monoclinic'
loop_
_space_group_symop_operation_xyz
x,y,z
-x,y,-z
-x,-y,-z
x,-y,z
loop_
_atom_site_type_symbol
_atom_site_label
_atom_site_fract_x
_atom_site_fract_y
_atom_site_fract_z
Si Si1 0.068670 0.679523 0.538107
Si Si2 0.646891 0.320636 0.762800
Si Si3 0.164523 0.676930 0.594568
Si Si4 0.680468 0.677150 0.238260
Si Si5 0.176941 0.178445 0.083629
Si Si6 0.060681 0.180094 0.040376
O O1 0.089403 0.500000 0.524119
O O2 0.256189 0.739867 0.363984
O O3 0.115077 0.744558 0.567334
O O4 0.820825 0.727213 0.690363
O O5 0.613627 0.500000 0.784686
O O6 0.412107 0.244504 0.940508
O O7 0.102781 0.500000 0.640150
O O8 0.421553 0.706425 0.431416
O O9 0.018682 0.766598 0.740178
O O10 0.733665 0.500000 0.194418
O O11 0.822267 0.745782 0.190609
O O12 0.746151 0.760243 0.135170
O O13 0.123203 0.234729 0.058668
O O14 0.191377 0.000000 0.076244
O O15 0.040845 0.000000 0.049001
#
# Coordination Sequence:
#
# PCOD8064474 Si02
#       6
#     4   4   4   4   4   4
#     4   8  16  33  58  84 104 131 174 218 265 317
#     4   9  17  34  60  82 103 134 174 221 265 309
#     4  10  21  36  54  78 108 140 174 215 264 314
#     4  10  20  35  59  86 105 128 173 226 265 304
#     4  11  24  37  50  75 110 146 180 212 255 312
#     4  10  21  37  56  77 106 143 176 210 260 318
#
# _framework density 19.058579999999999
#
# number of rings (size 3 to 8) (size 9 to 14) (size 15 to 20)
#    0.000    2.333    0.000    4.500    0.000    6.667 
#    0.000   10.000    0.000    0.000    0.000    0.000 
#    0.000    0.000    0.000    0.000    0.000    0.000 
#
# Total GULP energy -297622.576630 kJ/mol
# GULP energy per Si atom -12400.940693 kJ/mol
# Density = 1.901520 g / cm^3
# Si number density = 19.058580 Si / 1000 Ang^3
#
#
#
# Elastic Constant Matrix: (Units=GPa)
#
#
# Indices 1 2 3 4 5 6 
#
# 1 63.0675 26.1913 39.0328 0.0000 -8.9882 0.0000
# 2 26.1913 43.3428 27.3113 0.0000 -8.0794 0.0000
# 3 39.0328 27.3113 119.7090 0.0000 -13.7051 0.0000
# 4 0.0000 0.0000 0.0000 -4.8027 0.0000 14.0735
# 5 -8.9882 -8.0794 -13.7051 0.0000 22.3590 0.0000
# 6 0.0000 0.0000 0.0000 14.0735 0.0000 21.1848
#
#
#
# Elastic Compliance Matrix: (Units=1/GPa)
#
#
# Indices 1 2 3 4 5 6 
#
# 1 0.023784 -0.010729 -0.005008 0.000000 0.002614 0.000000
# 2 -0.010729 0.032670 -0.003331 0.000000 0.005450 0.000000
# 3 -0.005008 -0.003331 0.011161 0.000000 0.003625 0.000000
# 4 0.000000 0.000000 0.000000 -0.070661 0.000000 0.046942
# 5 0.002614 0.005450 0.003625 0.000000 0.049967 0.000000
# 6 0.000000 0.000000 0.000000 0.046942 0.000000 0.016019
#
#
# Mechanical properties :
#
#
# Convention : Reuss Voigt Hill
#
# Bulk Modulus (GPa) = 33.92249 45.68779 39.80514
# Shear Modulus (GPa) = 45.08428 16.65383 30.86905
#
# Velocity S-wave (km/s) = 4.86898 2.95926 4.02891
# Velocity P-wave (km/s) = 7.03186 5.97500 6.52486
#
# Compressibility (1/GPa) = 0.02947897
#
# Stress axis : x y z
#
# Youngs Moduli (GPa) = 42.04552 30.60866 89.59396
#
# Poissons Ratio (x) = 0.32841 0.44868
# Poissons Ratio (y) = 0.45112 0.29846
# Poissons Ratio (z) = 0.21056 0.10197
#
# Static dielectric constant tensor:
#      x y z
#    x 3.812660 0.000000 -0.045330 
#    y 0.000000 3.289400 0.000000 
#    z -0.045330 0.000000 3.462140 
# 
# 
# High freq. dielectric constant tensor:
#      x y z
#    x 1.748510 0.000000 -0.009090 
#    y 0.000000 1.724370 0.000000 
#    z -0.009090 0.000000 1.744520 
# 
# From -- ./inp_files/33769.got.cif
#   From: 2010.06.25/outbox.cif.g09.slc.cpg/sg10_17_cif.got.tgz:33769.got - 2010.06.27 22:07:45.
