data_PCOD8064858
_publ_section_title
;
Structure prediction by ZEFSAII (Michael W. Deem and Ramdas Pophale) SiO2 
 PCOD8064858
Probable space group: P 2/M
;
_chemical_formula_sum "Si O2"
_cell_formula_units_Z 28
_cell_length_a 12.494624
_cell_length_b 13.214624
_cell_length_c 9.921849
_cell_angle_alpha 90.000000
_cell_angle_beta 118.156667
_cell_angle_gamma 90.000000
_cell_volume 1444.348665
_symmetry_space_group_name_H-M "P 2/M"
_symmetry_group_IT_number 10
_symmetry_cell_setting 'monoclinic'
loop_
_space_group_symop_operation_xyz
x,y,z
-x,y,-z
-x,-y,-z
x,-y,z
loop_
_atom_site_type_symbol
_atom_site_label
_atom_site_fract_x
_atom_site_fract_y
_atom_site_fract_z
Si Si1 0.998892 0.614649 0.650053
Si Si2 0.780879 0.701739 0.683997
Si Si3 0.248827 0.697984 0.819582
Si Si4 0.656549 0.383600 0.861569
Si Si5 0.618489 0.617525 0.362425
Si Si6 0.091506 0.113523 0.671591
Si Si7 0.076849 0.885993 0.171249
O O1 0.955834 0.500000 0.616643
O O2 0.908317 0.669851 0.695743
O O3 0.000000 0.662410 0.500000
O O4 0.133592 0.627706 0.786990
O O5 0.754169 0.638847 0.803202
O O6 0.673587 0.686732 0.513110
O O7 0.801258 0.819686 0.733196
O O8 0.325831 0.649294 0.746336
O O9 0.206713 0.811313 0.753582
O O10 0.328081 0.692806 0.003056
O O11 0.668805 0.500000 0.916589
O O12 0.524334 0.363201 0.721339
O O13 0.649898 0.500000 0.409505
O O14 0.000000 0.148170 0.500000
O O15 0.014478 0.118093 0.759852
O O16 0.141839 0.000000 0.674225
O O17 0.122821 0.000000 0.171287
O O18 0.000000 0.843422 0.000000
#
# Coordination Sequence:
#
# PCOD8064858 Si02
#       7
#     4   4   4   4   4   4   4
#     4  11  21  33  54  87 122 153 180 228 302 359
#     4  12  22  37  62  85 117 150 192 244 288 338
#     4  12  21  37  60  85 119 151 191 242 290 346
#     4  11  25  40  57  84 116 157 204 239 276 335
#     4  11  23  41  61  80 113 163 205 232 274 344
#     4  10  20  36  59  88 117 148 190 236 287 350
#     4  10  21  38  58  84 118 153 186 226 290 361
#
# _framework density 19.385902000000002
#
# number of rings (size 3 to 8) (size 9 to 14) (size 15 to 20)
#    0.000    1.000    2.857    5.571    0.000    2.286 
#    0.000    1.429    0.000    5.143    0.000    0.000 
#    0.000    0.000    0.000    0.000    0.000    0.000 
#
# Total GULP energy -347205.151063 kJ/mol
# GULP energy per Si atom -12400.183967 kJ/mol
# Density = 1.934178 g / cm^3
# Si number density = 19.385902 Si / 1000 Ang^3
#
#
#
# Elastic Constant Matrix: (Units=GPa)
#
#
# Indices 1 2 3 4 5 6 
#
# 1 73.2093 41.4544 30.9537 0.0000 0.5565 0.0000
# 2 41.4544 112.1067 45.7096 0.0000 6.7102 0.0000
# 3 30.9537 45.7096 115.9359 0.0000 -15.6020 0.0000
# 4 0.0000 0.0000 0.0000 34.1032 0.0000 3.4666
# 5 0.5565 6.7102 -15.6020 0.0000 23.2464 0.0000
# 6 0.0000 0.0000 0.0000 3.4666 0.0000 21.9834
#
#
#
# Elastic Compliance Matrix: (Units=1/GPa)
#
#
# Indices 1 2 3 4 5 6 
#
# 1 0.017913 -0.005478 -0.002713 0.000000 -0.000668 0.000000
# 2 -0.005478 0.013268 -0.004690 0.000000 -0.006846 0.000000
# 3 -0.002713 -0.004690 0.012521 0.000000 0.009822 0.000000
# 4 0.000000 0.000000 0.000000 0.029800 0.000000 -0.004699
# 5 -0.000668 -0.006846 0.009822 0.000000 0.051602 0.000000
# 6 0.000000 0.000000 0.000000 -0.004699 0.000000 0.046230
#
#
# Mechanical properties :
#
#
# Convention : Reuss Voigt Hill
#
# Bulk Modulus (GPa) = 55.73960 59.72080 57.73020
# Shear Modulus (GPa) = 24.62146 28.07554 26.34850
#
# Velocity S-wave (km/s) = 3.56767 3.80971 3.69068
# Velocity P-wave (km/s) = 6.76654 7.08696 6.92861
#
# Compressibility (1/GPa) = 0.01794057
#
# Stress axis : x y z
#
# Youngs Moduli (GPa) = 55.82418 75.37162 79.86839
#
# Poissons Ratio (x) = 0.41287 0.21668
# Poissons Ratio (y) = 0.30579 0.37457
# Poissons Ratio (z) = 0.15145 0.35348
#
# Static dielectric constant tensor:
#      x y z
#    x 3.456950 0.000000 -0.059890 
#    y 0.000000 3.805670 0.000000 
#    z -0.059890 0.000000 3.683520 
# 
# 
# High freq. dielectric constant tensor:
#      x y z
#    x 1.743520 0.000000 -0.014720 
#    y 0.000000 1.751750 0.000000 
#    z -0.014720 0.000000 1.766800 
# 
# From -- ./inp_files/25386.got.cif
#   From: 2010.06.25/outbox.cif.g09.slc.cpg/sg10_13_cif.got.tgz:25386.got - 2010.06.27 22:07:45.
