data_PCOD8064780
_publ_section_title
;
Structure prediction by ZEFSAII (Michael W. Deem and Ramdas Pophale) SiO2 
 PCOD8064780
Probable space group: P 2/M
;
_chemical_formula_sum "Si O2"
_cell_formula_units_Z 24
_cell_length_a 10.236930
_cell_length_b 8.878325
_cell_length_c 18.382723
_cell_angle_alpha 90.000000
_cell_angle_beta 133.925147
_cell_angle_gamma 90.000000
_cell_volume 1203.349823
_symmetry_space_group_name_H-M "P 2/M"
_symmetry_group_IT_number 10
_symmetry_cell_setting 'monoclinic'
loop_
_space_group_symop_operation_xyz
x,y,z
-x,y,-z
-x,-y,-z
x,-y,z
loop_
_atom_site_type_symbol
_atom_site_label
_atom_site_fract_x
_atom_site_fract_y
_atom_site_fract_z
Si Si1 0.519711 0.675019 0.422769
Si Si2 0.724043 0.177627 0.786471
Si Si3 0.921849 0.679319 0.545472
Si Si4 0.095017 0.322949 0.898541
Si Si5 0.573406 0.676738 0.869464
Si Si6 0.183402 0.320899 0.772135
O O1 0.500000 0.703823 0.500000
O O2 0.493243 0.500000 0.393076
O O3 0.364438 0.768961 0.323046
O O4 0.715972 0.734836 0.473566
O O5 0.603694 0.237674 0.806067
O O6 0.926848 0.240901 0.871141
O O7 0.731557 0.000000 0.792105
O O8 0.929882 0.500000 0.550180
O O9 0.000000 0.742778 0.500000
O O10 0.041925 0.743407 0.658265
O O11 0.054770 0.500000 0.882788
O O12 0.126288 0.259928 0.829244
O O13 0.271876 0.283344 0.013181
O O14 0.566384 0.500000 0.849423
O O15 0.384581 0.735049 0.830027
O O16 0.180786 0.500000 0.772781
#
# Coordination Sequence:
#
# PCOD8064780 Si02
#       6
#     4   4   4   4   4   4
#     4  10  20  36  59  83 107 140 184 232 278 324
#     4  12  25  38  54  79 115 156 191 226 273 331
#     4   9  16  27  49  81 111 137 168 214 272 329
#     4  10  20  36  59  85 111 143 187 237 285 332
#     4  10  20  36  60  86 111 142 184 235 285 333
#     4   9  17  32  57  88 115 138 176 233 289 335
#
# _framework density 19.944323000000001
#
# number of rings (size 3 to 8) (size 9 to 14) (size 15 to 20)
#    0.000    2.000    0.000    4.500    0.000   10.333 
#    0.000    0.833    0.000    6.500    0.000    0.000 
#    0.000    0.000    0.000    0.000    0.000    0.000 
#
# Total GULP energy -297698.276300 kJ/mol
# GULP energy per Si atom -12404.094846 kJ/mol
# Density = 1.989893 g / cm^3
# Si number density = 19.944323 Si / 1000 Ang^3
#
#
#
# Elastic Constant Matrix: (Units=GPa)
#
#
# Indices 1 2 3 4 5 6 
#
# 1 99.5033 15.9148 11.3033 0.0000 2.7745 0.0000
# 2 15.9148 41.7725 25.4390 0.0000 1.4608 0.0000
# 3 11.3033 25.4390 94.9438 0.0000 -0.6920 0.0000
# 4 0.0000 0.0000 0.0000 7.2609 0.0000 -3.4037
# 5 2.7745 1.4608 -0.6920 0.0000 37.7922 0.0000
# 6 0.0000 0.0000 0.0000 -3.4037 0.0000 2.5985
#
#
#
# Elastic Compliance Matrix: (Units=1/GPa)
#
#
# Indices 1 2 3 4 5 6 
#
# 1 0.010721 -0.003922 -0.000230 0.000000 -0.000640 0.000000
# 2 -0.003922 0.030101 -0.007606 0.000000 -0.001015 0.000000
# 3 -0.000230 -0.007606 0.012602 0.000000 0.000542 0.000000
# 4 0.000000 0.000000 0.000000 0.356838 0.000000 0.467414
# 5 -0.000640 -0.001015 0.000542 0.000000 0.026557 0.000000
# 6 0.000000 0.000000 0.000000 0.467414 0.000000 0.997091
#
#
# Mechanical properties :
#
#
# Convention : Reuss Voigt Hill
#
# Bulk Modulus (GPa) = 33.43594 37.94818 35.69206
# Shear Modulus (GPa) = 3.40740 21.76782 12.58761
#
# Velocity S-wave (km/s) = 1.30850 3.30726 2.51497
# Velocity P-wave (km/s) = 4.36852 5.80106 5.13499
#
# Compressibility (1/GPa) = 0.02990793
#
# Stress axis : x y z
#
# Youngs Moduli (GPa) = 93.27299 33.22185 79.35435
#
# Poissons Ratio (x) = 0.13030 0.01826
# Poissons Ratio (y) = 0.36583 0.60353
# Poissons Ratio (z) = 0.02147 0.25267
#
# Static dielectric constant tensor:
#      x y z
#    x 3.879820 0.000000 -0.002370 
#    y 0.000000 3.093710 0.000000 
#    z -0.002370 0.000000 3.819420 
# 
# 
# High freq. dielectric constant tensor:
#      x y z
#    x 1.797310 0.000000 0.000440 
#    y 0.000000 1.719200 0.000000 
#    z 0.000440 0.000000 1.796920 
# 
# From -- ./inp_files/83440.got.cif
#   From: 2010.06.25/outbox.cif.g09.slc.cpg/sg10_42_cif.got.tgz:83440.got - 2010.06.27 22:07:45.
