data_PCOD8064047
_publ_section_title
;
Structure prediction by ZEFSAII (Michael W. Deem and Ramdas Pophale) SiO2 
 PCOD8064047
Probable space group: P 2/M
;
_chemical_formula_sum "Si O2"
_cell_formula_units_Z 28
_cell_length_a 14.613668
_cell_length_b 23.708939
_cell_length_c 8.492706
_cell_angle_alpha 90.000000
_cell_angle_beta 30.642327
_cell_angle_gamma 90.000000
_cell_volume 1499.728367
_symmetry_space_group_name_H-M "P 2/M"
_symmetry_group_IT_number 10
_symmetry_cell_setting 'monoclinic'
loop_
_space_group_symop_operation_xyz
x,y,z
-x,y,-z
-x,-y,-z
x,-y,z
loop_
_atom_site_type_symbol
_atom_site_label
_atom_site_fract_x
_atom_site_fract_y
_atom_site_fract_z
Si Si1 0.163518 0.937395 0.364363
Si Si2 0.317298 0.437430 0.365404
Si Si3 0.831457 0.651230 0.633502
Si Si4 0.181637 0.730623 0.636726
Si Si5 0.682771 0.147445 0.634457
Si Si6 0.472120 0.937395 0.364362
Si Si7 0.535041 0.348770 0.633502
O O1 0.177611 0.889568 0.473822
O O2 0.000000 0.918307 0.500000
O O3 0.130973 0.000000 0.486059
O O4 0.340524 0.939264 0.000001
O O5 0.242564 0.500000 0.514872
O O6 0.172549 0.404494 0.471519
O O7 0.355932 0.404494 0.471519
O O8 0.500000 0.441849 0.000000
O O9 0.839097 0.704856 0.507163
O O10 0.000000 0.648560 0.500000
O O11 0.653890 0.656278 1.000000
O O12 0.218627 0.796232 0.562745
O O13 0.346260 0.704856 0.492836
O O14 0.000000 0.719788 0.000000
O O15 0.651430 0.110433 0.526180
O O16 0.500000 0.160710 0.000000
O O17 0.500000 0.918308 0.500000
O O18 0.382968 0.000000 0.486056
O O19 0.500000 0.351439 0.500000
#
# Coordination Sequence:
#
# PCOD8064047 Si02
#       7
#     4   4   4   4   4   4   4
#     4   9  18  33  53  76 102 133 168 208 257 314
#     4   8  16  32  54  82 115 146 177 216 260 310
#     4  10  20  36  58  81 109 145 182 220 266 316
#     4  11  23  38  55  77 106 139 182 229 271 317
#     4  10  20  35  54  75 103 137 173 213 263 320
#     4   9  18  33  53  76 102 133 168 208 257 314
#     4  10  20  36  58  81 109 145 182 220 266 316
#
# _framework density 18.670048000000001
#
# number of rings (size 3 to 8) (size 9 to 14) (size 15 to 20)
#    0.000    2.429    0.000    3.429    0.000    4.571 
#    0.000    2.857    0.000   18.857    0.000    0.000 
#    0.000    0.000    0.000    0.000    0.000    0.000 
#
# Total GULP energy -347116.990962 kJ/mol
# GULP energy per Si atom -12397.035391 kJ/mol
# Density = 1.862755 g / cm^3
# Si number density = 18.670048 Si / 1000 Ang^3
#
#
#
# Elastic Constant Matrix: (Units=GPa)
#
#
# Indices 1 2 3 4 5 6 
#
# 1 179.1955 93.3286 48.2705 0.0000 -2.1059 0.0000
# 2 93.3286 156.2633 39.4534 0.0000 -1.7743 0.0000
# 3 48.2705 39.4534 65.6898 0.0000 -1.6326 0.0000
# 4 0.0000 0.0000 0.0000 20.5824 0.0000 -0.7492
# 5 -2.1059 -1.7743 -1.6326 0.0000 33.5087 0.0000
# 6 0.0000 0.0000 0.0000 -0.7492 0.0000 43.3382
#
#
#
# Elastic Compliance Matrix: (Units=1/GPa)
#
#
# Indices 1 2 3 4 5 6 
#
# 1 0.008889 -0.004313 -0.003938 0.000000 0.000138 0.000000
# 2 -0.004313 0.009637 -0.002616 0.000000 0.000112 0.000000
# 3 -0.003938 -0.002616 0.019702 0.000000 0.000574 0.000000
# 4 0.000000 0.000000 0.000000 0.048616 0.000000 0.000840
# 5 0.000138 0.000112 0.000574 0.000000 0.029886 0.000000
# 6 0.000000 0.000000 0.000000 0.000840 0.000000 0.023089
#
#
# Mechanical properties :
#
#
# Convention : Reuss Voigt Hill
#
# Bulk Modulus (GPa) = 60.62690 84.80597 72.71644
# Shear Modulus (GPa) = 29.93080 34.15895 32.04487
#
# Velocity S-wave (km/s) = 4.00827 4.28204 4.14741
# Velocity P-wave (km/s) = 7.34609 8.36480 7.87194
#
# Compressibility (1/GPa) = 0.01649433
#
# Stress axis : x y z
#
# Youngs Moduli (GPa) = 112.49305 103.76307 50.75565
#
# Poissons Ratio (x) = 0.44757 0.19988
# Poissons Ratio (y) = 0.48522 0.13277
# Poissons Ratio (z) = 0.44301 0.27143
#
# Static dielectric constant tensor:
#      x y z
#    x 2.954060 0.000000 0.009990 
#    y 0.000000 3.682190 0.000000 
#    z 0.009990 0.000000 3.257520 
# 
# 
# High freq. dielectric constant tensor:
#      x y z
#    x 1.731740 0.000000 -0.000650 
#    y 0.000000 1.729660 0.000000 
#    z -0.000650 0.000000 1.711950 
# 
# From -- ./inp_files/30389.got.cif
#   From: 2010.06.25/outbox.cif.g09.slc.cpg/sg10_16_cif.got.tgz:30389.got - 2010.06.27 22:07:45.
