data_PCOD8064816
_publ_section_title
;
Structure prediction by ZEFSAII (Michael W. Deem and Ramdas Pophale) SiO2 
 PCOD8064816
Probable space group: P 2/M
;
_chemical_formula_sum "Si O2"
_cell_formula_units_Z 28
_cell_length_a 20.823312
_cell_length_b 10.499214
_cell_length_c 15.829217
_cell_angle_alpha 90.000000
_cell_angle_beta 154.676090
_cell_angle_gamma 90.000000
_cell_volume 1480.269955
_symmetry_space_group_name_H-M "P 2/M"
_symmetry_group_IT_number 10
_symmetry_cell_setting 'monoclinic'
loop_
_space_group_symop_operation_xyz
x,y,z
-x,y,-z
-x,-y,-z
x,-y,z
loop_
_atom_site_type_symbol
_atom_site_label
_atom_site_fract_x
_atom_site_fract_y
_atom_site_fract_z
Si Si1 0.837492 0.851376 0.767482
Si Si2 0.475714 0.641358 0.209104
Si Si3 0.408499 0.648514 0.476046
Si Si4 0.618983 0.000000 0.251912
Si Si5 0.208944 0.735889 0.787369
Si Si6 0.239051 0.235214 0.501754
Si Si7 0.728571 0.000000 0.203003
Si Si8 0.912510 0.354947 0.522672
O O1 0.725063 0.752732 0.680499
O O2 0.856139 0.808422 0.692388
O O3 0.783485 0.000000 0.710954
O O4 0.000000 0.834858 0.000000
O O5 0.414594 0.500000 0.122439
O O6 0.477057 0.676983 0.310185
O O7 0.648733 0.647914 0.384078
O O8 0.365625 0.728337 0.023009
O O9 0.500000 0.671772 0.500000
O O10 0.350720 0.500000 0.412574
O O11 0.647612 0.122789 0.341660
O O12 0.737327 0.000000 0.314881
O O13 0.447143 0.000000 0.023171
O O14 0.206913 0.657684 0.696403
O O15 0.076153 0.689539 0.688981
O O16 0.183971 0.881750 0.732717
O O17 0.128534 0.269622 0.446006
O O18 0.919041 0.500000 0.560099
#
# Coordination Sequence:
#
# PCOD8064816 Si02
#       8
#     4   4   4   2   4   4   2   4
#     4  10  22  39  61  88 120 153 192 239 294 354
#     4  10  20  36  59  85 113 150 194 238 285 340
#     4   9  20  39  63  89 116 150 195 243 295 350
#     4  11  20  37  57  85 114 147 194 242 279 327
#     4  11  22  38  56  82 118 156 191 236 286 338
#     4  11  21  38  61  82 113 153 191 239 287 337
#     4  11  22  36  59  86 115 150 202 235 283 342
#     4  11  24  39  56  83 119 154 193 237 287 344
#
# _framework density 18.915469000000002
#
# number of rings (size 3 to 8) (size 9 to 14) (size 15 to 20)
#    0.000    1.571    3.571    2.143    0.000    4.571 
#    0.000    2.857    0.000    0.000    0.000    0.000 
#    0.000    0.000    0.000    0.000    0.000    0.000 
#
# Total GULP energy -347100.458243 kJ/mol
# GULP energy per Si atom -12396.444937 kJ/mol
# Density = 1.887242 g / cm^3
# Si number density = 18.915469 Si / 1000 Ang^3
#
#
#
# Elastic Constant Matrix: (Units=GPa)
#
#
# Indices 1 2 3 4 5 6 
#
# 1 113.1949 40.6145 40.9593 0.0000 -15.3771 0.0000
# 2 40.6145 98.5241 33.2997 0.0000 6.6805 0.0000
# 3 40.9593 33.2997 103.9547 0.0000 -11.5145 0.0000
# 4 0.0000 0.0000 0.0000 31.1996 0.0000 8.2653
# 5 -15.3771 6.6805 -11.5145 0.0000 18.4368 0.0000
# 6 0.0000 0.0000 0.0000 8.2653 0.0000 31.2634
#
#
#
# Elastic Compliance Matrix: (Units=1/GPa)
#
#
# Indices 1 2 3 4 5 6 
#
# 1 0.013157 -0.005490 -0.002138 0.000000 0.011628 0.000000
# 2 -0.005490 0.014547 -0.003854 0.000000 -0.012257 0.000000
# 3 -0.002138 -0.003854 0.012520 0.000000 0.007433 0.000000
# 4 0.000000 0.000000 0.000000 0.034466 0.000000 -0.009112
# 5 0.011628 -0.012257 0.007433 0.000000 0.073021 0.000000
# 6 0.000000 0.000000 0.000000 -0.009112 0.000000 0.034395
#
#
# Mechanical properties :
#
#
# Convention : Reuss Voigt Hill
#
# Bulk Modulus (GPa) = 57.93654 60.60228 59.26941
# Shear Modulus (GPa) = 23.71676 29.56665 26.64170
#
# Velocity S-wave (km/s) = 3.54479 3.95789 3.75702
# Velocity P-wave (km/s) = 6.88837 7.27973 7.08676
#
# Compressibility (1/GPa) = 0.01726027
#
# Stress axis : x y z
#
# Youngs Moduli (GPa) = 76.00469 68.74474 79.87391
#
# Poissons Ratio (x) = 0.37739 0.17074
# Poissons Ratio (y) = 0.41724 0.30786
# Poissons Ratio (z) = 0.16247 0.26496
#
# Static dielectric constant tensor:
#      x y z
#    x 3.409920 0.000000 -0.226210 
#    y 0.000000 3.633720 0.000000 
#    z -0.226210 0.000000 3.338640 
# 
# 
# High freq. dielectric constant tensor:
#      x y z
#    x 1.730590 0.000000 -0.013060 
#    y 0.000000 1.748830 0.000000 
#    z -0.013060 0.000000 1.728680 
# 
# From -- ./inp_files/70346.got.cif
#   From: 2010.06.25/outbox.cif.g09.slc.cpg/sg10_36_cif.got.tgz:70346.got - 2010.06.27 22:07:45.
