data_PCOD8064942
_publ_section_title
;
Structure prediction by ZEFSAII (Michael W. Deem and Ramdas Pophale) SiO2 
 PCOD8064942
Probable space group: P 2/M
;
_chemical_formula_sum "Si O2"
_cell_formula_units_Z 32
_cell_length_a 23.647576
_cell_length_b 8.560093
_cell_length_c 13.920295
_cell_angle_alpha 90.000000
_cell_angle_beta 146.629848
_cell_angle_gamma 90.000000
_cell_volume 1549.931016
_symmetry_space_group_name_H-M "P 2/M"
_symmetry_group_IT_number 10
_symmetry_cell_setting 'monoclinic'
loop_
_space_group_symop_operation_xyz
x,y,z
-x,y,-z
-x,-y,-z
x,-y,z
loop_
_atom_site_type_symbol
_atom_site_label
_atom_site_fract_x
_atom_site_fract_y
_atom_site_fract_z
Si Si1 0.038340 0.319493 0.816318
Si Si2 0.900574 0.683857 0.306987
Si Si3 0.818606 0.819143 0.510666
Si Si4 0.531601 0.816207 0.821204
Si Si5 0.689286 0.684004 0.495410
Si Si6 0.590110 0.183971 0.694239
Si Si7 0.279250 0.316554 0.815678
Si Si8 0.755513 0.680953 0.798980
O O1 0.002912 0.500000 0.762208
O O2 0.095699 0.271699 0.799189
O O3 0.939587 0.213616 0.693367
O O4 0.121707 0.289783 0.018650
O O5 0.900870 0.500000 0.324826
O O6 0.797874 0.749862 0.211652
O O7 0.000000 0.758470 0.500000
O O8 0.766104 0.775750 0.535889
O O9 0.768641 0.716322 0.356051
O O10 0.801510 0.000000 0.462834
O O11 0.426866 0.726344 0.696385
O O12 0.575917 0.753509 0.782415
O O13 0.509368 0.000000 0.789084
O O14 0.613079 0.773571 0.019616
O O15 0.708178 0.500000 0.511564
O O16 0.715241 0.743313 0.639761
O O17 0.500000 0.256531 0.500000
O O18 0.699633 0.232331 0.807223
O O19 0.581618 0.000000 0.683194
O O20 0.299421 0.500000 0.854458
O O21 0.729819 0.500000 0.774645
#
# Coordination Sequence:
#
# PCOD8064942 Si02
#       8
#     4   4   4   4   4   4   4   4
#     4  10  20  39  63  90 124 160 199 247 302 357
#     4   9  16  31  60  92 120 155 194 237 293 355
#     4  12  26  43  62  88 120 159 204 252 306 366
#     4  11  23  40  62  92 128 163 201 247 300 362
#     4  11  24  43  64  88 117 158 210 259 305 354
#     4  10  20  36  60  90 129 170 198 235 303 370
#     4  11  22  40  66  93 123 160 202 250 303 359
#     4  10  22  38  63  94 122 157 207 259 300 351
#
# _framework density 20.646080000000001
#
# number of rings (size 3 to 8) (size 9 to 14) (size 15 to 20)
#    0.000    1.500    2.500    3.000    0.000    4.250 
#    0.000    6.875    0.000    0.000    0.000    0.000 
#    0.000    0.000    0.000    0.000    0.000    0.000 
#
# Total GULP energy -396927.149374 kJ/mol
# GULP energy per Si atom -12403.973418 kJ/mol
# Density = 2.059909 g / cm^3
# Si number density = 20.646080 Si / 1000 Ang^3
#
#
#
# Elastic Constant Matrix: (Units=GPa)
#
#
# Indices 1 2 3 4 5 6 
#
# 1 80.0518 18.2116 14.4678 0.0000 5.3434 0.0000
# 2 18.2116 47.2087 15.2654 0.0000 3.8984 0.0000
# 3 14.4678 15.2654 112.0355 0.0000 4.0784 0.0000
# 4 0.0000 0.0000 0.0000 24.9721 0.0000 2.6911
# 5 5.3434 3.8984 4.0784 0.0000 10.9876 0.0000
# 6 0.0000 0.0000 0.0000 2.6911 0.0000 29.2070
#
#
#
# Elastic Compliance Matrix: (Units=1/GPa)
#
#
# Indices 1 2 3 4 5 6 
#
# 1 0.014063 -0.004706 -0.001000 0.000000 -0.004798 0.000000
# 2 -0.004706 0.024251 -0.002501 0.000000 -0.005388 0.000000
# 3 -0.001000 -0.002501 0.009474 0.000000 -0.002143 0.000000
# 4 0.000000 0.000000 0.000000 0.040446 0.000000 -0.003727
# 5 -0.004798 -0.005388 -0.002143 0.000000 0.096052 0.000000
# 6 0.000000 0.000000 0.000000 -0.003727 0.000000 0.034582
#
#
# Mechanical properties :
#
#
# Convention : Reuss Voigt Hill
#
# Bulk Modulus (GPa) = 31.87186 37.24285 34.55735
# Shear Modulus (GPa) = 20.34669 25.79008 23.06839
#
# Velocity S-wave (km/s) = 3.14267 3.53817 3.34627
# Velocity P-wave (km/s) = 5.35157 5.89656 5.63066
#
# Compressibility (1/GPa) = 0.03137564
#
# Stress axis : x y z
#
# Youngs Moduli (GPa) = 71.10615 41.23488 105.55613
#
# Poissons Ratio (x) = 0.19403 0.10558
# Poissons Ratio (y) = 0.33459 0.26395
# Poissons Ratio (z) = 0.07112 0.10311
#
# Static dielectric constant tensor:
#      x y z
#    x 3.742640 0.000000 -0.007920 
#    y 0.000000 3.442670 0.000000 
#    z -0.007920 0.000000 3.821890 
# 
# 
# High freq. dielectric constant tensor:
#      x y z
#    x 1.803930 0.000000 0.001790 
#    y 0.000000 1.787790 0.000000 
#    z 0.001790 0.000000 1.821220 
# 
# From -- ./inp_files/71583.got.cif
#   From: 2010.06.25/outbox.cif.g09.slc.cpg/sg10_36_cif.got.tgz:71583.got - 2010.06.27 22:07:45.
