data_PCOD8064193
_publ_section_title
;
Structure prediction by ZEFSAII (Michael W. Deem and Ramdas Pophale) SiO2 
 PCOD8064193
Probable space group: P 2/M
;
_chemical_formula_sum "Si O2"
_cell_formula_units_Z 28
_cell_length_a 29.203571
_cell_length_b 9.038187
_cell_length_c 9.215281
_cell_angle_alpha 90.000000
_cell_angle_beta 37.948289
_cell_angle_gamma 90.000000
_cell_volume 1495.772994
_symmetry_space_group_name_H-M "P 2/M"
_symmetry_group_IT_number 10
_symmetry_cell_setting 'monoclinic'
loop_
_space_group_symop_operation_xyz
x,y,z
-x,y,-z
-x,-y,-z
x,-y,z
loop_
_atom_site_type_symbol
_atom_site_label
_atom_site_fract_x
_atom_site_fract_y
_atom_site_fract_z
Si Si1 0.497889 0.672056 0.671267
Si Si2 0.928064 0.168835 0.598338
Si Si3 0.368662 0.825607 0.170771
Si Si4 0.640967 0.669954 0.501320
Si Si5 0.068615 0.167853 0.746620
Si Si6 0.231403 0.175847 0.318878
Si Si7 0.777189 0.326826 0.959700
O O1 0.500000 0.727045 0.500000
O O2 0.476686 0.500000 0.732097
O O3 0.577498 0.705367 0.542864
O O4 0.436503 0.761779 0.911042
O O5 0.947698 0.178280 0.381477
O O6 0.856447 0.266445 0.816304
O O7 0.000000 0.233755 0.500000
O O8 0.911844 0.000000 0.686922
O O9 0.370515 0.769591 0.329729
O O10 0.291648 0.776559 0.287285
O O11 0.376741 0.000000 0.152649
O O12 0.636894 0.500000 0.561302
O O13 0.719466 0.708112 0.231935
O O14 0.150440 0.236506 0.574938
O O15 0.070808 0.000000 0.797834
O O16 0.000000 0.250950 0.000000
O O17 0.251443 0.247844 0.114603
O O18 0.227948 0.000000 0.301947
O O19 0.782742 0.500000 0.913391
#
# Coordination Sequence:
#
# PCOD8064193 Si02
#       7
#     4   4   4   4   4   4   4
#     4  10  21  39  61  80 103 141 184 220 260 318
#     4   9  18  32  51  75 104 140 178 216 263 317
#     4  11  23  36  54  82 112 140 173 220 273 318
#     4  10  22  38  55  78 108 142 178 217 265 320
#     4   8  14  27  48  71  95 127 169 211 248 297
#     4   9  19  35  53  76 106 138 174 217 266 320
#     4  10  20  35  56  79 104 139 182 224 265 312
#
# _framework density 18.719418999999998
#
# number of rings (size 3 to 8) (size 9 to 14) (size 15 to 20)
#    0.000    2.429    0.000    3.000    0.000    7.429 
#    0.000    2.857    0.000    6.857    0.000    0.000 
#    0.000    0.000    0.000    0.000    0.000    0.000 
#
# Total GULP energy -347188.104128 kJ/mol
# GULP energy per Si atom -12399.575147 kJ/mol
# Density = 1.867681 g / cm^3
# Si number density = 18.719419 Si / 1000 Ang^3
#
#
#
# Elastic Constant Matrix: (Units=GPa)
#
#
# Indices 1 2 3 4 5 6 
#
# 1 122.5655 38.3606 55.4560 0.0000 -7.7500 0.0000
# 2 38.3606 52.9069 45.3071 0.0000 -2.5079 0.0000
# 3 55.4560 45.3071 137.4460 0.0000 -6.9468 0.0000
# 4 0.0000 0.0000 0.0000 26.2757 0.0000 -2.5423
# 5 -7.7500 -2.5079 -6.9468 0.0000 25.3118 0.0000
# 6 0.0000 0.0000 0.0000 -2.5423 0.0000 25.6269
#
#
#
# Elastic Compliance Matrix: (Units=1/GPa)
#
#
# Indices 1 2 3 4 5 6 
#
# 1 0.011282 -0.005954 -0.002479 0.000000 0.002184 0.000000
# 2 -0.005954 0.029478 -0.007362 0.000000 -0.000923 0.000000
# 3 -0.002479 -0.007362 0.010777 0.000000 0.001469 0.000000
# 4 0.000000 0.000000 0.000000 0.038427 0.000000 0.003812
# 5 0.002184 -0.000923 0.001469 0.000000 0.040488 0.000000
# 6 0.000000 0.000000 0.000000 0.003812 0.000000 0.039400
#
#
# Mechanical properties :
#
#
# Convention : Reuss Voigt Hill
#
# Bulk Modulus (GPa) = 50.12925 65.68509 57.90717
# Shear Modulus (GPa) = 24.02812 27.02919 25.52865
#
# Velocity S-wave (km/s) = 3.58661 3.80401 3.69691
# Velocity P-wave (km/s) = 6.63243 7.37966 7.01600
#
# Compressibility (1/GPa) = 0.01994843
#
# Stress axis : x y z
#
# Youngs Moduli (GPa) = 88.63617 33.92328 92.79238
#
# Poissons Ratio (x) = 0.20197 0.23004
# Poissons Ratio (y) = 0.52771 0.68310
# Poissons Ratio (z) = 0.21974 0.24973
#
# Static dielectric constant tensor:
#      x y z
#    x 3.597450 0.000000 -0.192750 
#    y 0.000000 3.280810 0.000000 
#    z -0.192750 0.000000 3.600470 
# 
# 
# High freq. dielectric constant tensor:
#      x y z
#    x 1.735400 0.000000 -0.010000 
#    y 0.000000 1.705500 0.000000 
#    z -0.010000 0.000000 1.736600 
# 
# From -- ./inp_files/37335.got.cif
#   From: 2010.06.25/outbox.cif.g09.slc.cpg/sg10_19_cif.got.tgz:37335.got - 2010.06.27 22:07:45.
