data_PCOD8064936
_publ_section_title
;
Structure prediction by ZEFSAII (Michael W. Deem and Ramdas Pophale) SiO2 
 PCOD8064936
Probable space group: P 2/M
;
_chemical_formula_sum "Si O2"
_cell_formula_units_Z 20
_cell_length_a 15.002690
_cell_length_b 8.962690
_cell_length_c 18.705578
_cell_angle_alpha 90.000000
_cell_angle_beta 24.043179
_cell_angle_gamma 90.000000
_cell_volume 1024.769772
_symmetry_space_group_name_H-M "P 2/M"
_symmetry_group_IT_number 10
_symmetry_cell_setting 'monoclinic'
loop_
_space_group_symop_operation_xyz
x,y,z
-x,y,-z
-x,-y,-z
x,-y,z
loop_
_atom_site_type_symbol
_atom_site_label
_atom_site_fract_x
_atom_site_fract_y
_atom_site_fract_z
Si Si1 0.376355 0.325041 0.414789
Si Si2 0.002904 0.674960 0.205951
Si Si3 0.839341 0.825319 0.053546
Si Si4 0.417148 0.676585 0.986206
Si Si5 0.207089 0.323416 0.389555
O O1 0.428843 0.500000 0.370942
O O2 0.604185 0.239920 0.246286
O O3 0.222963 0.274980 0.460578
O O4 0.240868 0.287786 0.586371
O O5 0.029471 0.500000 0.170749
O O6 0.052739 0.760067 0.096781
O O7 0.172333 0.725034 0.144124
O O8 0.812165 0.000000 0.062600
O O9 0.000000 0.784053 0.000000
O O10 0.430695 0.500000 0.983557
O O11 0.573714 0.735164 0.808764
O O12 0.500000 0.748960 0.000000
O O13 0.187949 0.500000 0.397792
O O14 0.000000 0.251035 0.500000
#
# Coordination Sequence:
#
# PCOD8064936 Si02
#       5
#     4   4   4   4   4
#     4  10  20  36  60  90 119 148 189 241 294 344
#     4  10  20  36  60  90 119 148 189 241 294 344
#     4  11  25  43  61  81 111 155 201 243 292 351
#     4   9  15  25  46  81 120 151 182 225 278 336
#     4   9  15  25  46  81 120 151 182 225 278 336
#
# _framework density 19.516579
#
# number of rings (size 3 to 8) (size 9 to 14) (size 15 to 20)
#    0.000    2.200    2.000    1.800    0.000    8.000 
#    0.000    4.000    0.000    1.200    0.000    0.000 
#    0.000    0.000    0.000    0.000    0.000    0.000 
#
# Total GULP energy -247901.650263 kJ/mol
# GULP energy per Si atom -12395.082513 kJ/mol
# Density = 1.947216 g / cm^3
# Si number density = 19.516579 Si / 1000 Ang^3
#
#
#
# Elastic Constant Matrix: (Units=GPa)
#
#
# Indices 1 2 3 4 5 6 
#
# 1 143.2886 57.2403 83.4482 0.0000 0.0973 0.0000
# 2 57.2403 45.1113 45.3423 0.0000 -2.1930 0.0000
# 3 83.4482 45.3423 154.8410 0.0000 2.0620 0.0000
# 4 0.0000 0.0000 0.0000 10.8978 0.0000 5.8070
# 5 0.0973 -2.1930 2.0620 0.0000 30.5082 0.0000
# 6 0.0000 0.0000 0.0000 5.8070 0.0000 -20.5914
#
#
#
# Elastic Compliance Matrix: (Units=1/GPa)
#
#
# Indices 1 2 3 4 5 6 
#
# 1 0.015529 -0.016087 -0.003646 0.000000 -0.000959 0.000000
# 2 -0.016087 0.048333 -0.005536 0.000000 0.003900 0.000000
# 3 -0.003646 -0.005536 0.010058 0.000000 -0.001066 0.000000
# 4 0.000000 0.000000 0.000000 0.079773 0.000000 0.022497
# 5 -0.000959 0.003900 -0.001066 0.000000 0.033134 0.000000
# 6 0.000000 0.000000 0.000000 0.022497 0.000000 -0.042220
#
#
# Mechanical properties :
#
#
# Convention : Reuss Voigt Hill
#
# Bulk Modulus (GPa) = 42.76402 79.47806 61.12104
# Shear Modulus (GPa) = 24.63811 14.64360 19.64086
#
# Velocity S-wave (km/s) = 3.55691 2.74216 3.17577
# Velocity P-wave (km/s) = 6.23121 7.13006 6.69573
#
# Compressibility (1/GPa) = 0.02338414
#
# Stress axis : x y z
#
# Youngs Moduli (GPa) = 64.39643 20.68985 99.42169
#
# Poissons Ratio (x) = 0.33283 0.36244
# Poissons Ratio (y) = 1.03591 0.55038
# Poissons Ratio (z) = 0.23476 0.11454
#
# Static dielectric constant tensor:
#      x y z
#    x 3.727960 0.000000 0.001370 
#    y 0.000000 3.047490 0.000000 
#    z 0.001370 0.000000 3.735240 
# 
# 
# High freq. dielectric constant tensor:
#      x y z
#    x 1.768470 0.000000 0.001570 
#    y 0.000000 1.699730 0.000000 
#    z 0.001570 0.000000 1.776960 
# 
# From -- ./inp_files/31319.got.cif
#   From: 2010.06.25/outbox.cif.g09.slc.cpg/sg10_16_cif.got.tgz:31319.got - 2010.06.27 22:07:45.
