data_PCOD8064643
_publ_section_title
;
Structure prediction by ZEFSAII (Michael W. Deem and Ramdas Pophale) SiO2 
 PCOD8064643
Probable space group: P 2/M
;
_chemical_formula_sum "Si O2"
_cell_formula_units_Z 24
_cell_length_a 18.489258
_cell_length_b 9.349273
_cell_length_c 14.601910
_cell_angle_alpha 90.000000
_cell_angle_beta 149.872640
_cell_angle_gamma 90.000000
_cell_volume 1266.907154
_symmetry_space_group_name_H-M "P 2/M"
_symmetry_group_IT_number 10
_symmetry_cell_setting 'monoclinic'
loop_
_space_group_symop_operation_xyz
x,y,z
-x,y,-z
-x,-y,-z
x,-y,z
loop_
_atom_site_type_symbol
_atom_site_label
_atom_site_fract_x
_atom_site_fract_y
_atom_site_fract_z
Si Si1 0.947608 0.668303 0.680509
Si Si2 0.649419 0.841367 0.612770
Si Si3 0.893056 0.161993 0.298500
Si Si4 0.338041 0.831045 0.582883
Si Si5 0.428797 0.831287 0.014333
Si Si6 0.107020 0.333961 0.040942
O O1 0.919397 0.500000 0.637308
O O2 0.795903 0.748258 0.520173
O O3 0.042208 0.727863 0.702202
O O4 0.041024 0.703115 0.871578
O O5 0.500000 0.845562 0.500000
O O6 0.636850 0.782483 0.494847
O O7 0.742362 0.742871 0.780549
O O8 0.716857 0.000000 0.682230
O O9 0.000000 0.160482 0.500000
O O10 0.880321 0.000000 0.244348
O O11 0.735695 0.222320 0.154787
O O12 0.478910 0.786359 0.795356
O O13 0.308985 0.000000 0.559605
O O14 0.425874 0.000000 0.999891
O O15 0.500000 0.764388 0.000000
O O16 0.135280 0.500000 0.086253
O O17 0.000000 0.272650 0.000000
#
# Coordination Sequence:
#
# PCOD8064643 Si02
#       6
#     4   4   4   4   4   4
#     4  11  23  38  58  84 115 152 193 238 282 331
#     4  10  22  36  55  85 116 146 188 240 289 335
#     4  10  21  38  63  91 115 146 187 231 285 345
#     4  10  20  36  57  82 112 149 189 233 286 339
#     4   9  18  34  58  85 113 143 180 227 277 336
#     4  10  21  39  58  79 112 155 198 233 276 335
#
# _framework density 18.943773
#
# number of rings (size 3 to 8) (size 9 to 14) (size 15 to 20)
#    0.000    2.000    1.667    1.500    2.333    5.000 
#    0.000    0.833    0.000    2.000    0.000    0.000 
#    0.000    0.000    0.000    0.000    0.000    0.000 
#
# Total GULP energy -297596.359340 kJ/mol
# GULP energy per Si atom -12399.848306 kJ/mol
# Density = 1.890066 g / cm^3
# Si number density = 18.943773 Si / 1000 Ang^3
#
#
#
# Elastic Constant Matrix: (Units=GPa)
#
#
# Indices 1 2 3 4 5 6 
#
# 1 116.6418 29.9996 52.9083 0.0000 9.0760 0.0000
# 2 29.9996 40.5225 49.6604 0.0000 -3.3076 0.0000
# 3 52.9083 49.6604 140.8680 0.0000 10.6575 0.0000
# 4 0.0000 0.0000 0.0000 15.6712 0.0000 -7.3218
# 5 9.0760 -3.3076 10.6575 0.0000 27.6194 0.0000
# 6 0.0000 0.0000 0.0000 -7.3218 0.0000 23.7665
#
#
#
# Elastic Compliance Matrix: (Units=1/GPa)
#
#
# Indices 1 2 3 4 5 6 
#
# 1 0.011337 -0.006798 -0.001564 0.000000 -0.003936 0.000000
# 2 -0.006798 0.051348 -0.016669 0.000000 0.014815 0.000000
# 3 -0.001564 -0.016669 0.014086 0.000000 -0.006918 0.000000
# 4 0.000000 0.000000 0.000000 0.074540 0.000000 0.022964
# 5 -0.003936 0.014815 -0.006918 0.000000 0.041944 0.000000
# 6 0.000000 0.000000 0.000000 0.022964 0.000000 0.049150
#
#
# Mechanical properties :
#
#
# Convention : Reuss Voigt Hill
#
# Bulk Modulus (GPa) = 37.44075 62.57431 50.00753
# Shear Modulus (GPa) = 16.59085 24.44236 20.51660
#
# Velocity S-wave (km/s) = 2.96259 3.59591 3.29451
# Velocity P-wave (km/s) = 5.61335 7.09536 6.39741
#
# Compressibility (1/GPa) = 0.02670887
#
# Stress axis : x y z
#
# Youngs Moduli (GPa) = 88.20443 19.47493 70.99207
#
# Poissons Ratio (x) = 0.13239 0.11102
# Poissons Ratio (y) = 0.59961 1.18340
# Poissons Ratio (z) = 0.13794 0.32464
#
# Static dielectric constant tensor:
#      x y z
#    x 3.589000 0.000000 -0.079700 
#    y 0.000000 3.314270 0.000000 
#    z -0.079700 0.000000 4.074410 
# 
# 
# High freq. dielectric constant tensor:
#      x y z
#    x 1.746530 0.000000 -0.001660 
#    y 0.000000 1.711610 0.000000 
#    z -0.001660 0.000000 1.747760 
# 
# From -- ./inp_files/27304.got.cif
#   From: 2010.06.25/outbox.cif.g09.slc.cpg/sg10_14_cif.got.tgz:27304.got - 2010.06.27 22:07:45.
