data_PCOD8064134
_publ_section_title
;
Structure prediction by ZEFSAII (Michael W. Deem and Ramdas Pophale) SiO2 
 PCOD8064134
Probable space group: P 2/M
;
_chemical_formula_sum "Si O2"
_cell_formula_units_Z 28
_cell_length_a 16.908083
_cell_length_b 8.494503
_cell_length_c 15.256188
_cell_angle_alpha 90.000000
_cell_angle_beta 134.910651
_cell_angle_gamma 90.000000
_cell_volume 1551.813686
_symmetry_space_group_name_H-M "P 2/M"
_symmetry_group_IT_number 10
_symmetry_cell_setting 'monoclinic'
loop_
_space_group_symop_operation_xyz
x,y,z
-x,y,-z
-x,-y,-z
x,-y,z
loop_
_atom_site_type_symbol
_atom_site_label
_atom_site_fract_x
_atom_site_fract_y
_atom_site_fract_z
Si Si1 0.845033 0.313405 0.442332
Si Si2 0.747209 0.318258 0.834549
Si Si3 0.913479 0.686369 0.313837
Si Si4 0.093405 0.684461 0.884744
Si Si5 0.297332 0.315576 0.511130
Si Si6 0.139641 0.817563 0.240480
Si Si7 0.513358 0.182836 0.610018
O O1 0.847034 0.500000 0.442007
O O2 0.836130 0.250275 0.334296
O O3 0.742856 0.256873 0.423815
O O4 0.960323 0.250405 0.574860
O O5 0.712049 0.500000 0.802572
O O6 0.834734 0.282223 0.826274
O O7 0.637824 0.212092 0.740843
O O8 0.804462 0.275986 0.971602
O O9 0.915224 0.500000 0.319838
O O10 0.869163 0.739730 0.183758
O O11 0.062556 0.500000 0.863130
O O12 0.984792 0.780826 0.826715
O O13 0.274307 0.500000 0.480420
O O14 0.229338 0.222320 0.384734
O O15 0.428058 0.278267 0.604792
O O16 0.150770 0.000000 0.225511
O O17 0.500000 0.243494 0.500000
O O18 0.484201 0.000000 0.593668
#
# Coordination Sequence:
#
# PCOD8064134 Si02
#       7
#     4   4   4   4   4   4   4
#     4   8  14  25  49  81 107 132 165 209 262 305
#     4  11  23  37  55  77 102 138 181 220 256 303
#     4   8  13  26  49  79 109 133 163 209 260 306
#     4  10  20  35  55  79 107 139 176 215 257 305
#     4  11  20  33  56  81 106 136 175 219 259 303
#     4  12  23  34  50  76 110 146 175 207 259 314
#     4  11  23  38  55  76 103 137 175 217 265 311
#
# _framework density 18.043403999999999
#
# number of rings (size 3 to 8) (size 9 to 14) (size 15 to 20)
#    0.000    1.857    2.857    3.857    0.000    3.429 
#    0.000    0.000    0.000    3.429    0.000    6.000 
#    0.000    0.000    0.000    0.000    0.000    0.000 
#
# Total GULP energy -347132.050367 kJ/mol
# GULP energy per Si atom -12397.573227 kJ/mol
# Density = 1.800234 g / cm^3
# Si number density = 18.043404 Si / 1000 Ang^3
#
#
#
# Elastic Constant Matrix: (Units=GPa)
#
#
# Indices 1 2 3 4 5 6 
#
# 1 141.7378 17.4297 60.7023 0.0000 -26.1916 0.0000
# 2 17.4297 31.4403 17.3757 0.0000 0.5334 0.0000
# 3 60.7023 17.3757 105.2405 0.0000 -19.0668 0.0000
# 4 0.0000 0.0000 0.0000 13.7870 0.0000 9.9287
# 5 -26.1916 0.5334 -19.0668 0.0000 28.7941 0.0000
# 6 0.0000 0.0000 0.0000 9.9287 0.0000 8.9460
#
#
#
# Elastic Compliance Matrix: (Units=1/GPa)
#
#
# Indices 1 2 3 4 5 6 
#
# 1 0.010603 -0.003636 -0.004268 0.000000 0.006886 0.000000
# 2 -0.003636 0.036914 -0.005364 0.000000 -0.007543 0.000000
# 3 -0.004268 -0.005364 0.013822 0.000000 0.005370 0.000000
# 4 0.000000 0.000000 0.000000 0.361331 0.000000 -0.401023
# 5 0.006886 -0.007543 0.005370 0.000000 0.044688 0.000000
# 6 0.000000 0.000000 0.000000 -0.401023 0.000000 0.556856
#
#
# Mechanical properties :
#
#
# Convention : Reuss Voigt Hill
#
# Bulk Modulus (GPa) = 28.73272 52.15933 40.44602
# Shear Modulus (GPa) = 4.70654 22.49947 13.60300
#
# Velocity S-wave (km/s) = 1.61682 3.53507 2.74871
# Velocity P-wave (km/s) = 4.40957 6.75520 5.70425
#
# Compressibility (1/GPa) = 0.03480353
#
# Stress axis : x y z
#
# Youngs Moduli (GPa) = 94.31707 27.08964 72.34738
#
# Poissons Ratio (x) = 0.09850 0.30875
# Poissons Ratio (y) = 0.34294 0.38808
# Poissons Ratio (z) = 0.40251 0.14531
#
# Static dielectric constant tensor:
#      x y z
#    x 3.779930 0.000000 -0.325480 
#    y 0.000000 3.078620 0.000000 
#    z -0.325480 0.000000 3.329080 
# 
# 
# High freq. dielectric constant tensor:
#      x y z
#    x 1.703600 0.000000 -0.014740 
#    y 0.000000 1.678640 0.000000 
#    z -0.014740 0.000000 1.678650 
# 
# From -- ./inp_files/49172.got.cif
#   From: 2010.06.25/outbox.cif.g09.slc.cpg/sg10_25_cif.got.tgz:49172.got - 2010.06.27 22:07:45.
