data_PCOD8064659
_publ_section_title
;
Structure prediction by ZEFSAII (Michael W. Deem and Ramdas Pophale) SiO2 
 PCOD8064659
Probable space group: P 2/M
;
_chemical_formula_sum "Si O2"
_cell_formula_units_Z 24
_cell_length_a 21.755014
_cell_length_b 11.890745
_cell_length_c 16.015530
_cell_angle_alpha 90.000000
_cell_angle_beta 162.443790
_cell_angle_gamma 90.000000
_cell_volume 1249.684978
_symmetry_space_group_name_H-M "P 2/M"
_symmetry_group_IT_number 10
_symmetry_cell_setting 'monoclinic'
loop_
_space_group_symop_operation_xyz
x,y,z
-x,y,-z
-x,-y,-z
x,-y,z
loop_
_atom_site_type_symbol
_atom_site_label
_atom_site_fract_x
_atom_site_fract_y
_atom_site_fract_z
Si Si1 0.683511 0.000000 0.993269
Si Si2 0.000000 0.186817 0.000000
Si Si3 0.786749 0.759558 0.181987
Si Si4 0.103753 0.632447 0.829606
Si Si5 0.734664 0.241396 0.804593
Si Si6 0.703623 0.621234 0.216642
Si Si7 0.201777 0.000000 0.368588
Si Si8 0.170698 0.000000 0.007832
O O1 0.442080 0.000000 0.691149
O O2 0.768635 0.107577 0.151206
O O3 0.772864 0.000000 0.015922
O O4 0.150309 0.260762 0.135499
O O5 0.147043 0.111465 0.247018
O O6 0.747687 0.696417 0.043630
O O7 0.637164 0.709169 0.058152
O O8 0.000000 0.723862 0.500000
O O9 0.150335 0.500000 0.892369
O O10 0.875066 0.663255 0.504372
O O11 0.140016 0.685247 0.967018
O O12 0.500000 0.283134 0.500000
O O13 0.732778 0.109072 0.823764
O O14 0.776811 0.500000 0.273743
O O15 0.500000 0.599390 0.000000
O O16 0.074886 0.000000 0.292205
#
# Coordination Sequence:
#
# PCOD8064659 Si02
#       8
#     2   2   4   4   4   4   2   2
#     4  12  20  35  58  87 117 150 188 222 294 350
#     4   9  20  36  55  84 116 144 195 239 276 334
#     4  10  21  37  57  83 115 150 184 234 284 339
#     4  10  21  38  58  83 113 148 195 239 280 338
#     4  11  21  37  60  85 114 157 190 235 289 341
#     4   9  19  38  62  85 111 150 196 237 280 336
#     4   9  20  35  55  83 112 149 192 237 271 333
#     4  10  20  36  57  85 114 149 192 236 279 336
#
# _framework density 19.204840999999998
#
# number of rings (size 3 to 8) (size 9 to 14) (size 15 to 20)
#    0.000    2.000    1.667    2.500    0.000    5.000 
#    0.000    0.833    0.000    0.000    0.000    0.000 
#    0.000    0.000    0.000    0.000    0.000    0.000 
#
# Total GULP energy -297436.543625 kJ/mol
# GULP energy per Si atom -12393.189318 kJ/mol
# Density = 1.916113 g / cm^3
# Si number density = 19.204841 Si / 1000 Ang^3
#
#
#
# Elastic Constant Matrix: (Units=GPa)
#
#
# Indices 1 2 3 4 5 6 
#
# 1 138.9195 48.9207 52.7272 0.0000 8.9018 0.0000
# 2 48.9207 104.0954 21.8292 0.0000 -5.7800 0.0000
# 3 52.7272 21.8292 66.8088 0.0000 4.3703 0.0000
# 4 0.0000 0.0000 0.0000 17.6531 0.0000 -4.4827
# 5 8.9018 -5.7800 4.3703 0.0000 22.6861 0.0000
# 6 0.0000 0.0000 0.0000 -4.4827 0.0000 34.7632
#
#
#
# Elastic Compliance Matrix: (Units=1/GPa)
#
#
# Indices 1 2 3 4 5 6 
#
# 1 0.011882 -0.004199 -0.007728 0.000000 -0.004244 0.000000
# 2 -0.004199 0.012050 -0.000944 0.000000 0.004900 0.000000
# 3 -0.007728 -0.000944 0.021464 0.000000 -0.001343 0.000000
# 4 0.000000 0.000000 0.000000 0.058565 0.000000 0.007552
# 5 -0.004244 0.004900 -0.001343 0.000000 0.047252 0.000000
# 6 0.000000 0.000000 0.000000 0.007552 0.000000 0.029740
#
#
# Mechanical properties :
#
#
# Convention : Reuss Voigt Hill
#
# Bulk Modulus (GPa) = 50.88070 61.86420 56.37245
# Shear Modulus (GPa) = 23.44707 27.44357 25.44532
#
# Velocity S-wave (km/s) = 3.49792 3.78430 3.64393
# Velocity P-wave (km/s) = 6.54715 7.16780 6.86449
#
# Compressibility (1/GPa) = 0.01965382
#
# Stress axis : x y z
#
# Youngs Moduli (GPa) = 84.15838 82.98773 46.59063
#
# Poissons Ratio (x) = 0.34848 0.36006
# Poissons Ratio (y) = 0.35340 0.04396
# Poissons Ratio (z) = 0.65039 0.07831
#
# Static dielectric constant tensor:
#      x y z
#    x 3.762590 0.000000 0.084480 
#    y 0.000000 3.463820 0.000000 
#    z 0.084480 0.000000 3.272030 
# 
# 
# High freq. dielectric constant tensor:
#      x y z
#    x 1.754700 0.000000 0.003940 
#    y 0.000000 1.740220 0.000000 
#    z 0.003940 0.000000 1.729860 
# 
# From -- ./inp_files/70621.got.cif
#   From: 2010.06.25/outbox.cif.g09.slc.cpg/sg10_36_cif.got.tgz:70621.got - 2010.06.27 22:07:45.
