data_PCOD8064176
_publ_section_title
;
Structure prediction by ZEFSAII (Michael W. Deem and Ramdas Pophale) SiO2 
 PCOD8064176
Probable space group: P 2/M
;
_chemical_formula_sum "Si O2"
_cell_formula_units_Z 24
_cell_length_a 24.472863
_cell_length_b 7.825894
_cell_length_c 12.361970
_cell_angle_alpha 90.000000
_cell_angle_beta 147.379749
_cell_angle_gamma 90.000000
_cell_volume 1276.293011
_symmetry_space_group_name_H-M "P 2/M"
_symmetry_group_IT_number 10
_symmetry_cell_setting 'monoclinic'
loop_
_space_group_symop_operation_xyz
x,y,z
-x,y,-z
-x,-y,-z
x,-y,z
loop_
_atom_site_type_symbol
_atom_site_label
_atom_site_fract_x
_atom_site_fract_y
_atom_site_fract_z
Si Si1 0.620282 0.811617 0.494839
Si Si2 0.749336 0.307210 0.892176
Si Si3 0.744666 0.695555 0.267508
Si Si4 0.598611 0.697367 0.828948
Si Si5 0.880182 0.000000 0.425210
Si Si6 0.600879 0.696310 0.223074
Si Si7 0.882934 0.000000 0.176390
O O1 0.696972 0.687889 0.686873
O O2 0.505892 0.797997 0.346687
O O3 0.627334 0.786039 0.378790
O O4 0.659073 0.000000 0.586865
O O5 0.788588 0.500000 0.983760
O O6 0.665771 0.245822 0.839406
O O7 0.841046 0.172935 0.051257
O O8 0.783559 0.500000 0.315225
O O9 0.697956 0.718905 0.308363
O O10 0.836098 0.827925 0.405602
O O11 0.657088 0.740304 0.036493
O O12 0.570041 0.500000 0.774529
O O13 0.855987 0.000000 0.257950
O O14 0.998257 0.000000 0.646522
O O15 0.576937 0.500000 0.209650
O O16 0.500000 0.777219 0.000000
#
# Coordination Sequence:
#
# PCOD8064176 Si02
#       7
#     4   4   4   4   2   4   2
#     4  12  24  33  55  89 124 163 201 235 283 351
#     4  11  23  41  61  83 121 160 198 243 291 352
#     4  10  21  37  60  87 121 161 194 234 292 347
#     4  10  20  35  55  84 121 162 195 229 283 345
#     4  11  24  40  65  87 124 145 190 257 300 357
#     4  10  20  36  56  82 122 163 200 238 277 337
#     4  11  24  42  61  94 114 150 194 247 313 349
#
# _framework density 18.804459000000001
#
# number of rings (size 3 to 8) (size 9 to 14) (size 15 to 20)
#    0.000    1.333    4.167    2.000    3.500    3.000 
#    0.000    1.667    0.000    2.000    0.000    3.500 
#    0.000    0.000    0.000    0.000    0.000    0.000 
#
# Total GULP energy -297654.030748 kJ/mol
# GULP energy per Si atom -12402.251281 kJ/mol
# Density = 1.876166 g / cm^3
# Si number density = 18.804459 Si / 1000 Ang^3
#
#
#
# Elastic Constant Matrix: (Units=GPa)
#
#
# Indices 1 2 3 4 5 6 
#
# 1 57.5980 32.2158 41.1402 0.0000 3.3460 0.0000
# 2 32.2158 108.7451 46.6795 0.0000 13.8915 0.0000
# 3 41.1402 46.6795 96.9655 0.0000 0.5574 0.0000
# 4 0.0000 0.0000 0.0000 15.5189 0.0000 -0.9916
# 5 3.3460 13.8915 0.5574 0.0000 26.6021 0.0000
# 6 0.0000 0.0000 0.0000 -0.9916 0.0000 27.9837
#
#
#
# Elastic Compliance Matrix: (Units=1/GPa)
#
#
# Indices 1 2 3 4 5 6 
#
# 1 0.026107 -0.003562 -0.009355 0.000000 -0.001228 0.000000
# 2 -0.003562 0.013097 -0.004758 0.000000 -0.006291 0.000000
# 3 -0.009355 -0.004758 0.016553 0.000000 0.003314 0.000000
# 4 0.000000 0.000000 0.000000 0.064584 0.000000 0.002289
# 5 -0.001228 -0.006291 0.003314 0.000000 0.040961 0.000000
# 6 0.000000 0.000000 0.000000 0.002289 0.000000 0.035816
#
#
# Mechanical properties :
#
#
# Convention : Reuss Voigt Hill
#
# Bulk Modulus (GPa) = 48.99851 55.93108 52.46480
# Shear Modulus (GPa) = 20.89690 23.57247 22.23468
#
# Velocity S-wave (km/s) = 3.33719 3.54440 3.44236
# Velocity P-wave (km/s) = 6.40020 6.82338 6.61517
#
# Compressibility (1/GPa) = 0.02040878
#
# Stress axis : x y z
#
# Youngs Moduli (GPa) = 38.30378 76.35399 60.41092
#
# Poissons Ratio (x) = 0.27195 0.56514
# Poissons Ratio (y) = 0.13643 0.28741
# Poissons Ratio (z) = 0.35833 0.36326
#
# Static dielectric constant tensor:
#      x y z
#    x 3.389270 0.000000 -0.148860 
#    y 0.000000 3.504870 0.000000 
#    z -0.148860 0.000000 3.208570 
# 
# 
# High freq. dielectric constant tensor:
#      x y z
#    x 1.723060 0.000000 -0.017180 
#    y 0.000000 1.740240 0.000000 
#    z -0.017180 0.000000 1.707190 
# 
# From -- ./inp_files/54613.got.cif
#   From: 2010.06.25/outbox.cif.g09.slc.cpg/sg10_28_cif.got.tgz:54613.got - 2010.06.27 22:07:45.
