data_PCOD8064069
_publ_section_title
;
Structure prediction by ZEFSAII (Michael W. Deem and Ramdas Pophale) SiO2 
 PCOD8064069
Probable space group: P 2/M
;
_chemical_formula_sum "Si O2"
_cell_formula_units_Z 32
_cell_length_a 29.013075
_cell_length_b 8.791460
_cell_length_c 22.924569
_cell_angle_alpha 90.000000
_cell_angle_beta 16.699544
_cell_angle_gamma 90.000000
_cell_volume 1680.240792
_symmetry_space_group_name_H-M "P 2/M"
_symmetry_group_IT_number 10
_symmetry_cell_setting 'monoclinic'
loop_
_space_group_symop_operation_xyz
x,y,z
-x,y,-z
-x,-y,-z
x,-y,z
loop_
_atom_site_type_symbol
_atom_site_label
_atom_site_fract_x
_atom_site_fract_y
_atom_site_fract_z
Si Si1 0.576727 0.328370 0.969135
Si Si2 0.491117 0.178228 0.186395
Si Si3 0.922599 0.320291 0.534867
Si Si4 0.214834 0.323492 0.109619
Si Si5 0.614891 0.324698 0.213242
Si Si6 0.333862 0.820291 0.727274
Si Si7 0.987920 0.819880 0.947415
Si Si8 0.309113 0.680129 0.510174
O O1 0.593108 0.500000 0.974482
O O2 0.746828 0.247580 0.748894
O O3 0.500000 0.331059 0.000000
O O4 0.473770 0.231469 0.140373
O O5 0.357206 0.259402 0.388300
O O6 0.463567 0.000000 0.224703
O O7 0.667890 0.222752 0.993470
O O8 0.902670 0.500000 0.558092
O O9 0.000000 0.260368 0.500000
O O10 0.033161 0.272364 0.345463
O O11 0.245186 0.500000 0.089490
O O12 0.247440 0.298010 0.001891
O O13 0.603729 0.500000 0.245605
O O14 0.673532 0.226718 0.196542
O O15 0.442761 0.268902 0.396235
O O16 0.500000 0.752522 0.500000
O O17 0.335492 0.000000 0.720908
O O18 0.179491 0.759490 0.877954
O O19 0.135677 0.745283 0.734940
O O20 0.001759 0.000000 0.924408
O O21 0.000000 0.768803 0.000000
O O22 0.301840 0.500000 0.516359
#
# Coordination Sequence:
#
# PCOD8064069 Si02
#       8
#     4   4   4   4   4   4   4   4
#     4  10  20  35  54  78 107 144 189 229 275 334
#     4  11  21  34  55  80 111 145 182 228 284 335
#     4   9  15  28  55  79 101 136 179 229 270 313
#     4   9  17  33  55  79 107 140 186 229 272 326
#     4   9  19  34  54  81 112 143 180 232 281 324
#     4  10  21  37  58  83 113 149 184 220 268 330
#     4  10  21  38  60  86 116 150 189 228 272 329
#     4  10  21  38  60  84 110 145 191 235 275 328
#
# _framework density 19.044891
#
# number of rings (size 3 to 8) (size 9 to 14) (size 15 to 20)
#    0.000    2.250    1.250    3.000    0.000    4.750 
#    2.250    1.250    0.000    0.000    0.000    0.000 
#    0.000    0.000    0.000    0.000    0.000    0.000 
#
# Total GULP energy -396667.287921 kJ/mol
# GULP energy per Si atom -12395.852748 kJ/mol
# Density = 1.900154 g / cm^3
# Si number density = 19.044891 Si / 1000 Ang^3
#
#
#
# Elastic Constant Matrix: (Units=GPa)
#
#
# Indices 1 2 3 4 5 6 
#
# 1 105.1151 22.1973 70.2886 0.0000 7.4300 0.0000
# 2 22.1973 22.6416 29.8899 0.0000 0.5024 0.0000
# 3 70.2886 29.8899 164.4098 0.0000 6.0715 0.0000
# 4 0.0000 0.0000 0.0000 23.6269 0.0000 3.1887
# 5 7.4300 0.5024 6.0715 0.0000 29.5425 0.0000
# 6 0.0000 0.0000 0.0000 3.1887 0.0000 28.5960
#
#
#
# Elastic Compliance Matrix: (Units=1/GPa)
#
#
# Indices 1 2 3 4 5 6 
#
# 1 0.014493 -0.008022 -0.004643 0.000000 -0.002554 0.000000
# 2 -0.008022 0.062596 -0.008047 0.000000 0.002607 0.000000
# 3 -0.004643 -0.008047 0.009555 0.000000 -0.000659 0.000000
# 4 0.000000 0.000000 0.000000 0.042971 0.000000 -0.004792
# 5 -0.002554 0.002607 -0.000659 0.000000 0.034583 0.000000
# 6 0.000000 0.000000 0.000000 -0.004792 0.000000 0.035504
#
#
# Mechanical properties :
#
#
# Convention : Reuss Voigt Hill
#
# Bulk Modulus (GPa) = 22.11434 59.65756 40.88595
# Shear Modulus (GPa) = 19.51605 27.67246 23.59426
#
# Velocity S-wave (km/s) = 3.20463 3.81598 3.52359
# Velocity P-wave (km/s) = 5.03287 7.12799 6.17001
#
# Compressibility (1/GPa) = 0.04521953
#
# Stress axis : x y z
#
# Youngs Moduli (GPa) = 68.99973 15.97544 104.66087
#
# Poissons Ratio (x) = 0.12816 0.48596
# Poissons Ratio (y) = 0.55352 0.84217
# Poissons Ratio (z) = 0.32038 0.12855
#
# Static dielectric constant tensor:
#      x y z
#    x 3.420610 0.000000 0.077840 
#    y 0.000000 3.271260 0.000000 
#    z 0.077840 0.000000 3.762030 
# 
# 
# High freq. dielectric constant tensor:
#      x y z
#    x 1.733100 0.000000 0.013980 
#    y 0.000000 1.714560 0.000000 
#    z 0.013980 0.000000 1.752010 
# 
# From -- ./inp_files/86833.got.cif
#   From: 2010.06.25/outbox.cif.g09.slc.cpg/sg10_44_cif.got.tgz:86833.got - 2010.06.27 22:07:45.
