data_PCOD8064404
_publ_section_title
;
Structure prediction by ZEFSAII (Michael W. Deem and Ramdas Pophale) SiO2 
 PCOD8064404
Probable space group: P 2/M
;
_chemical_formula_sum "Si O2"
_cell_formula_units_Z 18
_cell_length_a 10.230737
_cell_length_b 12.653578
_cell_length_c 12.587701
_cell_angle_alpha 90.000000
_cell_angle_beta 146.608590
_cell_angle_gamma 90.000000
_cell_volume 896.829844
_symmetry_space_group_name_H-M "P 2/M"
_symmetry_group_IT_number 10
_symmetry_cell_setting 'monoclinic'
loop_
_space_group_symop_operation_xyz
x,y,z
-x,y,-z
-x,-y,-z
x,-y,z
loop_
_atom_site_type_symbol
_atom_site_label
_atom_site_fract_x
_atom_site_fract_y
_atom_site_fract_z
Si Si1 0.730848 0.123810 0.842211
Si Si2 0.500000 0.247221 0.500000
Si Si3 0.633994 0.758360 0.985560
Si Si4 0.241738 0.384285 0.628047
Si Si5 0.908632 0.618414 0.702789
O O1 0.535219 0.176099 0.630220
O O2 0.702604 0.000000 0.806508
O O3 0.681881 0.148899 0.933396
O O4 0.000000 0.160924 0.000000
O O5 0.263866 0.319381 0.334791
O O6 0.867440 0.692012 0.173748
O O7 0.500000 0.803333 0.000000
O O8 0.472652 0.674823 0.818347
O O9 0.244696 0.500000 0.685691
O O10 0.251660 0.395585 0.509274
O O11 0.000000 0.324761 0.500000
O O12 0.978839 0.500000 0.793215
#
# Coordination Sequence:
#
# PCOD8064404 Si02
#       5
#     4   2   4   4   4
#     4  11  25  45  67  90 119 164 218 269 318 367
#     4  12  22  44  68  90 122 168 216 262 304 372
#     4  12  23  39  65  95 132 164 206 257 317 373
#     4  10  20  35  57  88 128 170 205 240 296 375
#     4  11  23  37  60  96 133 168 205 248 305 375
#
# _framework density 20.070698
#
# number of rings (size 3 to 8) (size 9 to 14) (size 15 to 20)
#    0.000    0.889    6.667    1.333    0.000    1.333 
#    0.000    1.111    0.000    2.000    0.000    0.000 
#    0.000    0.000    0.000    0.000    0.000    0.000 
#
# Total GULP energy -223075.660098 kJ/mol
# GULP energy per Si atom -12393.092228 kJ/mol
# Density = 2.002502 g / cm^3
# Si number density = 20.070698 Si / 1000 Ang^3
#
#
#
# Elastic Constant Matrix: (Units=GPa)
#
#
# Indices 1 2 3 4 5 6 
#
# 1 119.7081 39.5743 28.4347 0.0000 2.9381 0.0000
# 2 39.5743 64.6167 22.7770 0.0000 -2.0630 0.0000
# 3 28.4347 22.7770 75.4651 0.0000 1.6911 0.0000
# 4 0.0000 0.0000 0.0000 31.6648 0.0000 0.5826
# 5 2.9381 -2.0630 1.6911 0.0000 38.5308 0.0000
# 6 0.0000 0.0000 0.0000 0.5826 0.0000 26.5497
#
#
#
# Elastic Compliance Matrix: (Units=1/GPa)
#
#
# Indices 1 2 3 4 5 6 
#
# 1 0.010869 -0.005880 -0.002297 0.000000 -0.001043 0.000000
# 2 -0.005880 0.020551 -0.004026 0.000000 0.001725 0.000000
# 3 -0.002297 -0.004026 0.015348 0.000000 -0.000714 0.000000
# 4 0.000000 0.000000 0.000000 0.031594 0.000000 -0.000693
# 5 -0.001043 0.001725 -0.000714 0.000000 0.026156 0.000000
# 6 0.000000 0.000000 0.000000 -0.000693 0.000000 0.037680
#
#
# Mechanical properties :
#
#
# Convention : Reuss Voigt Hill
#
# Bulk Modulus (GPa) = 44.71965 49.04024 46.87994
# Shear Modulus (GPa) = 28.72594 30.61599 29.67096
#
# Velocity S-wave (km/s) = 3.78727 3.90988 3.84907
# Velocity P-wave (km/s) = 6.43848 6.69849 6.56977
#
# Compressibility (1/GPa) = 0.02236154
#
# Stress axis : x y z
#
# Youngs Moduli (GPa) = 92.00638 48.65862 65.15584
#
# Poissons Ratio (x) = 0.28612 0.14967
# Poissons Ratio (y) = 0.54101 0.26231
# Poissons Ratio (z) = 0.21135 0.19590
#
# Static dielectric constant tensor:
#      x y z
#    x 4.676910 0.000000 0.127450 
#    y 0.000000 3.550800 0.000000 
#    z 0.127450 0.000000 3.631390 
# 
# 
# High freq. dielectric constant tensor:
#      x y z
#    x 1.786830 0.000000 0.002410 
#    y 0.000000 1.765580 0.000000 
#    z 0.002410 0.000000 1.789180 
# 
# From -- ./inp_files/38745.got.cif
#   From: 2010.06.25/outbox.cif.g09.slc.cpg/sg10_20_cif.got.tgz:38745.got - 2010.06.27 22:07:45.
