data_PCOD8064825
_publ_section_title
;
Structure prediction by ZEFSAII (Michael W. Deem and Ramdas Pophale) SiO2 
 PCOD8064825
Probable space group: P 2/M
;
_chemical_formula_sum "Si O2"
_cell_formula_units_Z 32
_cell_length_a 28.641449
_cell_length_b 8.786697
_cell_length_c 11.803431
_cell_angle_alpha 90.000000
_cell_angle_beta 31.412909
_cell_angle_gamma 90.000000
_cell_volume 1548.227990
_symmetry_space_group_name_H-M "P 2/M"
_symmetry_group_IT_number 10
_symmetry_cell_setting 'monoclinic'
loop_
_space_group_symop_operation_xyz
x,y,z
-x,y,-z
-x,-y,-z
x,-y,z
loop_
_atom_site_type_symbol
_atom_site_label
_atom_site_fract_x
_atom_site_fract_y
_atom_site_fract_z
Si Si1 0.003041 0.819140 0.621991
Si Si2 0.345101 0.174902 0.893383
Si Si3 0.776777 0.679818 0.462981
Si Si4 0.160881 0.820792 0.885737
Si Si5 0.821500 0.820197 0.608751
Si Si6 0.523900 0.323435 0.230697
Si Si7 0.660252 0.174683 0.354654
Si Si8 0.410154 0.820654 0.124139
O O1 0.091524 0.762351 0.503604
O O2 0.000000 0.752429 0.500000
O O3 0.001865 0.000000 0.617042
O O4 0.918170 0.760296 0.869586
O O5 0.432849 0.277246 0.738198
O O6 0.316336 0.202835 0.824369
O O7 0.371129 0.000000 0.860205
O O8 0.262992 0.227553 0.140940
O O9 0.772017 0.500000 0.475872
O O10 0.843374 0.735362 0.225798
O O11 0.816510 0.738849 0.498531
O O12 0.677769 0.744717 0.640469
O O13 0.253535 0.777735 0.753704
O O14 0.151629 0.000000 0.883550
O O15 0.824452 0.000000 0.581620
O O16 0.535444 0.500000 0.181106
O O17 0.420282 0.280717 0.437835
O O18 0.582999 0.226578 0.020350
O O19 0.632685 0.000000 0.434611
O O20 0.398665 0.000000 0.160426
O O21 0.500000 0.761748 0.000000
#
# Coordination Sequence:
#
# PCOD8064825 Si02
#       8
#     4   4   4   4   4   4   4   4
#     4   9  18  36  66 101 126 149 197 257 305 354
#     4  10  20  36  59  85 117 157 203 249 297 358
#     4  12  25  40  59  86 123 162 204 249 297 360
#     4  10  21  39  63  90 122 156 198 251 304 357
#     4  10  20  37  64  92 121 159 201 251 307 359
#     4  12  24  36  54  84 120 158 199 245 299 359
#     4  10  21  37  58  85 117 158 203 250 302 357
#     4  11  23  40  62  85 113 154 204 255 305 359
#
# _framework density 20.668789
#
# number of rings (size 3 to 8) (size 9 to 14) (size 15 to 20)
#    0.000    1.500    1.250    4.500    0.000   10.000 
#    0.000    3.125    0.000    3.000    0.000    0.000 
#    0.000    0.000    0.000    0.000    0.000    0.000 
#
# Total GULP energy -396937.237904 kJ/mol
# GULP energy per Si atom -12404.288685 kJ/mol
# Density = 2.062175 g / cm^3
# Si number density = 20.668789 Si / 1000 Ang^3
#
#
#
# Elastic Constant Matrix: (Units=GPa)
#
#
# Indices 1 2 3 4 5 6 
#
# 1 103.3274 34.6066 45.7535 0.0000 -1.9728 0.0000
# 2 34.6066 65.2433 34.0991 0.0000 0.9457 0.0000
# 3 45.7535 34.0991 127.1536 0.0000 5.1005 0.0000
# 4 0.0000 0.0000 0.0000 7.3951 0.0000 -2.6714
# 5 -1.9728 0.9457 5.1005 0.0000 39.1802 0.0000
# 6 0.0000 0.0000 0.0000 -2.6714 0.0000 4.9700
#
#
#
# Elastic Compliance Matrix: (Units=1/GPa)
#
#
# Indices 1 2 3 4 5 6 
#
# 1 0.012882 -0.005120 -0.003310 0.000000 0.001203 0.000000
# 2 -0.005120 0.019862 -0.003473 0.000000 -0.000285 0.000000
# 3 -0.003310 -0.003473 0.010043 0.000000 -0.001390 0.000000
# 4 0.000000 0.000000 0.000000 0.167808 0.000000 0.090198
# 5 0.001203 -0.000285 -0.001390 0.000000 0.025772 0.000000
# 6 0.000000 0.000000 0.000000 0.090198 0.000000 0.249689
#
#
# Mechanical properties :
#
#
# Convention : Reuss Voigt Hill
#
# Bulk Modulus (GPa) = 52.68630 58.29363 55.48996
# Shear Modulus (GPa) = 9.68638 22.39339 16.03989
#
# Velocity S-wave (km/s) = 2.16718 3.29514 2.78878
# Velocity P-wave (km/s) = 5.63988 6.53775 6.10534
#
# Compressibility (1/GPa) = 0.01898027
#
# Stress axis : x y z
#
# Youngs Moduli (GPa) = 77.63028 50.34706 99.57450
#
# Poissons Ratio (x) = 0.25778 0.32963
# Poissons Ratio (y) = 0.39746 0.34580
# Poissons Ratio (z) = 0.25699 0.17484
#
# Static dielectric constant tensor:
#      x y z
#    x 3.910450 0.000000 0.034900 
#    y 0.000000 3.382770 0.000000 
#    z 0.034900 0.000000 3.892820 
# 
# 
# High freq. dielectric constant tensor:
#      x y z
#    x 1.823010 0.000000 0.005740 
#    y 0.000000 1.776910 0.000000 
#    z 0.005740 0.000000 1.815630 
# 
# From -- ./inp_files/58197.got.cif
#   From: 2010.06.25/outbox.cif.g09.slc.cpg/sg10_30_cif.got.tgz:58197.got - 2010.06.27 22:07:45.
