data_PCOD8064225
_publ_section_title
;
Structure prediction by ZEFSAII (Michael W. Deem and Ramdas Pophale) SiO2 
 PCOD8064225
Probable space group: P 2/M
;
_chemical_formula_sum "Si O2"
_cell_formula_units_Z 28
_cell_length_a 21.475299
_cell_length_b 9.334941
_cell_length_c 23.922170
_cell_angle_alpha 90.000000
_cell_angle_beta 162.084242
_cell_angle_gamma 90.000000
_cell_volume 1475.243019
_symmetry_space_group_name_H-M "P 2/M"
_symmetry_group_IT_number 10
_symmetry_cell_setting 'monoclinic'
loop_
_space_group_symop_operation_xyz
x,y,z
-x,y,-z
-x,-y,-z
x,-y,z
loop_
_atom_site_type_symbol
_atom_site_label
_atom_site_fract_x
_atom_site_fract_y
_atom_site_fract_z
Si Si1 0.481241 0.663167 0.546367
Si Si2 0.869559 0.663922 0.671204
Si Si3 0.201544 0.161216 0.005826
Si Si4 0.825228 0.163451 0.890470
Si Si5 0.327012 0.832100 0.597370
Si Si6 0.148445 0.669727 0.549407
Si Si7 0.296642 0.331336 0.796815
O O1 0.500000 0.728518 0.500000
O O2 0.557013 0.500000 0.610136
O O3 0.255354 0.675907 0.377655
O O4 0.621388 0.749246 0.708143
O O5 0.885932 0.500000 0.664827
O O6 0.772532 0.758644 0.540588
O O7 0.092478 0.725086 0.872830
O O8 0.160625 0.000000 0.949198
O O9 0.111619 0.177459 0.991284
O O10 0.436280 0.197181 0.204767
O O11 0.780339 0.000000 0.835439
O O12 0.000000 0.227563 0.000000
O O13 0.245766 0.760684 0.583780
O O14 0.275400 0.000000 0.553058
O O15 0.170645 0.500000 0.557700
O O16 0.269993 0.715488 0.709414
O O17 0.910514 0.713033 0.348583
O O18 0.318244 0.500000 0.817385
O O19 0.500000 0.263613 0.000000
#
# Coordination Sequence:
#
# PCOD8064225 Si02
#       7
#     4   4   4   4   4   4   4
#     4  10  21  36  54  80 112 142 179 235 301 355
#     4  11  23  38  59  84 110 147 194 241 292 353
#     4  10  22  39  57  80 112 150 190 237 293 347
#     4  10  20  35  56  81 107 142 189 235 284 348
#     4  11  23  40  59  81 119 161 195 238 292 346
#     4   9  18  33  56  86 115 148 194 238 276 330
#     4   8  15  31  56  85 118 151 185 232 283 326
#
# _framework density 18.979922999999999
#
# number of rings (size 3 to 8) (size 9 to 14) (size 15 to 20)
#    0.000    2.143    1.429    2.571    0.000    4.000 
#    0.000    2.857    0.000    0.857    0.000    0.000 
#    0.000    0.000    0.000    0.000    0.000    0.000 
#
# Total GULP energy -347160.994632 kJ/mol
# GULP energy per Si atom -12398.606951 kJ/mol
# Density = 1.893672 g / cm^3
# Si number density = 18.979923 Si / 1000 Ang^3
#
#
#
# Elastic Constant Matrix: (Units=GPa)
#
#
# Indices 1 2 3 4 5 6 
#
# 1 122.2680 50.0328 49.5021 0.0000 3.5963 0.0000
# 2 50.0328 86.1093 56.3287 0.0000 -5.7126 0.0000
# 3 49.5021 56.3287 124.7176 0.0000 -12.8383 0.0000
# 4 0.0000 0.0000 0.0000 36.1532 0.0000 -3.7417
# 5 3.5963 -5.7126 -12.8383 0.0000 20.2133 0.0000
# 6 0.0000 0.0000 0.0000 -3.7417 0.0000 28.5578
#
#
#
# Elastic Compliance Matrix: (Units=1/GPa)
#
#
# Indices 1 2 3 4 5 6 
#
# 1 0.011624 -0.005295 -0.002770 0.000000 -0.005324 0.000000
# 2 -0.005295 0.018895 -0.006190 0.000000 0.002350 0.000000
# 3 -0.002770 -0.006190 0.012609 0.000000 0.006752 0.000000
# 4 0.000000 0.000000 0.000000 0.028040 0.000000 0.003674
# 5 -0.005324 0.002350 0.006752 0.000000 0.055372 0.000000
# 6 0.000000 0.000000 0.000000 0.003674 0.000000 0.035498
#
#
# Mechanical properties :
#
#
# Convention : Reuss Voigt Hill
#
# Bulk Modulus (GPa) = 68.41673 71.64690 70.03182
# Shear Modulus (GPa) = 25.58584 28.80028 27.19306
#
# Velocity S-wave (km/s) = 3.67556 3.89962 3.78925
# Velocity P-wave (km/s) = 7.35786 7.62278 7.49149
#
# Compressibility (1/GPa) = 0.01461631
#
# Stress axis : x y z
#
# Youngs Moduli (GPa) = 86.03211 52.92390 79.31126
#
# Poissons Ratio (x) = 0.28022 0.21971
# Poissons Ratio (y) = 0.45552 0.49097
# Poissons Ratio (z) = 0.23832 0.32762
#
# Static dielectric constant tensor:
#      x y z
#    x 3.496640 0.000000 -0.011350 
#    y 0.000000 3.354930 0.000000 
#    z -0.011350 0.000000 3.606090 
# 
# 
# High freq. dielectric constant tensor:
#      x y z
#    x 1.738590 0.000000 0.000250 
#    y 0.000000 1.722640 0.000000 
#    z 0.000250 0.000000 1.740150 
# 
# From -- ./inp_files/90402.got.cif
#   From: 2010.06.25/outbox.cif.g09.slc.cpg/sg10_46_cif.got.tgz:90402.got - 2010.06.27 22:07:45.
