data_PCOD8064061
_publ_section_title
;
Structure prediction by ZEFSAII (Michael W. Deem and Ramdas Pophale) SiO2 
 PCOD8064061
Probable space group: P 2/M
;
_chemical_formula_sum "Si O2"
_cell_formula_units_Z 28
_cell_length_a 17.068494
_cell_length_b 9.047252
_cell_length_c 20.467588
_cell_angle_alpha 90.000000
_cell_angle_beta 151.667963
_cell_angle_gamma 90.000000
_cell_volume 1499.990144
_symmetry_space_group_name_H-M "P 2/M"
_symmetry_group_IT_number 10
_symmetry_cell_setting 'monoclinic'
loop_
_space_group_symop_operation_xyz
x,y,z
-x,y,-z
-x,-y,-z
x,-y,z
loop_
_atom_site_type_symbol
_atom_site_label
_atom_site_fract_x
_atom_site_fract_y
_atom_site_fract_z
Si Si1 0.316608 0.326713 0.879763
Si Si2 0.826490 0.173906 0.344642
Si Si3 0.374454 0.675946 0.561503
Si Si4 0.629722 0.673899 0.649291
Si Si5 0.751145 0.325255 0.021836
Si Si6 0.433812 0.175066 0.737507
Si Si7 0.115520 0.675815 0.261118
O O1 0.303162 0.500000 0.857923
O O2 0.191716 0.248075 0.739083
O O3 0.267555 0.281563 0.916523
O O4 0.500000 0.268231 0.000000
O O5 0.679571 0.224095 0.284915
O O6 0.000000 0.229811 0.500000
O O7 0.826209 0.000000 0.334417
O O8 0.370753 0.500000 0.570270
O O9 0.554207 0.727821 0.663205
O O10 0.349078 0.760302 0.610509
O O11 0.226649 0.725862 0.404547
O O12 0.500000 0.722331 0.500000
O O13 0.642726 0.500000 0.663239
O O14 0.806256 0.734052 0.751172
O O15 0.730840 0.500000 0.996264
O O16 0.929499 0.264520 0.129934
O O17 0.615006 0.243170 0.878835
O O18 0.445868 0.000000 0.740396
O O19 0.112851 0.500000 0.259499
#
# Coordination Sequence:
#
# PCOD8064061 Si02
#       7
#     4   4   4   4   4   4   4
#     4  10  20  35  55  79 104 131 166 209 257 303
#     4  10  23  40  55  73 100 136 175 210 248 301
#     4   9  17  31  55  81 104 132 166 209 259 301
#     4   7  11  24  48  78 105 128 161 206 251 297
#     4  10  20  35  54  77 105 135 169 210 254 302
#     4  11  23  37  51  72 104 139 172 207 251 302
#     4   8  15  29  53  82 105 128 167 213 252 298
#
# _framework density 18.666788
#
# number of rings (size 3 to 8) (size 9 to 14) (size 15 to 20)
#    0.000    2.714    1.429    2.143    2.000    1.714 
#    0.000    1.429    0.000    9.000    0.000    0.000 
#    0.000    0.000    0.000    0.000    0.000    0.000 
#
# Total GULP energy -346974.292844 kJ/mol
# GULP energy per Si atom -12391.939030 kJ/mol
# Density = 1.862430 g / cm^3
# Si number density = 18.666788 Si / 1000 Ang^3
#
#
#
# Elastic Constant Matrix: (Units=GPa)
#
#
# Indices 1 2 3 4 5 6 
#
# 1 56.2189 15.4367 15.7958 0.0000 16.7819 0.0000
# 2 15.4367 26.5874 18.1509 0.0000 -1.0945 0.0000
# 3 15.7958 18.1509 89.0769 0.0000 13.6927 0.0000
# 4 0.0000 0.0000 0.0000 11.0220 0.0000 7.0985
# 5 16.7819 -1.0945 13.6927 0.0000 36.9626 0.0000
# 6 0.0000 0.0000 0.0000 7.0985 0.0000 6.1188
#
#
#
# Elastic Compliance Matrix: (Units=1/GPa)
#
#
# Indices 1 2 3 4 5 6 
#
# 1 0.025638 -0.015776 0.000561 0.000000 -0.012315 0.000000
# 2 -0.015776 0.054239 -0.010182 0.000000 0.012540 0.000000
# 3 0.000561 -0.010182 0.014089 0.000000 -0.005776 0.000000
# 4 0.000000 0.000000 0.000000 0.358812 0.000000 -0.416260
# 5 -0.012315 0.012540 -0.005776 0.000000 0.035157 0.000000
# 6 0.000000 0.000000 0.000000 -0.416260 0.000000 0.646335
#
#
# Mechanical properties :
#
#
# Convention : Reuss Voigt Hill
#
# Bulk Modulus (GPa) = 23.16272 30.07222 26.61747
# Shear Modulus (GPa) = 4.16857 18.98734 11.57795
#
# Velocity S-wave (km/s) = 1.49599 3.19277 2.49317
# Velocity P-wave (km/s) = 3.92676 5.45314 4.75164
#
# Compressibility (1/GPa) = 0.04317282
#
# Stress axis : x y z
#
# Youngs Moduli (GPa) = 39.00491 18.43704 70.97559
#
# Poissons Ratio (x) = 0.29085 -0.03984
# Poissons Ratio (y) = 0.61532 0.72269
# Poissons Ratio (z) = -0.02189 0.18773
#
# Static dielectric constant tensor:
#      x y z
#    x 3.877430 0.000000 0.271500 
#    y 0.000000 2.983710 0.000000 
#    z 0.271500 0.000000 3.404760 
# 
# 
# High freq. dielectric constant tensor:
#      x y z
#    x 1.740990 0.000000 0.009440 
#    y 0.000000 1.681810 0.000000 
#    z 0.009440 0.000000 1.714490 
# 
# From -- ./inp_files/37355.got.cif
#   From: 2010.06.25/outbox.cif.g09.slc.cpg/sg10_19_cif.got.tgz:37355.got - 2010.06.27 22:07:45.
