data_PCOD8064062
_publ_section_title
;
Structure prediction by ZEFSAII (Michael W. Deem and Ramdas Pophale) SiO2 
 PCOD8064062
Probable space group: P 2/M
;
_chemical_formula_sum "Si O2"
_cell_formula_units_Z 32
_cell_length_a 22.515013
_cell_length_b 8.848720
_cell_length_c 28.276743
_cell_angle_alpha 90.000000
_cell_angle_beta 18.380335
_cell_angle_gamma 90.000000
_cell_volume 1776.389372
_symmetry_space_group_name_H-M "P 2/M"
_symmetry_group_IT_number 10
_symmetry_cell_setting 'monoclinic'
loop_
_space_group_symop_operation_xyz
x,y,z
-x,y,-z
-x,-y,-z
x,-y,z
loop_
_atom_site_type_symbol
_atom_site_label
_atom_site_fract_x
_atom_site_fract_y
_atom_site_fract_z
Si Si1 0.508888 0.676035 0.044983
Si Si2 0.214580 0.822741 0.845502
Si Si3 0.499749 0.178732 0.197942
Si Si4 0.514783 0.322658 0.287955
Si Si5 0.214596 0.676452 0.593081
Si Si6 0.484167 0.177300 0.459240
Si Si7 0.788121 0.676391 0.653594
Si Si8 0.212269 0.320143 0.087665
O O1 0.545620 0.500000 0.010069
O O2 0.314390 0.707093 0.219165
O O3 0.500000 0.755077 0.000000
O O4 0.682251 0.740601 0.944924
O O5 0.296079 0.731027 0.828402
O O6 0.329663 0.779536 0.711207
O O7 0.230654 0.000000 0.844687
O O8 0.000000 0.772333 0.000000
O O9 0.487279 0.231099 0.261066
O O10 0.312755 0.233919 0.312202
O O11 0.510977 0.000000 0.186915
O O12 0.689115 0.248012 0.032504
O O13 0.529315 0.500000 0.266320
O O14 0.333908 0.281777 0.456566
O O15 0.219261 0.500000 0.599332
O O16 0.298275 0.755346 0.575985
O O17 0.002180 0.734567 0.746659
O O18 0.500000 0.245428 0.500000
O O19 0.455138 0.000000 0.483519
O O20 0.782425 0.500000 0.644319
O O21 0.000000 0.735606 0.500000
O O22 0.231991 0.500000 0.068178
#
# Coordination Sequence:
#
# PCOD8064062 Si02
#       8
#     4   4   4   4   4   4   4   4
#     4   8  14  26  47  73  97 123 158 200 243 289
#     4   9  18  33  51  72 101 135 171 209 250 301
#     4  11  22  35  52  75 105 140 175 211 255 305
#     4  10  20  35  54  77 105 135 172 216 260 306
#     4   9  19  34  53  76 101 131 167 212 259 301
#     4   9  18  32  49  70  98 131 165 203 247 299
#     4   9  18  33  53  75 100 132 170 211 254 300
#     4   9  18  34  53  75 103 132 168 212 254 299
#
# _framework density 18.01407
#
# number of rings (size 3 to 8) (size 9 to 14) (size 15 to 20)
#    0.000    2.750    0.000    2.250    0.000    3.750 
#    0.000    5.000    0.000    6.000    0.000    0.000 
#    0.000    0.000    0.000    0.000    0.000    0.000 
#
# Total GULP energy -396797.703170 kJ/mol
# GULP energy per Si atom -12399.928224 kJ/mol
# Density = 1.797307 g / cm^3
# Si number density = 18.014070 Si / 1000 Ang^3
#
#
#
# Elastic Constant Matrix: (Units=GPa)
#
#
# Indices 1 2 3 4 5 6 
#
# 1 139.8945 39.3791 71.7688 0.0000 5.0560 0.0000
# 2 39.3791 46.8479 35.0238 0.0000 -3.2003 0.0000
# 3 71.7688 35.0238 136.8358 0.0000 -22.2872 0.0000
# 4 0.0000 0.0000 0.0000 16.1092 0.0000 -3.0163
# 5 5.0560 -3.2003 -22.2872 0.0000 24.3885 0.0000
# 6 0.0000 0.0000 0.0000 -3.0163 0.0000 23.9161
#
#
#
# Elastic Compliance Matrix: (Units=1/GPa)
#
#
# Indices 1 2 3 4 5 6 
#
# 1 0.012634 -0.006384 -0.006527 0.000000 -0.009422 0.000000
# 2 -0.006384 0.029835 -0.004035 0.000000 0.001551 0.000000
# 3 -0.006527 -0.004035 0.013979 0.000000 0.013598 0.000000
# 4 0.000000 0.000000 0.000000 0.063578 0.000000 0.008018
# 5 -0.009422 0.001551 0.013598 0.000000 0.055586 0.000000
# 6 0.000000 0.000000 0.000000 0.008018 0.000000 0.042824
#
#
# Mechanical properties :
#
#
# Convention : Reuss Voigt Hill
#
# Bulk Modulus (GPa) = 44.33581 68.43573 56.38577
# Shear Modulus (GPa) = 19.24206 24.70988 21.97597
#
# Velocity S-wave (km/s) = 3.27183 3.70766 3.49654
# Velocity P-wave (km/s) = 6.24006 7.51010 6.90435
#
# Compressibility (1/GPa) = 0.02255513
#
# Stress axis : x y z
#
# Youngs Moduli (GPa) = 79.14942 33.51794 71.53525
#
# Poissons Ratio (x) = 0.21398 0.46692
# Poissons Ratio (y) = 0.50529 0.28868
# Poissons Ratio (z) = 0.51662 0.13526
#
# Static dielectric constant tensor:
#      x y z
#    x 3.523470 0.000000 -0.049250 
#    y 0.000000 3.123620 0.000000 
#    z -0.049250 0.000000 3.505770 
# 
# 
# High freq. dielectric constant tensor:
#      x y z
#    x 1.703690 0.000000 -0.001760 
#    y 0.000000 1.677830 0.000000 
#    z -0.001760 0.000000 1.699630 
# 
# From -- ./inp_files/86734.got.cif
#   From: 2010.06.25/outbox.cif.g09.slc.cpg/sg10_44_cif.got.tgz:86734.got - 2010.06.27 22:07:45.
