data_PCOD8064469
_publ_section_title
;
Structure prediction by ZEFSAII (Michael W. Deem and Ramdas Pophale) SiO2 
 PCOD8064469
Probable space group: P 2/M
;
_chemical_formula_sum "Si O2"
_cell_formula_units_Z 32
_cell_length_a 16.475038
_cell_length_b 23.540634
_cell_length_c 8.756251
_cell_angle_alpha 90.000000
_cell_angle_beta 149.581112
_cell_angle_gamma 90.000000
_cell_volume 1719.436772
_symmetry_space_group_name_H-M "P 2/M"
_symmetry_group_IT_number 10
_symmetry_cell_setting 'monoclinic'
loop_
_space_group_symop_operation_xyz
x,y,z
-x,y,-z
-x,-y,-z
x,-y,z
loop_
_atom_site_type_symbol
_atom_site_label
_atom_site_fract_x
_atom_site_fract_y
_atom_site_fract_z
Si Si1 0.568927 0.354594 0.270834
Si Si2 0.658535 0.139467 0.656140
Si Si3 0.350979 0.736033 0.356131
Si Si4 0.514817 0.935919 0.845825
Si Si5 0.175905 0.065417 0.841958
Si Si6 0.106583 0.653477 0.807458
Si Si7 0.283418 0.563815 0.892680
Si Si8 0.891660 0.593822 0.690138
O O1 0.579821 0.299413 0.391310
O O2 0.746551 0.378922 0.547495
O O3 0.500000 0.332378 0.000000
O O4 0.451147 0.403467 0.143910
O O5 0.500000 0.138856 0.500000
O O6 0.723847 0.203009 0.718279
O O7 0.618105 0.106498 0.435839
O O8 0.797157 0.105847 0.969202
O O9 0.500000 0.754825 0.500000
O O10 0.236150 0.699302 0.063206
O O11 0.471473 0.000000 0.724830
O O12 0.500000 0.928040 0.000000
O O13 0.694949 0.921416 0.081710
O O14 0.000000 0.080768 0.500000
O O15 0.187662 0.000000 0.913706
O O16 0.183813 0.595561 0.863384
O O17 0.000000 0.681084 0.500000
O O18 0.002190 0.641171 0.788839
O O19 0.320259 0.500000 0.009281
O O20 0.182961 0.557044 0.570177
O O21 0.000000 0.562830 0.000000
#
# Coordination Sequence:
#
# PCOD8064469 Si02
#       8
#     4   4   4   4   4   4   4   4
#     4  10  21  37  59  80 107 141 176 221 270 324
#     4   9  19  32  53  81 109 140 189 231 259 311
#     4  11  20  36  59  80 103 144 190 223 262 320
#     4   9  17  32  55  81 112 147 182 222 270 320
#     4   9  17  32  55  81 112 147 182 222 270 320
#     4  10  21  37  59  80 107 141 176 221 270 324
#     4  10  22  40  58  80 109 141 176 217 268 327
#     4  10  20  35  59  81 110 138 173 217 272 329
#
# _framework density 18.610745000000001
#
# number of rings (size 3 to 8) (size 9 to 14) (size 15 to 20)
#    0.000    2.250    2.500    0.375    0.000    7.250 
#    0.000    1.875    5.500    3.000    0.000    0.000 
#    0.000    0.000    0.000    0.000    0.000    0.000 
#
# Total GULP energy -396542.666737 kJ/mol
# GULP energy per Si atom -12391.958336 kJ/mol
# Density = 1.856839 g / cm^3
# Si number density = 18.610745 Si / 1000 Ang^3
#
#
#
# Elastic Constant Matrix: (Units=GPa)
#
#
# Indices 1 2 3 4 5 6 
#
# 1 54.5368 26.9694 37.6037 0.0000 12.7439 0.0000
# 2 26.9694 135.7717 73.3196 0.0000 -6.5256 0.0000
# 3 37.6037 73.3196 127.9601 0.0000 -3.7313 0.0000
# 4 0.0000 0.0000 0.0000 24.2404 0.0000 -6.5048
# 5 12.7439 -6.5256 -3.7313 0.0000 21.5908 0.0000
# 6 0.0000 0.0000 0.0000 -6.5048 0.0000 16.1982
#
#
#
# Elastic Compliance Matrix: (Units=1/GPa)
#
#
# Indices 1 2 3 4 5 6 
#
# 1 0.029554 -0.002626 -0.007752 0.000000 -0.019577 0.000000
# 2 -0.002626 0.011002 -0.005417 0.000000 0.003939 0.000000
# 3 -0.007752 -0.005417 0.013350 0.000000 0.005245 0.000000
# 4 0.000000 0.000000 0.000000 0.046236 0.000000 0.018567
# 5 -0.019577 0.003939 0.005245 0.000000 0.059969 0.000000
# 6 0.000000 0.000000 0.000000 0.018567 0.000000 0.069192
#
#
# Mechanical properties :
#
#
# Convention : Reuss Voigt Hill
#
# Bulk Modulus (GPa) = 44.80933 66.00600 55.40767
# Shear Modulus (GPa) = 18.63377 24.43091 21.53234
#
# Velocity S-wave (km/s) = 3.16767 3.62709 3.40514
# Velocity P-wave (km/s) = 6.12439 7.28592 6.73026
#
# Compressibility (1/GPa) = 0.02231678
#
# Stress axis : x y z
#
# Youngs Moduli (GPa) = 33.83613 90.89538 74.90658
#
# Poissons Ratio (x) = 0.23865 0.58064
# Poissons Ratio (y) = 0.08884 0.40580
# Poissons Ratio (z) = 0.26228 0.49242
#
# Static dielectric constant tensor:
#      x y z
#    x 3.372390 0.000000 -0.004150 
#    y 0.000000 3.344490 0.000000 
#    z -0.004150 0.000000 3.563610 
# 
# 
# High freq. dielectric constant tensor:
#      x y z
#    x 1.714950 0.000000 -0.002780 
#    y 0.000000 1.707880 0.000000 
#    z -0.002780 0.000000 1.731190 
# 
# From -- ./inp_files/33115.got.cif
#   From: 2010.06.25/outbox.cif.g09.slc.cpg/sg10_17_cif.got.tgz:33115.got - 2010.06.27 22:07:45.
