data_PCOD8064857
_publ_section_title
;
Structure prediction by ZEFSAII (Michael W. Deem and Ramdas Pophale) SiO2 
 PCOD8064857
Probable space group: P 2/M
;
_chemical_formula_sum "Si O2"
_cell_formula_units_Z 28
_cell_length_a 8.988316
_cell_length_b 13.706379
_cell_length_c 14.570347
_cell_angle_alpha 90.000000
_cell_angle_beta 128.006718
_cell_angle_gamma 90.000000
_cell_volume 1414.370921
_symmetry_space_group_name_H-M "P 2/M"
_symmetry_group_IT_number 10
_symmetry_cell_setting 'monoclinic'
loop_
_space_group_symop_operation_xyz
x,y,z
-x,y,-z
-x,-y,-z
x,-y,z
loop_
_atom_site_type_symbol
_atom_site_label
_atom_site_fract_x
_atom_site_fract_y
_atom_site_fract_z
Si Si1 0.841041 0.114115 0.013935
Si Si2 0.901417 0.390022 0.875340
Si Si3 0.492703 0.388791 0.665783
Si Si4 0.500794 0.111914 0.242059
Si Si5 0.181044 0.268008 0.635302
Si Si6 0.376990 0.199808 0.375697
Si Si7 0.029787 0.753603 0.775859
O O1 0.854798 0.172317 0.115221
O O2 0.864077 0.000000 0.044940
O O3 0.631893 0.137012 0.895181
O O4 0.000000 0.146071 0.000000
O O5 0.972753 0.500000 0.895843
O O6 0.675325 0.382375 0.801929
O O7 0.973660 0.342172 0.810151
O O8 0.000000 0.338120 0.000000
O O9 0.471827 0.500000 0.619004
O O10 0.304204 0.361341 0.650466
O O11 0.530957 0.308677 0.601345
O O12 0.694813 0.170585 0.321885
O O13 0.374886 0.137305 0.282496
O O14 0.559714 0.000000 0.263871
O O15 0.136027 0.281669 0.725339
O O16 0.000000 0.257885 0.500000
O O17 0.500000 0.146175 0.500000
O O18 0.164304 0.197744 0.331523
#
# Coordination Sequence:
#
# PCOD8064857 Si02
#       7
#     4   4   4   4   4   4   4
#     4  10  20  37  62  91 117 143 190 245 293 350
#     4   9  19  36  60  89 119 149 188 238 291 351
#     4   9  20  39  60  82 115 157 194 234 288 340
#     4  10  22  41  61  82 116 158 192 237 295 346
#     4  11  25  42  56  83 122 158 197 241 284 345
#     4  10  20  36  59  88 116 148 199 247 282 340
#     4  11  21  34  61  87 116 155 190 239 299 337
#
# _framework density 19.796786999999998
#
# number of rings (size 3 to 8) (size 9 to 14) (size 15 to 20)
#    0.000    2.000    1.429    2.143    4.000    2.857 
#    0.000    5.714    0.000    2.571    0.000    0.000 
#    0.000    0.000    0.000    0.000    0.000    0.000 
#
# Total GULP energy -347046.775320 kJ/mol
# GULP energy per Si atom -12394.527690 kJ/mol
# Density = 1.975173 g / cm^3
# Si number density = 19.796787 Si / 1000 Ang^3
#
#
#
# Elastic Constant Matrix: (Units=GPa)
#
#
# Indices 1 2 3 4 5 6 
#
# 1 80.9998 18.5697 25.0726 0.0000 4.1257 0.0000
# 2 18.5697 71.9101 41.1842 0.0000 9.5985 0.0000
# 3 25.0726 41.1842 112.9955 0.0000 5.0096 0.0000
# 4 0.0000 0.0000 0.0000 20.6326 0.0000 10.3831
# 5 4.1257 9.5985 5.0096 0.0000 31.7194 0.0000
# 6 0.0000 0.0000 0.0000 10.3831 0.0000 15.4649
#
#
#
# Elastic Compliance Matrix: (Units=1/GPa)
#
#
# Indices 1 2 3 4 5 6 
#
# 1 0.013555 -0.002142 -0.002193 0.000000 -0.000769 0.000000
# 2 -0.002142 0.018526 -0.006084 0.000000 -0.004367 0.000000
# 3 -0.002193 -0.006084 0.011540 0.000000 0.000304 0.000000
# 4 0.000000 0.000000 0.000000 0.073199 0.000000 -0.049146
# 5 -0.000769 -0.004367 0.000304 0.000000 0.032900 0.000000
# 6 0.000000 0.000000 0.000000 -0.049146 0.000000 0.097660
#
#
# Mechanical properties :
#
#
# Convention : Reuss Voigt Hill
#
# Bulk Modulus (GPa) = 43.88885 48.39536 46.14210
# Shear Modulus (GPa) = 18.12832 25.63531 21.88181
#
# Velocity S-wave (km/s) = 3.02937 3.60241 3.32824
# Velocity P-wave (km/s) = 5.86975 6.46547 6.17479
#
# Compressibility (1/GPa) = 0.02278483
#
# Stress axis : x y z
#
# Youngs Moduli (GPa) = 73.77527 53.97709 86.65227
#
# Poissons Ratio (x) = 0.11561 0.19003
# Poissons Ratio (y) = 0.15801 0.52716
# Poissons Ratio (z) = 0.16179 0.32837
#
# Static dielectric constant tensor:
#      x y z
#    x 3.477770 0.000000 0.135390 
#    y 0.000000 3.592640 0.000000 
#    z 0.135390 0.000000 3.732410 
# 
# 
# High freq. dielectric constant tensor:
#      x y z
#    x 1.752290 0.000000 0.010160 
#    y 0.000000 1.769640 0.000000 
#    z 0.010160 0.000000 1.785270 
# 
# From -- ./inp_files/61908.got.cif
#   From: 2010.06.25/outbox.cif.g09.slc.cpg/sg10_31_cif.got.tgz:61908.got - 2010.06.27 22:07:45.
