data_PCOD8064165
_publ_section_title
;
Structure prediction by ZEFSAII (Michael W. Deem and Ramdas Pophale) SiO2 
 PCOD8064165
Probable space group: P 2/M
;
_chemical_formula_sum "Si O2"
_cell_formula_units_Z 32
_cell_length_a 23.475749
_cell_length_b 8.831893
_cell_length_c 14.430209
_cell_angle_alpha 90.000000
_cell_angle_beta 148.298705
_cell_angle_gamma 90.000000
_cell_volume 1572.211836
_symmetry_space_group_name_H-M "P 2/M"
_symmetry_group_IT_number 10
_symmetry_cell_setting 'monoclinic'
loop_
_space_group_symop_operation_xyz
x,y,z
-x,y,-z
-x,-y,-z
x,-y,z
loop_
_atom_site_type_symbol
_atom_site_label
_atom_site_fract_x
_atom_site_fract_y
_atom_site_fract_z
Si Si1 0.510865 0.671562 0.257615
Si Si2 0.894796 0.320968 0.911739
Si Si3 0.595152 0.677452 0.700594
Si Si4 0.805930 0.821506 0.449116
Si Si5 0.991426 0.820736 0.383526
Si Si6 0.263309 0.178669 0.447128
Si Si7 0.397120 0.328668 0.912736
Si Si8 0.173380 0.178436 0.997534
O O1 0.554683 0.500000 0.332141
O O2 0.446204 0.729471 0.256924
O O3 0.610250 0.781146 0.372696
O O4 0.421269 0.678233 0.054265
O O5 0.889616 0.500000 0.913713
O O6 0.788177 0.262977 0.711497
O O7 0.897959 0.250525 0.018704
O O8 0.000000 0.266840 0.000000
O O9 0.500000 0.725808 0.500000
O O10 0.621044 0.500000 0.730353
O O11 0.704050 0.765457 0.826565
O O12 0.793941 0.761206 0.537803
O O13 0.704118 0.776744 0.246314
O O14 0.911914 0.753007 0.546054
O O15 0.812928 0.000000 0.462244
O O16 0.000000 0.751860 0.500000
O O17 0.003635 0.000000 0.407565
O O18 0.879784 0.776886 0.175864
O O19 0.249735 0.000000 0.415831
O O20 0.372193 0.500000 0.844604
O O21 0.500000 0.263770 0.000000
O O22 0.170146 0.000000 0.007290
#
# Coordination Sequence:
#
# PCOD8064165 Si02
#       8
#     4   4   4   4   4   4   4   4
#     4  10  21  37  57  82 117 160 200 241 298 359
#     4  11  24  41  63  88 117 156 197 239 296 364
#     4  10  22  40  61  85 119 161 202 247 301 362
#     4  10  21  36  58  85 117 155 199 249 299 354
#     4   9  20  39  60  85 119 160 201 243 300 358
#     4  11  22  36  58  90 121 150 192 250 303 357
#     4  10  20  35  55  82 118 158 198 245 296 354
#     4  11  23  40  65  93 123 158 201 256 304 354
#
# _framework density 20.353490000000001
#
# number of rings (size 3 to 8) (size 9 to 14) (size 15 to 20)
#    0.000    1.750    1.250    2.625    1.750    5.000 
#    0.000    1.250    0.000    1.875    0.000    0.000 
#    0.000    0.000    0.000    0.000    0.000    0.000 
#
# Total GULP energy -396871.398756 kJ/mol
# GULP energy per Si atom -12402.231211 kJ/mol
# Density = 2.030716 g / cm^3
# Si number density = 20.353490 Si / 1000 Ang^3
#
#
#
# Elastic Constant Matrix: (Units=GPa)
#
#
# Indices 1 2 3 4 5 6 
#
# 1 145.1886 34.9906 48.4473 0.0000 -8.3579 0.0000
# 2 34.9906 48.4395 26.1045 0.0000 -0.8636 0.0000
# 3 48.4473 26.1045 105.5815 0.0000 -5.3305 0.0000
# 4 0.0000 0.0000 0.0000 25.6825 0.0000 0.8392
# 5 -8.3579 -0.8636 -5.3305 0.0000 38.3998 0.0000
# 6 0.0000 0.0000 0.0000 0.8392 0.0000 25.4527
#
#
#
# Elastic Compliance Matrix: (Units=1/GPa)
#
#
# Indices 1 2 3 4 5 6 
#
# 1 0.009145 -0.005028 -0.002878 0.000000 0.001478 0.000000
# 2 -0.005028 0.026586 -0.004321 0.000000 -0.001096 0.000000
# 3 -0.002878 -0.004321 0.011907 0.000000 0.000929 0.000000
# 4 0.000000 0.000000 0.000000 0.038979 0.000000 -0.001285
# 5 0.001478 -0.001096 0.000929 0.000000 0.026468 0.000000
# 6 0.000000 0.000000 0.000000 -0.001285 0.000000 0.039331
#
#
# Mechanical properties :
#
#
# Convention : Reuss Voigt Hill
#
# Bulk Modulus (GPa) = 43.13661 57.58828 50.36245
# Shear Modulus (GPa) = 27.08566 30.55148 28.81857
#
# Velocity S-wave (km/s) = 3.65192 3.87853 3.76693
# Velocity P-wave (km/s) = 6.24674 6.95793 6.61191
#
# Compressibility (1/GPa) = 0.02318216
#
# Stress axis : x y z
#
# Youngs Moduli (GPa) = 109.34934 37.61410 83.98077
#
# Poissons Ratio (x) = 0.18914 0.24173
# Poissons Ratio (y) = 0.54985 0.36290
# Poissons Ratio (z) = 0.31476 0.16254
#
# Static dielectric constant tensor:
#      x y z
#    x 3.994650 0.000000 -0.091580 
#    y 0.000000 3.460570 0.000000 
#    z -0.091580 0.000000 3.711190 
# 
# 
# High freq. dielectric constant tensor:
#      x y z
#    x 1.808710 0.000000 -0.006960 
#    y 0.000000 1.773090 0.000000 
#    z -0.006960 0.000000 1.803190 
# 
# From -- ./inp_files/71690.got.cif
#   From: 2010.06.25/outbox.cif.g09.slc.cpg/sg10_36_cif.got.tgz:71690.got - 2010.06.27 22:07:45.
