data_PCOD8064224
_publ_section_title
;
Structure prediction by ZEFSAII (Michael W. Deem and Ramdas Pophale) SiO2 
 PCOD8064224
Probable space group: P 2/M
;
_chemical_formula_sum "Si O2"
_cell_formula_units_Z 32
_cell_length_a 26.055214
_cell_length_b 8.769974
_cell_length_c 20.811496
_cell_angle_alpha 90.000000
_cell_angle_beta 159.091647
_cell_angle_gamma 90.000000
_cell_volume 1697.115465
_symmetry_space_group_name_H-M "P 2/M"
_symmetry_group_IT_number 10
_symmetry_cell_setting 'monoclinic'
loop_
_space_group_symop_operation_xyz
x,y,z
-x,y,-z
-x,-y,-z
x,-y,z
loop_
_atom_site_type_symbol
_atom_site_label
_atom_site_fract_x
_atom_site_fract_y
_atom_site_fract_z
Si Si1 0.151154 0.676378 0.344422
Si Si2 0.660415 0.820235 0.689418
Si Si3 0.853037 0.180470 0.032619
Si Si4 0.155922 0.325531 0.200351
Si Si5 0.581358 0.676960 0.032257
Si Si6 0.447134 0.323956 0.741951
Si Si7 0.746664 0.318387 0.040855
Si Si8 0.145627 0.178932 0.705721
O O1 0.123085 0.500000 0.330444
O O2 0.181435 0.694031 0.304963
O O3 0.293447 0.748976 0.544004
O O4 0.016319 0.774534 0.209144
O O5 0.500000 0.750984 0.500000
O O6 0.729081 0.775096 0.702248
O O7 0.655352 0.000000 0.689250
O O8 0.751333 0.755656 0.856312
O O9 0.803576 0.254746 0.040860
O O10 0.841961 0.000000 0.025901
O O11 0.170948 0.500000 0.195100
O O12 0.000000 0.261161 0.000000
O O13 0.625454 0.500000 0.089847
O O14 0.724781 0.773880 0.189669
O O15 0.500000 0.736874 0.000000
O O16 0.470919 0.702567 0.844987
O O17 0.435561 0.500000 0.710035
O O18 0.583414 0.256956 0.861696
O O19 0.751156 0.500000 0.045623
O O20 0.846320 0.262855 0.216174
O O21 0.000000 0.228653 0.500000
O O22 0.151012 0.000000 0.725022
#
# Coordination Sequence:
#
# PCOD8064224 Si02
#       8
#     4   4   4   4   4   4   4   4
#     4  10  20  36  56  79 109 143 181 227 279 331
#     4  10  23  40  56  78 110 148 187 226 276 336
#     4  11  23  38  55  80 113 146 184 229 275 330
#     4  10  20  35  56  81 107 138 181 232 279 325
#     4   9  18  34  56  82 112 146 187 230 270 320
#     4   8  17  34  55  80 107 138 180 226 272 323
#     4  10  21  38  60  83 110 146 186 229 276 326
#     4  10  21  37  57  84 117 150 185 226 273 326
#
# _framework density 18.855523999999999
#
# number of rings (size 3 to 8) (size 9 to 14) (size 15 to 20)
#    0.000    2.250    1.250    1.875    1.750    3.750 
#    0.000    4.375    0.000    0.000    0.000    0.000 
#    0.000    0.000    0.000    0.000    0.000    0.000 
#
# Total GULP energy -396809.302948 kJ/mol
# GULP energy per Si atom -12400.290717 kJ/mol
# Density = 1.881261 g / cm^3
# Si number density = 18.855524 Si / 1000 Ang^3
#
#
#
# Elastic Constant Matrix: (Units=GPa)
#
#
# Indices 1 2 3 4 5 6 
#
# 1 131.6266 29.4718 60.8138 0.0000 4.5170 0.0000
# 2 29.4718 44.8056 34.4059 0.0000 -1.6663 0.0000
# 3 60.8138 34.4059 162.9724 0.0000 5.5034 0.0000
# 4 0.0000 0.0000 0.0000 25.4628 0.0000 -4.3141
# 5 4.5170 -1.6663 5.5034 0.0000 22.3454 0.0000
# 6 0.0000 0.0000 0.0000 -4.3141 0.0000 46.2684
#
#
#
# Elastic Compliance Matrix: (Units=1/GPa)
#
#
# Indices 1 2 3 4 5 6 
#
# 1 0.009907 -0.004516 -0.002687 0.000000 -0.001678 0.000000
# 2 -0.004516 0.028954 -0.004569 0.000000 0.004197 0.000000
# 3 -0.002687 -0.004569 0.008164 0.000000 -0.001808 0.000000
# 4 0.000000 0.000000 0.000000 0.039903 0.000000 0.003721
# 5 -0.001678 0.004197 -0.001808 0.000000 0.045849 0.000000
# 6 0.000000 0.000000 0.000000 0.003721 0.000000 0.021960
#
#
# Mechanical properties :
#
#
# Convention : Reuss Voigt Hill
#
# Bulk Modulus (GPa) = 42.58680 65.42085 54.00382
# Shear Modulus (GPa) = 26.86593 33.12953 29.99773
#
# Velocity S-wave (km/s) = 3.77879 4.19623 3.99297
# Velocity P-wave (km/s) = 6.45553 7.63210 7.06834
#
# Compressibility (1/GPa) = 0.02348145
#
# Stress axis : x y z
#
# Youngs Moduli (GPa) = 100.93500 34.53779 122.48385
#
# Poissons Ratio (x) = 0.15597 0.32911
# Poissons Ratio (y) = 0.45581 0.55965
# Poissons Ratio (z) = 0.27121 0.15781
#
# Static dielectric constant tensor:
#      x y z
#    x 3.502120 0.000000 0.015020 
#    y 0.000000 3.283020 0.000000 
#    z 0.015020 0.000000 3.751190 
# 
# 
# High freq. dielectric constant tensor:
#      x y z
#    x 1.738650 0.000000 -0.000530 
#    y 0.000000 1.714780 0.000000 
#    z -0.000530 0.000000 1.743430 
# 
# From -- ./inp_files/87059.got.cif
#   From: 2010.06.25/outbox.cif.g09.slc.cpg/sg10_44_cif.got.tgz:87059.got - 2010.06.27 22:07:45.
