data_PCOD8064391
_publ_section_title
;
Structure prediction by ZEFSAII (Michael W. Deem and Ramdas Pophale) SiO2 
 PCOD8064391
Probable space group: P 2/M
;
_chemical_formula_sum "Si O2"
_cell_formula_units_Z 28
_cell_length_a 11.780410
_cell_length_b 8.875332
_cell_length_c 15.139358
_cell_angle_alpha 90.000000
_cell_angle_beta 60.397957
_cell_angle_gamma 90.000000
_cell_volume 1376.292453
_symmetry_space_group_name_H-M "P 2/M"
_symmetry_group_IT_number 10
_symmetry_cell_setting 'monoclinic'
loop_
_space_group_symop_operation_xyz
x,y,z
-x,y,-z
-x,-y,-z
x,-y,z
loop_
_atom_site_type_symbol
_atom_site_label
_atom_site_fract_x
_atom_site_fract_y
_atom_site_fract_z
Si Si1 0.377652 0.677816 0.487557
Si Si2 0.144265 0.174192 0.182112
Si Si3 0.873215 0.668063 0.989471
Si Si4 0.457500 0.168555 0.285218
Si Si5 0.142700 0.824514 0.675063
Si Si6 0.749575 0.166796 0.182961
Si Si7 0.414082 0.322208 0.118075
O O1 0.500000 0.738542 0.500000
O O2 0.385845 0.500000 0.479454
O O3 0.374669 0.740252 0.388846
O O4 0.237214 0.725005 0.579160
O O5 0.112813 0.212881 0.093414
O O6 0.262371 0.277682 0.168799
O O7 0.010510 0.205182 0.289044
O O8 0.185139 0.000000 0.174009
O O9 0.843428 0.500000 0.964535
O O10 0.756339 0.719040 0.098243
O O11 0.000000 0.672896 0.000000
O O12 0.601007 0.161755 0.271619
O O13 0.466500 0.245815 0.186363
O O14 0.399164 0.000000 0.296777
O O15 0.164322 0.775008 0.768268
O O16 0.178724 0.000000 0.648807
O O17 0.796948 0.000000 0.135460
O O18 0.425460 0.500000 0.123604
O O19 0.500000 0.267768 0.000000
#
# Coordination Sequence:
#
# PCOD8064391 Si02
#       7
#     4   4   4   4   4   4   4
#     4  11  23  38  61  94 130 167 206 255 313 372
#     4  11  23  40  63  88 121 163 209 258 308 368
#     4  11  22  33  51  83 122 160 198 245 305 369
#     4  11  23  40  65  92 122 163 211 259 306 365
#     4  10  21  38  60  89 123 160 202 251 308 367
#     4  10  20  35  57  86 120 159 201 249 304 365
#     4  11  25  45  67  92 126 165 208 259 312 370
#
# _framework density 20.344512999999999
#
# number of rings (size 3 to 8) (size 9 to 14) (size 15 to 20)
#    0.000    1.286    2.857    3.000    0.000    7.429 
#    0.000    0.714    0.000    4.286    0.000    0.000 
#    0.000    0.000    0.000    0.000    0.000    0.000 
#
# Total GULP energy -347147.770213 kJ/mol
# GULP energy per Si atom -12398.134650 kJ/mol
# Density = 2.029821 g / cm^3
# Si number density = 20.344513 Si / 1000 Ang^3
#
#
#
# Elastic Constant Matrix: (Units=GPa)
#
#
# Indices 1 2 3 4 5 6 
#
# 1 80.5643 29.1168 34.9997 0.0000 -9.0912 0.0000
# 2 29.1168 78.5416 46.5530 0.0000 0.4430 0.0000
# 3 34.9997 46.5530 117.0929 0.0000 -3.5097 0.0000
# 4 0.0000 0.0000 0.0000 30.5039 0.0000 -2.5591
# 5 -9.0912 0.4430 -3.5097 0.0000 31.3675 0.0000
# 6 0.0000 0.0000 0.0000 -2.5591 0.0000 30.1500
#
#
#
# Elastic Compliance Matrix: (Units=1/GPa)
#
#
# Indices 1 2 3 4 5 6 
#
# 1 0.015641 -0.004091 -0.002921 0.000000 0.004264 0.000000
# 2 -0.004091 0.017758 -0.005900 0.000000 -0.002097 0.000000
# 3 -0.002921 -0.005900 0.011776 0.000000 0.000554 0.000000
# 4 0.000000 0.000000 0.000000 0.033018 0.000000 0.002803
# 5 0.004264 -0.002097 0.000554 0.000000 0.033208 0.000000
# 6 0.000000 0.000000 0.000000 0.002803 0.000000 0.033405
#
#
# Mechanical properties :
#
#
# Convention : Reuss Voigt Hill
#
# Bulk Modulus (GPa) = 51.67879 55.28200 53.48039
# Shear Modulus (GPa) = 28.23592 29.43955 28.83773
#
# Velocity S-wave (km/s) = 3.72948 3.80814 3.76901
# Velocity P-wave (km/s) = 6.63343 6.82406 6.72942
#
# Compressibility (1/GPa) = 0.01935030
#
# Stress axis : x y z
#
# Youngs Moduli (GPa) = 63.93375 56.31387 84.92186
#
# Poissons Ratio (x) = 0.23040 0.24804
# Poissons Ratio (y) = 0.26157 0.50103
# Poissons Ratio (z) = 0.18674 0.33225
#
# Static dielectric constant tensor:
#      x y z
#    x 3.683000 0.000000 -0.129350 
#    y 0.000000 3.772850 0.000000 
#    z -0.129350 0.000000 3.644570 
# 
# 
# High freq. dielectric constant tensor:
#      x y z
#    x 1.787540 0.000000 -0.011570 
#    y 0.000000 1.798250 0.000000 
#    z -0.011570 0.000000 1.789710 
# 
# From -- ./inp_files/49618.got.cif
#   From: 2010.06.25/outbox.cif.g09.slc.cpg/sg10_25_cif.got.tgz:49618.got - 2010.06.27 22:07:45.
