data_PCOD8064846
_publ_section_title
;
Structure prediction by ZEFSAII (Michael W. Deem and Ramdas Pophale) SiO2 
 PCOD8064846
Probable space group: P 2/M
;
_chemical_formula_sum "Si O2"
_cell_formula_units_Z 32
_cell_length_a 19.947817
_cell_length_b 8.866156
_cell_length_c 25.746161
_cell_angle_alpha 90.000000
_cell_angle_beta 158.701961
_cell_angle_gamma 90.000000
_cell_volume 1653.911215
_symmetry_space_group_name_H-M "P 2/M"
_symmetry_group_IT_number 10
_symmetry_cell_setting 'monoclinic'
loop_
_space_group_symop_operation_xyz
x,y,z
-x,y,-z
-x,-y,-z
x,-y,z
loop_
_atom_site_type_symbol
_atom_site_label
_atom_site_fract_x
_atom_site_fract_y
_atom_site_fract_z
Si Si1 0.712940 0.176972 0.657782
Si Si2 0.129583 0.677047 0.697304
Si Si3 0.805230 0.821887 0.839583
Si Si4 0.613098 0.824206 0.198760
Si Si5 0.709374 0.326063 0.372700
Si Si6 0.869906 0.321455 0.671486
Si Si7 0.540883 0.325616 0.361286
Si Si8 0.785998 0.823452 0.134252
O O1 0.500000 0.222526 0.500000
O O2 0.781364 0.230944 0.763258
O O3 0.833092 0.268038 0.703227
O O4 0.742243 0.000000 0.669313
O O5 0.151697 0.500000 0.723053
O O6 0.237476 0.725971 0.723937
O O7 0.213124 0.763669 0.806574
O O8 0.917099 0.721763 0.536470
O O9 0.646421 0.759712 0.761709
O O10 0.796142 0.000000 0.836986
O O11 0.000000 0.758095 0.000000
O O12 0.626842 0.780224 0.268853
O O13 0.657909 0.000000 0.223849
O O14 0.410867 0.784078 0.032353
O O15 0.703008 0.500000 0.350104
O O16 0.584170 0.298233 0.332499
O O17 0.884018 0.500000 0.679107
O O18 0.707185 0.260854 0.516625
O O19 0.062718 0.255851 0.791937
O O20 0.513217 0.500000 0.354336
O O21 0.825302 0.000000 0.163210
#
# Coordination Sequence:
#
# PCOD8064846 Si02
#       8
#     4   4   4   4   4   4   4   4
#     4  10  20  36  59  87 117 152 194 238 288 346
#     4  11  22  40  65  91 120 158 202 247 299 358
#     4  10  22  39  59  86 120 155 192 236 290 351
#     4  11  25  41  58  89 125 158 201 249 298 356
#     4  10  22  41  62  88 121 157 199 248 300 355
#     4  11  22  38  62  90 118 152 200 250 296 352
#     4  10  21  39  61  86 118 151 193 245 292 350
#     4  11  24  41  61  87 123 160 199 250 301 354
#
# _framework density 19.348075999999999
#
# number of rings (size 3 to 8) (size 9 to 14) (size 15 to 20)
#    0.000    1.500    2.500    2.250    0.000    9.000 
#    0.000    3.750    0.000    0.000    0.000    0.000 
#    0.000    0.000    0.000    0.000    0.000    0.000 
#
# Total GULP energy -397008.699158 kJ/mol
# GULP energy per Si atom -12406.521849 kJ/mol
# Density = 1.930404 g / cm^3
# Si number density = 19.348076 Si / 1000 Ang^3
#
#
#
# Elastic Constant Matrix: (Units=GPa)
#
#
# Indices 1 2 3 4 5 6 
#
# 1 112.7255 34.2707 50.1158 0.0000 -2.4498 0.0000
# 2 34.2707 48.9046 43.0033 0.0000 -0.0748 0.0000
# 3 50.1158 43.0033 118.6633 0.0000 -10.5033 0.0000
# 4 0.0000 0.0000 0.0000 28.0920 0.0000 3.8280
# 5 -2.4498 -0.0748 -10.5033 0.0000 34.5426 0.0000
# 6 0.0000 0.0000 0.0000 3.8280 0.0000 37.3546
#
#
#
# Elastic Compliance Matrix: (Units=1/GPa)
#
#
# Indices 1 2 3 4 5 6 
#
# 1 0.011937 -0.005764 -0.002959 0.000000 -0.000065 0.000000
# 2 -0.005764 0.033173 -0.009883 0.000000 -0.003342 0.000000
# 3 -0.002959 -0.009883 0.013604 0.000000 0.003905 0.000000
# 4 0.000000 0.000000 0.000000 0.036101 0.000000 -0.003700
# 5 -0.000065 -0.003342 0.003905 0.000000 0.030125 0.000000
# 6 0.000000 0.000000 0.000000 -0.003700 0.000000 0.027150
#
#
# Mechanical properties :
#
#
# Convention : Reuss Voigt Hill
#
# Bulk Modulus (GPa) = 46.50570 59.45256 52.97913
# Shear Modulus (GPa) = 25.44930 30.19143 27.82037
#
# Velocity S-wave (km/s) = 3.63070 3.95452 3.79606
# Velocity P-wave (km/s) = 6.45480 7.18649 6.83045
#
# Compressibility (1/GPa) = 0.02150274
#
# Stress axis : x y z
#
# Youngs Moduli (GPa) = 83.77094 30.14538 73.50752
#
# Poissons Ratio (x) = 0.17375 0.21748
# Poissons Ratio (y) = 0.48284 0.72649
# Poissons Ratio (z) = 0.24784 0.29793
#
# Static dielectric constant tensor:
#      x y z
#    x 3.613170 0.000000 -0.060060 
#    y 0.000000 3.467870 0.000000 
#    z -0.060060 0.000000 3.655500 
# 
# 
# High freq. dielectric constant tensor:
#      x y z
#    x 1.767660 0.000000 0.000430 
#    y 0.000000 1.752090 0.000000 
#    z 0.000430 0.000000 1.758660 
# 
# From -- ./inp_files/93699.got.cif
#   From: 2010.06.25/outbox.cif.g09.slc.cpg/sg10_47_cif.got.tgz:93699.got - 2010.06.27 22:07:45.
