data_PCOD8064174
_publ_section_title
;
Structure prediction by ZEFSAII (Michael W. Deem and Ramdas Pophale) SiO2 
 PCOD8064174
Probable space group: P 2/M
;
_chemical_formula_sum "Si O2"
_cell_formula_units_Z 28
_cell_length_a 9.838636
_cell_length_b 14.047258
_cell_length_c 22.063379
_cell_angle_alpha 90.000000
_cell_angle_beta 27.971950
_cell_angle_gamma 90.000000
_cell_volume 1430.235854
_symmetry_space_group_name_H-M "P 2/M"
_symmetry_group_IT_number 10
_symmetry_cell_setting 'monoclinic'
loop_
_space_group_symop_operation_xyz
x,y,z
-x,y,-z
-x,-y,-z
x,-y,z
loop_
_atom_site_type_symbol
_atom_site_label
_atom_site_fract_x
_atom_site_fract_y
_atom_site_fract_z
Si Si1 0.721758 0.611823 0.865317
Si Si2 0.317646 0.892657 0.381271
Si Si3 0.637000 0.608269 0.767843
Si Si4 0.205917 0.710386 0.738517
Si Si5 0.239334 0.246711 0.855415
Si Si6 0.622222 0.894006 0.385154
Si Si7 0.197004 0.392466 0.478559
O O1 0.689437 0.500000 0.872666
O O2 0.628272 0.655147 0.837783
O O3 0.044942 0.633002 0.761176
O O4 0.500000 0.657824 0.000000
O O5 0.555638 0.840259 0.245739
O O6 0.377172 0.890749 0.429786
O O7 0.000000 0.845570 0.500000
O O8 0.314984 0.000000 0.357206
O O9 0.519409 0.500000 0.810820
O O10 0.437850 0.667725 0.801141
O O11 0.980540 0.609777 0.620142
O O12 0.078730 0.717191 0.857160
O O13 0.158054 0.810428 0.721391
O O14 0.544468 0.681769 0.611610
O O15 0.000000 0.216321 0.000000
O O16 0.500000 0.871197 0.500000
O O17 0.767900 0.000000 0.328149
O O18 0.319306 0.500000 0.419321
O O19 0.000000 0.359194 0.500000
#
# Coordination Sequence:
#
# PCOD8064174 Si02
#       7
#     4   4   4   4   4   4   4
#     4  10  22  39  55  77 113 152 190 233 278 333
#     4   9  20  38  61  86 112 144 185 234 286 340
#     4  10  22  37  55  79 115 153 188 234 282 333
#     4  11  22  34  60  83 109 149 193 231 283 342
#     4  11  23  36  57  85 114 151 193 233 280 340
#     4   9  20  36  54  81 113 141 177 228 283 333
#     4  10  20  35  55  84 116 146 185 240 291 331
#
# _framework density 19.577190999999999
#
# number of rings (size 3 to 8) (size 9 to 14) (size 15 to 20)
#    0.000    2.000    1.429    1.286    6.000    1.143 
#    0.000    2.143    0.000    0.429    0.000    0.000 
#    0.000    0.000    0.000    0.000    0.000    0.000 
#
# Total GULP energy -346952.973221 kJ/mol
# GULP energy per Si atom -12391.177615 kJ/mol
# Density = 1.953263 g / cm^3
# Si number density = 19.577191 Si / 1000 Ang^3
#
#
#
# Elastic Constant Matrix: (Units=GPa)
#
#
# Indices 1 2 3 4 5 6 
#
# 1 103.5795 42.4345 40.5601 0.0000 23.6129 0.0000
# 2 42.4345 70.4599 33.9602 0.0000 8.6780 0.0000
# 3 40.5601 33.9602 88.2410 0.0000 15.9345 0.0000
# 4 0.0000 0.0000 0.0000 19.8343 0.0000 3.1340
# 5 23.6129 8.6780 15.9345 0.0000 35.8024 0.0000
# 6 0.0000 0.0000 0.0000 3.1340 0.0000 26.7041
#
#
#
# Elastic Compliance Matrix: (Units=1/GPa)
#
#
# Indices 1 2 3 4 5 6 
#
# 1 0.015279 -0.006830 -0.003125 0.000000 -0.007031 0.000000
# 2 -0.006830 0.020537 -0.005088 0.000000 0.001791 0.000000
# 3 -0.003125 -0.005088 0.015367 0.000000 -0.003545 0.000000
# 4 0.000000 0.000000 0.000000 0.051370 0.000000 -0.006029
# 5 -0.007031 0.001791 -0.003545 0.000000 0.033712 0.000000
# 6 0.000000 0.000000 0.000000 -0.006029 0.000000 0.038155
#
#
# Mechanical properties :
#
#
# Convention : Reuss Voigt Hill
#
# Bulk Modulus (GPa) = 47.39718 55.13220 51.26469
# Shear Modulus (GPa) = 23.63632 26.15652 24.89642
#
# Velocity S-wave (km/s) = 3.47845 3.65920 3.56997
# Velocity P-wave (km/s) = 6.35577 6.78790 6.57538
#
# Compressibility (1/GPa) = 0.02109830
#
# Stress axis : x y z
#
# Youngs Moduli (GPa) = 65.45002 48.69166 65.07296
#
# Poissons Ratio (x) = 0.33254 0.20335
# Poissons Ratio (y) = 0.44700 0.33110
# Poissons Ratio (z) = 0.20453 0.24775
#
# Static dielectric constant tensor:
#      x y z
#    x 3.693420 0.000000 0.289520 
#    y 0.000000 3.719280 0.000000 
#    z 0.289520 0.000000 3.580070 
# 
# 
# High freq. dielectric constant tensor:
#      x y z
#    x 1.772650 0.000000 0.017540 
#    y 0.000000 1.761120 0.000000 
#    z 0.017540 0.000000 1.741410 
# 
# From -- ./inp_files/82884.got.cif
#   From: 2010.06.25/outbox.cif.g09.slc.cpg/sg10_42_cif.got.tgz:82884.got - 2010.06.27 22:07:45.
