data_PCOD8064044
_publ_section_title
;
Structure prediction by ZEFSAII (Michael W. Deem and Ramdas Pophale) SiO2 
 PCOD8064044
Probable space group: P 2/M
;
_chemical_formula_sum "Si O2"
_cell_formula_units_Z 32
_cell_length_a 32.422210
_cell_length_b 8.921631
_cell_length_c 13.831733
_cell_angle_alpha 90.000000
_cell_angle_beta 154.451230
_cell_angle_gamma 90.000000
_cell_volume 1725.527957
_symmetry_space_group_name_H-M "P 2/M"
_symmetry_group_IT_number 10
_symmetry_cell_setting 'monoclinic'
loop_
_space_group_symop_operation_xyz
x,y,z
-x,y,-z
-x,-y,-z
x,-y,z
loop_
_atom_site_type_symbol
_atom_site_label
_atom_site_fract_x
_atom_site_fract_y
_atom_site_fract_z
Si Si1 0.032257 0.173886 0.362915
Si Si2 0.835379 0.323525 0.002748
Si Si3 0.307624 0.676287 0.654634
Si Si4 0.329321 0.678315 0.486457
Si Si5 0.676252 0.827064 0.031630
Si Si6 0.537663 0.677952 0.863156
Si Si7 0.805559 0.169185 0.136873
Si Si8 0.165752 0.674471 0.510033
O O1 0.109083 0.208441 0.608756
O O2 0.071526 0.233976 0.342494
O O3 0.011835 0.000000 0.308531
O O4 0.935458 0.254690 0.184960
O O5 0.843913 0.500000 0.012457
O O6 0.753856 0.260119 0.758973
O O7 0.807527 0.282925 0.052873
O O8 0.320944 0.500000 0.674115
O O9 0.313703 0.747730 0.560635
O O10 0.203230 0.713634 0.480767
O O11 0.394709 0.734511 0.905767
O O12 0.326534 0.500000 0.485016
O O13 0.430819 0.732182 0.659776
O O14 0.703053 0.814795 0.974655
O O15 0.747049 0.716354 0.236626
O O16 0.689335 0.000000 0.092738
O O17 0.570665 0.764465 0.834443
O O18 0.544121 0.500000 0.860727
O O19 0.819437 0.000000 0.127313
O O20 0.141992 0.500000 0.470346
#
# Coordination Sequence:
#
# PCOD8064044 Si02
#       8
#     4   4   4   4   4   4   4   4
#     4  10  20  35  54  73  98 131 162 199 247 296
#     4  11  22  33  49  73 100 130 164 206 248 287
#     4   8  14  27  51  78 100 126 161 201 243 287
#     4   9  18  32  48  72 104 132 163 204 248 288
#     4   9  17  30  49  74 103 130 157 198 250 295
#     4   9  16  29  53  78  98 127 167 206 240 282
#     4   9  19  35  53  71  94 128 164 198 244 298
#     4   9  16  28  51  80 101 122 160 205 244 285
#
# _framework density 18.545048000000001
#
# number of rings (size 3 to 8) (size 9 to 14) (size 15 to 20)
#    0.000    2.750    0.000    3.750    0.000    6.000 
#    0.000    2.500    0.000   21.750    0.000    0.000 
#    0.000    0.000    0.000    0.000    0.000    0.000 
#
# Total GULP energy -396601.094549 kJ/mol
# GULP energy per Si atom -12393.784205 kJ/mol
# Density = 1.850284 g / cm^3
# Si number density = 18.545048 Si / 1000 Ang^3
#
#
#
# Elastic Constant Matrix: (Units=GPa)
#
#
# Indices 1 2 3 4 5 6 
#
# 1 160.6299 50.0850 61.9461 0.0000 20.1533 0.0000
# 2 50.0850 55.5018 32.3340 0.0000 4.3143 0.0000
# 3 61.9461 32.3340 62.3938 0.0000 -7.2931 0.0000
# 4 0.0000 0.0000 0.0000 10.1353 0.0000 7.7283
# 5 20.1533 4.3143 -7.2931 0.0000 -0.5645 0.0000
# 6 0.0000 0.0000 0.0000 7.7283 0.0000 17.3928
#
#
#
# Elastic Compliance Matrix: (Units=1/GPa)
#
#
# Indices 1 2 3 4 5 6 
#
# 1 0.003696 -0.007588 0.003549 0.000000 0.028111 0.000000
# 2 -0.007588 0.027345 -0.005527 0.000000 0.009506 0.000000
# 3 0.003549 -0.005527 0.010055 0.000000 -0.045455 0.000000
# 4 0.000000 0.000000 0.000000 0.149224 0.000000 -0.066306
# 5 0.028111 0.009506 -0.045455 0.000000 -0.107963 0.000000
# 6 0.000000 0.000000 0.000000 -0.066306 0.000000 0.086957
#
#
# Mechanical properties :
#
#
# Convention : Reuss Voigt Hill
#
# Bulk Modulus (GPa) = 45.52758 63.02841 54.27799
# Shear Modulus (GPa) = 25.54049 14.33675 19.93862
#
# Velocity S-wave (km/s) = 3.71511 2.78344 3.28250
# Velocity P-wave (km/s) = 6.55788 6.66262 6.61045
#
# Compressibility (1/GPa) = 0.02196471
#
# Stress axis : x y z
#
# Youngs Moduli (GPa) = 270.56673 36.56926 99.45354
#
# Poissons Ratio (x) = 0.27748 -0.35292
# Poissons Ratio (y) = 2.05299 0.54964
# Poissons Ratio (z) = -0.96013 0.20211
#
# Static dielectric constant tensor:
#      x y z
#    x 3.946000 0.000000 0.127470 
#    y 0.000000 3.247590 0.000000 
#    z 0.127470 0.000000 3.208570 
# 
# 
# High freq. dielectric constant tensor:
#      x y z
#    x 1.741690 0.000000 0.017060 
#    y 0.000000 1.700490 0.000000 
#    z 0.017060 0.000000 1.679980 
# 
# From -- ./inp_files/58343.got.cif
#   From: 2010.06.25/outbox.cif.g09.slc.cpg/sg10_30_cif.got.tgz:58343.got - 2010.06.27 22:07:45.
