data_PCOD8064981
_publ_section_title
;
Structure prediction by ZEFSAII (Michael W. Deem and Ramdas Pophale) SiO2 
 PCOD8064981
Probable space group: P 2/M
;
_chemical_formula_sum "Si O2"
_cell_formula_units_Z 28
_cell_length_a 12.537956
_cell_length_b 8.781369
_cell_length_c 14.428940
_cell_angle_alpha 90.000000
_cell_angle_beta 58.861734
_cell_angle_gamma 90.000000
_cell_volume 1359.745228
_symmetry_space_group_name_H-M "P 2/M"
_symmetry_group_IT_number 10
_symmetry_cell_setting 'monoclinic'
loop_
_space_group_symop_operation_xyz
x,y,z
-x,y,-z
-x,-y,-z
x,-y,z
loop_
_atom_site_type_symbol
_atom_site_label
_atom_site_fract_x
_atom_site_fract_y
_atom_site_fract_z
Si Si1 0.963769 0.173678 0.911609
Si Si2 0.982912 0.820524 0.612469
Si Si3 0.275991 0.320579 0.220048
Si Si4 0.859075 0.677512 0.309536
Si Si5 0.316669 0.823066 0.011912
Si Si6 0.585297 0.322676 0.374101
Si Si7 0.510850 0.179419 0.769142
O O1 0.819250 0.211502 0.966636
O O2 0.041389 0.289357 0.814858
O O3 0.993071 0.000000 0.868028
O O4 0.000000 0.203597 0.000000
O O5 0.862476 0.746358 0.713532
O O6 0.000000 0.763692 0.500000
O O7 0.105093 0.768805 0.613686
O O8 0.966575 0.000000 0.625527
O O9 0.267608 0.500000 0.229509
O O10 0.340875 0.269667 0.095085
O O11 0.357048 0.259038 0.269616
O O12 0.858524 0.500000 0.333822
O O13 0.724170 0.732453 0.336199
O O14 0.336096 0.000000 0.026468
O O15 0.412388 0.766709 0.890865
O O16 0.500000 0.286194 0.500000
O O17 0.581976 0.500000 0.349038
O O18 0.536815 0.226588 0.309800
O O19 0.530396 0.000000 0.762253
#
# Coordination Sequence:
#
# PCOD8064981 Si02
#       7
#     4   4   4   4   4   4   4
#     4  10  20  36  61  90 124 168 211 256 312 369
#     4  11  25  44  67  95 127 165 213 265 316 375
#     4  12  25  41  65  96 131 169 210 259 321 381
#     4  11  23  40  64  95 128 165 209 259 316 376
#     4  10  21  39  62  91 129 169 211 261 312 375
#     4  10  24  45  65  91 128 170 212 260 319 378
#     4  11  24  42  66  95 127 169 219 263 313 373
#
# _framework density 20.592092000000001
#
# number of rings (size 3 to 8) (size 9 to 14) (size 15 to 20)
#    0.000    1.286    1.429    3.857    2.000    6.857 
#    0.000    0.000    0.000    0.000    0.000    0.000 
#    0.000    0.000    0.000    0.000    0.000    0.000 
#
# Total GULP energy -347405.485193 kJ/mol
# GULP energy per Si atom -12407.338757 kJ/mol
# Density = 2.054522 g / cm^3
# Si number density = 20.592092 Si / 1000 Ang^3
#
#
#
# Elastic Constant Matrix: (Units=GPa)
#
#
# Indices 1 2 3 4 5 6 
#
# 1 129.8754 34.5179 21.7214 0.0000 13.1578 0.0000
# 2 34.5179 74.7518 23.6313 0.0000 2.9303 0.0000
# 3 21.7214 23.6313 69.3938 0.0000 13.1257 0.0000
# 4 0.0000 0.0000 0.0000 16.5503 0.0000 8.2490
# 5 13.1578 2.9303 13.1257 0.0000 30.3755 0.0000
# 6 0.0000 0.0000 0.0000 8.2490 0.0000 35.9399
#
#
#
# Elastic Compliance Matrix: (Units=1/GPa)
#
#
# Indices 1 2 3 4 5 6 
#
# 1 0.009201 -0.003815 -0.000977 0.000000 -0.003195 0.000000
# 2 -0.003815 0.016592 -0.004864 0.000000 0.002153 0.000000
# 3 -0.000977 -0.004864 0.017646 0.000000 -0.006733 0.000000
# 4 0.000000 0.000000 0.000000 0.068227 0.000000 -0.015660
# 5 -0.003195 0.002153 -0.006733 0.000000 0.037007 0.000000
# 6 0.000000 0.000000 0.000000 -0.015660 0.000000 0.031418
#
#
# Mechanical properties :
#
#
# Convention : Reuss Voigt Hill
#
# Bulk Modulus (GPa) = 41.44322 48.19580 44.81951
# Shear Modulus (GPa) = 24.10295 29.51652 26.80973
#
# Velocity S-wave (km/s) = 3.42496 3.79012 3.61216
# Velocity P-wave (km/s) = 5.98414 6.52757 6.26176
#
# Compressibility (1/GPa) = 0.02412940
#
# Stress axis : x y z
#
# Youngs Moduli (GPa) = 108.68908 60.26946 56.67032
#
# Poissons Ratio (x) = 0.22990 0.05534
# Poissons Ratio (y) = 0.41460 0.27562
# Poissons Ratio (z) = 0.10614 0.29312
#
# Static dielectric constant tensor:
#      x y z
#    x 3.979440 0.000000 0.029410 
#    y 0.000000 3.629390 0.000000 
#    z 0.029410 0.000000 3.780820 
# 
# 
# High freq. dielectric constant tensor:
#      x y z
#    x 1.826710 0.000000 0.003790 
#    y 0.000000 1.800760 0.000000 
#    z 0.003790 0.000000 1.808600 
# 
# From -- ./inp_files/63656.got.cif
#   From: 2010.06.25/outbox.cif.g09.slc.cpg/sg10_32_cif.got.tgz:63656.got - 2010.06.27 22:07:45.
