data_PCOD8064397
_publ_section_title
;
Structure prediction by ZEFSAII (Michael W. Deem and Ramdas Pophale) SiO2 
 PCOD8064397
Probable space group: P 2/M
;
_chemical_formula_sum "Si O2"
_cell_formula_units_Z 32
_cell_length_a 13.066083
_cell_length_b 8.817164
_cell_length_c 30.605936
_cell_angle_alpha 90.000000
_cell_angle_beta 27.637988
_cell_angle_gamma 90.000000
_cell_volume 1635.644519
_symmetry_space_group_name_H-M "P 2/M"
_symmetry_group_IT_number 10
_symmetry_cell_setting 'monoclinic'
loop_
_space_group_symop_operation_xyz
x,y,z
-x,y,-z
-x,-y,-z
x,-y,z
loop_
_atom_site_type_symbol
_atom_site_label
_atom_site_fract_x
_atom_site_fract_y
_atom_site_fract_z
Si Si1 0.256597 0.179988 0.597795
Si Si2 0.024522 0.179978 0.601334
Si Si3 0.919107 0.322137 0.889418
Si Si4 0.082083 0.175507 0.203397
Si Si5 0.344393 0.180014 0.772613
Si Si6 0.219385 0.179281 0.439387
Si Si7 0.476036 0.177005 0.910420
Si Si8 0.537187 0.820394 0.789275
O O1 0.500000 0.250185 0.500000
O O2 0.109587 0.249201 0.614516
O O3 0.144597 0.222249 0.686294
O O4 0.266538 0.000000 0.589219
O O5 0.200073 0.225118 0.497509
O O6 0.779194 0.244141 0.684996
O O7 0.008343 0.000000 0.610296
O O8 0.946251 0.500000 0.882142
O O9 0.901385 0.275888 0.845740
O O10 0.124513 0.248235 0.836109
O O11 0.695883 0.272939 0.997118
O O12 0.282992 0.206012 0.160542
O O13 0.077852 0.000000 0.190718
O O14 0.555202 0.245505 0.666168
O O15 0.368190 0.228936 0.814756
O O16 0.329894 0.000000 0.773610
O O17 0.000000 0.247512 0.500000
O O18 0.222876 0.000000 0.430483
O O19 0.465824 0.237804 0.864238
O O20 0.413357 0.000000 0.936784
O O21 0.550367 0.000000 0.786603
#
# Coordination Sequence:
#
# PCOD8064397 Si02
#       8
#     4   4   4   4   4   4   4   4
#     4   9  17  27  46  84 125 150 170 211 272 330
#     4   9  14  24  43  78 121 149 172 213 269 324
#     4  12  27  42  55  76 111 152 192 239 289 334
#     4  10  20  37  62  89 114 144 185 231 279 337
#     4  10  20  35  57  87 118 150 187 227 276 334
#     4   9  15  24  46  83 119 144 172 215 265 319
#     4  10  20  38  63  87 109 139 184 239 290 338
#     4   9  16  30  55  86 118 145 178 229 283 332
#
# _framework density 19.564153000000001
#
# number of rings (size 3 to 8) (size 9 to 14) (size 15 to 20)
#    0.000    2.250    2.500    1.500    1.750    2.500 
#    0.000    3.125    0.000    0.750    0.000    0.000 
#    0.000    0.000    0.000    0.000    0.000    0.000 
#
# Total GULP energy -396643.139651 kJ/mol
# GULP energy per Si atom -12395.098114 kJ/mol
# Density = 1.951962 g / cm^3
# Si number density = 19.564153 Si / 1000 Ang^3
#
#
#
# Elastic Constant Matrix: (Units=GPa)
#
#
# Indices 1 2 3 4 5 6 
#
# 1 112.6972 24.4746 41.1920 0.0000 17.4456 0.0000
# 2 24.4746 32.3584 21.7076 0.0000 2.2571 0.0000
# 3 41.1920 21.7076 119.8572 0.0000 11.3739 0.0000
# 4 0.0000 0.0000 0.0000 -4.1810 0.0000 0.3441
# 5 17.4456 2.2571 11.3739 0.0000 33.8126 0.0000
# 6 0.0000 0.0000 0.0000 0.3441 0.0000 1.9591
#
#
#
# Elastic Compliance Matrix: (Units=1/GPa)
#
#
# Indices 1 2 3 4 5 6 
#
# 1 0.012069 -0.007189 -0.002376 0.000000 -0.004948 0.000000
# 2 -0.007189 0.039462 -0.004936 0.000000 0.002735 0.000000
# 3 -0.002376 -0.004936 0.010233 0.000000 -0.001887 0.000000
# 4 0.000000 0.000000 0.000000 -0.235772 0.000000 0.041409
# 5 -0.004948 0.002735 -0.001887 0.000000 0.032580 0.000000
# 6 0.000000 0.000000 0.000000 0.041409 0.000000 0.503177
#
#
# Mechanical properties :
#
#
# Convention : Reuss Voigt Hill
#
# Bulk Modulus (GPa) = 30.52397 48.85125 39.68761
# Shear Modulus (GPa) = 12.44797 18.15405 15.30101
#
# Velocity S-wave (km/s) = 2.52516 3.04949 2.79963
# Velocity P-wave (km/s) = 4.91302 6.11745 5.54802
#
# Compressibility (1/GPa) = 0.03276114
#
# Stress axis : x y z
#
# Youngs Moduli (GPa) = 82.85591 25.34079 97.72408
#
# Poissons Ratio (x) = 0.18219 0.23222
# Poissons Ratio (y) = 0.59568 0.48235
# Poissons Ratio (z) = 0.19689 0.12508
#
# Static dielectric constant tensor:
#      x y z
#    x 3.813020 0.000000 0.067250 
#    y 0.000000 2.923890 0.000000 
#    z 0.067250 0.000000 3.794110 
# 
# 
# High freq. dielectric constant tensor:
#      x y z
#    x 1.778050 0.000000 0.006680 
#    y 0.000000 1.686360 0.000000 
#    z 0.006680 0.000000 1.774890 
# 
# From -- ./inp_files/94970.got.cif
#   From: 2010.06.25/outbox.cif.g09.slc.cpg/sg10_48_cif.got.tgz:94970.got - 2010.06.27 22:07:45.
