data_PCOD8064761
_publ_section_title
;
Structure prediction by ZEFSAII (Michael W. Deem and Ramdas Pophale) SiO2 
 PCOD8064761
Probable space group: P 2/M
;
_chemical_formula_sum "Si O2"
_cell_formula_units_Z 22
_cell_length_a 7.926146
_cell_length_b 10.175612
_cell_length_c 13.669220
_cell_angle_alpha 90.000000
_cell_angle_beta 86.470407
_cell_angle_gamma 90.000000
_cell_volume 1100.377646
_symmetry_space_group_name_H-M "P 2/M"
_symmetry_group_IT_number 10
_symmetry_cell_setting 'monoclinic'
loop_
_space_group_symop_operation_xyz
x,y,z
-x,y,-z
-x,-y,-z
x,-y,z
loop_
_atom_site_type_symbol
_atom_site_label
_atom_site_fract_x
_atom_site_fract_y
_atom_site_fract_z
Si Si1 0.137005 0.144164 0.198990
Si Si2 0.000000 0.791543 0.000000
Si Si3 0.605381 0.649572 0.400138
Si Si4 0.343544 0.353044 0.949578
Si Si5 0.585623 0.352645 0.777858
Si Si6 0.913540 0.848114 0.398182
O O1 0.280762 0.253380 0.178683
O O2 0.031793 0.130445 0.100543
O O3 0.029952 0.182501 0.299429
O O4 0.217396 0.000000 0.214595
O O5 0.163699 0.708517 0.970725
O O6 0.500000 0.661610 0.500000
O O7 0.672868 0.500000 0.380422
O O8 0.459226 0.689854 0.329298
O O9 0.756224 0.752222 0.393127
O O10 0.327685 0.500000 0.992607
O O11 0.400354 0.348877 0.835047
O O12 0.500000 0.281524 0.000000
O O13 0.663123 0.500000 0.781210
O O14 0.000000 0.817653 0.500000
O O15 0.854015 0.000000 0.397469
#
# Coordination Sequence:
#
# PCOD8064761 Si02
#       6
#     4   2   4   4   4   4
#     4  11  24  40  59  87 122 157 201 250 301 362
#     4  12  22  38  62  86 123 166 197 250 315 358
#     4  10  21  37  59  89 121 152 192 248 306 361
#     4  10  20  36  58  88 119 152 202 250 293 359
#     4  10  21  39  60  86 120 155 200 249 297 361
#     4  10  22  40  61  86 117 155 202 249 293 358
#
# _framework density 19.993136
#
# number of rings (size 3 to 8) (size 9 to 14) (size 15 to 20)
#    0.000    1.636    1.818    2.727    0.000    2.909 
#    0.000    2.727    0.000    0.000    0.000    0.000 
#    0.000    0.000    0.000    0.000    0.000    0.000 
#
# Total GULP energy -272541.916002 kJ/mol
# GULP energy per Si atom -12388.268909 kJ/mol
# Density = 1.994763 g / cm^3
# Si number density = 19.993136 Si / 1000 Ang^3
#
#
#
# Elastic Constant Matrix: (Units=GPa)
#
#
# Indices 1 2 3 4 5 6 
#
# 1 117.5685 73.6165 35.1820 0.0000 -0.6792 0.0000
# 2 73.6165 112.5089 23.0287 0.0000 2.6335 0.0000
# 3 35.1820 23.0287 133.1366 0.0000 18.3139 0.0000
# 4 0.0000 0.0000 0.0000 -18.6403 0.0000 -5.9658
# 5 -0.6792 2.6335 18.3139 0.0000 18.4573 0.0000
# 6 0.0000 0.0000 0.0000 -5.9658 0.0000 28.0081
#
#
#
# Elastic Compliance Matrix: (Units=1/GPa)
#
#
# Indices 1 2 3 4 5 6 
#
# 1 0.015489 -0.009613 -0.003124 0.000000 0.005041 0.000000
# 2 -0.009613 0.015183 0.000302 0.000000 -0.002820 0.000000
# 3 -0.003124 0.000302 0.009619 0.000000 -0.009702 0.000000
# 4 0.000000 0.000000 0.000000 -0.050223 0.000000 -0.010698
# 5 0.005041 -0.002820 -0.009702 0.000000 0.064394 0.000000
# 6 0.000000 0.000000 0.000000 -0.010698 0.000000 0.033425
#
#
# Mechanical properties :
#
#
# Convention : Reuss Voigt Hill
#
# Bulk Modulus (GPa) = 64.84806 69.65204 67.25005
# Shear Modulus (GPa) = 42.41024 20.99081 31.70052
#
# Velocity S-wave (km/s) = 4.61069 3.24373 3.98624
# Velocity P-wave (km/s) = 7.80065 6.99590 7.40921
#
# Compressibility (1/GPa) = 0.01542066
#
# Stress axis : x y z
#
# Youngs Moduli (GPa) = 64.56174 65.86505 103.96238
#
# Poissons Ratio (x) = 0.63319 0.32474
# Poissons Ratio (y) = 0.62066 -0.03141
# Poissons Ratio (z) = 0.20167 -0.01990
#
# Static dielectric constant tensor:
#      x y z
#    x 6.404480 0.000000 -0.952120 
#    y 0.000000 3.597060 0.000000 
#    z -0.952120 0.000000 4.583680 
# 
# 
# High freq. dielectric constant tensor:
#      x y z
#    x 1.764350 0.000000 0.002280 
#    y 0.000000 1.772120 0.000000 
#    z 0.002280 0.000000 1.815520 
# 
# From -- ./inp_files/60172.got.cif
#   From: 2010.06.25/outbox.cif.g09.slc.cpg/sg10_31_cif.got.tgz:60172.got - 2010.06.27 22:07:45.
