data_PCOD8064265
_publ_section_title
;
Structure prediction by ZEFSAII (Michael W. Deem and Ramdas Pophale) SiO2 
 PCOD8064265
Probable space group: P 2/M
;
_chemical_formula_sum "Si O2"
_cell_formula_units_Z 28
_cell_length_a 12.469472
_cell_length_b 8.713826
_cell_length_c 14.008070
_cell_angle_alpha 90.000000
_cell_angle_beta 122.324929
_cell_angle_gamma 90.000000
_cell_volume 1286.195537
_symmetry_space_group_name_H-M "P 2/M"
_symmetry_group_IT_number 10
_symmetry_cell_setting 'monoclinic'
loop_
_space_group_symop_operation_xyz
x,y,z
-x,y,-z
-x,-y,-z
x,-y,z
loop_
_atom_site_type_symbol
_atom_site_label
_atom_site_fract_x
_atom_site_fract_y
_atom_site_fract_z
Si Si1 0.226624 0.681785 0.128775
Si Si2 0.297181 0.834184 0.478908
Si Si3 0.135968 0.831816 0.585601
Si Si4 0.827560 0.680997 0.111059
Si Si5 0.336236 0.324532 0.795062
Si Si6 0.503293 0.182682 0.718108
Si Si7 0.904845 0.816890 0.762715
O O1 0.224060 0.500000 0.135455
O O2 0.359959 0.745077 0.229774
O O3 0.114618 0.752483 0.139792
O O4 0.203808 0.737713 0.010191
O O5 0.200554 0.863300 0.516945
O O6 0.419991 0.752024 0.587537
O O7 0.214247 0.748483 0.357216
O O8 0.341632 0.000000 0.458918
O O9 0.204722 0.699980 0.677641
O O10 0.000000 0.761686 0.500000
O O11 0.129611 0.000000 0.635376
O O12 0.850755 0.500000 0.127355
O O13 0.701994 0.724306 0.114695
O O14 0.957360 0.761591 0.209377
O O15 0.381518 0.500000 0.812405
O O16 0.444952 0.225307 0.794643
O O17 0.508293 0.000000 0.715673
O O18 0.901879 0.000000 0.758676
#
# Coordination Sequence:
#
# PCOD8064265 Si02
#       7
#     4   4   4   4   4   4   4
#     4  11  24  42  60  80 114 156 194 236 287 339
#     4   8  17  33  54  81 114 148 179 224 285 340
#     4   9  16  29  50  77 111 150 186 224 279 340
#     4  10  23  41  59  82 117 157 190 229 288 346
#     4  10  20  35  56  83 114 149 189 232 282 339
#     4  10  21  40  62  86 116 150 191 233 282 342
#     4  11  22  38  62  89 114 146 193 241 283 333
#
# _framework density 21.769629999999999
#
# number of rings (size 3 to 8) (size 9 to 14) (size 15 to 20)
#    0.000    2.143    0.000    3.857    0.000    6.571 
#    0.000   14.286    0.000    0.000    0.000    0.000 
#    0.000    0.000    0.000    0.000    0.000    0.000 
#
# Total GULP energy -346877.341768 kJ/mol
# GULP energy per Si atom -12388.476492 kJ/mol
# Density = 2.172008 g / cm^3
# Si number density = 21.769630 Si / 1000 Ang^3
#
#
#
# Elastic Constant Matrix: (Units=GPa)
#
#
# Indices 1 2 3 4 5 6 
#
# 1 28.2716 11.9348 -2.9835 0.0000 6.6846 0.0000
# 2 11.9348 47.1787 14.6289 0.0000 -4.3166 0.0000
# 3 -2.9835 14.6289 71.7296 0.0000 -3.4599 0.0000
# 4 0.0000 0.0000 0.0000 22.4693 0.0000 5.0957
# 5 6.6846 -4.3166 -3.4599 0.0000 37.3099 0.0000
# 6 0.0000 0.0000 0.0000 5.0957 0.0000 31.7718
#
#
#
# Elastic Compliance Matrix: (Units=1/GPa)
#
#
# Indices 1 2 3 4 5 6 
#
# 1 0.043414 -0.013050 0.004037 0.000000 -0.008914 0.000000
# 2 -0.013050 0.026731 -0.005758 0.000000 0.004897 0.000000
# 3 0.004037 -0.005758 0.015285 0.000000 0.000028 0.000000
# 4 0.000000 0.000000 0.000000 0.046185 0.000000 -0.007407
# 5 -0.008914 0.004897 0.000028 0.000000 0.028969 0.000000
# 6 0.000000 0.000000 0.000000 -0.007407 0.000000 0.032662
#
#
# Mechanical properties :
#
#
# Convention : Reuss Voigt Hill
#
# Bulk Modulus (GPa) = 17.89298 21.59336 19.74317
# Shear Modulus (GPa) = 20.71114 26.55019 23.63067
#
# Velocity S-wave (km/s) = 3.08779 3.49606 3.29825
# Velocity P-wave (km/s) = 4.57708 5.12222 4.85731
#
# Compressibility (1/GPa) = 0.05588784
#
# Stress axis : x y z
#
# Youngs Moduli (GPa) = 23.03420 37.41017 65.42417
#
# Poissons Ratio (x) = 0.48819 -0.26413
# Poissons Ratio (y) = 0.30059 0.37672
# Poissons Ratio (z) = -0.09299 0.21541
#
# Static dielectric constant tensor:
#      x y z
#    x 4.005670 0.000000 -0.102310 
#    y 0.000000 3.628200 0.000000 
#    z -0.102310 0.000000 3.910470 
# 
# 
# High freq. dielectric constant tensor:
#      x y z
#    x 1.865820 0.000000 -0.000530 
#    y 0.000000 1.826260 0.000000 
#    z -0.000530 0.000000 1.854670 
# 
# From -- ./inp_files/63911.got.cif
#   From: 2010.06.25/outbox.cif.g09.slc.cpg/sg10_32_cif.got.tgz:63911.got - 2010.06.27 22:07:45.
