data_PCOD8064389
_publ_section_title
;
Structure prediction by ZEFSAII (Michael W. Deem and Ramdas Pophale) SiO2 
 PCOD8064389
Probable space group: P 2/M
;
_chemical_formula_sum "Si O2"
_cell_formula_units_Z 28
_cell_length_a 15.998843
_cell_length_b 8.441743
_cell_length_c 20.216608
_cell_angle_alpha 90.000000
_cell_angle_beta 150.190493
_cell_angle_gamma 90.000000
_cell_volume 1357.339321
_symmetry_space_group_name_H-M "P 2/M"
_symmetry_group_IT_number 10
_symmetry_cell_setting 'monoclinic'
loop_
_space_group_symop_operation_xyz
x,y,z
-x,y,-z
-x,-y,-z
x,-y,z
loop_
_atom_site_type_symbol
_atom_site_label
_atom_site_fract_x
_atom_site_fract_y
_atom_site_fract_z
Si Si1 0.406424 0.813423 0.371976
Si Si2 0.445931 0.184887 0.792112
Si Si3 0.197768 0.683532 0.945753
Si Si4 0.867941 0.684406 0.353529
Si Si5 0.999201 0.815253 0.310883
Si Si6 0.045908 0.685838 0.104626
Si Si7 0.374882 0.811922 0.596961
O O1 0.500000 0.740366 0.500000
O O2 0.211805 0.773106 0.242962
O O3 0.492320 0.741902 0.364792
O O4 0.430837 0.000000 0.388192
O O5 0.320926 0.281822 0.752983
O O6 0.425453 0.252774 0.703750
O O7 0.401122 0.000000 0.765546
O O8 0.634995 0.212520 0.946489
O O9 0.247572 0.500000 0.981572
O O10 0.078792 0.715602 0.802053
O O11 0.103745 0.733118 0.948721
O O12 0.890851 0.500000 0.353057
O O13 0.897569 0.785657 0.308219
O O14 0.000000 0.740648 0.500000
O O15 0.189111 0.753091 0.450427
O O16 0.992908 0.000000 0.288549
O O17 0.081419 0.500000 0.129453
O O18 0.000000 0.746872 0.000000
O O19 0.380006 0.000000 0.601550
#
# Coordination Sequence:
#
# PCOD8064389 Si02
#       7
#     4   4   4   4   4   4   4
#     4  10  20  35  57  86 119 153 196 248 300 351
#     4  11  22  39  63  89 118 156 204 248 295 354
#     4  11  24  41  59  87 125 160 200 251 305 357
#     4  11  23  40  63  93 126 157 194 240 298 358
#     4  11  22  40  65  90 121 160 201 247 300 356
#     4  10  22  40  60  84 119 162 204 246 296 357
#     4   9  19  35  58  88 118 151 196 251 299 348
#
# _framework density 20.628592999999999
#
# number of rings (size 3 to 8) (size 9 to 14) (size 15 to 20)
#    0.000    1.571    1.429    3.429    0.000    4.000 
#    0.000    5.000    0.000    0.000    0.000    0.000 
#    0.000    0.000    0.000    0.000    0.000    0.000 
#
# Total GULP energy -347374.939204 kJ/mol
# GULP energy per Si atom -12406.247829 kJ/mol
# Density = 2.058164 g / cm^3
# Si number density = 20.628593 Si / 1000 Ang^3
#
#
#
# Elastic Constant Matrix: (Units=GPa)
#
#
# Indices 1 2 3 4 5 6 
#
# 1 99.9011 16.6652 22.2779 0.0000 5.5528 0.0000
# 2 16.6652 29.7970 11.4094 0.0000 1.8473 0.0000
# 3 22.2779 11.4094 105.5459 0.0000 1.3066 0.0000
# 4 0.0000 0.0000 0.0000 28.7677 0.0000 3.0970
# 5 5.5528 1.8473 1.3066 0.0000 39.7357 0.0000
# 6 0.0000 0.0000 0.0000 3.0970 0.0000 21.2358
#
#
#
# Elastic Compliance Matrix: (Units=1/GPa)
#
#
# Indices 1 2 3 4 5 6 
#
# 1 0.011417 -0.005622 -0.001786 0.000000 -0.001275 0.000000
# 2 -0.005622 0.037868 -0.002896 0.000000 -0.000880 0.000000
# 3 -0.001786 -0.002896 0.010164 0.000000 0.000050 0.000000
# 4 0.000000 0.000000 0.000000 0.035316 0.000000 -0.005150
# 5 -0.001275 -0.000880 0.000050 0.000000 0.025384 0.000000
# 6 0.000000 0.000000 0.000000 -0.005150 0.000000 0.047841
#
#
# Mechanical properties :
#
#
# Convention : Reuss Voigt Hill
#
# Bulk Modulus (GPa) = 25.74651 37.32768 31.53709
# Shear Modulus (GPa) = 24.80823 30.27396 27.54110
#
# Velocity S-wave (km/s) = 3.47163 3.83505 3.65786
# Velocity P-wave (km/s) = 5.34581 6.14366 5.75857
#
# Compressibility (1/GPa) = 0.03884022
#
# Stress axis : x y z
#
# Youngs Moduli (GPa) = 87.58843 26.40727 98.38639
#
# Poissons Ratio (x) = 0.14847 0.17574
# Poissons Ratio (y) = 0.49246 0.28492
# Poissons Ratio (z) = 0.15646 0.07647
#
# Static dielectric constant tensor:
#      x y z
#    x 3.995760 0.000000 -0.067490 
#    y 0.000000 3.445710 0.000000 
#    z -0.067490 0.000000 3.680110 
# 
# 
# High freq. dielectric constant tensor:
#      x y z
#    x 1.821670 0.000000 0.001270 
#    y 0.000000 1.788730 0.000000 
#    z 0.001270 0.000000 1.813570 
# 
# From -- ./inp_files/84981.got.cif
#   From: 2010.06.25/outbox.cif.g09.slc.cpg/sg10_43_cif.got.tgz:84981.got - 2010.06.27 22:07:45.
