data_PCOD8064558
_publ_section_title
;
Structure prediction by ZEFSAII (Michael W. Deem and Ramdas Pophale) SiO2 
 PCOD8064558
Probable space group: P 2/M
;
_chemical_formula_sum "Si O2"
_cell_formula_units_Z 24
_cell_length_a 9.783445
_cell_length_b 8.651616
_cell_length_c 21.119478
_cell_angle_alpha 90.000000
_cell_angle_beta 133.728181
_cell_angle_gamma 90.000000
_cell_volume 1291.774049
_symmetry_space_group_name_H-M "P 2/M"
_symmetry_group_IT_number 10
_symmetry_cell_setting 'monoclinic'
loop_
_space_group_symop_operation_xyz
x,y,z
-x,y,-z
-x,-y,-z
x,-y,z
loop_
_atom_site_type_symbol
_atom_site_label
_atom_site_fract_x
_atom_site_fract_y
_atom_site_fract_z
Si Si1 0.784735 0.182809 0.588082
Si Si2 0.506902 0.681118 0.596509
Si Si3 0.214085 0.318416 0.080583
Si Si4 0.480182 0.318354 0.923380
Si Si5 0.518791 0.180632 0.736664
Si Si6 0.211232 0.181149 0.740656
O O1 0.690355 0.266623 0.497913
O O2 0.679357 0.228229 0.618992
O O3 0.999953 0.241487 0.660793
O O4 0.771868 0.000000 0.573681
O O5 0.536325 0.500000 0.595462
O O6 0.503230 0.719681 0.668812
O O7 0.230263 0.500000 0.100099
O O8 0.335341 0.270846 0.057855
O O9 0.289000 0.225265 0.165354
O O10 0.000000 0.266832 0.000000
O O11 0.458754 0.500000 0.921099
O O12 0.290218 0.255718 0.830123
O O13 0.500000 0.246520 0.000000
O O14 0.339756 0.228617 0.722150
O O15 0.519572 0.000000 0.720330
O O16 0.213776 0.000000 0.752075
#
# Coordination Sequence:
#
# PCOD8064558 Si02
#       6
#     4   4   4   4   4   4
#     4  10  20  37  57  78 105 137 173 214 261 309
#     4  11  22  36  54  79 107 137 174 214 259 309
#     4   9  18  33  51  73 103 136 172 214 257 303
#     4   9  18  32  50  73 102 136 171 209 255 304
#     4  10  20  36  55  77 106 139 175 215 259 307
#     4   9  20  36  55  78 104 136 174 215 258 306
#
# _framework density 18.5791
#
# number of rings (size 3 to 8) (size 9 to 14) (size 15 to 20)
#    0.000    2.333    0.000    3.500    0.000    4.667 
#    0.000    5.000    0.000    0.000    0.000    0.000 
#    0.000    0.000    0.000    0.000    0.000    0.000 
#
# Total GULP energy -297668.905363 kJ/mol
# GULP energy per Si atom -12402.871057 kJ/mol
# Density = 1.853681 g / cm^3
# Si number density = 18.579100 Si / 1000 Ang^3
#
#
#
# Elastic Constant Matrix: (Units=GPa)
#
#
# Indices 1 2 3 4 5 6 
#
# 1 83.7114 16.4124 84.1977 0.0000 4.1918 0.0000
# 2 16.4124 37.2609 28.6698 0.0000 -0.9281 0.0000
# 3 84.1977 28.6698 148.3511 0.0000 4.5183 0.0000
# 4 0.0000 0.0000 0.0000 34.7586 0.0000 0.0060
# 5 4.1918 -0.9281 4.5183 0.0000 43.6654 0.0000
# 6 0.0000 0.0000 0.0000 0.0060 0.0000 15.0335
#
#
#
# Elastic Compliance Matrix: (Units=1/GPa)
#
#
# Indices 1 2 3 4 5 6 
#
# 1 0.027885 -0.000183 -0.015759 0.000000 -0.001050 0.000000
# 2 -0.000183 0.031601 -0.006043 0.000000 0.001315 0.000000
# 3 -0.015759 -0.006043 0.016864 0.000000 -0.000361 0.000000
# 4 0.000000 0.000000 0.000000 0.028770 0.000000 -0.000011
# 5 -0.001050 0.001315 -0.000361 0.000000 0.023067 0.000000
# 6 0.000000 0.000000 0.000000 -0.000011 0.000000 0.066518
#
#
# Mechanical properties :
#
#
# Convention : Reuss Voigt Hill
#
# Bulk Modulus (GPa) = 30.88418 58.65368 44.76893
# Shear Modulus (GPa) = 20.04268 28.02775 24.03522
#
# Velocity S-wave (km/s) = 3.28804 3.88824 3.60066
# Velocity P-wave (km/s) = 5.57441 7.19695 6.43701
#
# Compressibility (1/GPa) = 0.03237903
#
# Stress axis : x y z
#
# Youngs Moduli (GPa) = 35.86216 31.64453 59.29942
#
# Poissons Ratio (x) = 0.00580 0.93448
# Poissons Ratio (y) = 0.00657 0.35835
# Poissons Ratio (z) = 0.56514 0.19123
#
# Static dielectric constant tensor:
#      x y z
#    x 3.486670 0.000000 0.050560 
#    y 0.000000 3.353160 0.000000 
#    z 0.050560 0.000000 3.555390 
# 
# 
# High freq. dielectric constant tensor:
#      x y z
#    x 1.717520 0.000000 -0.000340 
#    y 0.000000 1.720820 0.000000 
#    z -0.000340 0.000000 1.728630 
# 
# From -- ./inp_files/33959.got.cif
#   From: 2010.06.25/outbox.cif.g09.slc.cpg/sg10_17_cif.got.tgz:33959.got - 2010.06.27 22:07:45.
