data_PCOD8064602
_publ_section_title
;
Structure prediction by ZEFSAII (Michael W. Deem and Ramdas Pophale) SiO2 
 PCOD8064602
Probable space group: P 2/M
;
_chemical_formula_sum "Si O2"
_cell_formula_units_Z 30
_cell_length_a 22.090709
_cell_length_b 15.988201
_cell_length_c 8.003678
_cell_angle_alpha 90.000000
_cell_angle_beta 33.120625
_cell_angle_gamma 90.000000
_cell_volume 1544.586807
_symmetry_space_group_name_H-M "P 2/M"
_symmetry_group_IT_number 10
_symmetry_cell_setting 'monoclinic'
loop_
_space_group_symop_operation_xyz
x,y,z
-x,y,-z
-x,-y,-z
x,-y,z
loop_
_atom_site_type_symbol
_atom_site_label
_atom_site_fract_x
_atom_site_fract_y
_atom_site_fract_z
Si Si1 0.141063 0.838072 0.021900
Si Si2 0.749316 0.661871 0.243422
Si Si3 0.000000 0.702923 0.000000
Si Si4 0.400720 0.721864 0.122363
Si Si5 0.972177 0.406404 0.748175
Si Si6 0.461375 0.592534 0.404400
Si Si7 0.796647 0.827907 0.471895
Si Si8 0.904245 0.905038 0.533822
O O1 0.164644 0.892512 0.134446
O O2 0.008455 0.841565 0.289689
O O3 0.184210 0.745315 0.964325
O O4 0.204597 0.873445 0.708743
O O5 0.681888 0.672048 0.568489
O O6 0.661791 0.632596 0.305856
O O7 0.839046 0.590066 0.069147
O O8 0.977265 0.648472 0.218685
O O9 0.888797 0.756170 0.231166
O O10 0.326044 0.792016 0.202274
O O11 0.500000 0.765006 0.000000
O O12 0.451364 0.654102 0.882407
O O13 0.020445 0.500000 0.654151
O O14 0.000000 0.368950 0.500000
O O15 0.500000 0.580698 0.500000
O O16 0.459839 0.500000 0.321640
O O17 0.827034 0.889572 0.551844
O O18 0.947921 0.000000 0.424834
#
# Coordination Sequence:
#
# PCOD8064602 Si02
#       8
#     4   4   2   4   4   4   4   4
#     4  10  20  36  56  84 120 157 193 232 286 360
#     4  10  20  37  59  78 111 159 201 240 299 358
#     4  12  21  38  57  84 114 156 208 236 301 366
#     4   9  20  38  58  84 110 152 204 246 297 350
#     4  11  24  37  53  80 119 161 202 246 294 355
#     4  10  22  37  56  87 116 148 202 264 313 343
#     4  11  21  37  60  88 116 158 197 244 297 364
#     4  11  23  36  59  94 125 155 192 239 305 365
#
# _framework density 19.422668999999999
#
# number of rings (size 3 to 8) (size 9 to 14) (size 15 to 20)
#    0.000    1.600    4.000    1.400    5.600    4.533 
#    0.000    1.333    0.000    0.400    0.000   14.000 
#    0.000    0.000    0.000    0.000    0.000    0.000 
#
# Total GULP energy -371762.303828 kJ/mol
# GULP energy per Si atom -12392.076794 kJ/mol
# Density = 1.937846 g / cm^3
# Si number density = 19.422669 Si / 1000 Ang^3
#
#
#
# Elastic Constant Matrix: (Units=GPa)
#
#
# Indices 1 2 3 4 5 6 
#
# 1 106.6480 40.0256 39.9492 0.0000 9.8905 0.0000
# 2 40.0256 80.2829 38.0153 0.0000 0.4951 0.0000
# 3 39.9492 38.0153 90.7388 0.0000 -6.0285 0.0000
# 4 0.0000 0.0000 0.0000 14.9804 0.0000 -2.8233
# 5 9.8905 0.4951 -6.0285 0.0000 35.3955 0.0000
# 6 0.0000 0.0000 0.0000 -2.8233 0.0000 19.7672
#
#
#
# Elastic Compliance Matrix: (Units=1/GPa)
#
#
# Indices 1 2 3 4 5 6 
#
# 1 0.013009 -0.004507 -0.004123 0.000000 -0.004274 0.000000
# 2 -0.004507 0.017163 -0.005197 0.000000 0.000134 0.000000
# 3 -0.004123 -0.005197 0.015268 0.000000 0.003825 0.000000
# 4 0.000000 0.000000 0.000000 0.068601 0.000000 0.009798
# 5 -0.004274 0.000134 0.003825 0.000000 0.030096 0.000000
# 6 0.000000 0.000000 0.000000 0.009798 0.000000 0.051988
#
#
# Mechanical properties :
#
#
# Convention : Reuss Voigt Hill
#
# Bulk Modulus (GPa) = 56.22834 57.07220 56.65027
# Shear Modulus (GPa) = 21.76675 24.67393 23.22034
#
# Velocity S-wave (km/s) = 3.35130 3.56809 3.46139
# Velocity P-wave (km/s) = 6.63232 6.81345 6.72349
#
# Compressibility (1/GPa) = 0.01778462
#
# Stress axis : x y z
#
# Youngs Moduli (GPa) = 76.86970 58.26440 65.49846
#
# Poissons Ratio (x) = 0.26260 0.27006
# Poissons Ratio (y) = 0.34645 0.34042
# Poissons Ratio (z) = 0.31695 0.30282
#
# Static dielectric constant tensor:
#      x y z
#    x 3.908430 0.000000 -0.087400 
#    y 0.000000 3.422040 0.000000 
#    z -0.087400 0.000000 3.749310 
# 
# 
# High freq. dielectric constant tensor:
#      x y z
#    x 1.767490 0.000000 0.008820 
#    y 0.000000 1.734390 0.000000 
#    z 0.008820 0.000000 1.743060 
# 
# From -- ./inp_files/36299.got.cif
#   From: 2010.06.25/outbox.cif.g09.slc.cpg/sg10_19_cif.got.tgz:36299.got - 2010.06.27 22:07:45.
