data_PCOD8064009
_publ_section_title
;
Structure prediction by ZEFSAII (Michael W. Deem and Ramdas Pophale) SiO2 
 PCOD8064009
Probable space group: P 2/M
;
_chemical_formula_sum "Si O2"
_cell_formula_units_Z 32
_cell_length_a 21.324350
_cell_length_b 9.074765
_cell_length_c 27.971214
_cell_angle_alpha 90.000000
_cell_angle_beta 161.250293
_cell_angle_gamma 90.000000
_cell_volume 1739.863430
_symmetry_space_group_name_H-M "P 2/M"
_symmetry_group_IT_number 10
_symmetry_cell_setting 'monoclinic'
loop_
_space_group_symop_operation_xyz
x,y,z
-x,y,-z
-x,-y,-z
x,-y,z
loop_
_atom_site_type_symbol
_atom_site_label
_atom_site_fract_x
_atom_site_fract_y
_atom_site_fract_z
Si Si1 0.913684 0.326981 0.345732
Si Si2 0.581514 0.327162 0.666146
Si Si3 0.330013 0.662563 0.915888
Si Si4 0.077878 0.672759 0.160805
Si Si5 0.354422 0.673250 0.687873
Si Si6 0.586410 0.174661 0.170703
Si Si7 0.341733 0.674216 0.172944
Si Si8 0.325169 0.834405 0.411160
O O1 0.875109 0.500000 0.327129
O O2 0.861792 0.287382 0.252761
O O3 0.780661 0.236736 0.286305
O O4 0.135409 0.282893 0.515535
O O5 0.538035 0.500000 0.634363
O O6 0.776651 0.289893 0.777550
O O7 0.608580 0.262918 0.738860
O O8 0.392322 0.248039 0.507573
O O9 0.298097 0.500000 0.915560
O O10 0.500000 0.655155 0.000000
O O11 0.389367 0.775542 0.000521
O O12 0.073843 0.500000 0.168575
O O13 0.140577 0.752064 0.255014
O O14 0.866435 0.736561 0.994433
O O15 0.372398 0.500000 0.711907
O O16 0.425512 0.764397 0.784574
O O17 0.490701 0.722534 0.742576
O O18 0.595564 0.000000 0.177688
O O19 0.324726 0.500000 0.164714
O O20 0.500000 0.830160 0.500000
O O21 0.263858 0.000000 0.379957
#
# Coordination Sequence:
#
# PCOD8064009 Si02
#       8
#     4   4   4   4   4   4   4   4
#     4   9  18  33  54  76  96 124 162 201 242 287
#     4   9  16  29  51  76 100 125 158 203 249 289
#     4   8  15  30  51  74  98 123 156 198 241 286
#     4   9  16  29  51  76  99 125 159 201 247 289
#     4  10  20  35  52  70  97 131 165 201 240 286
#     4  11  21  32  50  76 102 128 160 198 241 289
#     4   9  18  32  51  74  97 125 164 205 243 287
#     4   9  17  29  46  71 101 130 162 199 239 287
#
# _framework density 18.392247999999999
#
# number of rings (size 3 to 8) (size 9 to 14) (size 15 to 20)
#    0.000    2.750    0.000    3.000    0.000    7.250 
#    0.000    3.125    0.000    7.500    0.000    0.000 
#    0.000    0.000    0.000    0.000    0.000    0.000 
#
# Total GULP energy -396745.049840 kJ/mol
# GULP energy per Si atom -12398.282808 kJ/mol
# Density = 1.835039 g / cm^3
# Si number density = 18.392248 Si / 1000 Ang^3
#
#
#
# Elastic Constant Matrix: (Units=GPa)
#
#
# Indices 1 2 3 4 5 6 
#
# 1 87.9312 44.8101 73.3030 0.0000 -18.3751 0.0000
# 2 44.8101 72.1019 43.8763 0.0000 -13.5244 0.0000
# 3 73.3030 43.8763 108.6342 0.0000 -39.1971 0.0000
# 4 0.0000 0.0000 0.0000 6.6251 0.0000 0.6909
# 5 -18.3751 -13.5244 -39.1971 0.0000 26.7056 0.0000
# 6 0.0000 0.0000 0.0000 0.6909 0.0000 8.3183
#
#
#
# Elastic Compliance Matrix: (Units=1/GPa)
#
#
# Indices 1 2 3 4 5 6 
#
# 1 0.033568 -0.008536 -0.026422 0.000000 -0.020006 0.000000
# 2 -0.008536 0.020704 -0.001995 0.000000 0.001684 0.000000
# 3 -0.026422 -0.001995 0.044462 0.000000 0.046069 0.000000
# 4 0.000000 0.000000 0.000000 0.152259 0.000000 -0.012646
# 5 -0.020006 0.001684 0.046069 0.000000 0.092150 0.000000
# 6 0.000000 0.000000 0.000000 -0.012646 0.000000 0.121267
#
#
# Mechanical properties :
#
#
# Convention : Reuss Voigt Hill
#
# Bulk Modulus (GPa) = 40.27539 65.84956 53.06248
# Shear Modulus (GPa) = 9.14761 15.44167 12.29464
#
# Velocity S-wave (km/s) = 2.23258 2.90069 2.58828
# Velocity P-wave (km/s) = 5.34710 6.86289 6.15186
#
# Compressibility (1/GPa) = 0.02482906
#
# Stress axis : x y z
#
# Youngs Moduli (GPa) = 29.79035 48.29986 22.49126
#
# Poissons Ratio (x) = 0.41230 0.59425
# Poissons Ratio (y) = 0.25430 0.04486
# Poissons Ratio (z) = 0.78711 0.09633
#
# Static dielectric constant tensor:
#      x y z
#    x 3.231820 0.000000 -0.310350 
#    y 0.000000 3.186960 0.000000 
#    z -0.310350 0.000000 3.727790 
# 
# 
# High freq. dielectric constant tensor:
#      x y z
#    x 1.689830 0.000000 -0.024910 
#    y 0.000000 1.688800 0.000000 
#    z -0.024910 0.000000 1.722460 
# 
# From -- ./inp_files/93741.got.cif
#   From: 2010.06.25/outbox.cif.g09.slc.cpg/sg10_47_cif.got.tgz:93741.got - 2010.06.27 22:07:45.
