data_PCOD8064711
_publ_section_title
;
Structure prediction by ZEFSAII (Michael W. Deem and Ramdas Pophale) SiO2 
 PCOD8064711
Probable space group: P 2/M
;
_chemical_formula_sum "Si O2"
_cell_formula_units_Z 32
_cell_length_a 14.762736
_cell_length_b 12.768759
_cell_length_c 8.730462
_cell_angle_alpha 90.000000
_cell_angle_beta 88.248699
_cell_angle_gamma 90.000000
_cell_volume 1644.939246
_symmetry_space_group_name_H-M "P 2/M"
_symmetry_group_IT_number 10
_symmetry_cell_setting 'monoclinic'
loop_
_space_group_symop_operation_xyz
x,y,z
-x,y,-z
-x,-y,-z
x,-y,z
loop_
_atom_site_type_symbol
_atom_site_label
_atom_site_fract_x
_atom_site_fract_y
_atom_site_fract_z
Si Si1 0.416514 0.270859 0.908282
Si Si2 0.084489 0.306188 0.894036
Si Si3 0.785402 0.626465 0.590384
Si Si4 0.482510 0.121726 0.329195
Si Si5 0.739920 0.618419 0.253548
Si Si6 0.129882 0.119018 0.100453
Si Si7 0.036909 0.753655 0.344672
Si Si8 0.309222 0.790841 0.203998
O O1 0.455566 0.180634 0.797362
O O2 0.357796 0.347053 0.805375
O O3 0.500000 0.325049 0.000000
O O4 0.348171 0.223413 0.033382
O O5 0.179234 0.369643 0.877540
O O6 0.048096 0.307820 0.723342
O O7 0.114230 0.192103 0.954034
O O8 0.000000 0.353469 0.000000
O O9 0.782632 0.500000 0.608952
O O10 0.762645 0.668163 0.419384
O O11 0.883530 0.669599 0.634769
O O12 0.714315 0.679935 0.712490
O O13 0.500000 0.162038 0.500000
O O14 0.377304 0.143984 0.305578
O O15 0.505626 0.000000 0.311055
O O16 0.725983 0.500000 0.293462
O O17 0.056232 0.150410 0.230706
O O18 0.223606 0.135336 0.183514
O O19 0.117509 0.000000 0.047483
O O20 0.000000 0.805558 0.500000
#
# Coordination Sequence:
#
# PCOD8064711 Si02
#       8
#     4   4   4   4   4   4   4   4
#     4  10  22  39  60  89 121 155 195 245 295 346
#     4  10  21  38  57  84 118 154 193 248 296 348
#     4  10  22  38  61  87 117 158 198 245 303 357
#     4  10  21  38  63  91 120 154 195 244 297 350
#     4  11  22  39  60  85 119 159 202 244 301 359
#     4  10  21  37  58  82 115 159 196 236 297 355
#     4  10  20  36  58  82 118 149 196 251 288 351
#     4  10  20  38  61  86 119 152 194 251 291 351
#
# _framework density 19.453606000000001
#
# number of rings (size 3 to 8) (size 9 to 14) (size 15 to 20)
#    0.000    1.875    2.500    1.125    0.000    7.000 
#    0.000    1.875    0.000    6.750    0.000    0.000 
#    0.000    0.000    0.000    0.000    0.000    0.000 
#
# Total GULP energy -396447.602557 kJ/mol
# GULP energy per Si atom -12388.987580 kJ/mol
# Density = 1.940933 g / cm^3
# Si number density = 19.453606 Si / 1000 Ang^3
#
#
#
# Elastic Constant Matrix: (Units=GPa)
#
#
# Indices 1 2 3 4 5 6 
#
# 1 102.9985 26.3797 40.1880 0.0000 13.3915 0.0000
# 2 26.3797 66.0363 32.5045 0.0000 -0.0703 0.0000
# 3 40.1880 32.5045 116.3962 0.0000 9.8771 0.0000
# 4 0.0000 0.0000 0.0000 26.0333 0.0000 3.3140
# 5 13.3915 -0.0703 9.8771 0.0000 38.9955 0.0000
# 6 0.0000 0.0000 0.0000 3.3140 0.0000 14.5995
#
#
#
# Elastic Compliance Matrix: (Units=1/GPa)
#
#
# Indices 1 2 3 4 5 6 
#
# 1 0.012186 -0.003414 -0.002962 0.000000 -0.003441 0.000000
# 2 -0.003414 0.018578 -0.004202 0.000000 0.002270 0.000000
# 3 -0.002962 -0.004202 0.010937 0.000000 -0.001760 0.000000
# 4 0.000000 0.000000 0.000000 0.039555 0.000000 -0.008979
# 5 -0.003441 0.002270 -0.001760 0.000000 0.027276 0.000000
# 6 0.000000 0.000000 0.000000 -0.008979 0.000000 0.070534
#
#
# Mechanical properties :
#
#
# Convention : Reuss Voigt Hill
#
# Bulk Modulus (GPa) = 48.67347 53.73060 51.20203
# Shear Modulus (GPa) = 24.14647 28.34958 26.24802
#
# Velocity S-wave (km/s) = 3.52694 3.82159 3.67722
# Velocity P-wave (km/s) = 6.45448 6.86677 6.66382
#
# Compressibility (1/GPa) = 0.02054507
#
# Stress axis : x y z
#
# Youngs Moduli (GPa) = 82.05886 53.82834 91.43321
#
# Poissons Ratio (x) = 0.18375 0.27085
# Poissons Ratio (y) = 0.28012 0.38420
# Poissons Ratio (z) = 0.24308 0.22618
#
# Static dielectric constant tensor:
#      x y z
#    x 3.930750 0.000000 0.183970 
#    y 0.000000 3.204640 0.000000 
#    z 0.183970 0.000000 3.782670 
# 
# 
# High freq. dielectric constant tensor:
#      x y z
#    x 1.775020 0.000000 0.011060 
#    y 0.000000 1.723800 0.000000 
#    z 0.011060 0.000000 1.774770 
# 
# From -- ./inp_files/28578.got.cif
#   From: 2010.06.25/outbox.cif.g09.slc.cpg/sg10_15_cif.got.tgz:28578.got - 2010.06.27 22:07:45.
