data_PCOD8064519
_publ_section_title
;
Structure prediction by ZEFSAII (Michael W. Deem and Ramdas Pophale) SiO2 
 PCOD8064519
Probable space group: P 2/M
;
_chemical_formula_sum "Si O2"
_cell_formula_units_Z 32
_cell_length_a 27.307086
_cell_length_b 9.140335
_cell_length_c 11.827529
_cell_angle_alpha 90.000000
_cell_angle_beta 148.204315
_cell_angle_gamma 90.000000
_cell_volume 1555.438780
_symmetry_space_group_name_H-M "P 2/M"
_symmetry_group_IT_number 10
_symmetry_cell_setting 'monoclinic'
loop_
_space_group_symop_operation_xyz
x,y,z
-x,y,-z
-x,-y,-z
x,-y,z
loop_
_atom_site_type_symbol
_atom_site_label
_atom_site_fract_x
_atom_site_fract_y
_atom_site_fract_z
Si Si1 0.886612 0.335202 0.015925
Si Si2 0.254209 0.669303 0.904488
Si Si3 0.613126 0.666586 0.035442
Si Si4 0.089232 0.333151 0.428973
Si Si5 0.302903 0.839871 0.598535
Si Si6 0.399158 0.327822 0.589354
Si Si7 0.723971 0.173951 0.818499
Si Si8 0.897516 0.762466 0.793868
O O1 0.867546 0.500000 0.023438
O O2 0.810368 0.223845 0.911475
O O3 0.889918 0.345652 0.886109
O O4 0.986275 0.271038 0.254136
O O5 0.238568 0.500000 0.909671
O O6 0.347529 0.682643 0.013647
O O7 0.264417 0.771696 0.032001
O O8 0.168307 0.737667 0.663486
O O9 0.626509 0.500000 0.105102
O O10 0.505401 0.709567 0.823679
O O11 0.667862 0.775601 0.223771
O O12 0.088630 0.500000 0.462299
O O13 0.113741 0.324299 0.344991
O O14 0.336068 0.728673 0.567850
O O15 0.191577 0.868212 0.374974
O O16 0.348819 0.000000 0.671672
O O17 0.382011 0.500000 0.540270
O O18 0.369335 0.245127 0.416276
O O19 0.716346 0.000000 0.799946
O O20 0.000000 0.842015 0.000000
#
# Coordination Sequence:
#
# PCOD8064519 Si02
#       8
#     4   4   4   4   4   4   4   4
#     4  10  20  36  63  94 124 162 204 250 301 361
#     4  10  21  41  66  89 119 158 207 260 304 360
#     4  10  23  43  68  94 120 156 206 258 307 362
#     4   9  18  35  62  95 124 157 204 254 301 354
#     4  12  24  38  62  96 134 169 198 240 304 370
#     4  11  24  43  67  92 119 158 207 258 308 361
#     4  12  26  42  60  87 124 163 205 254 311 371
#     4  10  20  35  60  96 133 164 198 244 298 361
#
# _framework density 20.572970999999999
#
# number of rings (size 3 to 8) (size 9 to 14) (size 15 to 20)
#    0.000    1.500    2.500    2.625    0.000    6.750 
#    0.000    7.500    0.000    0.000    0.000    0.000 
#    0.000    0.000    0.000    0.000    0.000    0.000 
#
# Total GULP energy -396619.524698 kJ/mol
# GULP energy per Si atom -12394.360147 kJ/mol
# Density = 2.052615 g / cm^3
# Si number density = 20.572971 Si / 1000 Ang^3
#
#
#
# Elastic Constant Matrix: (Units=GPa)
#
#
# Indices 1 2 3 4 5 6 
#
# 1 81.4922 39.1120 61.6988 0.0000 -3.7028 0.0000
# 2 39.1120 113.4393 57.1885 0.0000 -1.6261 0.0000
# 3 61.6988 57.1885 139.6114 0.0000 6.0506 0.0000
# 4 0.0000 0.0000 0.0000 12.2644 0.0000 1.4150
# 5 -3.7028 -1.6261 6.0506 0.0000 39.8202 0.0000
# 6 0.0000 0.0000 0.0000 1.4150 0.0000 5.5605
#
#
#
# Elastic Compliance Matrix: (Units=1/GPa)
#
#
# Indices 1 2 3 4 5 6 
#
# 1 0.019509 -0.002869 -0.007569 0.000000 0.002847 0.000000
# 2 -0.002869 0.011584 -0.003509 0.000000 0.000739 0.000000
# 3 -0.007569 -0.003509 0.012062 0.000000 -0.002680 0.000000
# 4 0.000000 0.000000 0.000000 0.084003 0.000000 -0.021376
# 5 0.002847 0.000739 -0.002680 0.000000 0.025815 0.000000
# 6 0.000000 0.000000 0.000000 -0.021376 0.000000 0.185280
#
#
# Mechanical properties :
#
#
# Convention : Reuss Voigt Hill
#
# Bulk Modulus (GPa) = 65.53822 72.28238 68.91030
# Shear Modulus (GPa) = 13.46854 23.29858 18.38356
#
# Velocity S-wave (km/s) = 2.56143 3.36889 2.99252
# Velocity P-wave (km/s) = 6.37758 7.09531 6.74600
#
# Compressibility (1/GPa) = 0.01525827
#
# Stress axis : x y z
#
# Youngs Moduli (GPa) = 51.25945 86.32360 82.90812
#
# Poissons Ratio (x) = 0.24770 0.62757
# Poissons Ratio (y) = 0.14708 0.29094
# Poissons Ratio (z) = 0.38801 0.30293
#
# Static dielectric constant tensor:
#      x y z
#    x 3.669280 0.000000 0.162420 
#    y 0.000000 3.419070 0.000000 
#    z 0.162420 0.000000 4.266280 
# 
# 
# High freq. dielectric constant tensor:
#      x y z
#    x 1.801630 0.000000 0.007500 
#    y 0.000000 1.779150 0.000000 
#    z 0.007500 0.000000 1.821810 
# 
# From -- ./inp_files/58294.got.cif
#   From: 2010.06.25/outbox.cif.g09.slc.cpg/sg10_30_cif.got.tgz:58294.got - 2010.06.27 22:07:45.
