data_PCOD8064902
_publ_section_title
;
Structure prediction by ZEFSAII (Michael W. Deem and Ramdas Pophale) SiO2 
 PCOD8064902
Probable space group: P 2/M
;
_chemical_formula_sum "Si O2"
_cell_formula_units_Z 18
_cell_length_a 8.423900
_cell_length_b 21.396780
_cell_length_c 9.674340
_cell_angle_alpha 90.000000
_cell_angle_beta 148.673360
_cell_angle_gamma 90.000000
_cell_volume 906.601510
_symmetry_space_group_name_H-M "P 2/M"
_symmetry_group_IT_number 10
_symmetry_cell_setting 'monoclinic'
loop_
_space_group_symop_operation_xyz
x,y,z
-x,y,-z
-x,-y,-z
x,-y,z
loop_
_atom_site_type_symbol
_atom_site_label
_atom_site_fract_x
_atom_site_fract_y
_atom_site_fract_z
Si Si1 0.159604 0.768247 0.765680
Si Si2 0.228423 0.628399 0.898538
Si Si3 0.857158 0.135279 0.743806
Si Si4 0.578427 0.572767 0.401812
Si Si5 0.854577 0.000000 0.744627
O O1 0.175148 0.702314 0.854976
O O2 0.000000 0.759362 0.500000
O O3 0.966267 0.814471 0.715450
O O4 0.500000 0.795577 0.000000
O O5 0.922328 0.593502 0.623283
O O6 0.500000 0.606752 0.000000
O O7 0.328940 0.610093 0.127368
O O8 0.500000 0.142498 0.500000
O O9 0.946278 0.066590 0.743567
O O10 0.000000 0.146300 0.000000
O O11 0.500000 0.589329 0.500000
O O12 0.540837 0.500000 0.341392
O O13 0.500000 0.000000 0.500000
O O14 0.000000 0.000000 0.000000
#
# Coordination Sequence:
#
# PCOD8064902 Si02
#       5
#     4   4   4   4   2
#     4  11  23  40  57  82 120 152 185 237 289 329
#     4  11  23  40  60  83 114 153 190 228 279 341
#     4  10  20  36  60  87 113 151 197 234 277 336
#     4  11  24  41  61  87 116 144 182 237 289 332
#     4   8  16  32  54  82 116 146 184 238 280 322
#
# _framework density 19.854368999999998
#
# number of rings (size 3 to 8) (size 9 to 14) (size 15 to 20)
#    0.000    1.556    0.000    6.000    0.000    7.111 
#    0.000    1.111    0.000    0.000    0.000    0.000 
#    0.000    0.000    0.000    0.000    0.000    0.000 
#
# Total GULP energy -223158.965039 kJ/mol
# GULP energy per Si atom -12397.720280 kJ/mol
# Density = 1.980918 g / cm^3
# Si number density = 19.854369 Si / 1000 Ang^3
#
#
#
# Elastic Constant Matrix: (Units=GPa)
#
#
# Indices 1 2 3 4 5 6 
#
# 1 75.8175 70.9837 25.1903 0.0000 2.5944 0.0000
# 2 70.9837 137.7786 54.2782 0.0000 -16.0253 0.0000
# 3 25.1903 54.2782 137.1112 0.0000 3.0776 0.0000
# 4 0.0000 0.0000 0.0000 29.0832 0.0000 5.3015
# 5 2.5944 -16.0253 3.0776 0.0000 31.6200 0.0000
# 6 0.0000 0.0000 0.0000 5.3015 0.0000 14.6896
#
#
#
# Elastic Compliance Matrix: (Units=1/GPa)
#
#
# Indices 1 2 3 4 5 6 
#
# 1 0.028613 -0.016632 0.001573 0.000000 -0.010930 0.000000
# 2 -0.016632 0.019026 -0.004733 0.000000 0.011468 0.000000
# 3 0.001573 -0.004733 0.008954 0.000000 -0.003399 0.000000
# 4 0.000000 0.000000 0.000000 0.036806 0.000000 -0.013283
# 5 -0.010930 0.011468 -0.003399 0.000000 0.038665 0.000000
# 6 0.000000 0.000000 0.000000 -0.013283 0.000000 0.072869
#
#
# Mechanical properties :
#
#
# Convention : Reuss Voigt Hill
#
# Bulk Modulus (GPa) = 58.79862 72.40130 65.59996
# Shear Modulus (GPa) = 19.98499 28.42888 24.20694
#
# Velocity S-wave (km/s) = 3.17610 3.78811 3.49553
# Velocity P-wave (km/s) = 6.56730 7.46180 7.02879
#
# Compressibility (1/GPa) = 0.01700720
#
# Stress axis : x y z
#
# Youngs Moduli (GPa) = 34.94922 52.56094 111.67575
#
# Poissons Ratio (x) = 0.87421 -0.17564
# Poissons Ratio (y) = 0.58129 0.52860
# Poissons Ratio (z) = -0.05497 0.24879
#
# Static dielectric constant tensor:
#      x y z
#    x 3.478430 0.000000 0.104990 
#    y 0.000000 3.953600 0.000000 
#    z 0.104990 0.000000 3.893630 
# 
# 
# High freq. dielectric constant tensor:
#      x y z
#    x 1.753670 0.000000 0.008140 
#    y 0.000000 1.786830 0.000000 
#    z 0.008140 0.000000 1.803050 
# 
# From -- ./inp_files/4258.got.cif
#   From: 2010.06.25/outbox.cif.g09.slc.cpg/sg10_3_cif.got.tgz:4258.got - 2010.06.27 22:07:45.
