data_PCOD8064042
_publ_section_title
;
Structure prediction by ZEFSAII (Michael W. Deem and Ramdas Pophale) SiO2 
 PCOD8064042
Probable space group: P 2/M
;
_chemical_formula_sum "Si O2"
_cell_formula_units_Z 30
_cell_length_a 10.890633
_cell_length_b 9.340065
_cell_length_c 18.165698
_cell_angle_alpha 90.000000
_cell_angle_beta 118.770704
_cell_angle_gamma 90.000000
_cell_volume 1619.694989
_symmetry_space_group_name_H-M "P 2/M"
_symmetry_group_IT_number 10
_symmetry_cell_setting 'monoclinic'
loop_
_space_group_symop_operation_xyz
x,y,z
-x,y,-z
-x,-y,-z
x,-y,z
loop_
_atom_site_type_symbol
_atom_site_label
_atom_site_fract_x
_atom_site_fract_y
_atom_site_fract_z
Si Si1 0.043651 0.842156 0.172686
Si Si2 0.456315 0.834899 0.651703
Si Si3 0.270440 0.164897 0.894041
Si Si4 0.726673 0.670044 0.681248
Si Si5 0.000000 0.748877 0.000000
Si Si6 0.663531 0.158621 0.528229
Si Si7 0.299644 0.660865 0.046247
Si Si8 0.533123 0.164779 0.181278
O O1 0.145850 0.719120 0.230566
O O2 0.029320 0.844894 0.080077
O O3 0.893912 0.810597 0.166651
O O4 0.098232 0.000000 0.211646
O O5 0.585802 0.730081 0.675833
O O6 0.330359 0.800212 0.557264
O O7 0.401381 0.811102 0.718665
O O8 0.505891 0.000000 0.654060
O O9 0.350043 0.213888 0.843328
O O10 0.301982 0.000000 0.922957
O O11 0.326330 0.259611 0.977065
O O12 0.722195 0.500000 0.677577
O O13 0.747011 0.729733 0.603658
O O14 0.137337 0.654045 0.023682
O O15 0.500000 0.161942 0.500000
O O16 0.726500 0.000000 0.559852
O O17 0.354837 0.500000 0.054213
O O18 0.391871 0.742208 0.133965
O O19 0.490531 0.000000 0.157341
#
# Coordination Sequence:
#
# PCOD8064042 Si02
#       8
#     4   4   4   4   2   4   4   4
#     4  10  20  35  54  73  96 129 168 206 246 292
#     4   9  18  32  52  76 101 130 162 201 248 294
#     4   9  20  37  54  71  94 129 170 210 248 286
#     4  11  21  31  48  76 106 133 162 197 243 298
#     4  10  22  36  52  74 102 132 166 206 244 286
#     4   8  15  30  50  72  99 130 163 199 242 292
#     4  11  22  34  50  73 102 135 167 201 244 292
#     4  10  20  35  54  75  99 127 165 209 248 290
#
# _framework density 18.522005
#
# number of rings (size 3 to 8) (size 9 to 14) (size 15 to 20)
#    0.000    2.267    0.000    4.000    0.000   11.467 
#    0.000    0.000    0.000    0.800    0.000    5.600 
#    0.000    0.000    0.000    0.000    0.000    0.000 
#
# Total GULP energy -371906.717871 kJ/mol
# GULP energy per Si atom -12396.890596 kJ/mol
# Density = 1.847985 g / cm^3
# Si number density = 18.522005 Si / 1000 Ang^3
#
#
#
# Elastic Constant Matrix: (Units=GPa)
#
#
# Indices 1 2 3 4 5 6 
#
# 1 69.8769 30.7025 47.4120 0.0000 -14.9997 0.0000
# 2 30.7025 110.8774 51.1861 0.0000 -2.2005 0.0000
# 3 47.4120 51.1861 127.0595 0.0000 -17.7813 0.0000
# 4 0.0000 0.0000 0.0000 8.0776 0.0000 3.8495
# 5 -14.9997 -2.2005 -17.7813 0.0000 24.7573 0.0000
# 6 0.0000 0.0000 0.0000 3.8495 0.0000 12.0531
#
#
#
# Elastic Compliance Matrix: (Units=1/GPa)
#
#
# Indices 1 2 3 4 5 6 
#
# 1 0.021272 -0.003213 -0.005425 0.000000 0.008706 0.000000
# 2 -0.003213 0.011702 -0.004049 0.000000 -0.003815 0.000000
# 3 -0.005425 -0.004049 0.012246 0.000000 0.005149 0.000000
# 4 0.000000 0.000000 0.000000 0.146026 0.000000 -0.046638
# 5 0.008706 -0.003815 0.005149 0.000000 0.049026 0.000000
# 6 0.000000 0.000000 0.000000 -0.046638 0.000000 0.097862
#
#
# Mechanical properties :
#
#
# Convention : Reuss Voigt Hill
#
# Bulk Modulus (GPa) = 50.38658 62.93499 56.66079
# Shear Modulus (GPa) = 13.50897 20.87848 17.19372
#
# Velocity S-wave (km/s) = 2.70357 3.36106 3.05008
# Velocity P-wave (km/s) = 6.08346 7.00818 6.56213
#
# Compressibility (1/GPa) = 0.01984655
#
# Stress axis : x y z
#
# Youngs Moduli (GPa) = 47.00913 85.45338 81.65677
#
# Poissons Ratio (x) = 0.27458 0.44298
# Poissons Ratio (y) = 0.15105 0.33064
# Poissons Ratio (z) = 0.25502 0.34601
#
# Static dielectric constant tensor:
#      x y z
#    x 3.228890 0.000000 -0.205340 
#    y 0.000000 3.252560 0.000000 
#    z -0.205340 0.000000 3.767000 
# 
# 
# High freq. dielectric constant tensor:
#      x y z
#    x 1.685870 0.000000 -0.013110 
#    y 0.000000 1.709780 0.000000 
#    z -0.013110 0.000000 1.726430 
# 
# From -- ./inp_files/76223.got.cif
#   From: 2010.06.25/outbox.cif.g09.slc.cpg/sg10_39_cif.got.tgz:76223.got - 2010.06.27 22:07:45.
