data_PCOD8064045
_publ_section_title
;
Structure prediction by ZEFSAII (Michael W. Deem and Ramdas Pophale) SiO2 
 PCOD8064045
Probable space group: P 2/M
;
_chemical_formula_sum "Si O2"
_cell_formula_units_Z 32
_cell_length_a 21.347904
_cell_length_b 9.141346
_cell_length_c 11.869933
_cell_angle_alpha 90.000000
_cell_angle_beta 127.731481
_cell_angle_gamma 90.000000
_cell_volume 1832.012022
_symmetry_space_group_name_H-M "P 2/M"
_symmetry_group_IT_number 10
_symmetry_cell_setting 'monoclinic'
loop_
_space_group_symop_operation_xyz
x,y,z
-x,y,-z
-x,-y,-z
x,-y,z
loop_
_atom_site_type_symbol
_atom_site_label
_atom_site_fract_x
_atom_site_fract_y
_atom_site_fract_z
Si Si1 0.346387 0.671006 0.775091
Si Si2 0.330591 0.835144 0.414721
Si Si3 0.931629 0.827276 0.781632
Si Si4 0.459981 0.171878 0.732044
Si Si5 0.619327 0.332462 0.930883
Si Si6 0.738890 0.330816 0.866328
Si Si7 0.780903 0.832874 0.496925
Si Si8 0.104031 0.173098 0.008873
O O1 0.350996 0.500000 0.753915
O O2 0.418817 0.749039 0.792043
O O3 0.261367 0.731110 0.641043
O O4 0.353531 0.706907 0.913954
O O5 0.413416 0.792832 0.565250
O O6 0.315062 0.727431 0.294807
O O7 0.261065 0.820556 0.428775
O O8 0.333601 0.000000 0.370466
O O9 0.871376 0.776561 0.616339
O O10 0.022359 0.782635 0.853994
O O11 0.926540 0.000000 0.788011
O O12 0.903745 0.766195 0.872230
O O13 0.548564 0.228008 0.814060
O O14 0.458374 0.000000 0.755797
O O15 0.590240 0.500000 0.890771
O O16 0.693719 0.302899 0.933008
O O17 0.754997 0.500000 0.861840
O O18 0.822585 0.249942 0.970521
O O19 0.777950 0.000000 0.449955
O O20 0.118448 0.000000 0.021157
#
# Coordination Sequence:
#
# PCOD8064045 Si02
#       8
#     4   4   4   4   4   4   4   4
#     4  10  20  35  54  74  99 132 167 205 251 299
#     4   9  18  33  51  73 102 132 160 197 251 305
#     4   8  14  27  51  77 102 131 162 197 246 300
#     4  10  21  36  56  79  99 121 161 215 258 293
#     4  10  23  39  51  68  99 138 172 203 248 297
#     4  11  22  34  49  71 103 138 170 205 240 289
#     4   9  16  30  52  78 104 128 161 207 250 291
#     4   9  16  30  51  74 101 135 166 196 244 300
#
# _framework density 17.467134999999999
#
# number of rings (size 3 to 8) (size 9 to 14) (size 15 to 20)
#    0.000    2.500    1.250    3.000    0.000    6.500 
#    0.000    4.375    0.000    0.750    0.000    5.250 
#    0.000    0.000    0.000    0.000    0.000    0.000 
#
# Total GULP energy -396741.267174 kJ/mol
# GULP energy per Si atom -12398.164599 kJ/mol
# Density = 1.742738 g / cm^3
# Si number density = 17.467135 Si / 1000 Ang^3
#
#
#
# Elastic Constant Matrix: (Units=GPa)
#
#
# Indices 1 2 3 4 5 6 
#
# 1 90.5166 46.5958 53.5396 0.0000 19.2093 0.0000
# 2 46.5958 74.2898 37.9129 0.0000 11.5879 0.0000
# 3 53.5396 37.9129 78.9041 0.0000 28.2644 0.0000
# 4 0.0000 0.0000 0.0000 18.6006 0.0000 4.2509
# 5 19.2093 11.5879 28.2644 0.0000 27.1955 0.0000
# 6 0.0000 0.0000 0.0000 4.2509 0.0000 13.2947
#
#
#
# Elastic Compliance Matrix: (Units=1/GPa)
#
#
# Indices 1 2 3 4 5 6 
#
# 1 0.021559 -0.008059 -0.010405 0.000000 -0.000980 0.000000
# 2 -0.008059 0.020921 -0.005464 0.000000 0.002457 0.000000
# 3 -0.010405 -0.005464 0.030098 0.000000 -0.021603 0.000000
# 4 0.000000 0.000000 0.000000 0.058000 0.000000 -0.018545
# 5 -0.000980 0.002457 -0.021603 0.000000 0.058868 0.000000
# 6 0.000000 0.000000 0.000000 -0.018545 0.000000 0.081148
#
#
# Mechanical properties :
#
#
# Convention : Reuss Voigt Hill
#
# Bulk Modulus (GPa) = 40.45165 57.75632 49.10398
# Shear Modulus (GPa) = 15.30502 18.86230 17.08366
#
# Velocity S-wave (km/s) = 2.96331 3.28971 3.13077
# Velocity P-wave (km/s) = 5.90908 6.89689 6.42201
#
# Compressibility (1/GPa) = 0.02472087
#
# Stress axis : x y z
#
# Youngs Moduli (GPa) = 46.38476 47.79923 33.22493
#
# Poissons Ratio (x) = 0.38522 0.34571
# Poissons Ratio (y) = 0.37382 0.18154
# Poissons Ratio (z) = 0.48264 0.26118
#
# Static dielectric constant tensor:
#      x y z
#    x 3.133000 0.000000 0.297940 
#    y 0.000000 3.156190 0.000000 
#    z 0.297940 0.000000 3.468720 
# 
# 
# High freq. dielectric constant tensor:
#      x y z
#    x 1.654440 0.000000 0.022240 
#    y 0.000000 1.665570 0.000000 
#    z 0.022240 0.000000 1.677270 
# 
# From -- ./inp_files/54831.got.cif
#   From: 2010.06.25/outbox.cif.g09.slc.cpg/sg10_28_cif.got.tgz:54831.got - 2010.06.27 22:07:45.
