data_PCOD8064963
_publ_section_title
;
Structure prediction by ZEFSAII (Michael W. Deem and Ramdas Pophale) SiO2 
 PCOD8064963
Probable space group: P 2/M
;
_chemical_formula_sum "Si O2"
_cell_formula_units_Z 28
_cell_length_a 16.300798
_cell_length_b 8.627767
_cell_length_c 11.324694
_cell_angle_alpha 90.000000
_cell_angle_beta 119.298974
_cell_angle_gamma 90.000000
_cell_volume 1388.957951
_symmetry_space_group_name_H-M "P 2/M"
_symmetry_group_IT_number 10
_symmetry_cell_setting 'monoclinic'
loop_
_space_group_symop_operation_xyz
x,y,z
-x,y,-z
-x,-y,-z
x,-y,z
loop_
_atom_site_type_symbol
_atom_site_label
_atom_site_fract_x
_atom_site_fract_y
_atom_site_fract_z
Si Si1 0.124412 0.679215 0.331946
Si Si2 0.645851 0.316152 0.877842
Si Si3 0.911512 0.320317 0.165496
Si Si4 0.737540 0.817182 0.163513
Si Si5 0.287836 0.180559 0.587768
Si Si6 0.470066 0.682681 0.605688
Si Si7 0.824448 0.182809 0.881489
O O1 0.152325 0.500000 0.358535
O O2 0.185400 0.772652 0.469295
O O3 0.141109 0.738271 0.212622
O O4 0.015636 0.706500 0.289376
O O5 0.656683 0.500000 0.892939
O O6 0.544066 0.264521 0.758012
O O7 0.722690 0.249785 0.842181
O O8 0.659096 0.243466 0.016854
O O9 0.893137 0.500000 0.122868
O O10 0.837709 0.264037 0.211630
O O11 0.898508 0.222543 0.036544
O O12 0.702806 0.771007 0.269036
O O13 0.750812 0.000000 0.157326
O O14 0.366517 0.263208 0.565793
O O15 0.301983 0.000000 0.581414
O O16 0.500000 0.753879 0.500000
O O17 0.468658 0.500000 0.594347
O O18 0.817769 0.000000 0.858999
#
# Coordination Sequence:
#
# PCOD8064963 Si02
#       7
#     4   4   4   4   4   4   4
#     4  11  23  38  57  82 115 153 193 239 287 338
#     4  10  20  36  61  88 115 152 194 235 282 336
#     4  10  21  37  59  85 113 151 195 236 283 338
#     4  10  22  40  59  83 116 151 190 237 287 338
#     4  11  25  41  59  84 114 151 192 236 287 342
#     4  10  22  40  62  88 117 149 185 230 285 341
#     4  11  21  34  57  88 120 152 188 234 287 341
#
# _framework density 20.158998
#
# number of rings (size 3 to 8) (size 9 to 14) (size 15 to 20)
#    0.000    1.571    0.000    6.429    0.000   10.000 
#    0.000    5.714    0.000    0.000    0.000    0.000 
#    0.000    0.000    0.000    0.000    0.000    0.000 
#
# Total GULP energy -347314.882846 kJ/mol
# GULP energy per Si atom -12404.102959 kJ/mol
# Density = 2.011312 g / cm^3
# Si number density = 20.158998 Si / 1000 Ang^3
#
#
#
# Elastic Constant Matrix: (Units=GPa)
#
#
# Indices 1 2 3 4 5 6 
#
# 1 77.6160 23.7752 65.5493 0.0000 -1.9942 0.0000
# 2 23.7752 -49.3268 -2.7450 0.0000 0.9954 0.0000
# 3 65.5493 -2.7450 104.0268 0.0000 6.1924 0.0000
# 4 0.0000 0.0000 0.0000 34.6805 0.0000 -9.8364
# 5 -1.9942 0.9954 6.1924 0.0000 35.1049 0.0000
# 6 0.0000 0.0000 0.0000 -9.8364 0.0000 10.9865
#
#
#
# Elastic Compliance Matrix: (Units=1/GPa)
#
#
# Indices 1 2 3 4 5 6 
#
# 1 0.020545 0.010681 -0.012851 0.000000 0.003131 0.000000
# 2 0.010681 -0.014675 -0.007255 0.000000 0.002303 0.000000
# 3 -0.012851 -0.007255 0.017736 0.000000 -0.003653 0.000000
# 4 0.000000 0.000000 0.000000 0.038649 0.000000 0.034604
# 5 0.003131 0.002303 -0.003653 0.000000 0.029243 0.000000
# 6 0.000000 0.000000 0.000000 0.034604 0.000000 0.122003
#
#
# Mechanical properties :
#
#
# Convention : Reuss Voigt Hill
#
# Bulk Modulus (GPa) = 210.13780 33.94165 122.03973
# Shear Modulus (GPa) = 21.37330 19.20345 20.28838
#
# Velocity S-wave (km/s) = 3.25966 3.08977 3.17585
# Velocity P-wave (km/s) = 10.89191 5.44081 8.60918
#
# Compressibility (1/GPa) = 0.00475878
#
# Stress axis : x y z
#
# Youngs Moduli (GPa) = 48.67289 -68.14509 56.38154
#
# Poissons Ratio (x) = 0.72786 0.72453
# Poissons Ratio (y) = -0.51988 0.40903
# Poissons Ratio (z) = 0.62547 -0.49437
#
# Static dielectric constant tensor:
#      x y z
#    x 3.640470 0.000000 0.045620 
#    y 0.000000 3.722470 0.000000 
#    z 0.045620 0.000000 3.814840 
# 
# 
# High freq. dielectric constant tensor:
#      x y z
#    x 1.786590 0.000000 0.003960 
#    y 0.000000 1.796480 0.000000 
#    z 0.003960 0.000000 1.793470 
# 
# From -- ./inp_files/50047.got.cif
#   From: 2010.06.25/outbox.cif.g09.slc.cpg/sg10_26_cif.got.tgz:50047.got - 2010.06.27 22:07:45.
