data_PCOD8064162
_publ_section_title
;
Structure prediction by ZEFSAII (Michael W. Deem and Ramdas Pophale) SiO2 
 PCOD8064162
Probable space group: P 2/M
;
_chemical_formula_sum "Si O2"
_cell_formula_units_Z 32
_cell_length_a 23.190228
_cell_length_b 8.849686
_cell_length_c 15.102727
_cell_angle_alpha 90.000000
_cell_angle_beta 30.753332
_cell_angle_gamma 90.000000
_cell_volume 1584.895459
_symmetry_space_group_name_H-M "P 2/M"
_symmetry_group_IT_number 10
_symmetry_cell_setting 'monoclinic'
loop_
_space_group_symop_operation_xyz
x,y,z
-x,y,-z
-x,-y,-z
x,-y,z
loop_
_atom_site_type_symbol
_atom_site_label
_atom_site_fract_x
_atom_site_fract_y
_atom_site_fract_z
Si Si1 0.513446 0.678910 0.379367
Si Si2 0.333526 0.180206 0.969019
Si Si3 0.747029 0.172342 0.524733
Si Si4 0.712246 0.173641 0.373597
Si Si5 0.040842 0.677353 0.692115
Si Si6 0.089573 0.321467 0.306666
Si Si7 0.918788 0.677841 0.028166
Si Si8 0.504631 0.179557 0.894097
O O1 0.500000 0.732731 0.500000
O O2 0.528917 0.500000 0.354954
O O3 0.619555 0.752135 0.186387
O O4 0.401290 0.729560 0.476499
O O5 0.407661 0.238247 0.955188
O O6 0.336311 0.000000 0.956580
O O7 0.207682 0.234983 0.157711
O O8 0.775943 0.192060 0.383268
O O9 0.833189 0.258486 0.474491
O O10 0.622740 0.239343 0.700881
O O11 0.750629 0.000000 0.550760
O O12 0.799296 0.237255 0.187026
O O13 0.680919 0.000000 0.395514
O O14 0.053042 0.500000 0.673844
O O15 0.969631 0.736461 0.704097
O O16 0.976644 0.734862 0.863070
O O17 0.114124 0.500000 0.274784
O O18 0.000000 0.276005 0.500000
O O19 0.894649 0.500000 0.061435
O O20 0.000000 0.727600 0.000000
O O21 0.498119 0.000000 0.904246
O O22 0.500000 0.245105 0.000000
#
# Coordination Sequence:
#
# PCOD8064162 Si02
#       8
#     4   4   4   4   4   4   4   4
#     4  11  25  43  64  88 120 166 209 247 304 375
#     4  11  23  42  67  96 127 158 207 263 312 369
#     4  10  20  36  59  88 122 154 193 247 306 363
#     4  11  22  37  58  87 123 156 194 248 306 360
#     4  10  22  39  59  83 117 160 207 252 296 357
#     4  10  24  45  64  85 123 170 213 260 308 357
#     4  10  20  35  55  82 116 156 198 240 292 359
#     4   9  19  37  61  89 122 157 189 240 309 367
#
# _framework density 20.190605999999999
#
# number of rings (size 3 to 8) (size 9 to 14) (size 15 to 20)
#    0.000    1.750    2.500    1.125    3.500    3.000 
#    0.000    0.000    0.000    1.875    0.000    0.000 
#    0.000    0.000    0.000    0.000    0.000    0.000 
#
# Total GULP energy -396751.766437 kJ/mol
# GULP energy per Si atom -12398.492701 kJ/mol
# Density = 2.014465 g / cm^3
# Si number density = 20.190606 Si / 1000 Ang^3
#
#
#
# Elastic Constant Matrix: (Units=GPa)
#
#
# Indices 1 2 3 4 5 6 
#
# 1 134.4310 37.2863 77.7636 0.0000 0.1488 0.0000
# 2 37.2863 47.6865 41.7078 0.0000 -0.9490 0.0000
# 3 77.7636 41.7078 148.1193 0.0000 -8.2997 0.0000
# 4 0.0000 0.0000 0.0000 31.7179 0.0000 -11.9408
# 5 0.1488 -0.9490 -8.2997 0.0000 40.5596 0.0000
# 6 0.0000 0.0000 0.0000 -11.9408 0.0000 21.6587
#
#
#
# Elastic Compliance Matrix: (Units=1/GPa)
#
#
# Indices 1 2 3 4 5 6 
#
# 1 0.011543 -0.004899 -0.004744 0.000000 -0.001128 0.000000
# 2 -0.004899 0.029939 -0.005886 0.000000 -0.000486 0.000000
# 3 -0.004744 -0.005886 0.011019 0.000000 0.002134 0.000000
# 4 0.000000 0.000000 0.000000 0.039786 0.000000 0.021934
# 5 -0.001128 -0.000486 0.002134 0.000000 0.025085 0.000000
# 6 0.000000 0.000000 0.000000 0.021934 0.000000 0.058264
#
#
# Mechanical properties :
#
#
# Convention : Reuss Voigt Hill
#
# Bulk Modulus (GPa) = 46.63331 71.52803 59.08067
# Shear Modulus (GPa) = 23.38212 30.35251 26.86731
#
# Velocity S-wave (km/s) = 3.40673 3.88145 3.65181
# Velocity P-wave (km/s) = 6.21459 7.45592 6.86338
#
# Compressibility (1/GPa) = 0.02144390
#
# Stress axis : x y z
#
# Youngs Moduli (GPa) = 86.63310 33.40168 90.75431
#
# Poissons Ratio (x) = 0.16363 0.43053
# Poissons Ratio (y) = 0.42440 0.53414
# Poissons Ratio (z) = 0.41098 0.19659
#
# Static dielectric constant tensor:
#      x y z
#    x 3.846260 0.000000 0.116650 
#    y 0.000000 3.395130 0.000000 
#    z 0.116650 0.000000 3.861070 
# 
# 
# High freq. dielectric constant tensor:
#      x y z
#    x 1.793490 0.000000 -0.001030 
#    y 0.000000 1.767410 0.000000 
#    z -0.001030 0.000000 1.800630 
# 
# From -- ./inp_files/71402.got.cif
#   From: 2010.06.25/outbox.cif.g09.slc.cpg/sg10_36_cif.got.tgz:71402.got - 2010.06.27 22:07:45.
