data_PCOD8064483
_publ_section_title
;
Structure prediction by ZEFSAII (Michael W. Deem and Ramdas Pophale) SiO2 
 PCOD8064483
Probable space group: P 2/M
;
_chemical_formula_sum "Si O2"
_cell_formula_units_Z 32
_cell_length_a 23.284786
_cell_length_b 9.065348
_cell_length_c 14.411581
_cell_angle_alpha 90.000000
_cell_angle_beta 32.222674
_cell_angle_gamma 90.000000
_cell_volume 1622.062346
_symmetry_space_group_name_H-M "P 2/M"
_symmetry_group_IT_number 10
_symmetry_cell_setting 'monoclinic'
loop_
_space_group_symop_operation_xyz
x,y,z
-x,y,-z
-x,-y,-z
x,-y,z
loop_
_atom_site_type_symbol
_atom_site_label
_atom_site_fract_x
_atom_site_fract_y
_atom_site_fract_z
Si Si1 0.236961 0.171947 0.952923
Si Si2 0.987012 0.327168 0.744428
Si Si3 0.919358 0.674495 0.186876
Si Si4 0.095079 0.167945 0.441103
Si Si5 0.611325 0.674112 0.393954
Si Si6 0.493192 0.325131 0.114252
Si Si7 0.321968 0.674857 0.494320
Si Si8 0.318737 0.831229 0.040307
O O1 0.289147 0.249210 0.792925
O O2 0.222045 0.000000 0.953114
O O3 0.120903 0.239975 0.131990
O O4 0.312501 0.198503 0.938910
O O5 0.964041 0.500000 0.768684
O O6 0.030053 0.279911 0.785279
O O7 0.080742 0.279722 0.545773
O O8 0.911435 0.500000 0.185487
O O9 0.798872 0.741890 0.341583
O O10 0.000000 0.742029 0.000000
O O11 0.205199 0.207936 0.240607
O O12 0.000000 0.196129 0.500000
O O13 0.094009 0.000000 0.478947
O O14 0.500000 0.729086 0.500000
O O15 0.625433 0.500000 0.362454
O O16 0.616401 0.721324 0.495124
O O17 0.491499 0.500000 0.112140
O O18 0.387863 0.266179 0.314170
O O19 0.500000 0.259894 0.000000
O O20 0.596096 0.277735 0.031789
O O21 0.315569 0.500000 0.497563
O O22 0.351671 0.000000 0.015178
#
# Coordination Sequence:
#
# PCOD8064483 Si02
#       8
#     4   4   4   4   4   4   4   4
#     4  11  22  38  58  82 116 154 188 231 288 351
#     4  11  22  34  57  89 113 143 193 242 286 338
#     4   9  18  33  55  82 114 151 187 228 284 348
#     4  10  20  39  59  79 115 157 189 227 292 354
#     4  10  20  35  59  87 113 144 188 239 290 340
#     4  10  22  38  60  87 115 150 192 242 292 336
#     4   9  18  35  56  81 118 153 183 231 295 349
#     4  10  22  39  59  80 111 156 194 229 282 349
#
# _framework density 19.727971
#
# number of rings (size 3 to 8) (size 9 to 14) (size 15 to 20)
#    0.000    2.000    1.250    2.250    1.750    5.250 
#    0.000    0.625    0.000    6.750    0.000    0.000 
#    0.000    0.000    0.000    0.000    0.000    0.000 
#
# Total GULP energy -396833.151790 kJ/mol
# GULP energy per Si atom -12401.035993 kJ/mol
# Density = 1.968307 g / cm^3
# Si number density = 19.727971 Si / 1000 Ang^3
#
#
#
# Elastic Constant Matrix: (Units=GPa)
#
#
# Indices 1 2 3 4 5 6 
#
# 1 100.7153 27.2850 59.2330 0.0000 5.4600 0.0000
# 2 27.2850 29.9498 19.9036 0.0000 6.6232 0.0000
# 3 59.2330 19.9036 136.7397 0.0000 13.1947 0.0000
# 4 0.0000 0.0000 0.0000 24.7821 0.0000 1.1457
# 5 5.4600 6.6232 13.1947 0.0000 38.6395 0.0000
# 6 0.0000 0.0000 0.0000 1.1457 0.0000 15.1190
#
#
#
# Elastic Compliance Matrix: (Units=1/GPa)
#
#
# Indices 1 2 3 4 5 6 
#
# 1 0.016169 -0.011424 -0.005491 0.000000 0.001548 0.000000
# 2 -0.011424 0.045863 -0.001163 0.000000 -0.005850 0.000000
# 3 -0.005491 -0.001163 0.010100 0.000000 -0.002474 0.000000
# 4 0.000000 0.000000 0.000000 0.040494 0.000000 -0.003069
# 5 0.001548 -0.005850 -0.002474 0.000000 0.027509 0.000000
# 6 0.000000 0.000000 0.000000 -0.003069 0.000000 0.066374
#
#
# Mechanical properties :
#
#
# Convention : Reuss Voigt Hill
#
# Bulk Modulus (GPa) = 27.79538 53.36088 40.57813
# Shear Modulus (GPa) = 19.63437 26.44034 23.03735
#
# Velocity S-wave (km/s) = 3.15819 3.66491 3.42094
# Velocity P-wave (km/s) = 5.23630 6.70938 6.01808
#
# Compressibility (1/GPa) = 0.03597720
#
# Stress axis : x y z
#
# Youngs Moduli (GPa) = 61.84613 21.80405 99.01416
#
# Poissons Ratio (x) = 0.24909 0.54366
# Poissons Ratio (y) = 0.70653 0.11511
# Poissons Ratio (z) = 0.33958 0.02535
#
# Static dielectric constant tensor:
#      x y z
#    x 3.673310 0.000000 0.107150 
#    y 0.000000 3.230650 0.000000 
#    z 0.107150 0.000000 -0.912050 
# 
# 
# High freq. dielectric constant tensor:
#      x y z
#    x 1.775900 0.000000 0.005350 
#    y 0.000000 1.734570 0.000000 
#    z 0.005350 0.000000 1.785500 
# 
# From -- ./inp_files/71517.got.cif
#   From: 2010.06.25/outbox.cif.g09.slc.cpg/sg10_36_cif.got.tgz:71517.got - 2010.06.27 22:07:45.
