data_PCOD8064713
_publ_section_title
;
Structure prediction by ZEFSAII (Michael W. Deem and Ramdas Pophale) SiO2 
 PCOD8064713
Probable space group: P 2/M
;
_chemical_formula_sum "Si O2"
_cell_formula_units_Z 24
_cell_length_a 11.717661
_cell_length_b 8.472447
_cell_length_c 12.648943
_cell_angle_alpha 90.000000
_cell_angle_beta 89.198849
_cell_angle_gamma 90.000000
_cell_volume 1255.629667
_symmetry_space_group_name_H-M "P 2/M"
_symmetry_group_IT_number 10
_symmetry_cell_setting 'monoclinic'
loop_
_space_group_symop_operation_xyz
x,y,z
-x,y,-z
-x,-y,-z
x,-y,z
loop_
_atom_site_type_symbol
_atom_site_label
_atom_site_fract_x
_atom_site_fract_y
_atom_site_fract_z
Si Si1 0.875723 0.182502 0.893765
Si Si2 0.504936 0.684619 0.617491
Si Si3 0.746361 0.315803 0.324746
Si Si4 0.870734 0.183136 0.521592
Si Si5 0.735558 0.684248 0.713307
Si Si6 0.119053 0.316035 0.883361
O O1 0.771678 0.225024 0.818630
O O2 0.987114 0.281692 0.858589
O O3 0.907083 0.000000 0.883712
O O4 0.839676 0.221218 0.014171
O O5 0.500000 0.760670 0.500000
O O6 0.528418 0.500000 0.603856
O O7 0.388536 0.719314 0.681909
O O8 0.612025 0.754518 0.681012
O O9 0.769786 0.500000 0.347555
O O10 0.797367 0.213639 0.418317
O O11 0.803190 0.260292 0.215025
O O12 0.825436 0.286997 0.618719
O O13 0.000000 0.236262 0.500000
O O14 0.863093 0.000000 0.552980
O O15 0.730226 0.500000 0.739491
O O16 0.134810 0.500000 0.905848
#
# Coordination Sequence:
#
# PCOD8064713 Si02
#       6
#     4   4   4   4   4   4
#     4  11  22  37  57  81 115 149 182 224 281 333
#     4   9  17  34  58  82 108 142 183 228 276 321
#     4  10  20  36  58  83 108 141 184 229 273 324
#     4  11  23  35  50  78 115 147 177 221 278 334
#     4  11  21  36  59  81 108 144 187 231 271 323
#     4  10  20  36  60  86 111 142 188 229 271 328
#
# _framework density 19.113916
#
# number of rings (size 3 to 8) (size 9 to 14) (size 15 to 20)
#    0.000    1.667    1.667    5.000    0.000    5.333 
#    0.000    3.333    0.000    5.000    0.000    0.000 
#    0.000    0.000    0.000    0.000    0.000    0.000 
#
# Total GULP energy -297694.229512 kJ/mol
# GULP energy per Si atom -12403.926230 kJ/mol
# Density = 1.907041 g / cm^3
# Si number density = 19.113916 Si / 1000 Ang^3
#
#
#
# Elastic Constant Matrix: (Units=GPa)
#
#
# Indices 1 2 3 4 5 6 
#
# 1 78.5271 3.5108 37.6853 0.0000 24.4378 0.0000
# 2 3.5108 38.6057 13.9842 0.0000 3.8889 0.0000
# 3 37.6853 13.9842 108.0015 0.0000 16.5974 0.0000
# 4 0.0000 0.0000 0.0000 17.9249 0.0000 4.0116
# 5 24.4378 3.8889 16.5974 0.0000 35.0380 0.0000
# 6 0.0000 0.0000 0.0000 4.0116 0.0000 9.2690
#
#
#
# Elastic Compliance Matrix: (Units=1/GPa)
#
#
# Indices 1 2 3 4 5 6 
#
# 1 0.018341 0.001183 -0.004925 0.000000 -0.010590 0.000000
# 2 0.001183 0.027323 -0.003621 0.000000 -0.002142 0.000000
# 3 -0.004925 -0.003621 0.011709 0.000000 -0.001709 0.000000
# 4 0.000000 0.000000 0.000000 0.061771 0.000000 -0.026734
# 5 -0.010590 -0.002142 -0.001709 0.000000 0.036974 0.000000
# 6 0.000000 0.000000 0.000000 -0.026734 0.000000 0.119457
#
#
# Mechanical properties :
#
#
# Convention : Reuss Voigt Hill
#
# Bulk Modulus (GPa) = 23.44907 37.27724 30.36316
# Shear Modulus (GPa) = 16.41935 23.77666 20.09800
#
# Velocity S-wave (km/s) = 2.93409 3.53079 3.24618
# Velocity P-wave (km/s) = 4.87578 6.01390 5.47449
#
# Compressibility (1/GPa) = 0.04264561
#
# Stress axis : x y z
#
# Youngs Moduli (GPa) = 54.52247 36.59935 85.40150
#
# Poissons Ratio (x) = -0.04330 0.42064
# Poissons Ratio (y) = -0.06450 0.30927
# Poissons Ratio (z) = 0.26855 0.13254
#
# Static dielectric constant tensor:
#      x y z
#    x 3.606450 0.000000 0.038460 
#    y 0.000000 3.322180 0.000000 
#    z 0.038460 0.000000 3.566550 
# 
# 
# High freq. dielectric constant tensor:
#      x y z
#    x 1.742140 0.000000 0.004240 
#    y 0.000000 1.731890 0.000000 
#    z 0.004240 0.000000 1.744060 
# 
# From -- ./inp_files/45121.got.cif
#   From: 2010.06.25/outbox.cif.g09.slc.cpg/sg10_23_cif.got.tgz:45121.got - 2010.06.27 22:07:45.
