data_PCOD8064918
_publ_section_title
;
Structure prediction by ZEFSAII (Michael W. Deem and Ramdas Pophale) SiO2 
 PCOD8064918
Probable space group: P 2/M
;
_chemical_formula_sum "Si O2"
_cell_formula_units_Z 24
_cell_length_a 7.453729
_cell_length_b 21.551230
_cell_length_c 8.629650
_cell_angle_alpha 90.000000
_cell_angle_beta 58.219714
_cell_angle_gamma 90.000000
_cell_volume 1178.407649
_symmetry_space_group_name_H-M "P 2/M"
_symmetry_group_IT_number 10
_symmetry_cell_setting 'monoclinic'
loop_
_space_group_symop_operation_xyz
x,y,z
-x,y,-z
-x,-y,-z
x,-y,z
loop_
_atom_site_type_symbol
_atom_site_label
_atom_site_fract_x
_atom_site_fract_y
_atom_site_fract_z
Si Si1 0.781598 0.842397 0.506707
Si Si2 0.755064 0.570208 0.102116
Si Si3 0.500000 0.615573 0.500000
Si Si4 0.749771 0.707139 0.600439
Si Si5 0.349192 0.068516 0.195938
Si Si6 0.074152 0.931063 0.795940
Si Si7 0.500000 0.660423 0.000000
O O1 0.692056 0.772794 0.545090
O O2 0.623975 0.887905 0.668788
O O3 0.788960 0.873176 0.331368
O O4 0.000000 0.839479 0.500000
O O5 0.728295 0.500000 0.052921
O O6 0.642801 0.574254 0.320897
O O7 0.657097 0.617290 0.024394
O O8 0.000000 0.588122 0.000000
O O9 0.661766 0.655310 0.527258
O O10 0.638432 0.703198 0.820514
O O11 0.000000 0.697260 0.500000
O O12 0.114133 0.063871 0.240185
O O13 0.432201 0.000000 0.204463
O O14 0.500000 0.098676 0.000000
O O15 0.183659 0.000000 0.750065
O O16 0.000000 0.912051 0.000000
#
# Coordination Sequence:
#
# PCOD8064918 Si02
#       7
#     4   4   2   4   4   4   2
#     4   9  18  33  51  71  97 136 177 216 264 330
#     4  10  20  36  60  88 116 148 187 230 276 325
#     4  10  21  38  56  84 117 152 186 228 276 328
#     4  10  21  38  56  79 113 151 191 228 275 330
#     4   9  17  30  49  72  96 126 166 215 269 323
#     4   9  17  32  51  72  98 129 168 220 279 331
#     4  10  21  36  58  84 115 152 186 230 274 328
#
# _framework density 20.366465999999999
#
# number of rings (size 3 to 8) (size 9 to 14) (size 15 to 20)
#    0.000    2.500    0.000    2.000    1.167    2.000 
#    3.000    4.167    0.000   12.000    0.000    0.000 
#    0.000    0.000    0.000    0.000    0.000    0.000 
#
# Total GULP energy -297435.730416 kJ/mol
# GULP energy per Si atom -12393.155434 kJ/mol
# Density = 2.032011 g / cm^3
# Si number density = 20.366466 Si / 1000 Ang^3
#
#
#
# Elastic Constant Matrix: (Units=GPa)
#
#
# Indices 1 2 3 4 5 6 
#
# 1 57.8333 25.7416 31.2931 0.0000 -2.6579 0.0000
# 2 25.7416 112.5904 63.8073 0.0000 -1.6629 0.0000
# 3 31.2931 63.8073 142.4018 0.0000 -1.1492 0.0000
# 4 0.0000 0.0000 0.0000 31.0000 0.0000 10.3651
# 5 -2.6579 -1.6629 -1.1492 0.0000 27.9178 0.0000
# 6 0.0000 0.0000 0.0000 10.3651 0.0000 13.7767
#
#
#
# Elastic Compliance Matrix: (Units=1/GPa)
#
#
# Indices 1 2 3 4 5 6 
#
# 1 0.020350 -0.002817 -0.003197 0.000000 0.001638 0.000000
# 2 -0.002817 0.012301 -0.004891 0.000000 0.000263 0.000000
# 3 -0.003197 -0.004891 0.009915 0.000000 -0.000188 0.000000
# 4 0.000000 0.000000 0.000000 0.043100 0.000000 -0.032427
# 5 0.001638 0.000263 -0.000188 0.000000 0.035983 0.000000
# 6 0.000000 0.000000 0.000000 -0.032427 0.000000 0.096983
#
#
# Mechanical properties :
#
#
# Convention : Reuss Voigt Hill
#
# Bulk Modulus (GPa) = 48.17534 61.61217 54.89376
# Shear Modulus (GPa) = 20.21343 27.33780 23.77562
#
# Velocity S-wave (km/s) = 3.15379 3.66771 3.42042
# Velocity P-wave (km/s) = 6.08009 6.94648 6.52767
#
# Compressibility (1/GPa) = 0.02075751
#
# Stress axis : x y z
#
# Youngs Moduli (GPa) = 49.14064 81.29145 100.85925
#
# Poissons Ratio (x) = 0.22899 0.32240
# Poissons Ratio (y) = 0.13842 0.49329
# Poissons Ratio (z) = 0.15708 0.39759
#
# Static dielectric constant tensor:
#      x y z
#    x 3.429000 0.000000 -0.029330 
#    y 0.000000 3.854530 0.000000 
#    z -0.029330 0.000000 3.928720 
# 
# 
# High freq. dielectric constant tensor:
#      x y z
#    x 1.784250 0.000000 -0.000030 
#    y 0.000000 1.792220 0.000000 
#    z -0.000030 0.000000 1.806490 
# 
# From -- ./inp_files/20158.got.cif
#   From: 2010.06.25/outbox.cif.g09.slc.cpg/sg10_11_cif.got.tgz:20158.got - 2010.06.27 22:07:45.
