data_PCOD8064611
_publ_section_title
;
Structure prediction by ZEFSAII (Michael W. Deem and Ramdas Pophale) SiO2 
 PCOD8064611
Probable space group: P 2/M
;
_chemical_formula_sum "Si O2"
_cell_formula_units_Z 32
_cell_length_a 20.970352
_cell_length_b 9.334387
_cell_length_c 20.471347
_cell_angle_alpha 90.000000
_cell_angle_beta 154.336878
_cell_angle_gamma 90.000000
_cell_volume 1735.421971
_symmetry_space_group_name_H-M "P 2/M"
_symmetry_group_IT_number 10
_symmetry_cell_setting 'monoclinic'
loop_
_space_group_symop_operation_xyz
x,y,z
-x,y,-z
-x,-y,-z
x,-y,z
loop_
_atom_site_type_symbol
_atom_site_label
_atom_site_fract_x
_atom_site_fract_y
_atom_site_fract_z
Si Si1 0.877533 0.161123 0.598924
Si Si2 0.663385 0.663112 0.891559
Si Si3 0.332370 0.667772 0.359447
Si Si4 0.161916 0.664681 0.070886
Si Si5 0.112539 0.168337 0.239369
Si Si6 0.522696 0.831900 0.947369
Si Si7 0.199990 0.839698 0.875519
Si Si8 0.623982 0.331483 0.302073
O O1 0.904531 0.198914 0.699579
O O2 0.775873 0.277113 0.471238
O O3 0.029583 0.171953 0.698270
O O4 0.812278 0.000000 0.532659
O O5 0.684089 0.500000 0.930777
O O6 0.699347 0.690555 0.849172
O O7 0.497964 0.711372 0.756262
O O8 0.781443 0.746336 0.043115
O O9 0.500000 0.717312 0.500000
O O10 0.331078 0.500000 0.376310
O O11 0.225114 0.702153 0.199885
O O12 0.265719 0.758571 0.357868
O O13 0.107578 0.500000 0.017121
O O14 0.024721 0.764301 0.926505
O O15 0.116953 0.000000 0.228068
O O16 0.410114 0.746208 0.797618
O O17 0.487613 0.000000 0.908702
O O18 0.500000 0.777986 0.000000
O O19 0.691223 0.793623 0.082858
O O20 0.240781 0.000000 0.934485
O O21 0.633825 0.500000 0.298414
#
# Coordination Sequence:
#
# PCOD8064611 Si02
#       8
#     4   4   4   4   4   4   4   4
#     4  10  21  36  53  78 111 144 178 221 273 325
#     4   9  18  32  52  79 105 133 176 223 266 318
#     4  10  23  40  58  78 106 144 184 227 276 331
#     4  10  20  36  57  79 104 138 181 223 270 330
#     4  11  23  38  56  80 108 142 182 226 276 327
#     4   9  18  35  60  85 110 146 186 221 264 319
#     4   9  17  33  55  79 109 140 177 220 262 315
#     4  10  21  34  54  83 113 144 179 223 272 315
#
# _framework density 18.439319999999999
#
# number of rings (size 3 to 8) (size 9 to 14) (size 15 to 20)
#    0.000    2.250    1.250    1.125    1.750    4.500 
#    0.000    0.625    0.000    3.750    0.000    0.000 
#    0.000    0.000    0.000    0.000    0.000    0.000 
#
# Total GULP energy -396761.001479 kJ/mol
# GULP energy per Si atom -12398.781296 kJ/mol
# Density = 1.839735 g / cm^3
# Si number density = 18.439320 Si / 1000 Ang^3
#
#
#
# Elastic Constant Matrix: (Units=GPa)
#
#
# Indices 1 2 3 4 5 6 
#
# 1 97.2368 38.7359 37.8261 0.0000 5.6498 0.0000
# 2 38.7359 67.4240 44.5455 0.0000 0.1428 0.0000
# 3 37.8261 44.5455 98.2524 0.0000 6.5861 0.0000
# 4 0.0000 0.0000 0.0000 31.1004 0.0000 0.5932
# 5 5.6498 0.1428 6.5861 0.0000 19.4814 0.0000
# 6 0.0000 0.0000 0.0000 0.5932 0.0000 26.4936
#
#
#
# Elastic Compliance Matrix: (Units=1/GPa)
#
#
# Indices 1 2 3 4 5 6 
#
# 1 0.013932 -0.006564 -0.002169 0.000000 -0.003259 0.000000
# 2 -0.006564 0.024459 -0.008879 0.000000 0.004726 0.000000
# 3 -0.002169 -0.008879 0.015340 0.000000 -0.004492 0.000000
# 4 0.000000 0.000000 0.000000 0.032168 0.000000 -0.000720
# 5 -0.003259 0.004726 -0.004492 0.000000 0.053760 0.000000
# 6 0.000000 0.000000 0.000000 -0.000720 0.000000 0.037761
#
#
# Mechanical properties :
#
#
# Convention : Reuss Voigt Hill
#
# Bulk Modulus (GPa) = 54.03595 56.12536 55.08066
# Shear Modulus (GPa) = 22.85060 24.86877 23.85969
#
# Velocity S-wave (km/s) = 3.52409 3.67642 3.60106
# Velocity P-wave (km/s) = 6.77697 6.96602 6.87214
#
# Compressibility (1/GPa) = 0.01850620
#
# Stress axis : x y z
#
# Youngs Moduli (GPa) = 71.77520 40.88526 65.19116
#
# Poissons Ratio (x) = 0.26838 0.14142
# Poissons Ratio (y) = 0.47115 0.57881
# Poissons Ratio (z) = 0.15570 0.36301
#
# Static dielectric constant tensor:
#      x y z
#    x 3.526020 0.000000 0.191920 
#    y 0.000000 3.386840 0.000000 
#    z 0.191920 0.000000 3.291650 
# 
# 
# High freq. dielectric constant tensor:
#      x y z
#    x 1.713620 0.000000 0.016000 
#    y 0.000000 1.714150 0.000000 
#    z 0.016000 0.000000 1.707370 
# 
# From -- ./inp_files/90670.got.cif
#   From: 2010.06.25/outbox.cif.g09.slc.cpg/sg10_46_cif.got.tgz:90670.got - 2010.06.27 22:07:45.
