data_PCOD8064037
_publ_section_title
;
Structure prediction by ZEFSAII (Michael W. Deem and Ramdas Pophale) SiO2 
 PCOD8064037
Probable space group: P 2/M
;
_chemical_formula_sum "Si O2"
_cell_formula_units_Z 28
_cell_length_a 14.622611
_cell_length_b 9.245888
_cell_length_c 21.503605
_cell_angle_alpha 90.000000
_cell_angle_beta 149.590330
_cell_angle_gamma 90.000000
_cell_volume 1471.598147
_symmetry_space_group_name_H-M "P 2/M"
_symmetry_group_IT_number 10
_symmetry_cell_setting 'monoclinic'
loop_
_space_group_symop_operation_xyz
x,y,z
-x,y,-z
-x,-y,-z
x,-y,z
loop_
_atom_site_type_symbol
_atom_site_label
_atom_site_fract_x
_atom_site_fract_y
_atom_site_fract_z
Si Si1 0.208076 0.167073 0.344134
Si Si2 0.742848 0.834893 0.206790
Si Si3 0.910400 0.835299 0.510829
Si Si4 0.467295 0.664856 0.127229
Si Si5 0.546457 0.166597 0.626517
Si Si6 0.546463 0.668415 0.312317
Si Si7 0.840365 0.332880 0.146595
O O1 0.357446 0.207265 0.482946
O O2 0.288210 0.197344 0.322865
O O3 0.036803 0.267029 0.253400
O O4 0.150218 0.000000 0.317009
O O5 0.613696 0.770585 0.183509
O O6 0.725489 0.745970 0.132957
O O7 0.948865 0.825661 0.350342
O O8 0.685493 0.000000 0.160832
O O9 0.745032 0.735115 0.431618
O O10 0.000000 0.777090 0.500000
O O11 0.843032 0.000000 0.461680
O O12 0.533590 0.500000 0.156008
O O13 0.450899 0.701241 0.190540
O O14 0.270439 0.688450 0.982061
O O15 0.575522 0.262039 0.705047
O O16 0.542994 0.000000 0.644333
O O17 0.564425 0.500000 0.335942
O O18 0.860069 0.500000 0.176397
#
# Coordination Sequence:
#
# PCOD8064037 Si02
#       7
#     4   4   4   4   4   4   4
#     4   9  19  38  61  85 110 139 177 221 269 325
#     4  11  22  36  57  82 107 141 186 230 270 319
#     4  10  20  35  53  77 110 143 175 217 272 323
#     4  10  23  40  53  73 111 152 185 222 268 319
#     4   9  19  37  61  85 112 141 171 218 278 327
#     4  11  22  35  55  82 111 145 185 223 266 322
#     4  11  23  38  56  78 109 147 183 224 274 320
#
# _framework density 19.026935000000002
#
# number of rings (size 3 to 8) (size 9 to 14) (size 15 to 20)
#    0.000    1.857    1.429    3.429    0.000    9.429 
#    0.000    2.143    0.000    4.286    0.000    0.000 
#    0.000    0.000    0.000    0.000    0.000    0.000 
#
# Total GULP energy -347323.400620 kJ/mol
# GULP energy per Si atom -12404.407165 kJ/mol
# Density = 1.898363 g / cm^3
# Si number density = 19.026935 Si / 1000 Ang^3
#
#
#
# Elastic Constant Matrix: (Units=GPa)
#
#
# Indices 1 2 3 4 5 6 
#
# 1 103.4046 59.9202 27.1119 0.0000 -20.0623 0.0000
# 2 59.9202 111.3783 39.6363 0.0000 -9.7505 0.0000
# 3 27.1119 39.6363 59.9020 0.0000 -13.3300 0.0000
# 4 0.0000 0.0000 0.0000 21.7948 0.0000 -3.7351
# 5 -20.0623 -9.7505 -13.3300 0.0000 27.1878 0.0000
# 6 0.0000 0.0000 0.0000 -3.7351 0.0000 38.1058
#
#
#
# Elastic Compliance Matrix: (Units=1/GPa)
#
#
# Indices 1 2 3 4 5 6 
#
# 1 0.015916 -0.007749 -0.000091 0.000000 0.008921 0.000000
# 2 -0.007749 0.015522 -0.007629 0.000000 -0.003892 0.000000
# 3 -0.000091 -0.007629 0.023751 0.000000 0.008842 0.000000
# 4 0.000000 0.000000 0.000000 0.046666 0.000000 0.004574
# 5 0.008921 -0.003892 0.008842 0.000000 0.046303 0.000000
# 6 0.000000 0.000000 0.000000 0.004574 0.000000 0.026691
#
#
# Mechanical properties :
#
#
# Convention : Reuss Voigt Hill
#
# Bulk Modulus (GPa) = 41.23782 58.66908 49.95345
# Shear Modulus (GPa) = 23.37858 27.28545 25.33202
#
# Velocity S-wave (km/s) = 3.50910 3.79099 3.65276
# Velocity P-wave (km/s) = 6.17566 7.07558 6.64088
#
# Compressibility (1/GPa) = 0.02424958
#
# Stress axis : x y z
#
# Youngs Moduli (GPa) = 62.83051 64.42593 42.10379
#
# Poissons Ratio (x) = 0.49925 0.00383
# Poissons Ratio (y) = 0.48689 0.32122
# Poissons Ratio (z) = 0.00571 0.49152
#
# Static dielectric constant tensor:
#      x y z
#    x 3.536770 0.000000 -0.209390 
#    y 0.000000 3.516960 0.000000 
#    z -0.209390 0.000000 3.399700 
# 
# 
# High freq. dielectric constant tensor:
#      x y z
#    x 1.742770 0.000000 -0.012590 
#    y 0.000000 1.743360 0.000000 
#    z -0.012590 0.000000 1.730350 
# 
# From -- ./inp_files/49072.got.cif
#   From: 2010.06.25/outbox.cif.g09.slc.cpg/sg10_25_cif.got.tgz:49072.got - 2010.06.27 22:07:45.
