data_PCOD8064946
_publ_section_title
;
Structure prediction by ZEFSAII (Michael W. Deem and Ramdas Pophale) SiO2 
 PCOD8064946
Probable space group: P 2/M
;
_chemical_formula_sum "Si O2"
_cell_formula_units_Z 22
_cell_length_a 16.205534
_cell_length_b 13.042508
_cell_length_c 5.152335
_cell_angle_alpha 90.000000
_cell_angle_beta 111.510716
_cell_angle_gamma 90.000000
_cell_volume 1013.151632
_symmetry_space_group_name_H-M "P 2/M"
_symmetry_group_IT_number 10
_symmetry_cell_setting 'monoclinic'
loop_
_space_group_symop_operation_xyz
x,y,z
-x,y,-z
-x,-y,-z
x,-y,z
loop_
_atom_site_type_symbol
_atom_site_label
_atom_site_fract_x
_atom_site_fract_y
_atom_site_fract_z
Si Si1 0.600094 0.227155 0.118835
Si Si2 0.165314 0.116433 0.416162
Si Si3 0.000000 0.222001 0.000000
Si Si4 0.773366 0.318502 0.340531
Si Si5 0.130322 0.385908 0.028141
Si Si6 0.661420 0.115319 0.678603
O O1 0.628019 0.187561 0.867917
O O2 0.500000 0.268807 0.000000
O O3 0.666947 0.321674 0.261947
O O4 0.609630 0.140641 0.351271
O O5 0.064900 0.146461 0.228720
O O6 0.199936 0.197594 0.670422
O O7 0.232160 0.127052 0.246913
O O8 0.166868 0.000000 0.529223
O O9 0.055010 0.300747 0.878736
O O10 0.824036 0.363707 0.645049
O O11 0.796916 0.382543 0.113888
O O12 0.088789 0.500000 0.986523
O O13 0.637294 0.000000 0.728386
#
# Coordination Sequence:
#
# PCOD8064946 Si02
#       6
#     4   4   2   4   4   4
#     4  11  21  35  57  83 113 150 191 241 292 336
#     4   9  19  36  57  84 123 164 195 230 277 336
#     4  10  20  36  60  92 118 148 198 242 282 344
#     4  10  22  41  60  86 117 153 194 234 290 354
#     4  11  23  41  64  86 114 149 191 246 300 345
#     4  10  21  35  52  79 117 160 201 235 275 330
#
# _framework density 21.714418999999999
#
# number of rings (size 3 to 8) (size 9 to 14) (size 15 to 20)
#    0.000    1.818    0.000    5.455    0.000    5.818 
#    0.000   10.000    0.000    3.273    0.000    0.000 
#    0.000    0.000    0.000    0.000    0.000    0.000 
#
# Total GULP energy -272663.860909 kJ/mol
# GULP energy per Si atom -12393.811859 kJ/mol
# Density = 2.166500 g / cm^3
# Si number density = 21.714419 Si / 1000 Ang^3
#
#
#
# Elastic Constant Matrix: (Units=GPa)
#
#
# Indices 1 2 3 4 5 6 
#
# 1 107.7005 25.9829 42.3211 0.0000 20.8721 0.0000
# 2 25.9829 93.3135 18.2732 0.0000 -0.0259 0.0000
# 3 42.3211 18.2732 76.8369 0.0000 -0.6823 0.0000
# 4 0.0000 0.0000 0.0000 16.1218 0.0000 -6.8982
# 5 20.8721 -0.0259 -0.6823 0.0000 47.7416 0.0000
# 6 0.0000 0.0000 0.0000 -6.8982 0.0000 -0.6322
#
#
#
# Elastic Compliance Matrix: (Units=1/GPa)
#
#
# Indices 1 2 3 4 5 6 
#
# 1 0.013868 -0.002472 -0.007106 0.000000 -0.006166 0.000000
# 2 -0.002472 0.011681 -0.001407 0.000000 0.001067 0.000000
# 3 -0.007106 -0.001407 0.017293 0.000000 0.003353 0.000000
# 4 0.000000 0.000000 0.000000 0.010942 0.000000 -0.119392
# 5 -0.006166 0.001067 0.003353 0.000000 0.023690 0.000000
# 6 0.000000 0.000000 0.000000 -0.119392 0.000000 -0.279033
#
#
# Mechanical properties :
#
#
# Convention : Reuss Voigt Hill
#
# Bulk Modulus (GPa) = 47.90858 50.11168 49.01013
# Shear Modulus (GPa) = -28.96324 25.39783 -1.78270
#
# Velocity S-wave (km/s) = -3.65612 3.42370 -0.90706
# Velocity P-wave (km/s) = 2.07074 6.22548 4.63921
#
# Compressibility (1/GPa) = 0.02087309
#
# Stress axis : x y z
#
# Youngs Moduli (GPa) = 72.10624 85.61160 57.82824
#
# Poissons Ratio (x) = 0.21162 0.41090
# Poissons Ratio (y) = 0.17824 0.08136
# Poissons Ratio (z) = 0.51235 0.12045
#
# Static dielectric constant tensor:
#      x y z
#    x 4.098450 0.000000 0.229620 
#    y 0.000000 3.948970 0.000000 
#    z 0.229620 0.000000 3.800120 
# 
# 
# High freq. dielectric constant tensor:
#      x y z
#    x 1.854840 0.000000 0.004410 
#    y 0.000000 1.832190 0.000000 
#    z 0.004410 0.000000 1.845040 
# 
# From -- ./inp_files/9336.got.cif
#   From: 2010.06.25/outbox.cif.g09.slc.cpg/sg10_5_cif.got.tgz:9336.got - 2010.06.27 22:07:45.
