data_PCOD8064028
_publ_section_title
;
Structure prediction by ZEFSAII (Michael W. Deem and Ramdas Pophale) SiO2 
 PCOD8064028
Probable space group: P 2/M
;
_chemical_formula_sum "Si O2"
_cell_formula_units_Z 20
_cell_length_a 19.916573
_cell_length_b 9.035005
_cell_length_c 9.244642
_cell_angle_alpha 90.000000
_cell_angle_beta 133.814129
_cell_angle_gamma 90.000000
_cell_volume 1200.392650
_symmetry_space_group_name_H-M "P 2/M"
_symmetry_group_IT_number 10
_symmetry_cell_setting 'monoclinic'
loop_
_space_group_symop_operation_xyz
x,y,z
-x,y,-z
-x,-y,-z
x,-y,z
loop_
_atom_site_type_symbol
_atom_site_label
_atom_site_fract_x
_atom_site_fract_y
_atom_site_fract_z
Si Si1 0.411686 0.174689 0.774981
Si Si2 0.893484 0.825735 0.347728
Si Si3 0.256518 0.667044 0.720398
Si Si4 0.585191 0.327073 0.522848
Si Si5 0.749673 0.666613 0.971251
O O1 0.318733 0.246130 0.699609
O O2 0.427074 0.228776 0.636092
O O3 0.399597 0.000000 0.759742
O O4 0.500000 0.226437 0.000000
O O5 0.844454 0.747312 0.413447
O O6 0.840940 0.771782 0.121543
O O7 0.000000 0.774932 0.500000
O O8 0.883418 0.000000 0.349011
O O9 0.242187 0.500000 0.641977
O O10 0.303457 0.667517 0.951193
O O11 0.500000 0.291711 0.500000
O O12 0.588718 0.500000 0.487282
O O13 0.679788 0.276066 0.744371
O O14 0.783009 0.500000 0.985518
#
# Coordination Sequence:
#
# PCOD8064028 Si02
#       5
#     4   4   4   4   4
#     4  11  23  35  49  74 106 139 174 213 258 308
#     4   9  17  30  52  80 108 136 167 210 261 309
#     4   9  18  33  53  75 101 134 172 213 254 299
#     4  10  20  35  53  74 102 137 177 214 253 305
#     4   8  17  31  50  76 102 132 171 212 253 299
#
# _framework density 16.661214999999999
#
# number of rings (size 3 to 8) (size 9 to 14) (size 15 to 20)
#    1.200    1.400    0.000    2.400    0.000    6.000 
#    0.000    0.000    0.000    1.200    0.000    8.400 
#    0.000    0.000    0.000    0.000    0.000    0.000 
#
# Total GULP energy -247826.691061 kJ/mol
# GULP energy per Si atom -12391.334553 kJ/mol
# Density = 1.662329 g / cm^3
# Si number density = 16.661215 Si / 1000 Ang^3
#
#
#
# Elastic Constant Matrix: (Units=GPa)
#
#
# Indices 1 2 3 4 5 6 
#
# 1 101.6963 52.9000 46.0543 0.0000 15.7231 0.0000
# 2 52.9000 82.0515 44.1461 0.0000 11.0469 0.0000
# 3 46.0543 44.1461 98.2095 0.0000 12.1229 0.0000
# 4 0.0000 0.0000 0.0000 18.6282 0.0000 -1.4439
# 5 15.7231 11.0469 12.1229 0.0000 27.7185 0.0000
# 6 0.0000 0.0000 0.0000 -1.4439 0.0000 28.0383
#
#
#
# Elastic Compliance Matrix: (Units=1/GPa)
#
#
# Indices 1 2 3 4 5 6 
#
# 1 0.016273 -0.008016 -0.003470 0.000000 -0.004518 0.000000
# 2 -0.008016 0.020339 -0.005226 0.000000 -0.001273 0.000000
# 3 -0.003470 -0.005226 0.014438 0.000000 -0.002263 0.000000
# 4 0.000000 0.000000 0.000000 0.053897 0.000000 0.002776
# 5 -0.004518 -0.001273 -0.002263 0.000000 0.040137 0.000000
# 6 0.000000 0.000000 0.000000 0.002776 0.000000 0.035808
#
#
# Mechanical properties :
#
#
# Convention : Reuss Voigt Hill
#
# Bulk Modulus (GPa) = 56.73691 63.12868 59.93280
# Shear Modulus (GPa) = 22.70734 24.13413 23.42074
#
# Velocity S-wave (km/s) = 3.69573 3.81007 3.75334
# Velocity P-wave (km/s) = 7.23453 7.57149 7.40493
#
# Compressibility (1/GPa) = 0.01762521
#
# Stress axis : x y z
#
# Youngs Moduli (GPa) = 61.45136 49.16677 69.26087
#
# Poissons Ratio (x) = 0.39413 0.24033
# Poissons Ratio (y) = 0.49261 0.36198
# Poissons Ratio (z) = 0.21323 0.25696
#
# Static dielectric constant tensor:
#      x y z
#    x 2.916150 0.000000 0.066120 
#    y 0.000000 3.106760 0.000000 
#    z 0.066120 0.000000 3.034990 
# 
# 
# High freq. dielectric constant tensor:
#      x y z
#    x 1.624490 0.000000 0.006560 
#    y 0.000000 1.650190 0.000000 
#    z 0.006560 0.000000 1.624530 
# 
# From -- ./inp_files/30965.got.cif
#   From: 2010.06.25/outbox.cif.g09.slc.cpg/sg10_16_cif.got.tgz:30965.got - 2010.06.27 22:07:45.
