data_PCOD8064570
_publ_section_title
;
Structure prediction by ZEFSAII (Michael W. Deem and Ramdas Pophale) SiO2 
 PCOD8064570
Probable space group: P 2/M
;
_chemical_formula_sum "Si O2"
_cell_formula_units_Z 20
_cell_length_a 9.863325
_cell_length_b 12.832359
_cell_length_c 8.785717
_cell_angle_alpha 90.000000
_cell_angle_beta 88.429203
_cell_angle_gamma 90.000000
_cell_volume 1111.587932
_symmetry_space_group_name_H-M "P 2/M"
_symmetry_group_IT_number 10
_symmetry_cell_setting 'monoclinic'
loop_
_space_group_symop_operation_xyz
x,y,z
-x,y,-z
-x,-y,-z
x,-y,z
loop_
_atom_site_type_symbol
_atom_site_label
_atom_site_fract_x
_atom_site_fract_y
_atom_site_fract_z
Si Si1 0.722880 0.286076 0.657919
Si Si2 0.951983 0.381399 0.840825
Si Si3 0.211995 0.681513 0.671170
Si Si4 0.522568 0.378968 0.174372
Si Si5 0.159239 0.882695 0.529013
O O1 0.748014 0.353349 0.502260
O O2 0.569443 0.304529 0.717032
O O3 0.755586 0.164439 0.617672
O O4 0.820291 0.320293 0.790830
O O5 0.906813 0.500000 0.866556
O O6 0.071492 0.374332 0.714219
O O7 0.000000 0.332600 0.000000
O O8 0.322424 0.645564 0.789876
O O9 0.190552 0.808057 0.673617
O O10 0.487962 0.500000 0.206228
O O11 0.500000 0.350179 0.000000
O O12 0.000000 0.878927 0.500000
O O13 0.208565 0.000000 0.560598
#
# Coordination Sequence:
#
# PCOD8064570 Si02
#       5
#     4   4   4   4   4
#     4  10  20  36  55  85 101 146 189 228 265 319
#     4  11  21  33  51  78 116 148 175 221 277 327
#     4  10  20  36  55  85 101 146 189 228 265 319
#     4  11  23  37  53  78 120 158 177 213 277 333
#     4   9  18  37  62  85 107 135 181 237 292 319
#
# _framework density 17.992279
#
# number of rings (size 3 to 8) (size 9 to 14) (size 15 to 20)
#    1.200    0.600    2.000    3.600    0.000    8.000 
#    0.000    2.000    0.000    7.200    0.000    0.000 
#    0.000    0.000    0.000    0.000    0.000    0.000 
#
# Total GULP energy -247884.696191 kJ/mol
# GULP energy per Si atom -12394.234810 kJ/mol
# Density = 1.795133 g / cm^3
# Si number density = 17.992279 Si / 1000 Ang^3
#
#
#
# Elastic Constant Matrix: (Units=GPa)
#
#
# Indices 1 2 3 4 5 6 
#
# 1 54.0971 7.1782 -4.2057 0.0000 1.8577 0.0000
# 2 7.1782 80.1668 13.0024 0.0000 0.7281 0.0000
# 3 -4.2057 13.0024 60.7499 0.0000 8.4118 0.0000
# 4 0.0000 0.0000 0.0000 -2.6081 0.0000 8.1106
# 5 1.8577 0.7281 8.4118 0.0000 39.0029 0.0000
# 6 0.0000 0.0000 0.0000 8.1106 0.0000 21.3333
#
#
#
# Elastic Compliance Matrix: (Units=1/GPa)
#
#
# Indices 1 2 3 4 5 6 
#
# 1 0.018943 -0.001995 0.001915 0.000000 -0.001278 0.000000
# 2 -0.001995 0.013138 -0.003019 0.000000 0.000501 0.000000
# 3 0.001915 -0.003019 0.017775 0.000000 -0.003869 0.000000
# 4 0.000000 0.000000 0.000000 -0.175695 0.000000 0.066797
# 5 -0.001278 0.000501 -0.003869 0.000000 0.026525 0.000000
# 6 0.000000 0.000000 0.000000 0.066797 0.000000 0.021480
#
#
# Mechanical properties :
#
#
# Convention : Reuss Voigt Hill
#
# Bulk Modulus (GPa) = 22.90551 25.21821 24.06186
# Shear Modulus (GPa) = -87.59158 23.48154 -32.05502
#
# Velocity S-wave (km/s) = -6.98488 3.61652 -4.22548
# Velocity P-wave (km/s) = 7.23139 5.61120 3.22548
#
# Compressibility (1/GPa) = 0.04365762
#
# Stress axis : x y z
#
# Youngs Moduli (GPa) = 52.79047 76.11615 56.25739
#
# Poissons Ratio (x) = 0.15187 -0.10776
# Poissons Ratio (y) = 0.10533 0.16986
# Poissons Ratio (z) = -0.10111 0.22983
#
# Static dielectric constant tensor:
#      x y z
#    x 3.254680 0.000000 0.010060 
#    y 0.000000 3.191500 0.000000 
#    z 0.010060 0.000000 3.258030 
# 
# 
# High freq. dielectric constant tensor:
#      x y z
#    x 1.704320 0.000000 0.001190 
#    y 0.000000 1.667560 0.000000 
#    z 0.001190 0.000000 1.689740 
# 
# From -- ./inp_files/18522.got.cif
#   From: 2010.06.25/outbox.cif.g09.slc.cpg/sg10_10_cif.got.tgz:18522.got - 2010.06.27 22:07:45.
