data_PCOD8064135
_publ_section_title
;
Structure prediction by ZEFSAII (Michael W. Deem and Ramdas Pophale) SiO2 
 PCOD8064135
Probable space group: P 2/M
;
_chemical_formula_sum "Si O2"
_cell_formula_units_Z 32
_cell_length_a 12.320348
_cell_length_b 20.888776
_cell_length_c 8.737152
_cell_angle_alpha 90.000000
_cell_angle_beta 47.038629
_cell_angle_gamma 90.000000
_cell_volume 1645.531428
_symmetry_space_group_name_H-M "P 2/M"
_symmetry_group_IT_number 10
_symmetry_cell_setting 'monoclinic'
loop_
_space_group_symop_operation_xyz
x,y,z
-x,y,-z
-x,-y,-z
x,-y,z
loop_
_atom_site_type_symbol
_atom_site_label
_atom_site_fract_x
_atom_site_fract_y
_atom_site_fract_z
Si Si1 0.202713 0.678707 0.636696
Si Si2 0.651849 0.927325 0.920689
Si Si3 0.850559 0.182062 0.231774
Si Si4 0.917287 0.639600 0.733417
Si Si5 0.658102 0.928393 0.273527
Si Si6 0.669306 0.706463 0.789950
Si Si7 0.836155 0.569462 0.096770
Si Si8 0.847293 0.170437 0.577718
O O1 0.231556 0.748769 0.681969
O O2 0.310321 0.666740 0.387858
O O3 0.241552 0.625021 0.726808
O O4 0.033414 0.677320 0.732268
O O5 0.797170 0.892335 0.716551
O O6 0.668075 0.000000 0.849678
O O7 0.500000 0.897485 0.000000
O O8 0.642092 0.920533 0.109712
O O9 0.761871 0.128161 0.228123
O O10 0.879613 0.153384 0.371318
O O11 0.000000 0.195209 0.000000
O O12 0.779238 0.683584 0.818430
O O13 0.000000 0.613270 0.500000
O O14 0.843907 0.584042 0.907376
O O15 0.500000 0.918008 0.500000
O O16 0.719449 0.000000 0.254967
O O17 0.713187 0.779453 0.716524
O O18 0.500000 0.699790 0.000000
O O19 0.755529 0.500000 0.194223
O O20 0.000000 0.562616 0.000000
O O21 0.000000 0.198688 0.500000
#
# Coordination Sequence:
#
# PCOD8064135 Si02
#       8
#     4   4   4   4   4   4   4   4
#     4   9  19  36  55  82 112 142 180 224 276 323
#     4  10  21  38  58  79 107 144 184 225 270 327
#     4  11  21  35  56  81 110 143 179 224 276 328
#     4   9  17  32  55  80 111 143 176 226 276 318
#     4  10  22  39  57  80 110 143 180 224 274 324
#     4  10  20  35  55  79 107 140 180 224 272 328
#     4   9  17  31  55  84 112 145 186 229 271 322
#     4  11  22  36  56  81 108 140 180 227 280 331
#
# _framework density 19.446605999999999
#
# number of rings (size 3 to 8) (size 9 to 14) (size 15 to 20)
#    0.000    2.125    0.000    4.875    0.000    4.250 
#    0.000    2.500    0.000    2.250    0.000    0.000 
#    0.000    0.000    0.000    0.000    0.000    0.000 
#
# Total GULP energy -396624.008628 kJ/mol
# GULP energy per Si atom -12394.500270 kJ/mol
# Density = 1.940234 g / cm^3
# Si number density = 19.446606 Si / 1000 Ang^3
#
#
#
# Elastic Constant Matrix: (Units=GPa)
#
#
# Indices 1 2 3 4 5 6 
#
# 1 61.2282 31.1863 32.7951 0.0000 2.6752 0.0000
# 2 31.1863 105.6137 42.4952 0.0000 9.3883 0.0000
# 3 32.7951 42.4952 123.2242 0.0000 4.4349 0.0000
# 4 0.0000 0.0000 0.0000 29.3992 0.0000 8.5088
# 5 2.6752 9.3883 4.4349 0.0000 29.3361 0.0000
# 6 0.0000 0.0000 0.0000 8.5088 0.0000 -28.8522
#
#
#
# Elastic Compliance Matrix: (Units=1/GPa)
#
#
# Indices 1 2 3 4 5 6 
#
# 1 0.020766 -0.004552 -0.003963 0.000000 0.000162 0.000000
# 2 -0.004552 0.012254 -0.002904 0.000000 -0.003067 0.000000
# 3 -0.003963 -0.002904 0.010180 0.000000 -0.000248 0.000000
# 4 0.000000 0.000000 0.000000 0.031340 0.000000 0.009242
# 5 0.000162 -0.003067 -0.000248 0.000000 0.035092 0.000000
# 6 0.000000 0.000000 0.000000 0.009242 0.000000 -0.031934
#
#
# Mechanical properties :
#
#
# Convention : Reuss Voigt Hill
#
# Bulk Modulus (GPa) = 49.10881 55.89105 52.49993
# Shear Modulus (GPa) = 46.58812 18.21592 32.40202
#
# Velocity S-wave (km/s) = 4.89989 3.06390 4.08635
# Velocity P-wave (km/s) = 7.57099 6.42805 7.02281
#
# Compressibility (1/GPa) = 0.02036295
#
# Stress axis : x y z
#
# Youngs Moduli (GPa) = 48.15482 81.60791 98.22826
#
# Poissons Ratio (x) = 0.37147 0.38926
# Poissons Ratio (y) = 0.21920 0.28525
# Poissons Ratio (z) = 0.19083 0.23699
#
# Static dielectric constant tensor:
#      x y z
#    x 3.425090 0.000000 0.283080 
#    y 0.000000 3.747710 0.000000 
#    z 0.283080 0.000000 3.700060 
# 
# 
# High freq. dielectric constant tensor:
#      x y z
#    x 1.738250 0.000000 0.024680 
#    y 0.000000 1.750130 0.000000 
#    z 0.024680 0.000000 1.764350 
# 
# From -- ./inp_files/26065.got.cif
#   From: 2010.06.25/outbox.cif.g09.slc.cpg/sg10_14_cif.got.tgz:26065.got - 2010.06.27 22:07:45.
