data_PCOD8064644
_publ_section_title
;
Structure prediction by ZEFSAII (Michael W. Deem and Ramdas Pophale) SiO2 
 PCOD8064644
Probable space group: P 2/M
;
_chemical_formula_sum "Si O2"
_cell_formula_units_Z 32
_cell_length_a 24.707031
_cell_length_b 9.348425
_cell_length_c 16.332782
_cell_angle_alpha 90.000000
_cell_angle_beta 153.896807
_cell_angle_gamma 90.000000
_cell_volume 1659.820808
_symmetry_space_group_name_H-M "P 2/M"
_symmetry_group_IT_number 10
_symmetry_cell_setting 'monoclinic'
loop_
_space_group_symop_operation_xyz
x,y,z
-x,y,-z
-x,-y,-z
x,-y,z
loop_
_atom_site_type_symbol
_atom_site_label
_atom_site_fract_x
_atom_site_fract_y
_atom_site_fract_z
Si Si1 0.773923 0.161434 0.014516
Si Si2 0.378216 0.335535 0.881103
Si Si3 0.210822 0.339054 0.503608
Si Si4 0.616657 0.656087 0.698331
Si Si5 0.804068 0.342009 0.809138
Si Si6 0.031625 0.169478 0.852664
Si Si7 0.380411 0.166323 0.048596
Si Si8 0.620015 0.666146 0.417781
O O1 0.897744 0.216195 0.136706
O O2 0.757513 0.000000 0.963449
O O3 0.655227 0.246729 0.824818
O O4 0.752595 0.178367 0.083415
O O5 0.395155 0.500000 0.932596
O O6 0.260651 0.317772 0.662870
O O7 0.500000 0.282750 0.000000
O O8 0.354020 0.237314 0.926005
O O9 0.158346 0.500000 0.420978
O O10 0.324023 0.313167 0.596232
O O11 0.105677 0.225209 0.343120
O O12 0.500000 0.733389 0.500000
O O13 0.577656 0.500000 0.679803
O O14 0.723107 0.638699 0.778444
O O15 0.857164 0.500000 0.856744
O O16 0.721412 0.279232 0.622333
O O17 0.912171 0.235251 0.986462
O O18 0.029459 0.000000 0.860637
O O19 0.494374 0.242969 0.250366
O O20 0.415335 0.000000 0.085122
O O21 0.589534 0.500000 0.394428
#
# Coordination Sequence:
#
# PCOD8064644 Si02
#       8
#     4   4   4   4   4   4   4   4
#     4   9  20  36  51  73 107 148 183 217 267 323
#     4  10  20  39  62  84 111 142 176 218 276 336
#     4  10  21  38  60  82 107 141 183 227 271 328
#     4   9  16  27  46  74 103 135 181 231 270 311
#     4   9  18  32  52  77 107 145 188 228 269 320
#     4  10  21  38  57  76 109 152 190 226 269 319
#     4  11  22  35  56  86 116 142 179 228 275 328
#     4  10  20  36  57  82 113 148 183 225 279 330
#
# _framework density 19.27919
#
# number of rings (size 3 to 8) (size 9 to 14) (size 15 to 20)
#    0.000    2.250    1.250    1.500    0.000    5.000 
#    0.000    5.625    0.000    3.750    0.000    0.000 
#    0.000    0.000    0.000    0.000    0.000    0.000 
#
# Total GULP energy -396468.365839 kJ/mol
# GULP energy per Si atom -12389.636432 kJ/mol
# Density = 1.923531 g / cm^3
# Si number density = 19.279190 Si / 1000 Ang^3
#
#
#
# Elastic Constant Matrix: (Units=GPa)
#
#
# Indices 1 2 3 4 5 6 
#
# 1 59.8338 20.9876 10.3606 0.0000 -12.0597 0.0000
# 2 20.9876 62.5468 25.2939 0.0000 -3.0399 0.0000
# 3 10.3606 25.2939 69.5808 0.0000 -7.2267 0.0000
# 4 0.0000 0.0000 0.0000 36.3391 0.0000 -0.9548
# 5 -12.0597 -3.0399 -7.2267 0.0000 25.5294 0.0000
# 6 0.0000 0.0000 0.0000 -0.9548 0.0000 25.3191
#
#
#
# Elastic Compliance Matrix: (Units=1/GPa)
#
#
# Indices 1 2 3 4 5 6 
#
# 1 0.020842 -0.006657 0.000265 0.000000 0.009128 0.000000
# 2 -0.006657 0.020872 -0.006867 0.000000 -0.002603 0.000000
# 3 0.000265 -0.006867 0.017264 0.000000 0.004194 0.000000
# 4 0.000000 0.000000 0.000000 0.027546 0.000000 0.001039
# 5 0.009128 -0.002603 0.004194 0.000000 0.044360 0.000000
# 6 0.000000 0.000000 0.000000 0.001039 0.000000 0.039535
#
#
# Mechanical properties :
#
#
# Convention : Reuss Voigt Hill
#
# Bulk Modulus (GPa) = 30.80687 33.91621 32.36154
# Shear Modulus (GPa) = 24.06666 26.45881 25.26273
#
# Velocity S-wave (km/s) = 3.53699 3.70861 3.62382
# Velocity P-wave (km/s) = 5.71791 5.99740 5.85932
#
# Compressibility (1/GPa) = 0.03246029
#
# Stress axis : x y z
#
# Youngs Moduli (GPa) = 47.98040 47.91098 57.92361
#
# Poissons Ratio (x) = 0.31894 -0.01532
# Poissons Ratio (y) = 0.31940 0.39773
# Poissons Ratio (z) = -0.01269 0.32898
#
# Static dielectric constant tensor:
#      x y z
#    x 3.584060 0.000000 -0.110500 
#    y 0.000000 3.718170 0.000000 
#    z -0.110500 0.000000 3.907760 
# 
# 
# High freq. dielectric constant tensor:
#      x y z
#    x 1.755250 0.000000 -0.004000 
#    y 0.000000 1.743250 0.000000 
#    z -0.004000 0.000000 1.733300 
# 
# From -- ./inp_files/71686.got.cif
#   From: 2010.06.25/outbox.cif.g09.slc.cpg/sg10_36_cif.got.tgz:71686.got - 2010.06.27 22:07:45.
