data_PCOD8064874
_publ_section_title
;
Structure prediction by ZEFSAII (Michael W. Deem and Ramdas Pophale) SiO2 
 PCOD8064874
Probable space group: P 2/M
;
_chemical_formula_sum "Si O2"
_cell_formula_units_Z 24
_cell_length_a 15.043709
_cell_length_b 11.422670
_cell_length_c 21.841211
_cell_angle_alpha 90.000000
_cell_angle_beta 17.842113
_cell_angle_gamma 90.000000
_cell_volume 1149.955434
_symmetry_space_group_name_H-M "P 2/M"
_symmetry_group_IT_number 10
_symmetry_cell_setting 'monoclinic'
loop_
_space_group_symop_operation_xyz
x,y,z
-x,y,-z
-x,-y,-z
x,-y,z
loop_
_atom_site_type_symbol
_atom_site_label
_atom_site_fract_x
_atom_site_fract_y
_atom_site_fract_z
Si Si1 0.648211 0.000000 0.730094
Si Si2 0.715491 0.248607 0.728172
Si Si3 0.898056 0.000000 0.995871
Si Si4 0.143055 0.634981 0.112494
Si Si5 0.063729 0.252605 0.863778
Si Si6 0.058084 0.366447 0.306150
Si Si7 0.392900 0.366557 0.750078
O O1 0.573913 0.119160 0.815048
O O2 0.452952 0.000000 0.793971
O O3 0.000000 0.000000 0.500000
O O4 0.778717 0.274895 0.757687
O O5 0.000000 0.268217 0.500000
O O6 0.463803 0.339791 0.874922
O O7 0.049586 0.112989 0.867766
O O8 0.000000 0.000000 0.000000
O O9 0.070068 0.500000 0.156691
O O10 0.909462 0.699249 0.222615
O O11 0.105160 0.679664 0.206614
O O12 0.338340 0.297657 0.722280
O O13 0.772117 0.300399 0.087557
O O14 0.178628 0.500000 0.234487
O O15 0.729065 0.362474 0.543565
O O16 0.281784 0.500000 0.817310
#
# Coordination Sequence:
#
# PCOD8064874 Si02
#       7
#     2   4   2   4   4   4   4
#     4  10  24  40  62  92 125 159 204 258 314 366
#     4  11  22  39  63  87 118 155 209 252 303 357
#     4  12  22  40  65  92 126 163 204 263 317 365
#     4  11  22  38  59  85 125 162 198 244 312 376
#     4  11  21  36  62  88 116 158 205 255 306 356
#     4  10  23  39  58  88 125 164 197 245 312 377
#     4  10  20  36  59  92 122 152 205 257 305 361
#
# _framework density 20.870374000000002
#
# number of rings (size 3 to 8) (size 9 to 14) (size 15 to 20)
#    0.000    1.333    3.333    4.000    2.333    4.667 
#    0.000    5.000    0.000    1.000    0.000    0.000 
#    0.000    0.000    0.000    0.000    0.000    0.000 
#
# Total GULP energy -297391.815211 kJ/mol
# GULP energy per Si atom -12391.325634 kJ/mol
# Density = 2.082287 g / cm^3
# Si number density = 20.870374 Si / 1000 Ang^3
#
#
#
# Elastic Constant Matrix: (Units=GPa)
#
#
# Indices 1 2 3 4 5 6 
#
# 1 161.1274 59.6051 -0.7414 0.0000 2.8988 0.0000
# 2 59.6051 121.6469 5.5823 0.0000 5.7027 0.0000
# 3 -0.7414 5.5823 24.3311 0.0000 -4.0901 0.0000
# 4 0.0000 0.0000 0.0000 13.6676 0.0000 -9.2899
# 5 2.8988 5.7027 -4.0901 0.0000 33.2189 0.0000
# 6 0.0000 0.0000 0.0000 -9.2899 0.0000 58.0867
#
#
#
# Elastic Compliance Matrix: (Units=1/GPa)
#
#
# Indices 1 2 3 4 5 6 
#
# 1 0.007610 -0.003786 0.001121 0.000000 0.000124 0.000000
# 2 -0.003786 0.010286 -0.002774 0.000000 -0.001777 0.000000
# 3 0.001121 -0.002774 0.042718 0.000000 0.005638 0.000000
# 4 0.000000 0.000000 0.000000 0.082090 0.000000 0.013129
# 5 0.000124 -0.001777 0.005638 0.000000 0.031092 0.000000
# 6 0.000000 0.000000 0.000000 0.013129 0.000000 0.019315
#
#
# Mechanical properties :
#
#
# Convention : Reuss Voigt Hill
#
# Bulk Modulus (GPa) = 20.10590 48.44416 34.27503
# Shear Modulus (GPa) = 22.66888 37.17193 29.92041
#
# Velocity S-wave (km/s) = 3.29929 4.22487 3.79044
# Velocity P-wave (km/s) = 4.91614 6.86015 5.96783
#
# Compressibility (1/GPa) = 0.04973664
#
# Stress axis : x y z
#
# Youngs Moduli (GPa) = 131.41127 97.21808 23.40931
#
# Poissons Ratio (x) = 0.36806 -0.02625
# Poissons Ratio (y) = 0.49751 0.06494
# Poissons Ratio (z) = -0.14735 0.26969
#
# Static dielectric constant tensor:
#      x y z
#    x 4.099460 0.000000 -0.228330 
#    y 0.000000 4.063610 0.000000 
#    z -0.228330 0.000000 3.577430 
# 
# 
# High freq. dielectric constant tensor:
#      x y z
#    x 1.835010 0.000000 -0.019920 
#    y 0.000000 1.817500 0.000000 
#    z -0.019920 0.000000 1.790610 
# 
# From -- ./inp_files/85178.got.cif
#   From: 2010.06.25/outbox.cif.g09.slc.cpg/sg10_43_cif.got.tgz:85178.got - 2010.06.27 22:07:45.
