data_PCOD8064648
_publ_section_title
;
Structure prediction by ZEFSAII (Michael W. Deem and Ramdas Pophale) SiO2 
 PCOD8064648
Probable space group: P 2/M
;
_chemical_formula_sum "Si O2"
_cell_formula_units_Z 32
_cell_length_a 14.175557
_cell_length_b 8.999644
_cell_length_c 23.819480
_cell_angle_alpha 90.000000
_cell_angle_beta 33.357947
_cell_angle_gamma 90.000000
_cell_volume 1670.921559
_symmetry_space_group_name_H-M "P 2/M"
_symmetry_group_IT_number 10
_symmetry_cell_setting 'monoclinic'
loop_
_space_group_symop_operation_xyz
x,y,z
-x,y,-z
-x,-y,-z
x,-y,z
loop_
_atom_site_type_symbol
_atom_site_label
_atom_site_fract_x
_atom_site_fract_y
_atom_site_fract_z
Si Si1 0.166596 0.173857 0.382523
Si Si2 0.179404 0.176009 0.933082
Si Si3 0.333010 0.175678 0.972836
Si Si4 0.509180 0.174720 0.703652
Si Si5 0.768249 0.324142 0.359876
Si Si6 0.521107 0.675728 0.579185
Si Si7 0.152605 0.674342 0.165764
Si Si8 0.305911 0.325978 0.210591
O O1 0.333996 0.217674 0.334456
O O2 0.167821 0.267150 0.324305
O O3 0.000000 0.222622 0.500000
O O4 0.161847 0.000000 0.370224
O O5 0.334779 0.238714 0.817887
O O6 0.177167 0.000000 0.928320
O O7 0.206687 0.220681 0.984513
O O8 0.000000 0.244619 0.000000
O O9 0.264722 0.243112 0.064085
O O10 0.348580 0.000000 0.971097
O O11 0.518938 0.238753 0.866345
O O12 0.541727 0.247991 0.628068
O O13 0.497647 0.000000 0.700475
O O14 0.776208 0.500000 0.359908
O O15 0.659568 0.276139 0.359249
O O16 0.675402 0.266724 0.462569
O O17 0.959869 0.259462 0.260077
O O18 0.529058 0.500000 0.582985
O O19 0.155866 0.500000 0.150741
O O20 0.233930 0.710142 0.185142
O O21 0.337649 0.500000 0.202898
#
# Coordination Sequence:
#
# PCOD8064648 Si02
#       8
#     4   4   4   4   4   4   4   4
#     4  10  22  40  60  83 116 154 189 230 281 334
#     4   9  19  36  57  80 111 148 184 225 279 336
#     4  11  22  39  61  83 110 147 188 228 279 340
#     4  10  20  36  57  83 114 147 180 229 287 330
#     4   8  17  36  56  78 112 150 183 225 277 329
#     4   9  18  34  58  81 108 149 189 222 270 333
#     4  10  22  38  57  82 113 145 184 235 286 328
#     4  11  23  39  60  84 113 148 186 232 283 331
#
# _framework density 19.151109000000002
#
# number of rings (size 3 to 8) (size 9 to 14) (size 15 to 20)
#    0.000    2.250    1.250    1.875    3.500    3.250 
#    0.000    1.875    0.000    1.875    0.000    0.000 
#    0.000    0.000    0.000    0.000    0.000    0.000 
#
# Total GULP energy -396832.173294 kJ/mol
# GULP energy per Si atom -12401.005415 kJ/mol
# Density = 1.910752 g / cm^3
# Si number density = 19.151109 Si / 1000 Ang^3
#
#
#
# Elastic Constant Matrix: (Units=GPa)
#
#
# Indices 1 2 3 4 5 6 
#
# 1 80.4563 45.7522 47.4505 0.0000 12.2500 0.0000
# 2 45.7522 41.7176 34.8807 0.0000 9.4662 0.0000
# 3 47.4505 34.8807 127.3022 0.0000 5.1200 0.0000
# 4 0.0000 0.0000 0.0000 28.9120 0.0000 9.4148
# 5 12.2500 9.4662 5.1200 0.0000 42.2557 0.0000
# 6 0.0000 0.0000 0.0000 9.4148 0.0000 23.6467
#
#
#
# Elastic Compliance Matrix: (Units=1/GPa)
#
#
# Indices 1 2 3 4 5 6 
#
# 1 0.034125 -0.034296 -0.003250 0.000000 -0.001816 0.000000
# 2 -0.034296 0.067133 -0.005432 0.000000 -0.004438 0.000000
# 3 -0.003250 -0.005432 0.010519 0.000000 0.000884 0.000000
# 4 0.000000 0.000000 0.000000 0.039740 0.000000 -0.015822
# 5 -0.001816 -0.004438 0.000884 0.000000 0.025079 0.000000
# 6 0.000000 0.000000 0.000000 -0.015822 0.000000 0.048589
#
#
# Mechanical properties :
#
#
# Convention : Reuss Voigt Hill
#
# Bulk Modulus (GPa) = 38.72782 56.18255 47.45519
# Shear Modulus (GPa) = 15.63732 27.05574 21.34653
#
# Velocity S-wave (km/s) = 2.86059 3.76273 3.34224
# Velocity P-wave (km/s) = 5.58361 6.94822 6.30295
#
# Compressibility (1/GPa) = 0.02582123
#
# Stress axis : x y z
#
# Youngs Moduli (GPa) = 29.30418 14.89583 95.06213
#
# Poissons Ratio (x) = 0.51087 0.30891
# Poissons Ratio (y) = 1.00502 0.51641
# Poissons Ratio (z) = 0.09522 0.08092
#
# Static dielectric constant tensor:
#      x y z
#    x 3.663110 0.000000 -0.171660 
#    y 0.000000 3.184500 0.000000 
#    z -0.171660 0.000000 3.898500 
# 
# 
# High freq. dielectric constant tensor:
#      x y z
#    x 1.756160 0.000000 0.001150 
#    y 0.000000 1.714960 0.000000 
#    z 0.001150 0.000000 1.758940 
# 
# From -- ./inp_files/71649.got.cif
#   From: 2010.06.25/outbox.cif.g09.slc.cpg/sg10_36_cif.got.tgz:71649.got - 2010.06.27 22:07:45.
