data_PCOD8064379
_publ_section_title
;
Structure prediction by ZEFSAII (Michael W. Deem and Ramdas Pophale) SiO2 
 PCOD8064379
Probable space group: P 2/M
;
_chemical_formula_sum "Si O2"
_cell_formula_units_Z 26
_cell_length_a 7.558641
_cell_length_b 9.389364
_cell_length_c 19.605754
_cell_angle_alpha 90.000000
_cell_angle_beta 126.643874
_cell_angle_gamma 90.000000
_cell_volume 1116.434075
_symmetry_space_group_name_H-M "P 2/M"
_symmetry_group_IT_number 10
_symmetry_cell_setting 'monoclinic'
loop_
_space_group_symop_operation_xyz
x,y,z
-x,y,-z
-x,-y,-z
x,-y,z
loop_
_atom_site_type_symbol
_atom_site_label
_atom_site_fract_x
_atom_site_fract_y
_atom_site_fract_z
Si Si1 0.500000 0.233331 0.000000
Si Si2 0.488786 0.160306 0.615505
Si Si3 0.202057 0.841689 0.683334
Si Si4 0.851243 0.339915 0.770505
Si Si5 0.661468 0.653433 0.172418
Si Si6 0.977723 0.841792 0.072732
Si Si7 0.855910 0.338637 0.534883
O O1 0.488118 0.326707 0.928722
O O2 0.274544 0.144908 0.957630
O O3 0.324929 0.148019 0.640754
O O4 0.704176 0.246289 0.686341
O O5 0.367854 0.248985 0.527952
O O6 0.548413 0.000000 0.604114
O O7 0.370634 0.775219 0.777916
O O8 0.988564 0.740487 0.625908
O O9 0.129449 0.000000 0.690437
O O10 0.754028 0.500000 0.757305
O O11 0.086539 0.345192 0.790785
O O12 0.872736 0.266313 0.849492
O O13 0.599719 0.500000 0.190270
O O14 0.079801 0.000000 0.103203
O O15 0.000000 0.789234 0.000000
O O16 0.799957 0.500000 0.545544
O O17 0.000000 0.343570 0.500000
#
# Coordination Sequence:
#
# PCOD8064379 Si02
#       7
#     2   4   4   4   4   4   4
#     4  10  22  40  62  88 118 160 200 252 306 356
#     4  10  20  35  57  85 118 152 188 237 290 344
#     4  10  21  35  56  86 116 149 192 237 288 349
#     4  10  22  39  57  82 114 151 192 238 293 348
#     4  10  22  40  60  82 114 151 193 242 293 350
#     4  10  22  39  60  86 118 155 200 250 301 362
#     4   9  17  32  55  83 115 151 191 235 286 343
#
# _framework density 23.288433000000001
#
# number of rings (size 3 to 8) (size 9 to 14) (size 15 to 20)
#    0.000    2.154    0.000    2.308    2.154    8.308 
#    0.000    0.769    0.000    4.615    0.000    0.000 
#    0.000    0.000    0.000    0.000    0.000    0.000 
#
# Total GULP energy -322340.871631 kJ/mol
# GULP energy per Si atom -12397.725832 kJ/mol
# Density = 2.323543 g / cm^3
# Si number density = 23.288433 Si / 1000 Ang^3
#
#
#
# Elastic Constant Matrix: (Units=GPa)
#
#
# Indices 1 2 3 4 5 6 
#
# 1 20.9827 3.3739 -4.3348 0.0000 0.3829 0.0000
# 2 3.3739 202.6341 55.0094 0.0000 7.1478 0.0000
# 3 -4.3348 55.0094 99.0710 0.0000 13.0929 0.0000
# 4 0.0000 0.0000 0.0000 27.5650 0.0000 -1.9602
# 5 0.3829 7.1478 13.0929 0.0000 30.4228 0.0000
# 6 0.0000 0.0000 0.0000 -1.9602 0.0000 9.7215
#
#
#
# Elastic Compliance Matrix: (Units=1/GPa)
#
#
# Indices 1 2 3 4 5 6 
#
# 1 0.048622 -0.001634 0.003250 0.000000 -0.001627 0.000000
# 2 -0.001634 0.005866 -0.003339 0.000000 0.000079 0.000000
# 3 0.003250 -0.003339 0.012715 0.000000 -0.004728 0.000000
# 4 0.000000 0.000000 0.000000 0.036806 0.000000 0.007421
# 5 -0.001627 0.000079 -0.004728 0.000000 0.034907 0.000000
# 6 0.000000 0.000000 0.000000 0.007421 0.000000 0.104361
#
#
# Mechanical properties :
#
#
# Convention : Reuss Voigt Hill
#
# Bulk Modulus (GPa) = 15.68488 47.86498 31.77493
# Shear Modulus (GPa) = 18.65843 31.45115 25.05479
#
# Velocity S-wave (km/s) = 2.83360 3.67891 3.28357
# Velocity P-wave (km/s) = 4.17796 6.21639 5.29617
#
# Compressibility (1/GPa) = 0.06375566
#
# Stress axis : x y z
#
# Youngs Moduli (GPa) = 20.56679 170.47764 78.64805
#
# Poissons Ratio (x) = 0.27864 -0.25560
# Poissons Ratio (y) = 0.03362 0.26261
# Poissons Ratio (z) = -0.06684 0.56923
#
# Static dielectric constant tensor:
#      x y z
#    x 3.817650 0.000000 0.033790 
#    y 0.000000 4.593480 0.000000 
#    z 0.033790 0.000000 4.357650 
# 
# 
# High freq. dielectric constant tensor:
#      x y z
#    x 1.901100 0.000000 -0.001160 
#    y 0.000000 1.928610 0.000000 
#    z -0.001160 0.000000 1.925450 
# 
# From -- ./inp_files/82222.got.cif
#   From: 2010.06.25/outbox.cif.g09.slc.cpg/sg10_42_cif.got.tgz:82222.got - 2010.06.27 22:07:45.
