data_PCOD8064529
_publ_section_title
;
Structure prediction by ZEFSAII (Michael W. Deem and Ramdas Pophale) SiO2 
 PCOD8064529
Probable space group: P 2/M
;
_chemical_formula_sum "Si O2"
_cell_formula_units_Z 20
_cell_length_a 13.614170
_cell_length_b 8.780022
_cell_length_c 21.992661
_cell_angle_alpha 90.000000
_cell_angle_beta 158.729456
_cell_angle_gamma 90.000000
_cell_volume 953.670936
_symmetry_space_group_name_H-M "P 2/M"
_symmetry_group_IT_number 10
_symmetry_cell_setting 'monoclinic'
loop_
_space_group_symop_operation_xyz
x,y,z
-x,y,-z
-x,-y,-z
x,-y,z
loop_
_atom_site_type_symbol
_atom_site_label
_atom_site_fract_x
_atom_site_fract_y
_atom_site_fract_z
Si Si1 0.715419 0.179775 0.807747
Si Si2 0.311495 0.319321 0.668144
Si Si3 0.476153 0.680552 0.083917
Si Si4 0.498977 0.679434 0.430281
Si Si5 0.903002 0.320195 0.235476
O O1 0.452712 0.247254 0.690632
O O2 0.712781 0.236407 0.735963
O O3 0.696825 0.000000 0.799411
O O4 0.000000 0.237900 0.000000
O O5 0.319304 0.500000 0.663766
O O6 0.491360 0.258343 0.828925
O O7 0.000000 0.266963 0.500000
O O8 0.503881 0.500000 0.103423
O O9 0.718356 0.748886 0.182168
O O10 0.196210 0.732763 0.889658
O O11 0.500000 0.739101 0.500000
O O12 0.437591 0.500000 0.393034
O O13 0.793076 0.726141 0.574919
O O14 0.868793 0.500000 0.215869
#
# Coordination Sequence:
#
# PCOD8064529 Si02
#       5
#     4   4   4   4   4
#     4  11  26  44  59  82 122 171 212 245 292 361
#     4  10  20  35  61  93 120 151 198 253 310 362
#     4   8  14  25  48  79 114 147 174 224 293 353
#     4  10  21  36  60  89 114 145 196 255 307 358
#     4   8  14  27  47  79 116 143 175 226 293 357
#
# _framework density 20.971596000000002
#
# number of rings (size 3 to 8) (size 9 to 14) (size 15 to 20)
#    0.000    2.600    0.000    3.000    2.800    5.600 
#    0.000    0.000    0.000    0.000    0.000    4.200 
#    0.000    0.000    0.000    0.000    0.000    0.000 
#
# Total GULP energy -247808.916112 kJ/mol
# GULP energy per Si atom -12390.445806 kJ/mol
# Density = 2.092386 g / cm^3
# Si number density = 20.971596 Si / 1000 Ang^3
#
#
#
# Elastic Constant Matrix: (Units=GPa)
#
#
# Indices 1 2 3 4 5 6 
#
# 1 106.5889 24.9007 44.8205 0.0000 -24.6079 0.0000
# 2 24.9007 33.8812 31.2079 0.0000 -1.9734 0.0000
# 3 44.8205 31.2079 111.9878 0.0000 -24.7265 0.0000
# 4 0.0000 0.0000 0.0000 18.4466 0.0000 -0.6555
# 5 -24.6079 -1.9734 -24.7265 0.0000 39.8141 0.0000
# 6 0.0000 0.0000 0.0000 -0.6555 0.0000 12.3543
#
#
#
# Elastic Compliance Matrix: (Units=1/GPa)
#
#
# Indices 1 2 3 4 5 6 
#
# 1 0.013561 -0.008041 -0.001650 0.000000 0.006958 0.000000
# 2 -0.008041 0.045617 -0.011696 0.000000 -0.009972 0.000000
# 3 -0.001650 -0.011696 0.014482 0.000000 0.007394 0.000000
# 4 0.000000 0.000000 0.000000 0.054313 0.000000 0.002882
# 5 0.006958 -0.009972 0.007394 0.000000 0.033515 0.000000
# 6 0.000000 0.000000 0.000000 0.002882 0.000000 0.081096
#
#
# Mechanical properties :
#
#
# Convention : Reuss Voigt Hill
#
# Bulk Modulus (GPa) = 32.37796 50.47958 41.42877
# Shear Modulus (GPa) = 16.91175 24.22493 20.56834
#
# Velocity S-wave (km/s) = 2.84282 3.40241 3.13512
# Velocity P-wave (km/s) = 5.12328 6.28951 5.73611
#
# Compressibility (1/GPa) = 0.03088521
#
# Stress axis : x y z
#
# Youngs Moduli (GPa) = 73.74294 21.92186 69.05158
#
# Poissons Ratio (x) = 0.17627 0.11395
# Poissons Ratio (y) = 0.59297 0.80761
# Poissons Ratio (z) = 0.12169 0.25639
#
# Static dielectric constant tensor:
#      x y z
#    x 4.120980 0.000000 -0.008430 
#    y 0.000000 3.093450 0.000000 
#    z -0.008430 0.000000 4.359890 
# 
# 
# High freq. dielectric constant tensor:
#      x y z
#    x 1.830140 0.000000 -0.014130 
#    y 0.000000 1.750210 0.000000 
#    z -0.014130 0.000000 1.837930 
# 
# From -- ./inp_files/89431.got.cif
#   From: 2010.06.25/outbox.cif.g09.slc.cpg/sg10_45_cif.got.tgz:89431.got - 2010.06.27 22:07:45.
