data_PCOD8064979
_publ_section_title
;
Structure prediction by ZEFSAII (Michael W. Deem and Ramdas Pophale) SiO2 
 PCOD8064979
Probable space group: P 2/M
;
_chemical_formula_sum "Si O2"
_cell_formula_units_Z 22
_cell_length_a 9.620917
_cell_length_b 25.967502
_cell_length_c 5.033090
_cell_angle_alpha 90.000000
_cell_angle_beta 60.800648
_cell_angle_gamma 90.000000
_cell_volume 1097.639079
_symmetry_space_group_name_H-M "P 2/M"
_symmetry_group_IT_number 10
_symmetry_cell_setting 'monoclinic'
loop_
_space_group_symop_operation_xyz
x,y,z
-x,y,-z
-x,-y,-z
x,-y,z
loop_
_atom_site_type_symbol
_atom_site_label
_atom_site_fract_x
_atom_site_fract_y
_atom_site_fract_z
Si Si1 0.394018 0.867129 0.357817
Si Si2 0.183761 0.659698 0.402405
Si Si3 0.393292 0.248950 0.356744
Si Si4 0.105118 0.942569 0.660020
Si Si5 0.612840 0.500000 0.148617
Si Si6 0.680662 0.391419 0.230966
O O1 0.500000 0.887456 0.500000
O O2 0.332312 0.808985 0.471658
O O3 0.246588 0.904334 0.464270
O O4 0.500000 0.869704 0.000000
O O5 0.240212 0.714746 0.463308
O O6 0.206603 0.618274 0.619071
O O7 0.000000 0.662459 0.500000
O O8 0.286427 0.647140 0.043794
O O9 0.500000 0.270040 0.500000
O O10 0.500000 0.249562 0.000000
O O11 0.000000 0.945439 0.500000
O O12 0.169473 0.000000 0.671010
O O13 0.000000 0.920650 0.000000
O O14 0.500000 0.500000 0.500000
O O15 0.718267 0.448190 0.073335
O O16 0.500000 0.500000 0.000000
O O17 0.500000 0.384881 0.500000
#
# Coordination Sequence:
#
# PCOD8064979 Si02
#       6
#     4   4   4   4   2   4
#     4  10  21  37  58  85 112 144 191 242 284 328
#     4  12  24  38  57  87 118 148 187 232 284 338
#     4  10  21  38  59  81 110 149 191 232 281 337
#     4  10  21  37  57  83 117 155 190 227 280 343
#     4  10  20  36  61  90 109 140 195 236 267 328
#     4  11  22  40  63  85 112 150 191 232 276 333
#
# _framework density 20.043018
#
# number of rings (size 3 to 8) (size 9 to 14) (size 15 to 20)
#    0.000    1.455    0.000    7.091    0.000    1.455 
#    0.000    4.545    0.000    0.000    0.000    0.000 
#    0.000    0.000    0.000    0.000    0.000    0.000 
#
# Total GULP energy -272808.164496 kJ/mol
# GULP energy per Si atom -12400.371113 kJ/mol
# Density = 1.999740 g / cm^3
# Si number density = 20.043018 Si / 1000 Ang^3
#
#
#
# Elastic Constant Matrix: (Units=GPa)
#
#
# Indices 1 2 3 4 5 6 
#
# 1 139.6482 73.3773 40.4420 0.0000 11.8115 0.0000
# 2 73.3773 118.6544 32.3393 0.0000 -10.9706 0.0000
# 3 40.4420 32.3393 104.4780 0.0000 19.0620 0.0000
# 4 0.0000 0.0000 0.0000 20.9930 0.0000 14.6878
# 5 11.8115 -10.9706 19.0620 0.0000 37.3974 0.0000
# 6 0.0000 0.0000 0.0000 14.6878 0.0000 24.6715
#
#
#
# Elastic Compliance Matrix: (Units=1/GPa)
#
#
# Indices 1 2 3 4 5 6 
#
# 1 0.011941 -0.007512 -0.001331 0.000000 -0.005297 0.000000
# 2 -0.007512 0.014700 -0.003156 0.000000 0.008293 0.000000
# 3 -0.001331 -0.003156 0.012299 0.000000 -0.006775 0.000000
# 4 0.000000 0.000000 0.000000 0.081641 0.000000 -0.048604
# 5 -0.005297 0.008293 -0.006775 0.000000 0.034299 0.000000
# 6 0.000000 0.000000 0.000000 -0.048604 0.000000 0.069468
#
#
# Mechanical properties :
#
#
# Convention : Reuss Voigt Hill
#
# Bulk Modulus (GPa) = 66.91428 72.78865 69.85147
# Shear Modulus (GPa) = 19.73751 31.05385 25.39568
#
# Velocity S-wave (km/s) = 3.14149 3.94046 3.56344
# Velocity P-wave (km/s) = 6.82762 7.55632 7.20120
#
# Compressibility (1/GPa) = 0.01494449
#
# Stress axis : x y z
#
# Youngs Moduli (GPa) = 83.74408 68.02771 81.30549
#
# Poissons Ratio (x) = 0.51099 0.10820
# Poissons Ratio (y) = 0.62905 0.25656
# Poissons Ratio (z) = 0.11145 0.21467
#
# Static dielectric constant tensor:
#      x y z
#    x 3.461630 0.000000 0.309600 
#    y 0.000000 4.950990 0.000000 
#    z 0.309600 0.000000 3.711320 
# 
# 
# High freq. dielectric constant tensor:
#      x y z
#    x 1.769850 0.000000 0.027770 
#    y 0.000000 1.792070 0.000000 
#    z 0.027770 0.000000 1.793390 
# 
# From -- ./inp_files/5147.got.cif
#   From: 2010.06.25/outbox.cif.g09.slc.cpg/sg10_3_cif.got.tgz:5147.got - 2010.06.27 22:07:45.
