data_PCOD8064292
_publ_section_title
;
Structure prediction by ZEFSAII (Michael W. Deem and Ramdas Pophale) SiO2 
 PCOD8064292
Probable space group: P 2/M
;
_chemical_formula_sum "Si O2"
_cell_formula_units_Z 24
_cell_length_a 17.223205
_cell_length_b 13.161586
_cell_length_c 13.258832
_cell_angle_alpha 90.000000
_cell_angle_beta 25.561885
_cell_angle_gamma 90.000000
_cell_volume 1296.862394
_symmetry_space_group_name_H-M "P 2/M"
_symmetry_group_IT_number 10
_symmetry_cell_setting 'monoclinic'
loop_
_space_group_symop_operation_xyz
x,y,z
-x,y,-z
-x,-y,-z
x,-y,z
loop_
_atom_site_type_symbol
_atom_site_label
_atom_site_fract_x
_atom_site_fract_y
_atom_site_fract_z
Si Si1 0.489575 0.884716 0.127622
Si Si2 0.287302 0.247218 0.520332
Si Si3 0.905071 0.752768 0.902560
Si Si4 0.699362 0.118849 0.300637
Si Si5 0.106764 0.115283 0.276042
Si Si6 0.438019 0.618847 0.685936
O O1 0.358417 0.807259 0.336858
O O2 0.413823 0.000000 0.222310
O O3 0.500000 0.849214 0.000000
O O4 0.681383 0.878764 0.955854
O O5 0.264741 0.161964 0.631419
O O6 0.418792 0.336344 0.402930
O O7 0.091793 0.295064 0.724634
O O8 0.946305 0.807259 0.748973
O O9 0.839087 0.838020 0.057071
O O10 0.759500 0.663640 0.062214
O O11 0.500000 0.149605 0.500000
O O12 0.727607 0.000000 0.272366
O O13 0.000000 0.150792 0.500000
O O14 0.049960 0.000000 0.313895
O O15 0.500000 0.644864 0.500000
O O16 0.427400 0.500000 0.717877
#
# Coordination Sequence:
#
# PCOD8064292 Si02
#       6
#     4   4   4   4   4   4
#     4  10  20  35  56  87 125 162 198 235 280 344
#     4  12  22  37  60  87 117 155 197 237 297 355
#     4  12  22  37  60  87 117 155 197 237 297 355
#     4  11  21  35  55  83 123 160 191 232 284 350
#     4  10  20  35  56  87 125 162 198 235 280 344
#     4  11  24  44  64  86 116 148 198 259 308 353
#
# _framework density 18.506205000000001
#
# number of rings (size 3 to 8) (size 9 to 14) (size 15 to 20)
#    0.000    1.000    5.000    2.500    0.000    8.000 
#    0.000    1.667    0.000    1.000    0.000    0.000 
#    0.000    0.000    0.000    0.000    0.000    0.000 
#
# Total GULP energy -297700.870906 kJ/mol
# GULP energy per Si atom -12404.202954 kJ/mol
# Density = 1.846408 g / cm^3
# Si number density = 18.506205 Si / 1000 Ang^3
#
#
#
# Elastic Constant Matrix: (Units=GPa)
#
#
# Indices 1 2 3 4 5 6 
#
# 1 114.7049 56.3712 55.9071 0.0000 -4.2719 0.0000
# 2 56.3712 108.8236 56.4206 0.0000 -0.2833 0.0000
# 3 55.9071 56.4206 116.5164 0.0000 -7.2057 0.0000
# 4 0.0000 0.0000 0.0000 30.4683 0.0000 19.1317
# 5 -4.2719 -0.2833 -7.2057 0.0000 48.2668 0.0000
# 6 0.0000 0.0000 0.0000 19.1317 0.0000 33.5291
#
#
#
# Elastic Compliance Matrix: (Units=1/GPa)
#
#
# Indices 1 2 3 4 5 6 
#
# 1 0.012942 -0.004674 -0.003914 0.000000 0.000534 0.000000
# 2 -0.004674 0.013990 -0.004595 0.000000 -0.001017 0.000000
# 3 -0.003914 -0.004595 0.012780 0.000000 0.001535 0.000000
# 4 0.000000 0.000000 0.000000 0.051146 0.000000 -0.029184
# 5 0.000534 -0.001017 0.001535 0.000000 0.020989 0.000000
# 6 0.000000 0.000000 0.000000 -0.029184 0.000000 0.046477
#
#
# Mechanical properties :
#
#
# Convention : Reuss Voigt Hill
#
# Bulk Modulus (GPa) = 74.91806 75.27143 75.09475
# Shear Modulus (GPa) = 26.43577 33.87591 30.15584
#
# Velocity S-wave (km/s) = 3.78363 4.28310 4.04108
# Velocity P-wave (km/s) = 7.72388 8.07600 7.90190
#
# Compressibility (1/GPa) = 0.01334792
#
# Stress axis : x y z
#
# Youngs Moduli (GPa) = 77.26557 71.48166 78.24600
#
# Poissons Ratio (x) = 0.33408 0.30625
# Poissons Ratio (y) = 0.36111 0.35951
# Poissons Ratio (z) = 0.30241 0.32843
#
# Static dielectric constant tensor:
#      x y z
#    x 3.512330 0.000000 -0.078640 
#    y 0.000000 3.148640 0.000000 
#    z -0.078640 0.000000 3.524590 
# 
# 
# High freq. dielectric constant tensor:
#      x y z
#    x 1.728730 0.000000 -0.005390 
#    y 0.000000 1.689980 0.000000 
#    z -0.005390 0.000000 1.729570 
# 
# From -- ./inp_files/51489.got.cif
#   From: 2010.06.25/outbox.cif.g09.slc.cpg/sg10_26_cif.got.tgz:51489.got - 2010.06.27 22:07:45.
