data_PCOD8064359
_publ_section_title
;
Structure prediction by ZEFSAII (Michael W. Deem and Ramdas Pophale) SiO2 
 PCOD8064359
Probable space group: P 2/M
;
_chemical_formula_sum "Si O2"
_cell_formula_units_Z 28
_cell_length_a 11.468991
_cell_length_b 15.216122
_cell_length_c 13.622131
_cell_angle_alpha 90.000000
_cell_angle_beta 139.530316
_cell_angle_gamma 90.000000
_cell_volume 1542.941523
_symmetry_space_group_name_H-M "P 2/M"
_symmetry_group_IT_number 10
_symmetry_cell_setting 'monoclinic'
loop_
_space_group_symop_operation_xyz
x,y,z
-x,y,-z
-x,-y,-z
x,-y,z
loop_
_atom_site_type_symbol
_atom_site_label
_atom_site_fract_x
_atom_site_fract_y
_atom_site_fract_z
Si Si1 0.494331 0.103745 0.225408
Si Si2 0.456936 0.242273 0.585444
Si Si3 0.967361 0.599336 0.137074
Si Si4 0.151583 0.905491 0.875252
Si Si5 0.155425 0.136003 0.665561
Si Si6 0.294024 0.600605 0.204019
Si Si7 0.037767 0.750143 0.318780
O O1 0.466618 0.156805 0.308814
O O2 0.666386 0.147252 0.283784
O O3 0.523781 0.000000 0.264916
O O4 0.324222 0.121934 0.048185
O O5 0.500000 0.226368 0.500000
O O6 0.542755 0.332739 0.679030
O O7 0.247614 0.254160 0.471967
O O8 0.973467 0.500000 0.178893
O O9 0.146725 0.622284 0.192000
O O10 0.957612 0.660021 0.226173
O O11 0.792841 0.614433 0.958350
O O12 0.205716 0.919432 0.795046
O O13 0.001379 0.829068 0.786070
O O14 0.076910 0.000000 0.865631
O O15 0.000000 0.089450 0.500000
O O16 0.069059 0.229103 0.648305
O O17 0.362332 0.500000 0.259199
#
# Coordination Sequence:
#
# PCOD8064359 Si02
#       7
#     4   4   4   4   4   4   4
#     4  11  22  39  59  82 110 150 196 239 279 332
#     4  12  23  36  55  82 122 151 186 231 287 338
#     4   9  17  35  58  84 111 146 189 234 278 333
#     4   9  20  36  58  84 107 140 191 239 283 325
#     4  10  20  35  57  84 114 138 186 233 286 327
#     4   9  19  34  59  84 110 147 192 233 277 330
#     4  10  21  34  53  85 112 148 179 230 288 333
#
# _framework density 18.147155999999999
#
# number of rings (size 3 to 8) (size 9 to 14) (size 15 to 20)
#    0.857    1.143    2.857    2.571    0.000    5.143 
#    0.000    0.000    0.000    3.000    0.000    3.000 
#    0.000    0.000    0.000    0.000    0.000    0.000 
#
# Total GULP energy -346960.580935 kJ/mol
# GULP energy per Si atom -12391.449319 kJ/mol
# Density = 1.810585 g / cm^3
# Si number density = 18.147156 Si / 1000 Ang^3
#
#
#
# Elastic Constant Matrix: (Units=GPa)
#
#
# Indices 1 2 3 4 5 6 
#
# 1 51.7506 49.7148 36.1423 0.0000 -0.8334 0.0000
# 2 49.7148 123.0206 71.1774 0.0000 1.8370 0.0000
# 3 36.1423 71.1774 126.7530 0.0000 1.3792 0.0000
# 4 0.0000 0.0000 0.0000 -11.5116 0.0000 20.2804
# 5 -0.8334 1.8370 1.3792 0.0000 30.2475 0.0000
# 6 0.0000 0.0000 0.0000 20.2804 0.0000 14.5474
#
#
#
# Elastic Compliance Matrix: (Units=1/GPa)
#
#
# Indices 1 2 3 4 5 6 
#
# 1 0.032322 -0.011471 -0.002793 0.000000 0.001715 0.000000
# 2 -0.011471 0.016117 -0.005769 0.000000 -0.001032 0.000000
# 3 -0.002793 -0.005769 0.011928 0.000000 -0.000271 0.000000
# 4 0.000000 0.000000 0.000000 -0.025136 0.000000 0.035041
# 5 0.001715 -0.001032 -0.000271 0.000000 0.033183 0.000000
# 6 0.000000 0.000000 0.000000 0.035041 0.000000 0.019890
#
#
# Mechanical properties :
#
#
# Convention : Reuss Voigt Hill
#
# Bulk Modulus (GPa) = 49.25813 68.39925 58.82869
# Shear Modulus (GPa) = 36.99925 16.28933 26.64429
#
# Velocity S-wave (km/s) = 4.52026 2.99929 3.83591
# Velocity P-wave (km/s) = 7.37877 7.05461 7.21851
#
# Compressibility (1/GPa) = 0.02030122
#
# Stress axis : x y z
#
# Youngs Moduli (GPa) = 30.93882 62.04460 83.83610
#
# Poissons Ratio (x) = 0.71173 0.23417
# Poissons Ratio (y) = 0.35491 0.48361
# Poissons Ratio (z) = 0.08642 0.35790
#
# Static dielectric constant tensor:
#      x y z
#    x 3.014120 0.000000 -0.092400 
#    y 0.000000 3.326380 0.000000 
#    z -0.092400 0.000000 3.494020 
# 
# 
# High freq. dielectric constant tensor:
#      x y z
#    x 1.665810 0.000000 -0.005060 
#    y 0.000000 1.700930 0.000000 
#    z -0.005060 0.000000 1.722280 
# 
# From -- ./inp_files/64948.got.cif
#   From: 2010.06.25/outbox.cif.g09.slc.cpg/sg10_33_cif.got.tgz:64948.got - 2010.06.27 22:07:45.
