data_PCOD8064575
_publ_section_title
;
Structure prediction by ZEFSAII (Michael W. Deem and Ramdas Pophale) SiO2 
 PCOD8064575
Probable space group: P 2/M
;
_chemical_formula_sum "Si O2"
_cell_formula_units_Z 32
_cell_length_a 11.397751
_cell_length_b 9.170695
_cell_length_c 20.830665
_cell_angle_alpha 90.000000
_cell_angle_beta 51.938616
_cell_angle_gamma 90.000000
_cell_volume 1714.323480
_symmetry_space_group_name_H-M "P 2/M"
_symmetry_group_IT_number 10
_symmetry_cell_setting 'monoclinic'
loop_
_space_group_symop_operation_xyz
x,y,z
-x,y,-z
-x,-y,-z
x,-y,z
loop_
_atom_site_type_symbol
_atom_site_label
_atom_site_fract_x
_atom_site_fract_y
_atom_site_fract_z
Si Si1 0.147008 0.663214 0.909763
Si Si2 0.485143 0.833249 0.682775
Si Si3 0.587993 0.668653 0.906366
Si Si4 0.148848 0.170423 0.780448
Si Si5 0.232702 0.672117 0.441732
Si Si6 0.923023 0.330590 0.768151
Si Si7 0.955490 0.327732 0.613134
Si Si8 0.427751 0.828036 0.847992
O O1 0.205323 0.500000 0.873789
O O2 0.103829 0.748146 0.860238
O O3 0.269150 0.749357 0.910345
O O4 0.000000 0.652167 0.000000
O O5 0.323164 0.802303 0.706877
O O6 0.604911 0.740596 0.602677
O O7 0.487428 0.788828 0.757038
O O8 0.530077 0.000000 0.659822
O O9 0.553772 0.500000 0.901614
O O10 0.764650 0.692887 0.856881
O O11 0.540148 0.767976 0.863105
O O12 0.500000 0.717390 0.000000
O O13 0.050330 0.233774 0.756738
O O14 0.115962 0.000000 0.800604
O O15 0.251884 0.500000 0.433929
O O16 0.122796 0.721429 0.536590
O O17 0.164156 0.732768 0.397779
O O18 0.970172 0.500000 0.755052
O O19 0.912842 0.273470 0.698320
O O20 0.947708 0.500000 0.611633
O O21 0.405738 0.000000 0.864161
#
# Coordination Sequence:
#
# PCOD8064575 Si02
#       8
#     4   4   4   4   4   4   4   4
#     4  10  21  36  57  80 103 134 176 225 273 317
#     4   9  19  35  52  75 107 138 172 219 268 315
#     4  10  22  37  54  79 109 140 178 225 271 318
#     4  10  22  38  54  76 107 143 182 223 268 323
#     4   9  16  30  56  83 107 135 176 223 266 316
#     4  10  20  36  56  76 108 148 182 220 272 327
#     4   8  16  31  52  82 111 138 174 219 268 319
#     4  10  21  36  54  78 108 140 176 216 264 322
#
# _framework density 18.666255
#
# number of rings (size 3 to 8) (size 9 to 14) (size 15 to 20)
#    0.000    2.500    0.000    3.375    1.750    5.750 
#    0.000    3.125    0.000    3.750    0.000    0.000 
#    0.000    0.000    0.000    0.000    0.000    0.000 
#
# Total GULP energy -396776.268928 kJ/mol
# GULP energy per Si atom -12399.258404 kJ/mol
# Density = 1.862377 g / cm^3
# Si number density = 18.666255 Si / 1000 Ang^3
#
#
#
# Elastic Constant Matrix: (Units=GPa)
#
#
# Indices 1 2 3 4 5 6 
#
# 1 83.0155 37.3228 37.4359 0.0000 -6.8451 0.0000
# 2 37.3228 76.6450 32.9987 0.0000 -8.1447 0.0000
# 3 37.4359 32.9987 99.7935 0.0000 -15.2025 0.0000
# 4 0.0000 0.0000 0.0000 12.7425 0.0000 2.4003
# 5 -6.8451 -8.1447 -15.2025 0.0000 25.8815 0.0000
# 6 0.0000 0.0000 0.0000 2.4003 0.0000 32.3090
#
#
#
# Elastic Compliance Matrix: (Units=1/GPa)
#
#
# Indices 1 2 3 4 5 6 
#
# 1 0.016805 -0.006378 -0.004199 0.000000 -0.000029 0.000000
# 2 -0.006378 0.017730 -0.003160 0.000000 0.002037 0.000000
# 3 -0.004199 -0.003160 0.013531 0.000000 0.005843 0.000000
# 4 0.000000 0.000000 0.000000 0.079591 0.000000 -0.005913
# 5 -0.000029 0.002037 0.005843 0.000000 0.042703 0.000000
# 6 0.000000 0.000000 0.000000 -0.005913 0.000000 0.031390
#
#
# Mechanical properties :
#
#
# Convention : Reuss Voigt Hill
#
# Bulk Modulus (GPa) = 48.56556 52.77429 50.66993
# Shear Modulus (GPa) = 21.17843 24.29970 22.73907
#
# Velocity S-wave (km/s) = 3.37201 3.61196 3.49405
# Velocity P-wave (km/s) = 6.42144 6.76232 6.59408
#
# Compressibility (1/GPa) = 0.02059072
#
# Stress axis : x y z
#
# Youngs Moduli (GPa) = 59.50645 56.40164 73.90434
#
# Poissons Ratio (x) = 0.35975 0.31036
# Poissons Ratio (y) = 0.37955 0.23352
# Poissons Ratio (z) = 0.24989 0.17822
#
# Static dielectric constant tensor:
#      x y z
#    x 3.452830 0.000000 -0.026820 
#    y 0.000000 3.340090 0.000000 
#    z -0.026820 0.000000 3.478160 
# 
# 
# High freq. dielectric constant tensor:
#      x y z
#    x 1.719500 0.000000 -0.011980 
#    y 0.000000 1.714710 0.000000 
#    z -0.011980 0.000000 1.721360 
# 
# From -- ./inp_files/83577.got.cif
#   From: 2010.06.25/outbox.cif.g09.slc.cpg/sg10_42_cif.got.tgz:83577.got - 2010.06.27 22:07:45.
