data_PCOD8064973
_publ_section_title
;
Structure prediction by ZEFSAII (Michael W. Deem and Ramdas Pophale) SiO2 
 PCOD8064973
Probable space group: P 2/M
;
_chemical_formula_sum "Si O2"
_cell_formula_units_Z 32
_cell_length_a 27.648306
_cell_length_b 8.927457
_cell_length_c 21.394768
_cell_angle_alpha 90.000000
_cell_angle_beta 18.481276
_cell_angle_gamma 90.000000
_cell_volume 1674.001799
_symmetry_space_group_name_H-M "P 2/M"
_symmetry_group_IT_number 10
_symmetry_cell_setting 'monoclinic'
loop_
_space_group_symop_operation_xyz
x,y,z
-x,y,-z
-x,-y,-z
x,-y,z
loop_
_atom_site_type_symbol
_atom_site_label
_atom_site_fract_x
_atom_site_fract_y
_atom_site_fract_z
Si Si1 0.671425 0.827189 0.768214
Si Si2 0.149151 0.827920 0.915736
Si Si3 0.647589 0.323477 0.434666
Si Si4 0.667126 0.827661 0.184741
Si Si5 0.885677 0.671064 0.829488
Si Si6 0.199441 0.823964 0.638119
Si Si7 0.204497 0.673067 0.502138
Si Si8 0.060962 0.675879 0.492857
O O1 0.688965 0.735469 0.683041
O O2 0.783751 0.764814 0.684095
O O3 0.711321 0.000000 0.707085
O O4 0.500000 0.804279 0.000000
O O5 0.229830 0.721817 0.767349
O O6 0.215559 0.801355 0.902918
O O7 0.170817 0.000000 0.867992
O O8 0.972861 0.781511 0.132473
O O9 0.646193 0.500000 0.443196
O O10 0.482173 0.267082 0.616146
O O11 0.686195 0.251333 0.453647
O O12 0.620345 0.000000 0.234802
O O13 0.746584 0.773844 0.023179
O O14 0.829870 0.500000 0.900085
O O15 0.028636 0.696176 0.699763
O O16 0.932287 0.717533 0.701964
O O17 0.242722 0.763620 0.517309
O O18 0.225244 0.000000 0.607196
O O19 0.243700 0.500000 0.464638
O O20 0.098433 0.500000 0.450926
O O21 0.000000 0.724149 0.500000
#
# Coordination Sequence:
#
# PCOD8064973 Si02
#       8
#     4   4   4   4   4   4   4   4
#     4  10  21  37  58  86 120 156 196 240 284 338
#     4  10  22  40  63  87 112 149 194 237 290 351
#     4  12  26  40  56  85 120 154 192 241 295 341
#     4  11  22  39  61  85 114 153 195 238 291 348
#     4   9  18  34  58  86 116 149 191 239 283 342
#     4  11  22  40  63  87 117 153 193 239 290 347
#     4  10  20  36  61  89 117 153 195 239 287 343
#     4   9  19  37  60  87 118 153 192 239 292 345
#
# _framework density 19.115869
#
# number of rings (size 3 to 8) (size 9 to 14) (size 15 to 20)
#    0.000    1.750    1.250    4.125    0.000    8.250 
#    2.250    0.000    0.000    0.000    0.000    0.000 
#    0.000    0.000    0.000    0.000    0.000    0.000 
#
# Total GULP energy -396969.846857 kJ/mol
# GULP energy per Si atom -12405.307714 kJ/mol
# Density = 1.907236 g / cm^3
# Si number density = 19.115869 Si / 1000 Ang^3
#
#
#
# Elastic Constant Matrix: (Units=GPa)
#
#
# Indices 1 2 3 4 5 6 
#
# 1 85.2060 38.7824 20.0044 0.0000 12.8547 0.0000
# 2 38.7824 104.9156 39.8560 0.0000 3.1110 0.0000
# 3 20.0044 39.8560 59.1676 0.0000 2.5924 0.0000
# 4 0.0000 0.0000 0.0000 32.3253 0.0000 5.7856
# 5 12.8547 3.1110 2.5924 0.0000 22.9742 0.0000
# 6 0.0000 0.0000 0.0000 5.7856 0.0000 30.2080
#
#
#
# Elastic Compliance Matrix: (Units=1/GPa)
#
#
# Indices 1 2 3 4 5 6 
#
# 1 0.015525 -0.004896 -0.001608 0.000000 -0.007842 0.000000
# 2 -0.004896 0.014366 -0.008097 0.000000 0.001707 0.000000
# 3 -0.001608 -0.008097 0.022925 0.000000 -0.000591 0.000000
# 4 0.000000 0.000000 0.000000 0.032034 0.000000 -0.006135
# 5 -0.007842 0.001707 -0.000591 0.000000 0.047751 0.000000
# 6 0.000000 0.000000 0.000000 -0.006135 0.000000 0.034279
#
#
# Mechanical properties :
#
#
# Convention : Reuss Voigt Hill
#
# Bulk Modulus (GPa) = 42.34449 49.61943 45.98196
# Shear Modulus (GPa) = 24.51557 27.14462 25.83009
#
# Velocity S-wave (km/s) = 3.58505 3.77238 3.67991
# Velocity P-wave (km/s) = 6.27187 6.70731 6.49324
#
# Compressibility (1/GPa) = 0.02361582
#
# Stress axis : x y z
#
# Youngs Moduli (GPa) = 64.41158 69.60643 43.62083
#
# Poissons Ratio (x) = 0.34077 0.07013
# Poissons Ratio (y) = 0.31534 0.35320
# Poissons Ratio (z) = 0.10355 0.56361
#
# Static dielectric constant tensor:
#      x y z
#    x 3.548480 0.000000 0.030960 
#    y 0.000000 3.558410 0.000000 
#    z 0.030960 0.000000 3.417230 
# 
# 
# High freq. dielectric constant tensor:
#      x y z
#    x 1.745370 0.000000 0.007750 
#    y 0.000000 1.750390 0.000000 
#    z 0.007750 0.000000 1.740600 
# 
# From -- ./inp_files/86840.got.cif
#   From: 2010.06.25/outbox.cif.g09.slc.cpg/sg10_44_cif.got.tgz:86840.got - 2010.06.27 22:07:45.
