data_PCOD8064618
_publ_section_title
;
Structure prediction by ZEFSAII (Michael W. Deem and Ramdas Pophale) SiO2 
 PCOD8064618
Probable space group: P 2/M
;
_chemical_formula_sum "Si O2"
_cell_formula_units_Z 28
_cell_length_a 8.120074
_cell_length_b 14.660476
_cell_length_c 13.148463
_cell_angle_alpha 90.000000
_cell_angle_beta 76.188208
_cell_angle_gamma 90.000000
_cell_volume 1519.988729
_symmetry_space_group_name_H-M "P 2/M"
_symmetry_group_IT_number 10
_symmetry_cell_setting 'monoclinic'
loop_
_space_group_symop_operation_xyz
x,y,z
-x,y,-z
-x,-y,-z
x,-y,z
loop_
_atom_site_type_symbol
_atom_site_label
_atom_site_fract_x
_atom_site_fract_y
_atom_site_fract_z
Si Si1 0.545424 0.395061 0.660325
Si Si2 0.003632 0.230984 0.386556
Si Si3 0.231410 0.604752 0.566259
Si Si4 0.861251 0.799614 0.943442
Si Si5 0.396930 0.103996 0.871194
Si Si6 0.106879 0.101066 0.760420
Si Si7 0.674577 0.251253 0.787682
O O1 0.561336 0.500000 0.690663
O O2 0.686710 0.370803 0.554963
O O3 0.362583 0.375756 0.638085
O O4 0.564867 0.335993 0.761067
O O5 0.194666 0.225788 0.319707
O O6 0.000000 0.190890 0.500000
O O7 0.934940 0.334703 0.393062
O O8 0.882678 0.168521 0.336154
O O9 0.173206 0.500000 0.576996
O O10 0.777376 0.725246 0.877880
O O11 0.961428 0.874072 0.862708
O O12 0.709872 0.850744 0.022632
O O13 0.000000 0.753322 0.000000
O O14 0.290616 0.105285 0.783731
O O15 0.564681 0.162146 0.826997
O O16 0.445376 0.000000 0.893675
O O17 0.066405 0.000000 0.726619
#
# Coordination Sequence:
#
# PCOD8064618 Si02
#       7
#     4   4   4   4   4   4   4
#     4   9  18  34  56  81 105 135 174 219 265 308
#     4  11  21  33  49  76 113 147 176 212 258 312
#     4   9  18  34  56  78 105 138 176 220 262 304
#     4   9  19  35  56  79 105 137 175 224 273 309
#     4  10  20  36  57  80 103 133 180 233 271 304
#     4   9  19  35  54  76 106 144 180 214 262 319
#     4  11  21  32  53  82 109 138 176 218 265 316
#
# _framework density 18.421188000000001
#
# number of rings (size 3 to 8) (size 9 to 14) (size 15 to 20)
#    0.000    2.286    1.429    2.571    0.000    6.286 
#    0.000    0.000    0.000    3.857    0.000    2.000 
#    0.000    0.000    0.000    0.000    0.000    0.000 
#
# Total GULP energy -347095.966895 kJ/mol
# GULP energy per Si atom -12396.284532 kJ/mol
# Density = 1.837926 g / cm^3
# Si number density = 18.421188 Si / 1000 Ang^3
#
#
#
# Elastic Constant Matrix: (Units=GPa)
#
#
# Indices 1 2 3 4 5 6 
#
# 1 85.5507 38.3690 51.0156 0.0000 1.5913 0.0000
# 2 38.3690 74.8115 46.8040 0.0000 13.7147 0.0000
# 3 51.0156 46.8040 106.3353 0.0000 13.5422 0.0000
# 4 0.0000 0.0000 0.0000 18.6029 0.0000 1.0069
# 5 1.5913 13.7147 13.5422 0.0000 36.8881 0.0000
# 6 0.0000 0.0000 0.0000 1.0069 0.0000 26.6596
#
#
#
# Elastic Compliance Matrix: (Units=1/GPa)
#
#
# Indices 1 2 3 4 5 6 
#
# 1 0.018219 -0.005898 -0.006634 0.000000 0.003842 0.000000
# 2 -0.005898 0.020957 -0.005701 0.000000 -0.005444 0.000000
# 3 -0.006634 -0.005701 0.015515 0.000000 -0.003290 0.000000
# 4 0.000000 0.000000 0.000000 0.053865 0.000000 -0.002035
# 5 0.003842 -0.005444 -0.003290 0.000000 0.030175 0.000000
# 6 0.000000 0.000000 0.000000 -0.002035 0.000000 0.037587
#
#
# Mechanical properties :
#
#
# Convention : Reuss Voigt Hill
#
# Bulk Modulus (GPa) = 54.87132 59.89717 57.38424
# Shear Modulus (GPa) = 22.84576 25.13071 23.98824
#
# Velocity S-wave (km/s) = 3.52545 3.69755 3.61253
# Velocity P-wave (km/s) = 6.81348 7.12848 6.97276
#
# Compressibility (1/GPa) = 0.01822446
#
# Stress axis : x y z
#
# Youngs Moduli (GPa) = 54.88885 47.71739 64.45215
#
# Poissons Ratio (x) = 0.28143 0.42757
# Poissons Ratio (y) = 0.32373 0.36746
# Poissons Ratio (z) = 0.36413 0.27205
#
# Static dielectric constant tensor:
#      x y z
#    x 3.593100 0.000000 0.278100 
#    y 0.000000 3.257310 0.000000 
#    z 0.278100 0.000000 3.427970 
# 
# 
# High freq. dielectric constant tensor:
#      x y z
#    x 1.730540 0.000000 0.013560 
#    y 0.000000 1.689290 0.000000 
#    z 0.013560 0.000000 1.706710 
# 
# From -- ./inp_files/42649.got.cif
#   From: 2010.06.25/outbox.cif.g09.slc.cpg/sg10_22_cif.got.tgz:42649.got - 2010.06.27 22:07:45.
