data_PCOD8064789
_publ_section_title
;
Structure prediction by ZEFSAII (Michael W. Deem and Ramdas Pophale) SiO2 
 PCOD8064789
Probable space group: P 2/M
;
_chemical_formula_sum "Si O2"
_cell_formula_units_Z 32
_cell_length_a 24.421315
_cell_length_b 9.068437
_cell_length_c 25.532106
_cell_angle_alpha 90.000000
_cell_angle_beta 16.966039
_cell_angle_gamma 90.000000
_cell_volume 1649.987250
_symmetry_space_group_name_H-M "P 2/M"
_symmetry_group_IT_number 10
_symmetry_cell_setting 'monoclinic'
loop_
_space_group_symop_operation_xyz
x,y,z
-x,y,-z
-x,-y,-z
x,-y,z
loop_
_atom_site_type_symbol
_atom_site_label
_atom_site_fract_x
_atom_site_fract_y
_atom_site_fract_z
Si Si1 0.960357 0.175082 0.168786
Si Si2 0.652281 0.327423 0.206293
Si Si3 0.958117 0.162540 0.793003
Si Si4 0.550646 0.327449 0.806417
Si Si5 0.934935 0.673957 0.504340
Si Si6 0.596583 0.330113 0.465930
Si Si7 0.531403 0.835173 0.218459
Si Si8 0.859690 0.673545 0.785222
O O1 0.930430 0.219039 0.257581
O O2 0.779526 0.228654 0.302916
O O3 0.987510 0.000000 0.138435
O O4 0.144160 0.252513 0.977110
O O5 0.677506 0.500000 0.171402
O O6 0.552546 0.296567 0.352415
O O7 0.519972 0.257052 0.282481
O O8 0.986808 0.267852 0.717017
O O9 0.027220 0.000000 0.713435
O O10 0.743014 0.158776 0.005997
O O11 0.546212 0.500000 0.797318
O O12 0.717106 0.287184 0.694121
O O13 0.589099 0.243619 0.716686
O O14 0.356713 0.277035 0.011109
O O15 0.965830 0.500000 0.478237
O O16 0.000000 0.745128 0.500000
O O17 0.062073 0.738922 0.340893
O O18 0.500000 0.288219 0.500000
O O19 0.661228 0.500000 0.408113
O O20 0.452522 0.000000 0.300310
O O21 0.882467 0.500000 0.765452
#
# Coordination Sequence:
#
# PCOD8064789 Si02
#       8
#     4   4   4   4   4   4   4   4
#     4  10  21  37  58  84 113 144 178 221 274 326
#     4  10  20  36  59  83 110 144 180 222 269 319
#     4   8  16  31  50  74 103 132 161 199 253 312
#     4   9  17  30  49  72  97 127 164 204 250 304
#     4   9  18  31  46  68  97 126 163 210 251 293
#     4  10  23  41  58  79 108 145 189 229 266 315
#     4   9  17  31  52  78 107 135 166 208 261 318
#     4   9  17  29  48  72  95 124 161 201 246 296
#
# _framework density 19.394089999999998
#
# number of rings (size 3 to 8) (size 9 to 14) (size 15 to 20)
#    0.000    2.750    0.000    1.875    0.000    6.750 
#    0.000    9.375    0.000    1.500    0.000    3.500 
#    0.000    0.000    0.000    0.000    0.000    0.000 
#
# Total GULP energy -396731.605484 kJ/mol
# GULP energy per Si atom -12397.862671 kJ/mol
# Density = 1.934995 g / cm^3
# Si number density = 19.394090 Si / 1000 Ang^3
#
#
#
# Elastic Constant Matrix: (Units=GPa)
#
#
# Indices 1 2 3 4 5 6 
#
# 1 109.7432 27.1412 20.3462 0.0000 11.1645 0.0000
# 2 27.1412 62.0317 19.2429 0.0000 3.7413 0.0000
# 3 20.3462 19.2429 57.2028 0.0000 8.4853 0.0000
# 4 0.0000 0.0000 0.0000 6.2917 0.0000 -5.0777
# 5 11.1645 3.7413 8.4853 0.0000 30.4618 0.0000
# 6 0.0000 0.0000 0.0000 -5.0777 0.0000 15.9049
#
#
#
# Elastic Compliance Matrix: (Units=1/GPa)
#
#
# Indices 1 2 3 4 5 6 
#
# 1 0.010753 -0.003882 -0.002091 0.000000 -0.002882 0.000000
# 2 -0.003882 0.019410 -0.005222 0.000000 0.000494 0.000000
# 3 -0.002091 -0.005222 0.020625 0.000000 -0.004338 0.000000
# 4 0.000000 0.000000 0.000000 0.214106 0.000000 0.068355
# 5 -0.002882 0.000494 -0.004338 0.000000 0.035032 0.000000
# 6 0.000000 0.000000 0.000000 0.068355 0.000000 0.084697
#
#
# Mechanical properties :
#
#
# Convention : Reuss Voigt Hill
#
# Bulk Modulus (GPa) = 35.21421 40.27092 37.74257
# Shear Modulus (GPa) = 12.00541 21.34816 16.67678
#
# Velocity S-wave (km/s) = 2.49072 3.32136 2.93557
# Velocity P-wave (km/s) = 5.14472 5.95972 5.56715
#
# Compressibility (1/GPa) = 0.02839762
#
# Stress axis : x y z
#
# Youngs Moduli (GPa) = 92.99514 51.52113 48.48378
#
# Poissons Ratio (x) = 0.20003 0.10139
# Poissons Ratio (y) = 0.36104 0.25316
# Poissons Ratio (z) = 0.19448 0.26902
#
# Static dielectric constant tensor:
#      x y z
#    x 3.799760 0.000000 0.083870 
#    y 0.000000 3.488600 0.000000 
#    z 0.083870 0.000000 3.451620 
# 
# 
# High freq. dielectric constant tensor:
#      x y z
#    x 1.756250 0.000000 0.000150 
#    y 0.000000 1.737900 0.000000 
#    z 0.000150 0.000000 1.750850 
# 
# From -- ./inp_files/90569.got.cif
#   From: 2010.06.25/outbox.cif.g09.slc.cpg/sg10_46_cif.got.tgz:90569.got - 2010.06.27 22:07:45.
