data_PCOD8064066
_publ_section_title
;
Structure prediction by ZEFSAII (Michael W. Deem and Ramdas Pophale) SiO2 
 PCOD8064066
Probable space group: P 2/M
;
_chemical_formula_sum "Si O2"
_cell_formula_units_Z 32
_cell_length_a 16.575983
_cell_length_b 8.922096
_cell_length_c 12.053238
_cell_angle_alpha 90.000000
_cell_angle_beta 86.216208
_cell_angle_gamma 90.000000
_cell_volume 1778.697923
_symmetry_space_group_name_H-M "P 2/M"
_symmetry_group_IT_number 10
_symmetry_cell_setting 'monoclinic'
loop_
_space_group_symop_operation_xyz
x,y,z
-x,y,-z
-x,-y,-z
x,-y,z
loop_
_atom_site_type_symbol
_atom_site_label
_atom_site_fract_x
_atom_site_fract_y
_atom_site_fract_z
Si Si1 0.212189 0.323496 0.728594
Si Si2 0.931090 0.173281 0.159157
Si Si3 0.108917 0.826375 0.090227
Si Si4 0.328016 0.175440 0.556167
Si Si5 0.727742 0.673637 0.882504
Si Si6 0.627694 0.673159 0.673391
Si Si7 0.462838 0.171006 0.720569
Si Si8 0.323677 0.826884 0.897060
O O1 0.217859 0.500000 0.722957
O O2 0.118913 0.272423 0.748441
O O3 0.249483 0.257615 0.612391
O O4 0.259525 0.264385 0.831310
O O5 0.025657 0.215451 0.160314
O O6 0.917928 0.000000 0.189087
O O7 0.899755 0.208153 0.038723
O O8 0.179536 0.725144 0.134059
O O9 0.130243 0.000000 0.106934
O O10 0.342356 0.226745 0.430446
O O11 0.406717 0.215609 0.621704
O O12 0.310589 0.000000 0.562175
O O13 0.723711 0.500000 0.915189
O O14 0.687890 0.705782 0.768201
O O15 0.677287 0.766719 0.977938
O O16 0.627917 0.500000 0.638232
O O17 0.537746 0.717700 0.717891
O O18 0.413393 0.191985 0.839280
O O19 0.493201 0.000000 0.705011
O O20 0.296772 0.000000 0.896929
#
# Coordination Sequence:
#
# PCOD8064066 Si02
#       8
#     4   4   4   4   4   4   4   4
#     4  11  20  31  53  84 113 140 171 215 271 320
#     4   9  17  31  52  81 111 139 176 217 259 310
#     4   9  18  32  53  78 108 144 178 216 258 308
#     4  10  21  38  59  80 104 137 180 227 266 310
#     4  11  23  36  51  76 112 146 178 217 264 321
#     4  11  24  38  53  77 108 142 178 221 271 320
#     4   9  20  37  57  80 103 132 176 228 271 313
#     4  10  20  35  54  77 107 142 180 220 263 312
#
# _framework density 17.990690000000001
#
# number of rings (size 3 to 8) (size 9 to 14) (size 15 to 20)
#    0.000    2.000    1.250    4.500    0.000    7.500 
#    0.000    3.750    0.000    0.750    0.000    5.250 
#    0.000    0.000    0.000    0.000    0.000    0.000 
#
# Total GULP energy -396892.399635 kJ/mol
# GULP energy per Si atom -12402.887489 kJ/mol
# Density = 1.794974 g / cm^3
# Si number density = 17.990690 Si / 1000 Ang^3
#
#
#
# Elastic Constant Matrix: (Units=GPa)
#
#
# Indices 1 2 3 4 5 6 
#
# 1 105.5550 60.1059 73.9450 0.0000 -21.5745 0.0000
# 2 60.1059 105.5324 52.2890 0.0000 -6.5778 0.0000
# 3 73.9450 52.2890 47.6116 0.0000 5.1469 0.0000
# 4 0.0000 0.0000 0.0000 24.4160 0.0000 1.5221
# 5 -21.5745 -6.5778 5.1469 0.0000 18.7167 0.0000
# 6 0.0000 0.0000 0.0000 1.5221 0.0000 24.3798
#
#
#
# Elastic Compliance Matrix: (Units=1/GPa)
#
#
# Indices 1 2 3 4 5 6 
#
# 1 -0.010037 -0.010326 0.029448 0.000000 -0.023297 0.000000
# 2 -0.010326 0.014458 0.000924 0.000000 -0.007076 0.000000
# 3 0.029448 0.000924 -0.030354 0.000000 0.042616 0.000000
# 4 0.000000 0.000000 0.000000 0.041117 0.000000 -0.002567
# 5 -0.023297 -0.007076 0.042616 0.000000 0.012368 0.000000
# 6 0.000000 0.000000 0.000000 -0.002567 0.000000 0.041178
#
#
# Mechanical properties :
#
#
# Convention : Reuss Voigt Hill
#
# Bulk Modulus (GPa) = 70.62891 70.15319 70.39105
# Shear Modulus (GPa) = 149.88745 18.32644 84.10694
#
# Velocity S-wave (km/s) = 9.13755 3.19511 6.84483
# Velocity P-wave (km/s) = 12.27478 7.25882 10.08367
#
# Compressibility (1/GPa) = 0.01415851
#
# Stress axis : x y z
#
# Youngs Moduli (GPa) = -99.62659 69.16403 -32.94490
#
# Poissons Ratio (x) = 0.71420 0.97017
# Poissons Ratio (y) = -1.02877 0.03043
# Poissons Ratio (z) = 2.93383 -0.06388
#
# Static dielectric constant tensor:
#      x y z
#    x 3.382510 0.000000 -0.210150 
#    y 0.000000 3.337440 0.000000 
#    z -0.210150 0.000000 3.189130 
# 
# 
# High freq. dielectric constant tensor:
#      x y z
#    x 1.696260 0.000000 -0.022520 
#    y 0.000000 1.703490 0.000000 
#    z -0.022520 0.000000 1.676580 
# 
# From -- ./inp_files/49766.got.cif
#   From: 2010.06.25/outbox.cif.g09.slc.cpg/sg10_25_cif.got.tgz:49766.got - 2010.06.27 22:07:45.
