data_PCOD8064320
_publ_section_title
;
Structure prediction by ZEFSAII (Michael W. Deem and Ramdas Pophale) SiO2 
 PCOD8064320
Probable space group: P 2/M
;
_chemical_formula_sum "Si O2"
_cell_formula_units_Z 16
_cell_length_a 8.811259
_cell_length_b 18.683257
_cell_length_c 7.992812
_cell_angle_alpha 90.000000
_cell_angle_beta 35.031627
_cell_angle_gamma 90.000000
_cell_volume 755.307194
_symmetry_space_group_name_H-M "P 2/M"
_symmetry_group_IT_number 10
_symmetry_cell_setting 'monoclinic'
loop_
_space_group_symop_operation_xyz
x,y,z
-x,y,-z
-x,-y,-z
x,-y,z
loop_
_atom_site_type_symbol
_atom_site_label
_atom_site_fract_x
_atom_site_fract_y
_atom_site_fract_z
Si Si1 0.551293 0.580187 0.650195
Si Si2 0.947996 0.665493 0.850979
Si Si3 0.717331 0.082239 0.173335
Si Si4 0.775549 0.808158 0.832252
O O1 0.500000 0.577172 0.500000
O O2 0.596545 0.500000 0.678507
O O3 0.802741 0.629412 0.465622
O O4 0.299261 0.614731 0.967505
O O5 0.903048 0.743841 0.820691
O O6 0.000000 0.673300 0.000000
O O7 0.500000 0.111756 0.500000
O O8 0.657274 0.000000 0.182587
O O9 0.700966 0.125837 0.017553
O O10 0.000000 0.092581 0.000000
O O11 0.000000 0.834223 0.500000
O O12 0.500000 0.782598 0.000000
#
# Coordination Sequence:
#
# PCOD8064320 Si02
#       4
#     4   4   4   4
#     4   9  17  31  55  85 110 139 191 253 298 336
#     4  10  20  35  57  82 112 152 196 241 290 348
#     4  10  22  42  67  92 119 154 198 244 290 347
#     4  12  25  39  59  88 125 161 195 241 292 349
#
# _framework density 21.183437000000001
#
# number of rings (size 3 to 8) (size 9 to 14) (size 15 to 20)
#    0.000    1.750    0.000    4.500    0.000    7.000 
#    0.000    0.000    0.000   15.000    0.000    0.000 
#    0.000    0.000    0.000    0.000    0.000    0.000 
#
# Total GULP energy -198464.291412 kJ/mol
# GULP energy per Si atom -12404.018213 kJ/mol
# Density = 2.113522 g / cm^3
# Si number density = 21.183437 Si / 1000 Ang^3
#
#
#
# Elastic Constant Matrix: (Units=GPa)
#
#
# Indices 1 2 3 4 5 6 
#
# 1 57.6328 48.2400 52.7991 0.0000 -8.8362 0.0000
# 2 48.2400 124.7824 57.8655 0.0000 2.3584 0.0000
# 3 52.7991 57.8655 178.9610 0.0000 -14.2337 0.0000
# 4 0.0000 0.0000 0.0000 41.4625 0.0000 -11.9383
# 5 -8.8362 2.3584 -14.2337 0.0000 34.7142 0.0000
# 6 0.0000 0.0000 0.0000 -11.9383 0.0000 6.0869
#
#
#
# Elastic Compliance Matrix: (Units=1/GPa)
#
#
# Indices 1 2 3 4 5 6 
#
# 1 0.031697 -0.009733 -0.005696 0.000000 0.006394 0.000000
# 2 -0.009733 0.012546 -0.001499 0.000000 -0.003944 0.000000
# 3 -0.005696 -0.001499 0.007903 0.000000 0.001893 0.000000
# 4 0.000000 0.000000 0.000000 0.055408 0.000000 0.108673
# 5 0.006394 -0.003944 0.001893 0.000000 0.031478 0.000000
# 6 0.000000 0.000000 0.000000 0.108673 0.000000 0.377430
#
#
# Mechanical properties :
#
#
# Convention : Reuss Voigt Hill
#
# Bulk Modulus (GPa) = 54.67290 75.46506 65.06898
# Shear Modulus (GPa) = 8.98608 29.95082 19.46845
#
# Velocity S-wave (km/s) = 2.06185 3.76424 3.03486
# Velocity P-wave (km/s) = 5.61548 7.38881 6.56232
#
# Compressibility (1/GPa) = 0.01829060
#
# Stress axis : x y z
#
# Youngs Moduli (GPa) = 31.54917 79.70433 126.52732
#
# Poissons Ratio (x) = 0.77578 0.72067
# Poissons Ratio (y) = 0.30707 0.18965
# Poissons Ratio (z) = 0.17970 0.11947
#
# Static dielectric constant tensor:
#      x y z
#    x 3.615710 0.000000 -0.127280 
#    y 0.000000 3.832530 0.000000 
#    z -0.127280 0.000000 4.140310 
# 
# 
# High freq. dielectric constant tensor:
#      x y z
#    x 1.813750 0.000000 -0.013670 
#    y 0.000000 1.836260 0.000000 
#    z -0.013670 0.000000 1.848630 
# 
# From -- ./inp_files/3958.got.cif
#   From: 2010.06.25/outbox.cif.g09.slc.cpg/sg10_2_cif.got.tgz:3958.got - 2010.06.27 22:07:45.
