data_PCOD8064350
_publ_section_title
;
Structure prediction by ZEFSAII (Michael W. Deem and Ramdas Pophale) SiO2 
 PCOD8064350
Probable space group: P 2/M
;
_chemical_formula_sum "Si O2"
_cell_formula_units_Z 28
_cell_length_a 8.895455
_cell_length_b 8.929631
_cell_length_c 28.630292
_cell_angle_alpha 90.000000
_cell_angle_beta 39.035878
_cell_angle_gamma 90.000000
_cell_volume 1432.302920
_symmetry_space_group_name_H-M "P 2/M"
_symmetry_group_IT_number 10
_symmetry_cell_setting 'monoclinic'
loop_
_space_group_symop_operation_xyz
x,y,z
-x,y,-z
-x,-y,-z
x,-y,z
loop_
_atom_site_type_symbol
_atom_site_label
_atom_site_fract_x
_atom_site_fract_y
_atom_site_fract_z
Si Si1 0.330233 0.178274 0.500000
Si Si2 0.800130 0.822063 0.648200
Si Si3 0.957327 0.674420 0.786549
Si Si4 0.118548 0.828384 0.923237
Si Si5 0.541128 0.822063 0.351801
Si Si6 0.234734 0.828384 0.076763
Si Si7 0.609928 0.325580 0.786549
O O1 0.500000 0.241246 0.500000
O O2 0.424889 0.238879 0.427645
O O3 0.063112 0.238879 0.572355
O O4 0.331297 0.000000 0.500000
O O5 0.616839 0.762817 0.653264
O O6 0.725858 0.762609 0.716147
O O7 0.798155 0.000000 0.650463
O O8 0.017429 0.500000 0.772791
O O9 0.865813 0.722547 0.859051
O O10 0.754954 0.714818 0.798019
O O11 0.193407 0.762610 0.716147
O O12 0.338934 0.722548 0.859050
O O13 0.924435 0.807511 0.930226
O O14 0.207177 0.000000 0.905135
O O15 0.000000 0.775915 0.000000
O O16 0.550467 0.000000 0.349538
O O17 0.232853 0.000000 0.094865
O O18 0.500000 0.775915 0.000000
O O19 0.618615 0.500000 0.772791
#
# Coordination Sequence:
#
# PCOD8064350 Si02
#       7
#     4   4   4   4   4   4   4
#     4   9  17  31  54  83 112 143 180 224 274 325
#     4  10  20  35  57  84 112 143 182 228 276 326
#     4  11  24  39  55  79 112 149 187 226 271 324
#     4  10  21  38  61  87 112 141 180 225 273 325
#     4  10  20  35  57  84 112 143 182 228 276 326
#     4  10  21  38  61  87 112 141 180 225 273 325
#     4  11  24  39  55  79 112 149 187 226 271 324
#
# _framework density 19.548936000000001
#
# number of rings (size 3 to 8) (size 9 to 14) (size 15 to 20)
#    0.000    1.857    0.000    3.857    0.000   11.429 
#    0.000    0.714    0.000    4.286    0.000    0.000 
#    0.000    0.000    0.000    0.000    0.000    0.000 
#
# Total GULP energy -347333.601610 kJ/mol
# GULP energy per Si atom -12404.771486 kJ/mol
# Density = 1.950444 g / cm^3
# Si number density = 19.548936 Si / 1000 Ang^3
#
#
#
# Elastic Constant Matrix: (Units=GPa)
#
#
# Indices 1 2 3 4 5 6 
#
# 1 87.6484 25.1402 41.8193 0.0000 -2.3919 0.0000
# 2 25.1402 19.6154 17.2127 0.0000 0.4057 0.0000
# 3 41.8193 17.2127 138.7500 0.0000 -0.2230 0.0000
# 4 0.0000 0.0000 0.0000 11.6776 0.0000 0.7346
# 5 -2.3919 0.4057 -0.2230 0.0000 46.1751 0.0000
# 6 0.0000 0.0000 0.0000 0.7346 0.0000 26.0414
#
#
#
# Elastic Compliance Matrix: (Units=1/GPa)
#
#
# Indices 1 2 3 4 5 6 
#
# 1 0.019195 -0.021938 -0.003062 0.000000 0.001172 0.000000
# 2 -0.021938 0.082296 -0.003600 0.000000 -0.001877 0.000000
# 3 -0.003062 -0.003600 0.008576 0.000000 -0.000086 0.000000
# 4 0.000000 0.000000 0.000000 0.085786 0.000000 -0.002420
# 5 0.001172 -0.001877 -0.000086 0.000000 0.021733 0.000000
# 6 0.000000 0.000000 0.000000 -0.002420 0.000000 0.038469
#
#
# Mechanical properties :
#
#
# Convention : Reuss Voigt Hill
#
# Bulk Modulus (GPa) = 18.91557 46.03978 32.47767
# Shear Modulus (GPa) = 15.11130 27.56827 21.33979
#
# Velocity S-wave (km/s) = 2.78330 3.75936 3.30753
# Velocity P-wave (km/s) = 4.47505 6.51505 5.58891
#
# Compressibility (1/GPa) = 0.05286650
#
# Stress axis : x y z
#
# Youngs Moduli (GPa) = 52.09781 12.15128 116.59772
#
# Poissons Ratio (x) = 0.26658 0.35700
# Poissons Ratio (y) = 1.14295 0.41975
# Poissons Ratio (z) = 0.15951 0.04374
#
# Static dielectric constant tensor:
#      x y z
#    x 3.825060 0.000000 0.074060 
#    y 0.000000 3.327780 0.000000 
#    z 0.074060 0.000000 2.377830 
# 
# 
# High freq. dielectric constant tensor:
#      x y z
#    x 1.782540 0.000000 0.000170 
#    y 0.000000 1.734640 0.000000 
#    z 0.000170 0.000000 1.779200 
# 
# From -- ./inp_files/36917.got.cif
#   From: 2010.06.25/outbox.cif.g09.slc.cpg/sg10_19_cif.got.tgz:36917.got - 2010.06.27 22:07:45.
