data_PCOD8064390
_publ_section_title
;
Structure prediction by ZEFSAII (Michael W. Deem and Ramdas Pophale) SiO2 
 PCOD8064390
Probable space group: P 2/M
;
_chemical_formula_sum "Si O2"
_cell_formula_units_Z 28
_cell_length_a 12.553507
_cell_length_b 9.025904
_cell_length_c 14.494056
_cell_angle_alpha 90.000000
_cell_angle_beta 120.256437
_cell_angle_gamma 90.000000
_cell_volume 1418.561949
_symmetry_space_group_name_H-M "P 2/M"
_symmetry_group_IT_number 10
_symmetry_cell_setting 'monoclinic'
loop_
_space_group_symop_operation_xyz
x,y,z
-x,y,-z
-x,-y,-z
x,-y,z
loop_
_atom_site_type_symbol
_atom_site_label
_atom_site_fract_x
_atom_site_fract_y
_atom_site_fract_z
Si Si1 0.508661 0.673302 0.109633
Si Si2 0.357838 0.824989 0.191583
Si Si3 0.218835 0.327972 0.720977
Si Si4 0.000736 0.175890 0.718514
Si Si5 0.086486 0.176280 0.119624
Si Si6 0.441273 0.832473 0.573896
Si Si7 0.807815 0.327875 0.502406
O O1 0.489381 0.500000 0.115913
O O2 0.397243 0.756369 0.111508
O O3 0.640001 0.725303 0.208087
O O4 0.500000 0.719516 0.000000
O O5 0.224358 0.763009 0.162959
O O6 0.456121 0.774355 0.310686
O O7 0.352324 0.000000 0.178729
O O8 0.207387 0.500000 0.742709
O O9 0.137375 0.234491 0.756779
O O10 0.172020 0.298268 0.597095
O O11 0.961621 0.234397 0.802559
O O12 0.908058 0.235752 0.601356
O O13 0.999604 0.000000 0.714008
O O14 0.085618 0.000000 0.119184
O O15 0.000000 0.238163 0.000000
O O16 0.500000 0.828435 0.500000
O O17 0.327435 0.721885 0.526533
O O18 0.398245 0.000000 0.579441
O O19 0.823965 0.500000 0.533027
#
# Coordination Sequence:
#
# PCOD8064390 Si02
#       7
#     4   4   4   4   4   4   4
#     4  10  22  40  61  85 118 158 193 237 294 348
#     4  10  20  36  61  88 116 149 191 243 289 340
#     4  10  22  40  59  84 120 157 195 239 292 348
#     4  11  23  38  61  89 118 153 197 244 291 347
#     4   9  20  39  60  85 118 154 190 236 294 345
#     4  10  20  35  57  86 119 154 193 240 292 343
#     4  11  22  38  59  84 118 158 194 236 292 352
#
# _framework density 19.738298
#
# number of rings (size 3 to 8) (size 9 to 14) (size 15 to 20)
#    0.000    1.857    1.429    2.143    2.000    6.286 
#    0.000    2.857    0.000    2.143    0.000    0.000 
#    0.000    0.000    0.000    0.000    0.000    0.000 
#
# Total GULP energy -347315.357631 kJ/mol
# GULP energy per Si atom -12404.119915 kJ/mol
# Density = 1.969337 g / cm^3
# Si number density = 19.738298 Si / 1000 Ang^3
#
#
#
# Elastic Constant Matrix: (Units=GPa)
#
#
# Indices 1 2 3 4 5 6 
#
# 1 133.3396 38.5090 33.4998 0.0000 -8.5973 0.0000
# 2 38.5090 46.2439 23.7778 0.0000 -4.9113 0.0000
# 3 33.4998 23.7778 91.0165 0.0000 -7.9751 0.0000
# 4 0.0000 0.0000 0.0000 30.8116 0.0000 21.6110
# 5 -8.5973 -4.9113 -7.9751 0.0000 29.5211 0.0000
# 6 0.0000 0.0000 0.0000 21.6110 0.0000 44.0234
#
#
#
# Elastic Compliance Matrix: (Units=1/GPa)
#
#
# Indices 1 2 3 4 5 6 
#
# 1 0.010158 -0.007461 -0.001679 0.000000 0.001263 0.000000
# 2 -0.007461 0.030635 -0.005122 0.000000 0.001540 0.000000
# 3 -0.001679 -0.005122 0.013136 0.000000 0.002208 0.000000
# 4 0.000000 0.000000 0.000000 0.049498 0.000000 -0.024299
# 5 0.001263 0.001540 0.002208 0.000000 0.035095 0.000000
# 6 0.000000 0.000000 0.000000 -0.024299 0.000000 0.034643
#
#
# Mechanical properties :
#
#
# Convention : Reuss Voigt Hill
#
# Bulk Modulus (GPa) = 39.36255 51.35256 45.35755
# Shear Modulus (GPa) = 23.79159 32.52544 28.15851
#
# Velocity S-wave (km/s) = 3.47558 4.06376 3.78112
# Velocity P-wave (km/s) = 6.00764 6.93484 6.48783
#
# Compressibility (1/GPa) = 0.02540486
#
# Stress axis : x y z
#
# Youngs Moduli (GPa) = 98.44713 32.64230 76.12382
#
# Poissons Ratio (x) = 0.24356 0.12779
# Poissons Ratio (y) = 0.73455 0.38992
# Poissons Ratio (z) = 0.16527 0.16720
#
# Static dielectric constant tensor:
#      x y z
#    x 3.707030 0.000000 0.018460 
#    y 0.000000 3.413390 0.000000 
#    z 0.018460 0.000000 3.743360 
# 
# 
# High freq. dielectric constant tensor:
#      x y z
#    x 1.783000 0.000000 -0.000680 
#    y 0.000000 1.747760 0.000000 
#    z -0.000680 0.000000 1.779500 
# 
# From -- ./inp_files/49583.got.cif
#   From: 2010.06.25/outbox.cif.g09.slc.cpg/sg10_25_cif.got.tgz:49583.got - 2010.06.27 22:07:45.
