data_PCOD8064462
_publ_section_title
;
Structure prediction by ZEFSAII (Michael W. Deem and Ramdas Pophale) SiO2 
 PCOD8064462
Probable space group: P 2/M
;
_chemical_formula_sum "Si O2"
_cell_formula_units_Z 24
_cell_length_a 10.242848
_cell_length_b 13.870717
_cell_length_c 18.427278
_cell_angle_alpha 90.000000
_cell_angle_beta 158.042969
_cell_angle_gamma 90.000000
_cell_volume 978.924591
_symmetry_space_group_name_H-M "P 2/M"
_symmetry_group_IT_number 10
_symmetry_cell_setting 'monoclinic'
loop_
_space_group_symop_operation_xyz
x,y,z
-x,y,-z
-x,-y,-z
x,-y,z
loop_
_atom_site_type_symbol
_atom_site_label
_atom_site_fract_x
_atom_site_fract_y
_atom_site_fract_z
Si Si1 0.406035 0.389639 0.033793
Si Si2 0.381308 0.107804 0.227212
Si Si3 0.597083 0.397307 0.630898
Si Si4 0.390014 0.791968 0.786638
Si Si5 0.719365 0.803929 0.524323
Si Si6 0.151776 0.110893 0.868187
O O1 0.523791 0.500000 0.105718
O O2 0.612368 0.322562 0.197069
O O3 0.500000 0.356098 0.000000
O O4 0.003575 0.372068 0.844363
O O5 0.615344 0.184644 0.301959
O O6 0.403758 0.133273 0.325566
O O7 0.521492 0.000000 0.286755
O O8 0.000000 0.118841 0.000000
O O9 0.500000 0.420219 0.500000
O O10 0.524013 0.500000 0.635733
O O11 0.358598 0.308228 0.532481
O O12 0.049792 0.838789 0.647512
O O13 0.743912 0.840979 0.001732
O O14 0.820452 0.829268 0.660726
O O15 0.038996 0.000000 0.820500
O O16 0.500000 0.120423 0.000000
#
# Coordination Sequence:
#
# PCOD8064462 Si02
#       6
#     4   4   4   4   4   4
#     4  10  20  36  60  89 121 158 198 241 294 355
#     4  11  25  43  61  84 120 164 205 247 298 357
#     4  10  20  35  58  89 124 158 194 243 299 354
#     4  11  21  37  61  88 119 157 200 248 299 355
#     4  11  22  37  61  91 121 156 199 247 301 357
#     4   9  18  33  56  87 119 151 194 247 298 351
#
# _framework density 24.516701000000001
#
# number of rings (size 3 to 8) (size 9 to 14) (size 15 to 20)
#    0.000    1.667    0.000    6.000    0.000    4.667 
#    0.000    0.833    0.000   10.500    0.000    0.000 
#    0.000    0.000    0.000    0.000    0.000    0.000 
#
# Total GULP energy -297446.500819 kJ/mol
# GULP energy per Si atom -12393.604201 kJ/mol
# Density = 2.446090 g / cm^3
# Si number density = 24.516701 Si / 1000 Ang^3
#
#
#
# Elastic Constant Matrix: (Units=GPa)
#
#
# Indices 1 2 3 4 5 6 
#
# 1 52.1829 22.8725 3.6163 0.0000 -28.9458 0.0000
# 2 22.8725 154.8389 36.3990 0.0000 -8.6790 0.0000
# 3 3.6163 36.3990 92.4200 0.0000 -14.8061 0.0000
# 4 0.0000 0.0000 0.0000 29.7902 0.0000 0.6765
# 5 -28.9458 -8.6790 -14.8061 0.0000 31.8779 0.0000
# 6 0.0000 0.0000 0.0000 0.6765 0.0000 34.3439
#
#
#
# Elastic Compliance Matrix: (Units=1/GPa)
#
#
# Indices 1 2 3 4 5 6 
#
# 1 0.044895 -0.005990 0.007425 0.000000 0.042583 0.000000
# 2 -0.005990 0.007931 -0.003689 0.000000 -0.004994 0.000000
# 3 0.007425 -0.003689 0.013939 0.000000 0.012211 0.000000
# 4 0.000000 0.000000 0.000000 0.033583 0.000000 -0.000661
# 5 0.042583 -0.004994 0.012211 0.000000 0.074348 0.000000
# 6 0.000000 0.000000 0.000000 -0.000661 0.000000 0.029130
#
#
# Mechanical properties :
#
#
# Convention : Reuss Voigt Hill
#
# Bulk Modulus (GPa) = 16.06289 47.24639 31.65464
# Shear Modulus (GPa) = 21.82568 34.97266 28.39917
#
# Velocity S-wave (km/s) = 2.98692 3.78098 3.40716
# Velocity P-wave (km/s) = 4.29670 6.19468 5.33084
#
# Compressibility (1/GPa) = 0.06225531
#
# Stress axis : x y z
#
# Youngs Moduli (GPa) = 22.27395 126.09541 71.74197
#
# Poissons Ratio (x) = 0.75536 -0.53265
# Poissons Ratio (y) = 0.13343 0.26465
# Poissons Ratio (z) = -0.16537 0.46516
#
# Static dielectric constant tensor:
#      x y z
#    x 4.205410 0.000000 -0.104670 
#    y 0.000000 4.684420 0.000000 
#    z -0.104670 0.000000 4.629830 
# 
# 
# High freq. dielectric constant tensor:
#      x y z
#    x 1.951270 0.000000 0.017130 
#    y 0.000000 1.978220 0.000000 
#    z 0.017130 0.000000 1.991550 
# 
# From -- ./inp_files/84152.got.cif
#   From: 2010.06.25/outbox.cif.g09.slc.cpg/sg10_43_cif.got.tgz:84152.got - 2010.06.27 22:07:45.
