data_PCOD8064352
_publ_section_title
;
Structure prediction by ZEFSAII (Michael W. Deem and Ramdas Pophale) SiO2 
 PCOD8064352
Probable space group: P 2/M
;
_chemical_formula_sum "Si O2"
_cell_formula_units_Z 28
_cell_length_a 28.600103
_cell_length_b 8.950144
_cell_length_c 8.898986
_cell_angle_alpha 90.000000
_cell_angle_beta 38.932991
_cell_angle_gamma 90.000000
_cell_volume 1431.469070
_symmetry_space_group_name_H-M "P 2/M"
_symmetry_group_IT_number 10
_symmetry_cell_setting 'monoclinic'
loop_
_space_group_symop_operation_xyz
x,y,z
-x,y,-z
-x,-y,-z
x,-y,z
loop_
_atom_site_type_symbol
_atom_site_label
_atom_site_fract_x
_atom_site_fract_y
_atom_site_fract_z
Si Si1 0.422822 0.671016 0.119519
Si Si2 0.851132 0.675730 0.199113
Si Si3 0.422822 0.671016 0.766371
Si Si4 0.713660 0.172720 0.390434
Si Si5 0.148869 0.324270 0.454771
Si Si6 0.286341 0.172720 0.958732
Si Si7 0.000000 0.168211 0.821443
O O1 0.403680 0.500000 0.210749
O O2 0.359057 0.778591 0.338285
O O3 0.500000 0.721781 0.000000
O O4 0.430163 0.691098 0.924592
O O5 0.859359 0.500000 0.161931
O O6 0.783292 0.731106 0.269328
O O7 0.837001 0.721805 0.407498
O O8 0.926410 0.749003 0.946122
O O9 0.500000 0.721780 0.500000
O O10 0.403679 0.500000 0.770854
O O11 0.359058 0.778592 0.866427
O O12 0.699696 0.203017 0.250760
O O13 0.730035 0.000000 0.383535
O O14 0.140641 0.500000 0.458726
O O15 0.073591 0.250997 0.578168
O O16 0.216709 0.268894 0.185787
O O17 0.269964 0.000000 0.033713
O O18 0.000000 0.000000 0.758797
O O19 0.000000 0.172261 0.000000
#
# Coordination Sequence:
#
# PCOD8064352 Si02
#       7
#     4   4   4   4   4   4   4
#     4  10  21  38  61  87 113 144 183 226 274 329
#     4  10  20  35  57  84 112 144 185 231 278 330
#     4  10  21  38  61  87 113 144 183 226 274 329
#     4  11  24  39  55  79 112 149 188 230 277 328
#     4  10  20  35  57  84 112 144 185 231 278 330
#     4  11  24  39  55  79 112 149 188 230 277 328
#     4   9  17  31  54  83 114 147 182 224 276 331
#
# _framework density 19.560324999999999
#
# number of rings (size 3 to 8) (size 9 to 14) (size 15 to 20)
#    0.000    1.857    0.000    3.857    0.000   11.429 
#    0.000    0.714    0.000    4.286    0.000    0.000 
#    0.000    0.000    0.000    0.000    0.000    0.000 
#
# Total GULP energy -347347.453984 kJ/mol
# GULP energy per Si atom -12405.266214 kJ/mol
# Density = 1.951580 g / cm^3
# Si number density = 19.560325 Si / 1000 Ang^3
#
#
#
# Elastic Constant Matrix: (Units=GPa)
#
#
# Indices 1 2 3 4 5 6 
#
# 1 90.0216 35.5464 39.5578 0.0000 -19.7182 0.0000
# 2 35.5464 84.0508 40.2941 0.0000 -8.3592 0.0000
# 3 39.5578 40.2941 112.5100 0.0000 -19.8772 0.0000
# 4 0.0000 0.0000 0.0000 -21.3125 0.0000 36.8351
# 5 -19.7182 -8.3592 -19.8772 0.0000 31.1131 0.0000
# 6 0.0000 0.0000 0.0000 36.8351 0.0000 -0.3882
#
#
#
# Elastic Compliance Matrix: (Units=1/GPa)
#
#
# Indices 1 2 3 4 5 6 
#
# 1 0.015620 -0.004672 -0.002583 0.000000 0.006994 0.000000
# 2 -0.004672 0.015773 -0.004262 0.000000 -0.001446 0.000000
# 3 -0.002583 -0.004262 0.012209 0.000000 0.005018 0.000000
# 4 0.000000 0.000000 0.000000 0.000288 0.000000 0.027315
# 5 0.006994 -0.001446 0.005018 0.000000 0.039391 0.000000
# 6 0.000000 0.000000 0.000000 0.027315 0.000000 0.015804
#
#
# Mechanical properties :
#
#
# Convention : Reuss Voigt Hill
#
# Bulk Modulus (GPa) = 48.61811 57.48654 53.05233
# Shear Modulus (GPa) = 38.76739 13.29477 26.03108
#
# Velocity S-wave (km/s) = 4.45673 2.60990 3.65198
# Velocity P-wave (km/s) = 7.16887 6.20768 6.70552
#
# Compressibility (1/GPa) = 0.02056847
#
# Stress axis : x y z
#
# Youngs Moduli (GPa) = 64.01905 63.40074 81.90649
#
# Poissons Ratio (x) = 0.29622 0.21157
# Poissons Ratio (y) = 0.29911 0.34905
# Poissons Ratio (z) = 0.16537 0.27018
#
# Static dielectric constant tensor:
#      x y z
#    x 3.662600 0.000000 -0.268180 
#    y 0.000000 3.661740 0.000000 
#    z -0.268180 0.000000 3.814900 
# 
# 
# High freq. dielectric constant tensor:
#      x y z
#    x 1.759730 0.000000 -0.013990 
#    y 0.000000 1.769810 0.000000 
#    z -0.013990 0.000000 1.767680 
# 
# From -- ./inp_files/37120.got.cif
#   From: 2010.06.25/outbox.cif.g09.slc.cpg/sg10_19_cif.got.tgz:37120.got - 2010.06.27 22:07:45.
