data_PCOD8064891
_publ_section_title
;
Structure prediction by ZEFSAII (Michael W. Deem and Ramdas Pophale) SiO2 
 PCOD8064891
Probable space group: P 2/M
;
_chemical_formula_sum "Si O2"
_cell_formula_units_Z 20
_cell_length_a 25.756605
_cell_length_b 8.942416
_cell_length_c 8.955809
_cell_angle_alpha 90.000000
_cell_angle_beta 150.223470
_cell_angle_gamma 90.000000
_cell_volume 1024.403767
_symmetry_space_group_name_H-M "P 2/M"
_symmetry_group_IT_number 10
_symmetry_cell_setting 'monoclinic'
loop_
_space_group_symop_operation_xyz
x,y,z
-x,y,-z
-x,-y,-z
x,-y,z
loop_
_atom_site_type_symbol
_atom_site_label
_atom_site_fract_x
_atom_site_fract_y
_atom_site_fract_z
Si Si1 0.693532 0.176870 0.147196
Si Si2 0.705285 0.325883 0.858236
Si Si3 0.504733 0.327278 0.839093
Si Si4 0.889252 0.827830 0.145746
Si Si5 0.897869 0.177754 0.827979
O O1 0.795071 0.238811 0.487820
O O2 0.697279 0.000000 0.146549
O O3 0.691318 0.239775 0.976520
O O4 0.590489 0.224845 0.976528
O O5 0.714268 0.500000 0.916168
O O6 0.606990 0.289033 0.509146
O O7 0.808353 0.273292 0.031800
O O8 0.535178 0.500000 0.890410
O O9 0.500000 0.284896 0.000000
O O10 0.000000 0.809589 0.500000
O O11 0.851826 0.000000 0.056080
O O12 0.896945 0.766684 0.996241
O O13 0.901764 0.000000 0.833393
O O14 0.000000 0.243856 0.000000
#
# Coordination Sequence:
#
# PCOD8064891 Si02
#       5
#     4   4   4   4   4
#     4  11  22  36  58  85 112 145 186 231 276 325
#     4  11  23  38  57  81 112 149 186 226 275 331
#     4  10  22  40  59  80 111 149 185 226 279 333
#     4  10  20  36  60  86 112 144 183 229 278 326
#     4   9  18  34  56  83 113 143 178 223 276 329
#
# _framework density 19.523551000000001
#
# number of rings (size 3 to 8) (size 9 to 14) (size 15 to 20)
#    0.000    1.800    0.000    4.200    0.000    8.000 
#    0.000    1.000    0.000    4.200    0.000    0.000 
#    0.000    0.000    0.000    0.000    0.000    0.000 
#
# Total GULP energy -248096.818889 kJ/mol
# GULP energy per Si atom -12404.840944 kJ/mol
# Density = 1.947911 g / cm^3
# Si number density = 19.523551 Si / 1000 Ang^3
#
#
#
# Elastic Constant Matrix: (Units=GPa)
#
#
# Indices 1 2 3 4 5 6 
#
# 1 155.5527 46.7544 64.6855 0.0000 -10.5921 0.0000
# 2 46.7544 52.8727 39.5772 0.0000 2.3076 0.0000
# 3 64.6855 39.5772 110.2282 0.0000 -8.2362 0.0000
# 4 0.0000 0.0000 0.0000 25.9921 0.0000 -2.3145
# 5 -10.5921 2.3076 -8.2362 0.0000 45.3789 0.0000
# 6 0.0000 0.0000 0.0000 -2.3145 0.0000 27.7192
#
#
#
# Elastic Compliance Matrix: (Units=1/GPa)
#
#
# Indices 1 2 3 4 5 6 
#
# 1 0.009857 -0.006272 -0.003383 0.000000 0.002006 0.000000
# 2 -0.006272 0.030277 -0.007516 0.000000 -0.004368 0.000000
# 3 -0.003383 -0.007516 0.013914 0.000000 0.002118 0.000000
# 4 0.000000 0.000000 0.000000 0.038761 0.000000 0.003236
# 5 0.002006 -0.004368 0.002118 0.000000 0.023111 0.000000
# 6 0.000000 0.000000 0.000000 0.003236 0.000000 0.036346
#
#
# Mechanical properties :
#
#
# Convention : Reuss Voigt Hill
#
# Bulk Modulus (GPa) = 50.74701 68.96531 59.85616
# Shear Modulus (GPa) = 25.88292 30.99383 28.43837
#
# Velocity S-wave (km/s) = 3.64501 3.98868 3.82071
# Velocity P-wave (km/s) = 6.61543 7.52420 7.08440
#
# Compressibility (1/GPa) = 0.01970560
#
# Stress axis : x y z
#
# Youngs Moduli (GPa) = 101.44986 33.02888 71.86915
#
# Poissons Ratio (x) = 0.20716 0.24311
# Poissons Ratio (y) = 0.63629 0.54020
# Poissons Ratio (z) = 0.34317 0.24826
#
# Static dielectric constant tensor:
#      x y z
#    x 3.559180 0.000000 -0.058980 
#    y 0.000000 3.378010 0.000000 
#    z -0.058980 0.000000 3.808760 
# 
# 
# High freq. dielectric constant tensor:
#      x y z
#    x 1.779810 0.000000 -0.004010 
#    y 0.000000 1.739710 0.000000 
#    z -0.004010 0.000000 1.780110 
# 
# From -- ./inp_files/22127.got.cif
#   From: 2010.06.25/outbox.cif.g09.slc.cpg/sg10_12_cif.got.tgz:22127.got - 2010.06.27 22:07:45.
