data_PCOD8064105
_publ_section_title
;
Structure prediction by ZEFSAII (Michael W. Deem and Ramdas Pophale) SiO2 
 PCOD8064105
Probable space group: P 2/M
;
_chemical_formula_sum "Si O2"
_cell_formula_units_Z 28
_cell_length_a 26.973535
_cell_length_b 10.157673
_cell_length_c 8.596336
_cell_angle_alpha 90.000000
_cell_angle_beta 39.187088
_cell_angle_gamma 90.000000
_cell_volume 1488.204661
_symmetry_space_group_name_H-M "P 2/M"
_symmetry_group_IT_number 10
_symmetry_cell_setting 'monoclinic'
loop_
_space_group_symop_operation_xyz
x,y,z
-x,y,-z
-x,-y,-z
x,-y,z
loop_
_atom_site_type_symbol
_atom_site_label
_atom_site_fract_x
_atom_site_fract_y
_atom_site_fract_z
Si Si1 0.704690 0.648167 0.354798
Si Si2 0.253292 0.647582 0.094052
Si Si3 0.164026 0.751877 0.753255
Si Si4 0.296960 0.143766 0.224897
Si Si5 0.912587 0.647532 0.358385
Si Si6 0.409855 0.850252 0.225369
Si Si7 0.019447 0.848185 0.275222
O O1 0.670969 0.500000 0.444692
O O2 0.776500 0.656094 0.301047
O O3 0.634932 0.750370 0.553101
O O4 0.737261 0.684104 0.107239
O O5 0.282552 0.500000 0.061071
O O6 0.303379 0.746172 0.077485
O O7 0.162122 0.663100 0.350622
O O8 0.217791 0.850206 0.521296
O O9 0.109079 0.668702 0.770003
O O10 0.111329 0.829962 0.008335
O O11 0.374323 0.162104 0.139942
O O12 0.297090 0.000000 0.145128
O O13 0.948083 0.500000 0.288429
O O14 0.973333 0.757012 0.266554
O O15 0.400408 0.000000 0.311160
O O16 0.500000 0.807738 0.000000
O O17 0.000000 0.805792 0.500000
O O18 0.994922 0.000000 0.309359
#
# Coordination Sequence:
#
# PCOD8064105 Si02
#       7
#     4   4   4   4   4   4   4
#     4  10  20  35  57  82 106 136 174 215 259 308
#     4   9  19  35  53  77 108 138 172 215 262 311
#     4  10  20  35  55  77 103 134 174 220 263 311
#     4   9  18  33  55  78 100 134 176 214 255 307
#     4  10  21  36  55  77 102 136 175 217 266 315
#     4   9  19  36  56  80 110 141 174 212 255 306
#     4  11  24  38  52  74 105 140 177 219 266 313
#
# _framework density 18.814615
#
# number of rings (size 3 to 8) (size 9 to 14) (size 15 to 20)
#    0.000    2.286    0.000    2.143    0.000   10.286 
#    0.000    0.714    0.000    4.286    0.000    0.000 
#    0.000    0.000    0.000    0.000    0.000    0.000 
#
# Total GULP energy -347150.632136 kJ/mol
# GULP energy per Si atom -12398.236862 kJ/mol
# Density = 1.877179 g / cm^3
# Si number density = 18.814615 Si / 1000 Ang^3
#
#
#
# Elastic Constant Matrix: (Units=GPa)
#
#
# Indices 1 2 3 4 5 6 
#
# 1 86.6922 51.5211 54.3134 0.0000 1.2912 0.0000
# 2 51.5211 118.1771 53.9644 0.0000 1.5063 0.0000
# 3 54.3134 53.9644 95.2370 0.0000 9.6863 0.0000
# 4 0.0000 0.0000 0.0000 23.1753 0.0000 1.9069
# 5 1.2912 1.5063 9.6863 0.0000 27.2188 0.0000
# 6 0.0000 0.0000 0.0000 1.9069 0.0000 24.9927
#
#
#
# Elastic Compliance Matrix: (Units=1/GPa)
#
#
# Indices 1 2 3 4 5 6 
#
# 1 0.019846 -0.004586 -0.008974 0.000000 0.002506 0.000000
# 2 -0.004586 0.012555 -0.004617 0.000000 0.001166 0.000000
# 3 -0.008974 -0.004617 0.018847 0.000000 -0.006026 0.000000
# 4 0.000000 0.000000 0.000000 0.043422 0.000000 -0.003313
# 5 0.002506 0.001166 -0.006026 0.000000 0.038700 0.000000
# 6 0.000000 0.000000 0.000000 -0.003313 0.000000 0.040264
#
#
# Mechanical properties :
#
#
# Convention : Reuss Voigt Hill
#
# Bulk Modulus (GPa) = 67.14611 68.85600 68.00105
# Shear Modulus (GPa) = 23.26089 24.43118 23.84604
#
# Velocity S-wave (km/s) = 3.51995 3.60741 3.56395
# Velocity P-wave (km/s) = 7.23089 7.35036 7.29087
#
# Compressibility (1/GPa) = 0.01489290
#
# Stress axis : x y z
#
# Youngs Moduli (GPa) = 50.38906 79.65157 53.05838
#
# Poissons Ratio (x) = 0.36528 0.47616
# Poissons Ratio (y) = 0.23108 0.24498
# Poissons Ratio (z) = 0.45220 0.36776
#
# Static dielectric constant tensor:
#      x y z
#    x 3.355010 0.000000 0.053910 
#    y 0.000000 3.541980 0.000000 
#    z 0.053910 0.000000 3.432960 
# 
# 
# High freq. dielectric constant tensor:
#      x y z
#    x 1.721320 0.000000 0.006750 
#    y 0.000000 1.739020 0.000000 
#    z 0.006750 0.000000 1.723210 
# 
# From -- ./inp_files/37040.got.cif
#   From: 2010.06.25/outbox.cif.g09.slc.cpg/sg10_19_cif.got.tgz:37040.got - 2010.06.27 22:07:45.
