data_PCOD8064012
_publ_section_title
;
Structure prediction by ZEFSAII (Michael W. Deem and Ramdas Pophale) SiO2 
 PCOD8064012
Probable space group: P 2/M
;
_chemical_formula_sum "Si O2"
_cell_formula_units_Z 32
_cell_length_a 20.312778
_cell_length_b 8.904294
_cell_length_c 14.165262
_cell_angle_alpha 90.000000
_cell_angle_beta 135.986854
_cell_angle_gamma 90.000000
_cell_volume 1780.196159
_symmetry_space_group_name_H-M "P 2/M"
_symmetry_group_IT_number 10
_symmetry_cell_setting 'monoclinic'
loop_
_space_group_symop_operation_xyz
x,y,z
-x,y,-z
-x,-y,-z
x,-y,z
loop_
_atom_site_type_symbol
_atom_site_label
_atom_site_fract_x
_atom_site_fract_y
_atom_site_fract_z
Si Si1 0.399457 0.676667 0.649730
Si Si2 0.600563 0.822285 0.833670
Si Si3 0.232369 0.674974 0.337991
Si Si4 0.246378 0.678256 0.137112
Si Si5 0.892848 0.821727 0.146034
Si Si6 0.270657 0.821721 0.663485
Si Si7 0.742767 0.823852 0.140048
Si Si8 0.107204 0.175975 0.354594
O O1 0.413952 0.500000 0.675993
O O2 0.497311 0.753384 0.724418
O O3 0.327986 0.718486 0.491761
O O4 0.360690 0.743898 0.707671
O O5 0.660048 0.752591 0.809596
O O6 0.596015 0.000000 0.815219
O O7 0.650220 0.779395 0.984213
O O8 0.212704 0.500000 0.323162
O O9 0.242007 0.729913 0.241016
O O10 0.141952 0.752996 0.292553
O O11 0.253070 0.500000 0.133069
O O12 0.151661 0.739152 0.989966
O O13 0.837054 0.768446 0.182614
O O14 0.001149 0.769786 0.268604
O O15 0.881772 0.000000 0.119920
O O16 0.263284 0.753885 0.761605
O O17 0.174411 0.774738 0.510426
O O18 0.286715 0.000000 0.678185
O O19 0.749568 0.000000 0.160215
O O20 0.109764 0.000000 0.342822
#
# Coordination Sequence:
#
# PCOD8064012 Si02
#       8
#     4   4   4   4   4   4   4   4
#     4  10  20  35  52  72  99 131 163 202 246 292
#     4  10  20  35  53  75 101 129 160 201 247 293
#     4   9  20  36  52  70  98 132 166 202 245 292
#     4  10  20  35  53  73  96 129 168 204 241 291
#     4   9  18  33  50  74 104 132 161 201 249 292
#     4   9  17  32  52  74  98 130 168 204 240 286
#     4   8  16  31  51  72  99 131 163 199 243 290
#     4   9  18  31  51  76 101 128 165 207 244 284
#
# _framework density 17.975546000000001
#
# number of rings (size 3 to 8) (size 9 to 14) (size 15 to 20)
#    0.000    2.750    0.000    1.875    0.000    4.000 
#    0.000   13.125    0.000    0.000    0.000    7.000 
#    0.000    0.000    0.000    0.000    0.000    0.000 
#
# Total GULP energy -396798.969777 kJ/mol
# GULP energy per Si atom -12399.967806 kJ/mol
# Density = 1.793463 g / cm^3
# Si number density = 17.975546 Si / 1000 Ang^3
#
#
#
# Elastic Constant Matrix: (Units=GPa)
#
#
# Indices 1 2 3 4 5 6 
#
# 1 89.9261 29.9143 43.6690 0.0000 -13.0815 0.0000
# 2 29.9143 40.5525 20.7659 0.0000 0.0636 0.0000
# 3 43.6690 20.7659 57.5807 0.0000 -6.3693 0.0000
# 4 0.0000 0.0000 0.0000 24.5873 0.0000 -0.0284
# 5 -13.0815 0.0636 -6.3693 0.0000 41.4316 0.0000
# 6 0.0000 0.0000 0.0000 -0.0284 0.0000 10.6840
#
#
#
# Elastic Compliance Matrix: (Units=1/GPa)
#
#
# Indices 1 2 3 4 5 6 
#
# 1 0.020566 -0.009147 -0.011779 0.000000 0.004697 0.000000
# 2 -0.009147 0.034438 -0.005909 0.000000 -0.003849 0.000000
# 3 -0.011779 -0.005909 0.028506 0.000000 0.000672 0.000000
# 4 0.000000 0.000000 0.000000 0.040671 0.000000 0.000108
# 5 0.004697 -0.003849 0.000672 0.000000 0.025728 0.000000
# 6 0.000000 0.000000 0.000000 0.000108 0.000000 0.093598
#
#
# Mechanical properties :
#
#
# Convention : Reuss Voigt Hill
#
# Bulk Modulus (GPa) = 33.51115 41.86197 37.68656
# Shear Modulus (GPa) = 16.28004 21.58793 18.93399
#
# Velocity S-wave (km/s) = 3.01271 3.46925 3.24901
# Velocity P-wave (km/s) = 5.54842 6.27586 5.92332
#
# Compressibility (1/GPa) = 0.02984082
#
# Stress axis : x y z
#
# Youngs Moduli (GPa) = 48.62346 29.03737 35.08088
#
# Poissons Ratio (x) = 0.26559 0.41322
# Poissons Ratio (y) = 0.44474 0.20729
# Poissons Ratio (z) = 0.57274 0.17158
#
# Static dielectric constant tensor:
#      x y z
#    x 3.538480 0.000000 -0.070360 
#    y 0.000000 3.195210 0.000000 
#    z -0.070360 0.000000 3.456830 
# 
# 
# High freq. dielectric constant tensor:
#      x y z
#    x 1.703970 0.000000 0.000860 
#    y 0.000000 1.684680 0.000000 
#    z 0.000860 0.000000 1.694730 
# 
# From -- ./inp_files/66116.got.cif
#   From: 2010.06.25/outbox.cif.g09.slc.cpg/sg10_34_cif.got.tgz:66116.got - 2010.06.27 22:07:45.
