data_PCOD8064991
_publ_section_title
;
Structure prediction by ZEFSAII (Michael W. Deem and Ramdas Pophale) SiO2 
 PCOD8064991
Probable space group: P 2/M
;
_chemical_formula_sum "Si O2"
_cell_formula_units_Z 28
_cell_length_a 6.937787
_cell_length_b 29.218280
_cell_length_c 8.055552
_cell_angle_alpha 90.000000
_cell_angle_beta 136.663035
_cell_angle_gamma 90.000000
_cell_volume 1120.668476
_symmetry_space_group_name_H-M "P 2/M"
_symmetry_group_IT_number 10
_symmetry_cell_setting 'monoclinic'
loop_
_space_group_symop_operation_xyz
x,y,z
-x,y,-z
-x,-y,-z
x,-y,z
loop_
_atom_site_type_symbol
_atom_site_label
_atom_site_fract_x
_atom_site_fract_y
_atom_site_fract_z
Si Si1 0.669380 0.553345 0.438606
Si Si2 0.783970 0.307370 0.076521
Si Si3 0.840144 0.410516 0.058006
Si Si4 0.438322 0.871455 0.270233
Si Si5 0.437788 0.228768 0.269808
Si Si6 0.783068 0.949643 0.072854
Si Si7 0.000000 0.742725 0.500000
Si Si8 0.000000 0.098572 0.500000
O O1 0.500000 0.565184 0.500000
O O2 0.691438 0.500000 0.415891
O O3 0.993165 0.572017 0.669781
O O4 0.493102 0.575538 0.171203
O O5 0.872362 0.356125 0.061859
O O6 0.019290 0.289299 0.349701
O O7 0.500000 0.313408 0.000000
O O8 0.760060 0.270127 0.913875
O O9 0.000000 0.432964 0.000000
O O10 0.500000 0.879420 0.500000
O O11 0.295419 0.821348 0.154371
O O12 0.720929 0.870682 0.334253
O O13 0.234242 0.912555 0.085944
O O14 0.500000 0.237118 0.500000
O O15 0.720047 0.226899 0.333384
O O16 0.021085 0.933451 0.350084
O O17 0.854793 0.000000 0.045129
O O18 0.500000 0.951704 0.000000
#
# Coordination Sequence:
#
# PCOD8064991 Si02
#       8
#     4   4   4   4   4   4   2   2
#     4   9  18  34  57  91 127 160 206 265 320 377
#     4  10  24  40  58  85 119 161 201 256 313 379
#     4  10  21  34  62  91 120 162 212 262 319 384
#     4  10  22  39  58  88 118 153 199 253 307 371
#     4  10  23  40  62  86 120 158 205 257 310 377
#     4   9  19  36  59  86 118 154 199 248 302 370
#     4  10  23  40  60  87 118 162 205 254 315 372
#     4  10  20  36  62  83 116 160 197 248 302 372
#
# _framework density 24.985085000000002
#
# number of rings (size 3 to 8) (size 9 to 14) (size 15 to 20)
#    0.000    2.286    0.000    1.071    6.000   10.000 
#    0.000    3.571    0.000    2.571    0.000    0.000 
#    0.000    0.000    0.000    0.000    0.000    0.000 
#
# Total GULP energy -347021.457754 kJ/mol
# GULP energy per Si atom -12393.623491 kJ/mol
# Density = 2.492822 g / cm^3
# Si number density = 24.985085 Si / 1000 Ang^3
#
#
#
# Elastic Constant Matrix: (Units=GPa)
#
#
# Indices 1 2 3 4 5 6 
#
# 1 44.1323 0.9992 11.1519 0.0000 7.9143 0.0000
# 2 0.9992 221.8926 101.4798 0.0000 -16.0007 0.0000
# 3 11.1519 101.4798 183.4961 0.0000 -6.0451 0.0000
# 4 0.0000 0.0000 0.0000 28.2978 0.0000 16.2212
# 5 7.9143 -16.0007 -6.0451 0.0000 36.1800 0.0000
# 6 0.0000 0.0000 0.0000 16.2212 0.0000 22.7089
#
#
#
# Elastic Compliance Matrix: (Units=1/GPa)
#
#
# Indices 1 2 3 4 5 6 
#
# 1 0.024087 0.000337 -0.001829 0.000000 -0.005426 0.000000
# 2 0.000337 0.006204 -0.003382 0.000000 0.002105 0.000000
# 3 -0.001829 -0.003382 0.007436 0.000000 0.000147 0.000000
# 4 0.000000 0.000000 0.000000 0.059841 0.000000 -0.042745
# 5 -0.005426 0.002105 0.000147 0.000000 0.029782 0.000000
# 6 0.000000 0.000000 0.000000 -0.042745 0.000000 0.074569
#
#
# Mechanical properties :
#
#
# Convention : Reuss Voigt Hill
#
# Bulk Modulus (GPa) = 35.74217 75.19809 55.47013
# Shear Modulus (GPa) = 22.62520 39.83000 31.22760
#
# Velocity S-wave (km/s) = 3.01250 3.99701 3.53916
# Velocity P-wave (km/s) = 5.14166 7.17384 6.24102
#
# Compressibility (1/GPa) = 0.02797816
#
# Stress axis : x y z
#
# Youngs Moduli (GPa) = 41.51682 161.19560 134.48045
#
# Poissons Ratio (x) = -0.05427 0.24594
# Poissons Ratio (y) = -0.01398 0.45481
# Poissons Ratio (z) = 0.07593 0.54516
#
# Static dielectric constant tensor:
#      x y z
#    x 4.173230 0.000000 0.070290 
#    y 0.000000 4.467250 0.000000 
#    z 0.070290 0.000000 4.725100 
# 
# 
# High freq. dielectric constant tensor:
#      x y z
#    x 1.993650 0.000000 -0.002660 
#    y 0.000000 1.990020 0.000000 
#    z -0.002660 0.000000 1.995890 
# 
# From -- ./inp_files/20862.got.cif
#   From: 2010.06.25/outbox.cif.g09.slc.cpg/sg10_11_cif.got.tgz:20862.got - 2010.06.27 22:07:45.
