data_PCOD8064107
_publ_section_title
;
Structure prediction by ZEFSAII (Michael W. Deem and Ramdas Pophale) SiO2 
 PCOD8064107
Probable space group: P 2/M
;
_chemical_formula_sum "Si O2"
_cell_formula_units_Z 28
_cell_length_a 26.760772
_cell_length_b 8.888557
_cell_length_c 18.422273
_cell_angle_alpha 90.000000
_cell_angle_beta 159.408335
_cell_angle_gamma 90.000000
_cell_volume 1541.176010
_symmetry_space_group_name_H-M "P 2/M"
_symmetry_group_IT_number 10
_symmetry_cell_setting 'monoclinic'
loop_
_space_group_symop_operation_xyz
x,y,z
-x,y,-z
-x,-y,-z
x,-y,z
loop_
_atom_site_type_symbol
_atom_site_label
_atom_site_fract_x
_atom_site_fract_y
_atom_site_fract_z
Si Si1 0.401540 0.323018 0.080176
Si Si2 0.323143 0.178403 0.493484
Si Si3 0.099380 0.170642 0.444487
Si Si4 0.107125 0.826592 0.707829
Si Si5 0.605858 0.174009 0.080846
Si Si6 0.902307 0.675570 0.708664
Si Si7 0.887032 0.834676 0.910024
O O1 0.414039 0.500000 0.104343
O O2 0.520436 0.247837 0.292632
O O3 0.248312 0.271382 0.899138
O O4 0.430876 0.275214 0.037710
O O5 0.227682 0.240340 0.429601
O O6 0.257612 0.222739 0.325393
O O7 0.329458 0.000000 0.511349
O O8 0.233730 0.205892 0.677603
O O9 0.095294 0.285340 0.372704
O O10 0.960627 0.193366 0.305002
O O11 0.108392 0.000000 0.426846
O O12 0.000000 0.767936 0.500000
O O13 0.146383 0.000000 0.744808
O O14 0.582364 0.000000 0.027969
O O15 0.500000 0.224598 0.000000
O O16 0.879191 0.500000 0.687782
O O17 0.055572 0.721337 0.950781
O O18 0.864809 0.000000 0.915321
O O19 0.000000 0.848644 0.000000
#
# Coordination Sequence:
#
# PCOD8064107 Si02
#       7
#     4   4   4   4   4   4   4
#     4  12  24  35  53  81 112 140 172 224 282 327
#     4  10  20  36  57  79 108 146 187 223 259 317
#     4  10  20  35  56  78 104 143 187 226 259 311
#     4  10  20  39  61  77  98 139 194 231 260 312
#     4  10  20  35  55  77 104 142 182 220 262 314
#     4  11  21  32  52  84 119 145 171 217 276 329
#     4   8  16  32  54  78 105 142 184 220 257 314
#
# _framework density 18.167946000000001
#
# number of rings (size 3 to 8) (size 9 to 14) (size 15 to 20)
#    0.000    1.857    1.429    4.714    0.000    6.000 
#    0.000    0.000    0.000    0.857    0.000    6.000 
#    0.000    0.000    0.000    0.000    0.000    0.000 
#
# Total GULP energy -347250.123003 kJ/mol
# GULP energy per Si atom -12401.790107 kJ/mol
# Density = 1.812659 g / cm^3
# Si number density = 18.167946 Si / 1000 Ang^3
#
#
#
# Elastic Constant Matrix: (Units=GPa)
#
#
# Indices 1 2 3 4 5 6 
#
# 1 25.0758 16.0042 16.2490 0.0000 11.0341 0.0000
# 2 16.0042 99.8584 49.9890 0.0000 -0.4808 0.0000
# 3 16.2490 49.9890 122.8038 0.0000 3.0688 0.0000
# 4 0.0000 0.0000 0.0000 12.7152 0.0000 2.3763
# 5 11.0341 -0.4808 3.0688 0.0000 22.1337 0.0000
# 6 0.0000 0.0000 0.0000 2.3763 0.0000 17.4494
#
#
#
# Elastic Compliance Matrix: (Units=1/GPa)
#
#
# Indices 1 2 3 4 5 6 
#
# 1 0.060650 -0.007812 -0.004100 0.000000 -0.029837 0.000000
# 2 -0.007812 0.013605 -0.004625 0.000000 0.004831 0.000000
# 3 -0.004100 -0.004625 0.010556 0.000000 0.000480 0.000000
# 4 0.000000 0.000000 0.000000 0.080700 0.000000 -0.010990
# 5 -0.029837 0.004831 0.000480 0.000000 0.060093 0.000000
# 6 0.000000 0.000000 0.000000 -0.010990 0.000000 0.058805
#
#
# Mechanical properties :
#
#
# Convention : Reuss Voigt Hill
#
# Bulk Modulus (GPa) = 19.32801 45.80249 32.56525
# Shear Modulus (GPa) = 14.93752 21.49273 18.21513
#
# Velocity S-wave (km/s) = 2.87050 3.44321 3.16982
# Velocity P-wave (km/s) = 4.65274 6.40882 5.60004
#
# Compressibility (1/GPa) = 0.05173838
#
# Stress axis : x y z
#
# Youngs Moduli (GPa) = 16.48796 73.50380 94.73072
#
# Poissons Ratio (x) = 0.57420 0.38836
# Poissons Ratio (y) = 0.12880 0.43814
# Poissons Ratio (z) = 0.06759 0.33996
#
# Static dielectric constant tensor:
#      x y z
#    x 3.146950 0.000000 -0.158400 
#    y 0.000000 3.262570 0.000000 
#    z -0.158400 0.000000 3.717470 
# 
# 
# High freq. dielectric constant tensor:
#      x y z
#    x 1.679650 0.000000 -0.009100 
#    y 0.000000 1.698410 0.000000 
#    z -0.009100 0.000000 1.711340 
# 
# From -- ./inp_files/87152.got.cif
#   From: 2010.06.25/outbox.cif.g09.slc.cpg/sg10_44_cif.got.tgz:87152.got - 2010.06.27 22:07:45.
