data_PCOD8064145
_publ_section_title
;
Structure prediction by ZEFSAII (Michael W. Deem and Ramdas Pophale) SiO2 
 PCOD8064145
Probable space group: P 2/M
;
_chemical_formula_sum "Si O2"
_cell_formula_units_Z 28
_cell_length_a 18.701925
_cell_length_b 9.432714
_cell_length_c 13.776663
_cell_angle_alpha 90.000000
_cell_angle_beta 143.468925
_cell_angle_gamma 90.000000
_cell_volume 1446.680907
_symmetry_space_group_name_H-M "P 2/M"
_symmetry_group_IT_number 10
_symmetry_cell_setting 'monoclinic'
loop_
_space_group_symop_operation_xyz
x,y,z
-x,y,-z
-x,-y,-z
x,-y,z
loop_
_atom_site_type_symbol
_atom_site_label
_atom_site_fract_x
_atom_site_fract_y
_atom_site_fract_z
Si Si1 0.529968 0.836649 0.237159
Si Si2 0.203987 0.333722 0.022550
Si Si3 0.684253 0.336742 0.061111
Si Si4 0.582245 0.162558 0.678449
Si Si5 0.004895 0.162844 0.116812
Si Si6 0.198284 0.163225 0.479718
Si Si7 0.883583 0.334103 0.431959
O O1 0.494538 0.811663 0.309309
O O2 0.665409 0.779062 0.373867
O O3 0.520847 0.000000 0.197354
O O4 0.439021 0.751827 0.068254
O O5 0.196333 0.500000 0.034970
O O6 0.302987 0.264201 0.200528
O O7 0.236657 0.299457 0.946958
O O8 0.077785 0.262079 0.907615
O O9 0.646490 0.500000 0.018268
O O10 0.763481 0.298703 0.240795
O O11 0.500000 0.207850 0.500000
O O12 0.625757 0.000000 0.717296
O O13 0.138737 0.179024 0.307760
O O14 0.960778 0.000000 0.075500
O O15 0.000000 0.214578 0.000000
O O16 0.120933 0.251827 0.472004
O O17 0.196478 0.000000 0.510410
O O18 0.895252 0.500000 0.467520
O O19 0.000000 0.281747 0.500000
#
# Coordination Sequence:
#
# PCOD8064145 Si02
#       7
#     4   4   4   4   4   4   4
#     4   9  19  35  54  80 113 145 182 228 276 325
#     4  10  20  35  55  80 111 141 179 231 279 326
#     4   9  19  36  57  81 110 146 184 223 272 330
#     4   9  18  32  56  81 105 145 190 228 270 327
#     4  10  22  38  58  79 107 147 187 228 276 334
#     4  10  22  38  56  83 114 143 181 232 281 325
#     4  10  21  38  60  83 109 146 187 226 273 331
#
# _framework density 19.354647
#
# number of rings (size 3 to 8) (size 9 to 14) (size 15 to 20)
#    0.000    2.429    0.000    1.286    2.000    4.857 
#    0.000    2.857    0.000    0.000    0.000    0.000 
#    0.000    0.000    0.000    0.000    0.000    0.000 
#
# Total GULP energy -347268.349787 kJ/mol
# GULP energy per Si atom -12402.441064 kJ/mol
# Density = 1.931060 g / cm^3
# Si number density = 19.354647 Si / 1000 Ang^3
#
#
#
# Elastic Constant Matrix: (Units=GPa)
#
#
# Indices 1 2 3 4 5 6 
#
# 1 68.8672 34.0771 47.0242 0.0000 9.6075 0.0000
# 2 34.0771 61.7313 40.8942 0.0000 6.2702 0.0000
# 3 47.0242 40.8942 108.2470 0.0000 3.5909 0.0000
# 4 0.0000 0.0000 0.0000 28.2240 0.0000 2.8773
# 5 9.6075 6.2702 3.5909 0.0000 35.2800 0.0000
# 6 0.0000 0.0000 0.0000 2.8773 0.0000 28.5262
#
#
#
# Elastic Compliance Matrix: (Units=1/GPa)
#
#
# Indices 1 2 3 4 5 6 
#
# 1 0.024074 -0.008019 -0.007283 0.000000 -0.004389 0.000000
# 2 -0.008019 0.024603 -0.005758 0.000000 -0.001603 0.000000
# 3 -0.007283 -0.005758 0.014527 0.000000 0.001528 0.000000
# 4 0.000000 0.000000 0.000000 0.035799 0.000000 -0.003611
# 5 -0.004389 -0.001603 0.001528 0.000000 0.029669 0.000000
# 6 0.000000 0.000000 0.000000 -0.003611 0.000000 0.035420
#
#
# Mechanical properties :
#
#
# Convention : Reuss Voigt Hill
#
# Bulk Modulus (GPa) = 47.42980 53.64849 50.53915
# Shear Modulus (GPa) = 23.44780 26.19605 24.82192
#
# Velocity S-wave (km/s) = 3.48441 3.68295 3.58506
# Velocity P-wave (km/s) = 6.38334 6.77232 6.58070
#
# Compressibility (1/GPa) = 0.02108379
#
# Stress axis : x y z
#
# Youngs Moduli (GPa) = 41.53844 40.64536 68.83905
#
# Poissons Ratio (x) = 0.32593 0.50136
# Poissons Ratio (y) = 0.33309 0.39637
# Poissons Ratio (z) = 0.30253 0.23404
#
# Static dielectric constant tensor:
#      x y z
#    x 3.382490 0.000000 0.042290 
#    y 0.000000 3.444610 0.000000 
#    z 0.042290 0.000000 3.697760 
# 
# 
# High freq. dielectric constant tensor:
#      x y z
#    x 1.743240 0.000000 0.001710 
#    y 0.000000 1.744240 0.000000 
#    z 0.001710 0.000000 1.766790 
# 
# From -- ./inp_files/70275.got.cif
#   From: 2010.06.25/outbox.cif.g09.slc.cpg/sg10_36_cif.got.tgz:70275.got - 2010.06.27 22:07:45.
