data_PCOD8064749
_publ_section_title
;
Structure prediction by ZEFSAII (Michael W. Deem and Ramdas Pophale) SiO2 
 PCOD8064749
Probable space group: P 2/M
;
_chemical_formula_sum "Si O2"
_cell_formula_units_Z 32
_cell_length_a 12.567613
_cell_length_b 8.971788
_cell_length_c 29.803243
_cell_angle_alpha 90.000000
_cell_angle_beta 151.523228
_cell_angle_gamma 90.000000
_cell_volume 1602.262980
_symmetry_space_group_name_H-M "P 2/M"
_symmetry_group_IT_number 10
_symmetry_cell_setting 'monoclinic'
loop_
_space_group_symop_operation_xyz
x,y,z
-x,y,-z
-x,-y,-z
x,-y,z
loop_
_atom_site_type_symbol
_atom_site_label
_atom_site_fract_x
_atom_site_fract_y
_atom_site_fract_z
Si Si1 0.262591 0.677148 0.396265
Si Si2 0.893096 0.671785 0.328583
Si Si3 0.849706 0.323542 0.744663
Si Si4 0.713270 0.830759 0.109633
Si Si5 0.474746 0.671256 0.876079
Si Si6 0.978774 0.325345 0.043818
Si Si7 0.838201 0.824072 0.400800
Si Si8 0.658900 0.823410 0.758859
O O1 0.500000 0.740965 0.500000
O O2 0.260246 0.500000 0.395033
O O3 0.220774 0.734926 0.330503
O O4 0.071112 0.735837 0.358667
O O5 0.943582 0.500000 0.357800
O O6 0.643768 0.692212 0.216187
O O7 0.923129 0.760737 0.385354
O O8 0.834334 0.500000 0.744364
O O9 0.689614 0.248023 0.721475
O O10 0.102582 0.270786 0.846458
O O11 0.656646 0.773249 0.137975
O O12 0.799405 0.000000 0.145154
O O13 0.500000 0.817405 0.000000
O O14 0.451804 0.500000 0.883255
O O15 0.731436 0.719921 0.968011
O O16 0.024134 0.500000 0.067750
O O17 0.156691 0.233947 0.138136
O O18 0.000000 0.280094 0.000000
O O19 0.584824 0.772033 0.315230
O O20 0.000000 0.762776 0.500000
O O21 0.854398 0.000000 0.404208
O O22 0.679407 0.000000 0.762658
#
# Coordination Sequence:
#
# PCOD8064749 Si02
#       8
#     4   4   4   4   4   4   4   4
#     4   9  19  36  60  91 122 151 188 246 307 352
#     4  10  20  38  64  92 120 150 197 251 295 351
#     4  11  22  39  63  88 121 159 197 244 300 356
#     4  11  23  37  55  83 119 158 199 240 286 347
#     4  10  20  36  58  86 118 153 192 240 296 350
#     4  10  21  38  62  89 118 155 201 249 297 354
#     4  10  24  44  62  84 120 162 199 242 298 355
#     4  11  24  41  60  86 123 160 200 247 296 354
#
# _framework density 19.971751999999999
#
# number of rings (size 3 to 8) (size 9 to 14) (size 15 to 20)
#    0.000    1.750    1.250    2.625    1.750    6.500 
#    0.000    0.000    0.000    1.875    0.000    0.000 
#    0.000    0.000    0.000    0.000    0.000    0.000 
#
# Total GULP energy -396917.097460 kJ/mol
# GULP energy per Si atom -12403.659296 kJ/mol
# Density = 1.992630 g / cm^3
# Si number density = 19.971752 Si / 1000 Ang^3
#
#
#
# Elastic Constant Matrix: (Units=GPa)
#
#
# Indices 1 2 3 4 5 6 
#
# 1 140.6855 38.7741 55.6443 0.0000 -8.6138 0.0000
# 2 38.7741 46.9946 38.4492 0.0000 -1.7082 0.0000
# 3 55.6443 38.4492 131.6029 0.0000 0.9700 0.0000
# 4 0.0000 0.0000 0.0000 22.2750 0.0000 1.5190
# 5 -8.6138 -1.7082 0.9700 0.0000 33.0935 0.0000
# 6 0.0000 0.0000 0.0000 1.5190 0.0000 17.8004
#
#
#
# Elastic Compliance Matrix: (Units=1/GPa)
#
#
# Indices 1 2 3 4 5 6 
#
# 1 0.009886 -0.006095 -0.002417 0.000000 0.002330 0.000000
# 2 -0.006095 0.031815 -0.006720 0.000000 0.000253 0.000000
# 3 -0.002417 -0.006720 0.010593 0.000000 -0.001286 0.000000
# 4 0.000000 0.000000 0.000000 0.045156 0.000000 -0.003853
# 5 0.002330 0.000253 -0.001286 0.000000 0.030874 0.000000
# 6 0.000000 0.000000 0.000000 -0.003853 0.000000 0.056507
#
#
# Mechanical properties :
#
#
# Convention : Reuss Voigt Hill
#
# Bulk Modulus (GPa) = 45.80537 65.00202 55.40369
# Shear Modulus (GPa) = 22.46456 27.06149 24.76302
#
# Velocity S-wave (km/s) = 3.35747 3.68501 3.52504
# Velocity P-wave (km/s) = 6.16563 7.12203 6.66102
#
# Compressibility (1/GPa) = 0.02183150
#
# Stress axis : x y z
#
# Youngs Moduli (GPa) = 101.14930 31.43159 94.40083
#
# Poissons Ratio (x) = 0.19158 0.22812
# Poissons Ratio (y) = 0.61653 0.63436
# Poissons Ratio (z) = 0.24443 0.21121
#
# Static dielectric constant tensor:
#      x y z
#    x 3.783340 0.000000 -0.036040 
#    y 0.000000 3.462980 0.000000 
#    z -0.036040 0.000000 3.972110 
# 
# 
# High freq. dielectric constant tensor:
#      x y z
#    x 1.790190 0.000000 -0.000080 
#    y 0.000000 1.761040 0.000000 
#    z -0.000080 0.000000 1.791220 
# 
# From -- ./inp_files/95012.got.cif
#   From: 2010.06.25/outbox.cif.g09.slc.cpg/sg10_48_cif.got.tgz:95012.got - 2010.06.27 22:07:45.
