data_PCOD8064756
_publ_section_title
;
Structure prediction by ZEFSAII (Michael W. Deem and Ramdas Pophale) SiO2 
 PCOD8064756
Probable space group: P 2/M
;
_chemical_formula_sum "Si O2"
_cell_formula_units_Z 28
_cell_length_a 12.310438
_cell_length_b 9.241933
_cell_length_c 13.533342
_cell_angle_alpha 90.000000
_cell_angle_beta 64.164942
_cell_angle_gamma 90.000000
_cell_volume 1385.827329
_symmetry_space_group_name_H-M "P 2/M"
_symmetry_group_IT_number 10
_symmetry_cell_setting 'monoclinic'
loop_
_space_group_symop_operation_xyz
x,y,z
-x,y,-z
-x,-y,-z
x,-y,z
loop_
_atom_site_type_symbol
_atom_site_label
_atom_site_fract_x
_atom_site_fract_y
_atom_site_fract_z
Si Si1 0.661347 0.671357 0.203777
Si Si2 0.127442 0.169616 0.184917
Si Si3 0.100115 0.341174 0.390315
Si Si4 0.252361 0.344158 0.512907
Si Si5 0.618355 0.169151 0.016578
Si Si6 0.525859 0.844633 0.600529
Si Si7 0.893387 0.332299 0.235137
O O1 0.649961 0.500000 0.198092
O O2 0.626096 0.742934 0.114602
O O3 0.565297 0.726370 0.321317
O O4 0.793903 0.715821 0.192617
O O5 0.134434 0.230741 0.291972
O O6 0.017470 0.243888 0.167868
O O7 0.102287 0.000000 0.196753
O O8 0.257867 0.206167 0.088404
O O9 0.057375 0.500000 0.364102
O O10 0.209317 0.370849 0.419394
O O11 0.000000 0.268475 0.500000
O O12 0.308047 0.500000 0.527371
O O13 0.340859 0.214710 0.458266
O O14 0.152195 0.298876 0.634770
O O15 0.608486 0.000000 0.045224
O O16 0.500000 0.217565 0.000000
O O17 0.500000 0.880594 0.500000
O O18 0.521272 0.000000 0.660757
O O19 0.923540 0.500000 0.208455
#
# Coordination Sequence:
#
# PCOD8064756 Si02
#       7
#     4   4   4   4   4   4   4
#     4  11  24  42  67  95 122 162 214 262 310 368
#     4  11  24  40  63  93 124 164 210 258 312 372
#     4  10  20  37  60  88 124 166 204 247 308 366
#     4  10  20  36  58  86 125 169 208 250 303 368
#     4  10  25  49  68  87 123 165 205 257 317 374
#     4  11  23  37  58  91 130 168 203 248 310 372
#     4  10  21  40  64  91 128 164 202 257 310 366
#
# _framework density 20.204539
#
# number of rings (size 3 to 8) (size 9 to 14) (size 15 to 20)
#    0.000    1.571    2.857    1.286    2.000    5.143 
#    0.000    2.857    0.000    0.000    0.000    0.000 
#    0.000    0.000    0.000    0.000    0.000    0.000 
#
# Total GULP energy -346922.187790 kJ/mol
# GULP energy per Si atom -12390.078135 kJ/mol
# Density = 2.015855 g / cm^3
# Si number density = 20.204539 Si / 1000 Ang^3
#
#
#
# Elastic Constant Matrix: (Units=GPa)
#
#
# Indices 1 2 3 4 5 6 
#
# 1 117.3823 64.3628 53.4011 0.0000 -7.8958 0.0000
# 2 64.3628 90.8954 53.2873 0.0000 -7.5135 0.0000
# 3 53.4011 53.2873 98.3155 0.0000 -6.2383 0.0000
# 4 0.0000 0.0000 0.0000 44.9222 0.0000 -5.7834
# 5 -7.8958 -7.5135 -6.2383 0.0000 37.9098 0.0000
# 6 0.0000 0.0000 0.0000 -5.7834 0.0000 37.1265
#
#
#
# Elastic Compliance Matrix: (Units=1/GPa)
#
#
# Indices 1 2 3 4 5 6 
#
# 1 0.014701 -0.008340 -0.003411 0.000000 0.000848 0.000000
# 2 -0.008340 0.020976 -0.006756 0.000000 0.001309 0.000000
# 3 -0.003411 -0.006756 0.015720 0.000000 0.000537 0.000000
# 4 0.000000 0.000000 0.000000 0.022716 0.000000 0.003539
# 5 0.000848 0.001309 0.000537 0.000000 0.026903 0.000000
# 6 0.000000 0.000000 0.000000 0.003539 0.000000 0.027486
#
#
# Mechanical properties :
#
#
# Convention : Reuss Voigt Hill
#
# Bulk Modulus (GPa) = 69.52669 72.07728 70.80198
# Shear Modulus (GPa) = 29.35819 33.02786 31.19302
#
# Velocity S-wave (km/s) = 3.81602 4.04750 3.93346
# Velocity P-wave (km/s) = 7.34181 7.58909 7.46647
#
# Compressibility (1/GPa) = 0.01438297
#
# Stress axis : x y z
#
# Youngs Moduli (GPa) = 68.02337 47.67324 63.61352
#
# Poissons Ratio (x) = 0.39759 0.21698
# Poissons Ratio (y) = 0.56731 0.42978
# Poissons Ratio (z) = 0.23202 0.32209
#
# Static dielectric constant tensor:
#      x y z
#    x 3.844860 0.000000 0.045120 
#    y 0.000000 4.149170 0.000000 
#    z 0.045120 0.000000 3.634900 
# 
# 
# High freq. dielectric constant tensor:
#      x y z
#    x 1.799200 0.000000 0.000300 
#    y 0.000000 1.791960 0.000000 
#    z 0.000300 0.000000 1.778710 
# 
# From -- ./inp_files/63619.got.cif
#   From: 2010.06.25/outbox.cif.g09.slc.cpg/sg10_32_cif.got.tgz:63619.got - 2010.06.27 22:07:45.
