data_PCOD8064154
_publ_section_title
;
Structure prediction by ZEFSAII (Michael W. Deem and Ramdas Pophale) SiO2 
 PCOD8064154
Probable space group: P 2/M
;
_chemical_formula_sum "Si O2"
_cell_formula_units_Z 28
_cell_length_a 11.638333
_cell_length_b 9.553340
_cell_length_c 15.575196
_cell_angle_alpha 90.000000
_cell_angle_beta 120.248958
_cell_angle_gamma 90.000000
_cell_volume 1495.943498
_symmetry_space_group_name_H-M "P 2/M"
_symmetry_group_IT_number 10
_symmetry_cell_setting 'monoclinic'
loop_
_space_group_symop_operation_xyz
x,y,z
-x,y,-z
-x,-y,-z
x,-y,z
loop_
_atom_site_type_symbol
_atom_site_label
_atom_site_fract_x
_atom_site_fract_y
_atom_site_fract_z
Si Si1 0.807313 0.335185 0.985997
Si Si2 0.643321 0.162408 0.294523
Si Si3 0.149557 0.338472 0.361252
Si Si4 0.088605 0.664812 0.153848
Si Si5 0.559258 0.157779 0.928168
Si Si6 0.908667 0.660457 0.387606
Si Si7 0.384187 0.837609 0.521179
O O1 0.789609 0.500000 0.993472
O O2 0.813451 0.297249 0.887169
O O3 0.685141 0.256962 0.981443
O O4 0.940728 0.276401 0.081150
O O5 0.541233 0.213806 0.182915
O O6 0.778427 0.246586 0.331387
O O7 0.578511 0.187898 0.364651
O O8 0.678496 0.000000 0.294956
O O9 0.195747 0.500000 0.383714
O O10 0.151463 0.276864 0.265278
O O11 0.250105 0.248387 0.455339
O O12 0.997855 0.323440 0.336087
O O13 0.071698 0.500000 0.155370
O O14 0.602363 0.000000 0.920649
O O15 0.500000 0.163754 0.000000
O O16 0.864150 0.500000 0.385825
O O17 0.000000 0.713128 0.500000
O O18 0.500000 0.784470 0.500000
O O19 0.354610 0.000000 0.491989
#
# Coordination Sequence:
#
# PCOD8064154 Si02
#       7
#     4   4   4   4   4   4   4
#     4   9  18  36  59  81 106 140 182 222 266 322
#     4  10  22  39  57  76 106 148 182 218 271 321
#     4  10  20  35  56  82 111 142 175 219 273 319
#     4   8  17  34  56  82 111 139 172 222 275 318
#     4  10  23  40  55  77 111 145 180 225 272 316
#     4  10  20  35  55  81 110 136 173 224 267 311
#     4  10  22  38  55  79 110 144 183 222 262 318
#
# _framework density 18.717283999999999
#
# number of rings (size 3 to 8) (size 9 to 14) (size 15 to 20)
#    0.000    2.429    1.429    0.857    4.000    2.000 
#    0.000    2.143    0.000    0.000    0.000    0.000 
#    0.000    0.000    0.000    0.000    0.000    0.000 
#
# Total GULP energy -347155.615690 kJ/mol
# GULP energy per Si atom -12398.414846 kJ/mol
# Density = 1.867468 g / cm^3
# Si number density = 18.717284 Si / 1000 Ang^3
#
#
#
# Elastic Constant Matrix: (Units=GPa)
#
#
# Indices 1 2 3 4 5 6 
#
# 1 81.5010 34.6987 20.6477 0.0000 2.4259 0.0000
# 2 34.6987 48.2551 22.2086 0.0000 6.5515 0.0000
# 3 20.6477 22.2086 98.6707 0.0000 -10.5317 0.0000
# 4 0.0000 0.0000 0.0000 26.0161 0.0000 11.7579
# 5 2.4259 6.5515 -10.5317 0.0000 27.6924 0.0000
# 6 0.0000 0.0000 0.0000 11.7579 0.0000 47.5914
#
#
#
# Elastic Compliance Matrix: (Units=1/GPa)
#
#
# Indices 1 2 3 4 5 6 
#
# 1 0.017793 -0.012594 -0.000768 0.000000 0.001129 0.000000
# 2 -0.012594 0.033752 -0.005937 0.000000 -0.009140 0.000000
# 3 -0.000768 -0.005937 0.012288 0.000000 0.006145 0.000000
# 4 0.000000 0.000000 0.000000 0.043269 0.000000 -0.010690
# 5 0.001129 -0.009140 0.006145 0.000000 0.040511 0.000000
# 6 0.000000 0.000000 0.000000 -0.010690 0.000000 0.023653
#
#
# Mechanical properties :
#
#
# Convention : Reuss Voigt Hill
#
# Bulk Modulus (GPa) = 39.62838 42.61519 41.12179
# Shear Modulus (GPa) = 22.90681 30.31811 26.61246
#
# Velocity S-wave (km/s) = 3.50213 4.02903 3.77478
# Velocity P-wave (km/s) = 6.12954 6.66794 6.40440
#
# Compressibility (1/GPa) = 0.02523444
#
# Stress axis : x y z
#
# Youngs Moduli (GPa) = 56.20345 29.62766 81.38230
#
# Poissons Ratio (x) = 0.37312 0.06252
# Poissons Ratio (y) = 0.70781 0.48318
# Poissons Ratio (z) = 0.04318 0.17590
#
# Static dielectric constant tensor:
#      x y z
#    x 3.371900 0.000000 -0.244710 
#    y 0.000000 3.224670 0.000000 
#    z -0.244710 0.000000 3.808380 
# 
# 
# High freq. dielectric constant tensor:
#      x y z
#    x 1.726640 0.000000 -0.012370 
#    y 0.000000 1.704740 0.000000 
#    z -0.012370 0.000000 1.736920 
# 
# From -- ./inp_files/63497.got.cif
#   From: 2010.06.25/outbox.cif.g09.slc.cpg/sg10_32_cif.got.tgz:63497.got - 2010.06.27 22:07:45.
