data_PCOD8064645
_publ_section_title
;
Structure prediction by ZEFSAII (Michael W. Deem and Ramdas Pophale) SiO2 
 PCOD8064645
Probable space group: P 2/M
;
_chemical_formula_sum "Si O2"
_cell_formula_units_Z 32
_cell_length_a 16.145093
_cell_length_b 9.071679
_cell_length_c 24.644732
_cell_angle_alpha 90.000000
_cell_angle_beta 26.354046
_cell_angle_gamma 90.000000
_cell_volume 1602.336560
_symmetry_space_group_name_H-M "P 2/M"
_symmetry_group_IT_number 10
_symmetry_cell_setting 'monoclinic'
loop_
_space_group_symop_operation_xyz
x,y,z
-x,y,-z
-x,-y,-z
x,-y,z
loop_
_atom_site_type_symbol
_atom_site_label
_atom_site_fract_x
_atom_site_fract_y
_atom_site_fract_z
Si Si1 0.726618 0.172377 0.016091
Si Si2 0.603093 0.327941 0.312034
Si Si3 0.152540 0.827271 0.747438
Si Si4 0.775346 0.672704 0.402864
Si Si5 0.022225 0.826624 0.339995
Si Si6 0.553821 0.825578 0.909722
Si Si7 0.141194 0.669403 0.464406
Si Si8 0.436113 0.330411 0.789049
O O1 0.582128 0.240223 0.056835
O O2 0.695240 0.240803 0.093599
O O3 0.694314 0.000000 0.041396
O O4 0.933647 0.209200 0.874511
O O5 0.650520 0.500000 0.290497
O O6 0.763254 0.231759 0.245869
O O7 0.403942 0.292039 0.455440
O O8 0.598022 0.278602 0.252459
O O9 0.254879 0.742864 0.638444
O O10 0.191681 0.000000 0.719065
O O11 0.810121 0.500000 0.376122
O O12 0.956211 0.746957 0.323942
O O13 0.234548 0.780827 0.228104
O O14 0.894182 0.775696 0.464574
O O15 0.001994 0.000000 0.342705
O O16 0.527232 0.000000 0.926961
O O17 0.500000 0.758927 0.000000
O O18 0.116943 0.500000 0.497980
O O19 0.348903 0.697386 0.320880
O O20 0.000000 0.711883 0.500000
O O21 0.382367 0.500000 0.826897
#
# Coordination Sequence:
#
# PCOD8064645 Si02
#       8
#     4   4   4   4   4   4   4   4
#     4  10  22  40  60  85 120 158 197 246 299 352
#     4  10  22  41  62  85 117 157 197 240 298 359
#     4  11  24  40  61  90 119 150 197 251 303 351
#     4  11  22  40  63  87 121 158 196 240 298 363
#     4  11  21  33  57  89 117 150 195 243 293 348
#     4   9  18  35  57  81 116 159 196 235 291 351
#     4  10  20  36  57  82 116 156 195 240 292 346
#     4  10  21  39  60  84 117 157 200 242 289 352
#
# _framework density 19.970837
#
# number of rings (size 3 to 8) (size 9 to 14) (size 15 to 20)
#    0.000    1.750    1.250    3.000    0.000    7.250 
#    0.000    3.125    0.000    2.625    0.000    0.000 
#    0.000    0.000    0.000    0.000    0.000    0.000 
#
# Total GULP energy -396959.930140 kJ/mol
# GULP energy per Si atom -12404.997817 kJ/mol
# Density = 1.992538 g / cm^3
# Si number density = 19.970837 Si / 1000 Ang^3
#
#
#
# Elastic Constant Matrix: (Units=GPa)
#
#
# Indices 1 2 3 4 5 6 
#
# 1 131.2323 45.2429 38.6295 0.0000 1.4890 0.0000
# 2 45.2429 63.0831 40.5704 0.0000 -0.2128 0.0000
# 3 38.6295 40.5704 67.0285 0.0000 13.2099 0.0000
# 4 0.0000 0.0000 0.0000 29.3946 0.0000 0.8777
# 5 1.4890 -0.2128 13.2099 0.0000 39.8812 0.0000
# 6 0.0000 0.0000 0.0000 0.8777 0.0000 35.4384
#
#
#
# Elastic Compliance Matrix: (Units=1/GPa)
#
#
# Indices 1 2 3 4 5 6 
#
# 1 0.010362 -0.005789 -0.002552 0.000000 0.000428 0.000000
# 2 -0.005789 0.030467 -0.016240 0.000000 0.005758 0.000000
# 3 -0.002552 -0.016240 0.028049 0.000000 -0.009282 0.000000
# 4 0.000000 0.000000 0.000000 0.034045 0.000000 -0.000843
# 5 0.000428 0.005758 -0.009282 0.000000 0.028164 0.000000
# 6 0.000000 0.000000 0.000000 -0.000843 0.000000 0.028239
#
#
# Mechanical properties :
#
#
# Convention : Reuss Voigt Hill
#
# Bulk Modulus (GPa) = 50.71844 56.69216 53.70530
# Shear Modulus (GPa) = 23.24937 30.06958 26.65948
#
# Velocity S-wave (km/s) = 3.41569 3.88451 3.65762
# Velocity P-wave (km/s) = 6.40369 6.96910 6.69237
#
# Compressibility (1/GPa) = 0.01971669
#
# Stress axis : x y z
#
# Youngs Moduli (GPa) = 96.50400 32.82204 35.65236
#
# Poissons Ratio (x) = 0.19000 0.09100
# Poissons Ratio (y) = 0.55864 0.57898
# Poissons Ratio (z) = 0.24632 0.53302
#
# Static dielectric constant tensor:
#      x y z
#    x 3.862820 0.000000 -0.079520 
#    y 0.000000 3.426640 0.000000 
#    z -0.079520 0.000000 3.548260 
# 
# 
# High freq. dielectric constant tensor:
#      x y z
#    x 1.794740 0.000000 -0.002000 
#    y 0.000000 1.762480 0.000000 
#    z -0.002000 0.000000 1.780020 
# 
# From -- ./inp_files/89514.got.cif
#   From: 2010.06.25/outbox.cif.g09.slc.cpg/sg10_45_cif.got.tgz:89514.got - 2010.06.27 22:07:45.
