data_PCOD8064549
_publ_section_title
;
Structure prediction by ZEFSAII (Michael W. Deem and Ramdas Pophale) SiO2 
 PCOD8064549
Probable space group: P 2/M
;
_chemical_formula_sum "Si O2"
_cell_formula_units_Z 32
_cell_length_a 12.400707
_cell_length_b 13.801556
_cell_length_c 12.422885
_cell_angle_alpha 90.000000
_cell_angle_beta 70.754959
_cell_angle_gamma 90.000000
_cell_volume 2007.349687
_symmetry_space_group_name_H-M "P 2/M"
_symmetry_group_IT_number 10
_symmetry_cell_setting 'monoclinic'
loop_
_space_group_symop_operation_xyz
x,y,z
-x,y,-z
-x,-y,-z
x,-y,z
loop_
_atom_site_type_symbol
_atom_site_label
_atom_site_fract_x
_atom_site_fract_y
_atom_site_fract_z
Si Si1 0.867293 0.108787 0.918696
Si Si2 0.234556 0.298633 0.117271
Si Si3 0.371298 0.389105 0.253761
Si Si4 0.366612 0.612901 0.877865
Si Si5 0.375114 0.613158 0.501880
Si Si6 0.869957 0.108845 0.170715
Si Si7 0.228421 0.299604 0.727998
Si Si8 0.997804 0.614099 0.879163
O O1 0.783313 0.183096 0.886191
O O2 0.998285 0.133178 0.846363
O O3 0.836480 0.000000 0.891166
O O4 0.848403 0.119515 0.051524
O O5 0.285067 0.320029 0.218071
O O6 0.114582 0.352082 0.144678
O O7 0.322637 0.336936 0.999830
O O8 0.334988 0.500000 0.246131
O O9 0.498607 0.372485 0.169584
O O10 0.362041 0.361790 0.381420
O O11 0.332060 0.500000 0.889382
O O12 0.312505 0.662360 0.791954
O O13 0.500000 0.644879 0.500000
O O14 0.355558 0.500000 0.532892
O O15 0.280427 0.675373 0.595166
O O16 0.787470 0.183542 0.259407
O O17 0.840006 0.000000 0.218863
O O18 0.106220 0.349925 0.777825
O O19 0.999792 0.500000 0.883926
O O20 0.000000 0.657767 0.000000
#
# Coordination Sequence:
#
# PCOD8064549 Si02
#       8
#     4   4   4   4   4   4   4   4
#     4   9  17  31  51  76 105 137 171 206 257 321
#     4  12  20  32  51  77 111 140 166 209 268 314
#     4  10  22  37  51  73 105 145 184 212 246 302
#     4  11  20  31  51  78 107 139 174 211 251 311
#     4  10  20  36  55  74 100 140 186 219 244 295
#     4   9  17  31  51  78 106 131 169 216 262 311
#     4  12  19  31  54  80 102 133 175 220 256 304
#     4  11  20  28  44  76 112 136 157 203 266 319
#
# _framework density 15.941418000000001
#
# number of rings (size 3 to 8) (size 9 to 14) (size 15 to 20)
#    0.000    1.500    5.000    3.375    0.000    1.000 
#    0.000    0.625    0.000    5.625    0.000    1.750 
#    0.000    0.000    0.000    0.000    0.000    0.000 
#
# Total GULP energy -396873.061225 kJ/mol
# GULP energy per Si atom -12402.283163 kJ/mol
# Density = 1.590513 g / cm^3
# Si number density = 15.941418 Si / 1000 Ang^3
#
#
#
# Elastic Constant Matrix: (Units=GPa)
#
#
# Indices 1 2 3 4 5 6 
#
# 1 94.2922 54.8937 54.0291 0.0000 7.2128 0.0000
# 2 54.8937 113.4239 49.2472 0.0000 1.7246 0.0000
# 3 54.0291 49.2472 88.4877 0.0000 3.4942 0.0000
# 4 0.0000 0.0000 0.0000 20.6620 0.0000 3.6858
# 5 7.2128 1.7246 3.4942 0.0000 21.4782 0.0000
# 6 0.0000 0.0000 0.0000 3.6858 0.0000 15.0158
#
#
#
# Elastic Compliance Matrix: (Units=1/GPa)
#
#
# Indices 1 2 3 4 5 6 
#
# 1 0.018904 -0.005467 -0.008320 0.000000 -0.004556 0.000000
# 2 -0.005467 0.013207 -0.004069 0.000000 0.001438 0.000000
# 3 -0.008320 -0.004069 0.018642 0.000000 0.000088 0.000000
# 4 0.000000 0.000000 0.000000 0.050614 0.000000 -0.012424
# 5 -0.004556 0.001438 0.000088 0.000000 0.047959 0.000000
# 6 0.000000 0.000000 0.000000 -0.012424 0.000000 0.069646
#
#
# Mechanical properties :
#
#
# Convention : Reuss Voigt Hill
#
# Bulk Modulus (GPa) = 66.48398 68.06043 67.27221
# Shear Modulus (GPa) = 19.25314 20.63347 19.94331
#
# Velocity S-wave (km/s) = 3.47903 3.60158 3.54084
# Velocity P-wave (km/s) = 7.61143 7.75126 7.68166
#
# Compressibility (1/GPa) = 0.01504122
#
# Stress axis : x y z
#
# Youngs Moduli (GPa) = 52.89929 75.71546 53.64255
#
# Poissons Ratio (x) = 0.41396 0.44629
# Poissons Ratio (y) = 0.28922 0.21827
# Poissons Ratio (z) = 0.44010 0.30808
#
# Static dielectric constant tensor:
#      x y z
#    x 3.146410 0.000000 -0.174970 
#    y 0.000000 3.150910 0.000000 
#    z -0.174970 0.000000 2.957940 
# 
# 
# High freq. dielectric constant tensor:
#      x y z
#    x 1.608850 0.000000 -0.007790 
#    y 0.000000 1.609220 0.000000 
#    z -0.007790 0.000000 1.591640 
# 
# From -- ./inp_files/47378.got.cif
#   From: 2010.06.25/outbox.cif.g09.slc.cpg/sg10_24_cif.got.tgz:47378.got - 2010.06.27 22:07:45.
