data_PCOD8064505
_publ_section_title
;
Structure prediction by ZEFSAII (Michael W. Deem and Ramdas Pophale) SiO2 
 PCOD8064505
Probable space group: P 2/M
;
_chemical_formula_sum "Si O2"
_cell_formula_units_Z 28
_cell_length_a 9.968156
_cell_length_b 13.518381
_cell_length_c 14.039640
_cell_angle_alpha 90.000000
_cell_angle_beta 46.618454
_cell_angle_gamma 90.000000
_cell_volume 1375.016686
_symmetry_space_group_name_H-M "P 2/M"
_symmetry_group_IT_number 10
_symmetry_cell_setting 'monoclinic'
loop_
_space_group_symop_operation_xyz
x,y,z
-x,y,-z
-x,-y,-z
x,-y,z
loop_
_atom_site_type_symbol
_atom_site_label
_atom_site_fract_x
_atom_site_fract_y
_atom_site_fract_z
Si Si1 0.073238 0.613011 0.726478
Si Si2 0.176072 0.306977 0.477827
Si Si3 0.671133 0.777168 0.345525
Si Si4 0.864487 0.108908 0.403648
Si Si5 0.318370 0.707614 0.042061
Si Si6 0.704521 0.110806 0.817237
Si Si7 0.511143 0.760718 0.225313
O O1 0.083300 0.500000 0.754286
O O2 0.148523 0.623797 0.582242
O O3 0.208892 0.677013 0.726304
O O4 0.863250 0.650491 0.836099
O O5 0.210909 0.191885 0.488525
O O6 0.366279 0.326918 0.327669
O O7 0.000000 0.325164 0.500000
O O8 0.500000 0.757626 0.500000
O O9 0.801935 0.862503 0.326381
O O10 0.608927 0.808507 0.270252
O O11 0.081354 0.108959 0.311870
O O12 0.783914 0.000000 0.467423
O O13 0.318862 0.821471 0.078015
O O14 0.500000 0.655201 0.000000
O O15 0.337168 0.710009 0.918134
O O16 0.597231 0.154521 0.779103
O O17 0.633690 0.000000 0.873798
#
# Coordination Sequence:
#
# PCOD8064505 Si02
#       7
#     4   4   4   4   4   4   4
#     4  11  24  44  67  87 122 171 210 257 326 384
#     4  11  19  39  61  92 123 158 208 261 317 362
#     4  11  22  42  61  90 131 167 208 260 313 373
#     4  10  20  35  60  88 126 169 207 252 306 369
#     4  10  21  42  66  93 127 164 207 267 317 367
#     4  10  20  39  65  94 129 172 215 253 307 374
#     4  11  22  36  63  93 125 164 208 261 307 367
#
# _framework density 20.363389999999999
#
# number of rings (size 3 to 8) (size 9 to 14) (size 15 to 20)
#    0.000    1.429    7.143    0.857    0.000    5.714 
#    0.000    2.143    0.000    2.571    0.000    0.000 
#    0.000    0.000    0.000    0.000    0.000    0.000 
#
# Total GULP energy -346999.674178 kJ/mol
# GULP energy per Si atom -12392.845506 kJ/mol
# Density = 2.031704 g / cm^3
# Si number density = 20.363390 Si / 1000 Ang^3
#
#
#
# Elastic Constant Matrix: (Units=GPa)
#
#
# Indices 1 2 3 4 5 6 
#
# 1 109.5395 21.4577 21.4648 0.0000 8.0211 0.0000
# 2 21.4577 92.6932 28.0980 0.0000 -14.6453 0.0000
# 3 21.4648 28.0980 100.3360 0.0000 7.7246 0.0000
# 4 0.0000 0.0000 0.0000 5.9857 0.0000 -0.9255
# 5 8.0211 -14.6453 7.7246 0.0000 32.2500 0.0000
# 6 0.0000 0.0000 0.0000 -0.9255 0.0000 11.4462
#
#
#
# Elastic Compliance Matrix: (Units=1/GPa)
#
#
# Indices 1 2 3 4 5 6 
#
# 1 0.010101 -0.002506 -0.001200 0.000000 -0.003363 0.000000
# 2 -0.002506 0.013797 -0.003930 0.000000 0.007830 0.000000
# 3 -0.001200 -0.003930 0.011653 0.000000 -0.004278 0.000000
# 4 0.000000 0.000000 0.000000 0.169180 0.000000 0.013679
# 5 -0.003363 0.007830 -0.004278 0.000000 0.036425 0.000000
# 6 0.000000 0.000000 0.000000 0.013679 0.000000 0.088471
#
#
# Mechanical properties :
#
#
# Convention : Reuss Voigt Hill
#
# Bulk Modulus (GPa) = 49.31355 49.40106 49.35731
# Shear Modulus (GPa) = 14.21827 25.37291 19.79559
#
# Velocity S-wave (km/s) = 2.64527 3.53371 3.12126
# Velocity P-wave (km/s) = 5.79649 6.40015 6.10578
#
# Compressibility (1/GPa) = 0.02027840
#
# Stress axis : x y z
#
# Youngs Moduli (GPa) = 98.99552 72.47989 85.81265
#
# Poissons Ratio (x) = 0.18162 0.10301
# Poissons Ratio (y) = 0.24807 0.33728
# Poissons Ratio (z) = 0.11883 0.28488
#
# Static dielectric constant tensor:
#      x y z
#    x 4.030530 0.000000 -0.165890 
#    y 0.000000 3.583450 0.000000 
#    z -0.165890 0.000000 3.849100 
# 
# 
# High freq. dielectric constant tensor:
#      x y z
#    x 1.804000 0.000000 -0.010840 
#    y 0.000000 1.758730 0.000000 
#    z -0.010840 0.000000 1.802470 
# 
# From -- ./inp_files/64907.got.cif
#   From: 2010.06.25/outbox.cif.g09.slc.cpg/sg10_33_cif.got.tgz:64907.got - 2010.06.27 22:07:45.
