data_PCOD8064702
_publ_section_title
;
Structure prediction by ZEFSAII (Michael W. Deem and Ramdas Pophale) SiO2 
 PCOD8064702
Probable space group: P 2/M
;
_chemical_formula_sum "Si O2"
_cell_formula_units_Z 28
_cell_length_a 9.217900
_cell_length_b 8.819184
_cell_length_c 29.165086
_cell_angle_alpha 90.000000
_cell_angle_beta 37.798227
_cell_angle_gamma 90.000000
_cell_volume 1453.118228
_symmetry_space_group_name_H-M "P 2/M"
_symmetry_group_IT_number 10
_symmetry_cell_setting 'monoclinic'
loop_
_space_group_symop_operation_xyz
x,y,z
-x,y,-z
-x,-y,-z
x,-y,z
loop_
_atom_site_type_symbol
_atom_site_label
_atom_site_fract_x
_atom_site_fract_y
_atom_site_fract_z
Si Si1 0.356935 0.679827 0.725775
Si Si2 0.690109 0.674337 0.990520
Si Si3 0.508630 0.323781 0.137561
Si Si4 0.449298 0.674984 0.564582
Si Si5 0.016448 0.675606 0.731468
Si Si6 0.731694 0.822973 0.571713
Si Si7 0.809669 0.177986 0.140263
O O1 0.352972 0.500000 0.729023
O O2 0.153586 0.742442 0.741760
O O3 0.611539 0.732325 0.643428
O O4 0.324243 0.745408 0.784146
O O5 0.768415 0.500000 0.964138
O O6 0.916104 0.779529 0.927905
O O7 0.500000 0.722536 0.000000
O O8 0.576425 0.701196 0.068166
O O9 0.522694 0.500000 0.148155
O O10 0.691763 0.232117 0.122638
O O11 0.244238 0.253629 0.210380
O O12 0.500000 0.719347 0.500000
O O13 0.515761 0.500000 0.558326
O O14 0.173354 0.702478 0.646550
O O15 0.609041 0.785501 0.554363
O O16 0.975141 0.500000 0.751934
O O17 0.000000 0.768544 0.500000
O O18 0.711443 0.000000 0.587346
O O19 0.782619 0.000000 0.151505
#
# Coordination Sequence:
#
# PCOD8064702 Si02
#       7
#     4   4   4   4   4   4   4
#     4  10  20  38  62  83 106 142 191 236 275 327
#     4  10  21  39  63  86 108 142 190 235 274 324
#     4  10  20  36  58  82 110 145 185 229 277 327
#     4   9  18  33  54  81 111 145 190 236 275 325
#     4   8  16  33  57  82 105 135 182 237 281 320
#     4  10  21  36  54  81 117 150 182 226 282 338
#     4  12  25  38  54  82 119 150 180 223 278 334
#
# _framework density 19.268906999999999
#
# number of rings (size 3 to 8) (size 9 to 14) (size 15 to 20)
#    0.000    2.143    0.000    4.286    0.000    7.429 
#    0.000    6.429    0.000    0.000    0.000    0.000 
#    0.000    0.000    0.000    0.000    0.000    0.000 
#
# Total GULP energy -347239.142992 kJ/mol
# GULP energy per Si atom -12401.397964 kJ/mol
# Density = 1.922505 g / cm^3
# Si number density = 19.268907 Si / 1000 Ang^3
#
#
#
# Elastic Constant Matrix: (Units=GPa)
#
#
# Indices 1 2 3 4 5 6 
#
# 1 104.1262 32.7192 64.5951 0.0000 -5.8036 0.0000
# 2 32.7192 68.2464 44.9866 0.0000 -6.2889 0.0000
# 3 64.5951 44.9866 131.7545 0.0000 -4.2241 0.0000
# 4 0.0000 0.0000 0.0000 26.4684 0.0000 -2.1818
# 5 -5.8036 -6.2889 -4.2241 0.0000 36.1122 0.0000
# 6 0.0000 0.0000 0.0000 -2.1818 0.0000 16.0995
#
#
#
# Elastic Compliance Matrix: (Units=1/GPa)
#
#
# Indices 1 2 3 4 5 6 
#
# 1 0.014267 -0.002775 -0.006011 0.000000 0.001106 0.000000
# 2 -0.002775 0.019685 -0.005285 0.000000 0.002364 0.000000
# 3 -0.006011 -0.005285 0.012327 0.000000 -0.000444 0.000000
# 4 0.000000 0.000000 0.000000 0.038208 0.000000 0.005178
# 5 0.001106 0.002364 -0.000444 0.000000 0.028229 0.000000
# 6 0.000000 0.000000 0.000000 0.005178 0.000000 0.062816
#
#
# Mechanical properties :
#
#
# Convention : Reuss Voigt Hill
#
# Bulk Modulus (GPa) = 55.13977 65.41431 60.27704
# Shear Modulus (GPa) = 23.84139 26.52443 25.18291
#
# Velocity S-wave (km/s) = 3.52134 3.71420 3.61906
# Velocity P-wave (km/s) = 6.72393 7.23986 6.98666
#
# Compressibility (1/GPa) = 0.01813573
#
# Stress axis : x y z
#
# Youngs Moduli (GPa) = 70.09339 50.80064 81.12075
#
# Poissons Ratio (x) = 0.14099 0.48765
# Poissons Ratio (y) = 0.19453 0.42871
# Poissons Ratio (z) = 0.42136 0.26847
#
# Static dielectric constant tensor:
#      x y z
#    x 3.574260 0.000000 -0.071560 
#    y 0.000000 3.321570 0.000000 
#    z -0.071560 0.000000 3.728530 
# 
# 
# High freq. dielectric constant tensor:
#      x y z
#    x 1.748240 0.000000 -0.000390 
#    y 0.000000 1.729280 0.000000 
#    z -0.000390 0.000000 1.767100 
# 
# From -- ./inp_files/37275.got.cif
#   From: 2010.06.25/outbox.cif.g09.slc.cpg/sg10_19_cif.got.tgz:37275.got - 2010.06.27 22:07:45.
