data_PCOD8064956
_publ_section_title
;
Structure prediction by ZEFSAII (Michael W. Deem and Ramdas Pophale) SiO2 
 PCOD8064956
Probable space group: P 2/M
;
_chemical_formula_sum "Si O2"
_cell_formula_units_Z 28
_cell_length_a 9.654029
_cell_length_b 15.870850
_cell_length_c 21.868215
_cell_angle_alpha 90.000000
_cell_angle_beta 26.354454
_cell_angle_gamma 90.000000
_cell_volume 1487.406861
_symmetry_space_group_name_H-M "P 2/M"
_symmetry_group_IT_number 10
_symmetry_cell_setting 'monoclinic'
loop_
_space_group_symop_operation_xyz
x,y,z
-x,y,-z
-x,-y,-z
x,-y,z
loop_
_atom_site_type_symbol
_atom_site_label
_atom_site_fract_x
_atom_site_fract_y
_atom_site_fract_z
Si Si1 0.812879 0.773069 0.016520
Si Si2 0.537588 0.096481 0.413852
Si Si3 0.007603 0.500000 0.163051
Si Si4 0.663323 0.500000 0.838230
Si Si5 0.702675 0.348836 0.221993
Si Si6 0.177693 0.097001 0.094921
Si Si7 0.203499 0.762347 0.477171
Si Si8 0.692991 0.656808 0.738052
O O1 0.817586 0.848104 0.967348
O O2 0.971689 0.687827 0.929887
O O3 0.468818 0.741231 0.170860
O O4 0.000000 0.810020 0.000000
O O5 0.500000 0.113092 0.500000
O O6 0.275411 0.153550 0.486130
O O7 0.888019 0.120176 0.253588
O O8 0.461887 0.000000 0.427046
O O9 0.107861 0.500000 0.193973
O O10 0.783928 0.421766 0.237319
O O11 0.305140 0.500000 0.000722
O O12 0.734878 0.583303 0.770825
O O13 0.530007 0.275217 0.326359
O O14 0.497210 0.380064 0.245202
O O15 0.161336 0.000000 0.081278
O O16 0.500000 0.118294 0.000000
O O17 0.000000 0.790977 0.500000
O O18 0.032715 0.689266 0.583486
#
# Coordination Sequence:
#
# PCOD8064956 Si02
#       8
#     4   4   2   2   4   4   4   4
#     4  10  20  36  61  87 113 152 198 241 289 341
#     4  10  22  40  60  84 118 159 197 236 290 350
#     4  11  23  36  59  84 116 152 189 234 287 342
#     4  11  23  38  55  88 116 146 193 238 284 343
#     4  10  20  39  59  83 112 152 192 235 290 344
#     4  10  22  39  59  86 121 156 193 241 291 344
#     4  10  22  40  61  87 116 151 195 242 291 342
#     4  10  22  37  60  85 116 148 190 239 287 345
#
# _framework density 18.824708000000001
#
# number of rings (size 3 to 8) (size 9 to 14) (size 15 to 20)
#    0.000    1.857    2.857    0.429    2.000    4.000 
#    0.000    2.857    0.000    0.000    0.000    0.000 
#    0.000    0.000    0.000    0.000    0.000    0.000 
#
# Total GULP energy -347211.116962 kJ/mol
# GULP energy per Si atom -12400.397034 kJ/mol
# Density = 1.878186 g / cm^3
# Si number density = 18.824708 Si / 1000 Ang^3
#
#
#
# Elastic Constant Matrix: (Units=GPa)
#
#
# Indices 1 2 3 4 5 6 
#
# 1 134.5508 87.2071 44.1839 0.0000 7.7225 0.0000
# 2 87.2071 95.2280 27.4045 0.0000 2.3283 0.0000
# 3 44.1839 27.4045 66.1842 0.0000 4.7710 0.0000
# 4 0.0000 0.0000 0.0000 5.8437 0.0000 21.5963
# 5 7.7225 2.3283 4.7710 0.0000 28.1458 0.0000
# 6 0.0000 0.0000 0.0000 21.5963 0.0000 28.1896
#
#
#
# Elastic Compliance Matrix: (Units=1/GPa)
#
#
# Indices 1 2 3 4 5 6 
#
# 1 0.020925 -0.017177 -0.006626 0.000000 -0.003197 0.000000
# 2 -0.017177 0.026023 0.000514 0.000000 0.002473 0.000000
# 3 -0.006626 0.000514 0.019430 0.000000 -0.001518 0.000000
# 4 0.000000 0.000000 0.000000 -0.093446 0.000000 0.071590
# 5 -0.003197 0.002473 -0.001518 0.000000 0.036459 0.000000
# 6 0.000000 0.000000 0.000000 0.071590 0.000000 -0.019371
#
#
# Mechanical properties :
#
#
# Convention : Reuss Voigt Hill
#
# Bulk Modulus (GPa) = 50.50949 68.17268 59.34108
# Shear Modulus (GPa) = 115.74579 21.58032 68.66305
#
# Velocity S-wave (km/s) = 7.84981 3.38950 6.04600
# Velocity P-wave (km/s) = 10.44266 7.18411 8.96272
#
# Compressibility (1/GPa) = 0.01979826
#
# Stress axis : x y z
#
# Youngs Moduli (GPa) = 47.79036 38.42719 51.46783
#
# Poissons Ratio (x) = 0.66007 0.34104
# Poissons Ratio (y) = 0.82091 -0.02644
# Poissons Ratio (z) = 0.31667 -0.01974
#
# Static dielectric constant tensor:
#      x y z
#    x 3.200170 0.000000 0.148840 
#    y 0.000000 3.268730 0.000000 
#    z 0.148840 0.000000 3.553030 
# 
# 
# High freq. dielectric constant tensor:
#      x y z
#    x 1.729160 0.000000 0.005340 
#    y 0.000000 1.727170 0.000000 
#    z 0.005340 0.000000 1.742190 
# 
# From -- ./inp_files/35332.got.cif
#   From: 2010.06.25/outbox.cif.g09.slc.cpg/sg10_18_cif.got.tgz:35332.got - 2010.06.27 22:07:45.
