data_PCOD8064967
_publ_section_title
;
Structure prediction by ZEFSAII (Michael W. Deem and Ramdas Pophale) SiO2 
 PCOD8064967
Probable space group: P 2/M
;
_chemical_formula_sum "Si O2"
_cell_formula_units_Z 32
_cell_length_a 9.784913
_cell_length_b 13.240097
_cell_length_c 12.672493
_cell_angle_alpha 90.000000
_cell_angle_beta 87.239593
_cell_angle_gamma 90.000000
_cell_volume 1639.856976
_symmetry_space_group_name_H-M "P 2/M"
_symmetry_group_IT_number 10
_symmetry_cell_setting 'monoclinic'
loop_
_space_group_symop_operation_xyz
x,y,z
-x,y,-z
-x,-y,-z
x,-y,z
loop_
_atom_site_type_symbol
_atom_site_label
_atom_site_fract_x
_atom_site_fract_y
_atom_site_fract_z
Si Si1 0.219837 0.386772 0.922091
Si Si2 0.656988 0.113504 0.019846
Si Si3 0.037685 0.278802 0.776543
Si Si4 0.511770 0.382106 0.217595
Si Si5 0.124660 0.617511 0.568466
Si Si6 0.748137 0.287283 0.871368
Si Si7 0.251077 0.882253 0.746999
Si Si8 0.388057 0.731059 0.589902
O O1 0.182401 0.500000 0.891585
O O2 0.099740 0.314090 0.885911
O O3 0.365500 0.355184 0.866753
O O4 0.229621 0.379255 0.048076
O O5 0.683068 0.137883 0.141214
O O6 0.704484 0.000000 0.992095
O O7 0.500000 0.130382 0.000000
O O8 0.742080 0.185715 0.940573
O O9 0.083976 0.362793 0.690816
O O10 0.100937 0.169232 0.745619
O O11 0.874377 0.273639 0.786918
O O12 0.471556 0.500000 0.212779
O O13 0.384741 0.310858 0.192636
O O14 0.556102 0.355995 0.334541
O O15 0.157900 0.500000 0.550341
O O16 0.257322 0.683982 0.533936
O O17 0.000000 0.653639 0.500000
O O18 0.350211 0.831535 0.656831
O O19 0.235468 0.000000 0.721474
O O20 0.500000 0.762640 0.500000
#
# Coordination Sequence:
#
# PCOD8064967 Si02
#       8
#     4   4   4   4   4   4   4   4
#     4  11  21  37  57  80 120 167 200 235 289 353
#     4  10  20  36  61  88 119 159 201 245 298 356
#     4  11  23  38  57  87 120 156 200 248 298 349
#     4  11  23  39  59  87 124 166 203 242 295 358
#     4  10  22  41  62  84 117 161 201 243 299 360
#     4  12  23  35  56  89 126 156 202 249 288 349
#     4  10  21  41  65  86 117 160 200 243 307 368
#     4  11  23  40  64  92 118 149 197 259 307 355
#
# _framework density 19.513897
#
# number of rings (size 3 to 8) (size 9 to 14) (size 15 to 20)
#    0.000    1.250    3.750    3.375    1.750    5.250 
#    0.000    1.250    0.000    6.000    0.000    0.000 
#    0.000    0.000    0.000    0.000    0.000    0.000 
#
# Total GULP energy -396906.313091 kJ/mol
# GULP energy per Si atom -12403.322284 kJ/mol
# Density = 1.946948 g / cm^3
# Si number density = 19.513897 Si / 1000 Ang^3
#
#
#
# Elastic Constant Matrix: (Units=GPa)
#
#
# Indices 1 2 3 4 5 6 
#
# 1 118.1628 49.1686 40.0509 0.0000 -6.2956 0.0000
# 2 49.1686 110.0476 23.2076 0.0000 -3.9376 0.0000
# 3 40.0509 23.2076 59.0932 0.0000 -3.4749 0.0000
# 4 0.0000 0.0000 0.0000 21.2155 0.0000 8.9581
# 5 -6.2956 -3.9376 -3.4749 0.0000 39.3349 0.0000
# 6 0.0000 0.0000 0.0000 8.9581 0.0000 17.3622
#
#
#
# Elastic Compliance Matrix: (Units=1/GPa)
#
#
# Indices 1 2 3 4 5 6 
#
# 1 0.012548 -0.004132 -0.006823 0.000000 0.000992 0.000000
# 2 -0.004132 0.011285 -0.001612 0.000000 0.000326 0.000000
# 3 -0.006823 -0.001612 0.022222 0.000000 0.000710 0.000000
# 4 0.000000 0.000000 0.000000 0.060264 0.000000 -0.031094
# 5 0.000992 0.000326 0.000710 0.000000 0.025677 0.000000
# 6 0.000000 0.000000 0.000000 -0.031094 0.000000 0.073639
#
#
# Mechanical properties :
#
#
# Convention : Reuss Voigt Hill
#
# Bulk Modulus (GPa) = 47.80230 56.90644 52.35437
# Shear Modulus (GPa) = 21.03111 27.24095 24.13603
#
# Velocity S-wave (km/s) = 3.28647 3.74033 3.52072
# Velocity P-wave (km/s) = 6.24107 6.91945 6.58899
#
# Compressibility (1/GPa) = 0.02091949
#
# Stress axis : x y z
#
# Youngs Moduli (GPa) = 79.69528 88.61534 45.00059
#
# Poissons Ratio (x) = 0.36614 0.30706
# Poissons Ratio (y) = 0.32929 0.07255
# Poissons Ratio (z) = 0.54379 0.14287
#
# Static dielectric constant tensor:
#      x y z
#    x 3.613710 0.000000 0.104910 
#    y 0.000000 3.543210 0.000000 
#    z 0.104910 0.000000 3.447550 
# 
# 
# High freq. dielectric constant tensor:
#      x y z
#    x 1.761110 0.000000 0.007410 
#    y 0.000000 1.759380 0.000000 
#    z 0.007410 0.000000 1.748860 
# 
# From -- ./inp_files/42994.got.cif
#   From: 2010.06.25/outbox.cif.g09.slc.cpg/sg10_22_cif.got.tgz:42994.got - 2010.06.27 22:07:45.
