data_PCOD8064664
_publ_section_title
;
Structure prediction by ZEFSAII (Michael W. Deem and Ramdas Pophale) SiO2 
 PCOD8064664
Probable space group: P 2/M
;
_chemical_formula_sum "Si O2"
_cell_formula_units_Z 28
_cell_length_a 12.492688
_cell_length_b 14.692334
_cell_length_c 9.076021
_cell_angle_alpha 90.000000
_cell_angle_beta 54.146095
_cell_angle_gamma 90.000000
_cell_volume 1350.212822
_symmetry_space_group_name_H-M "P 2/M"
_symmetry_group_IT_number 10
_symmetry_cell_setting 'monoclinic'
loop_
_space_group_symop_operation_xyz
x,y,z
-x,y,-z
-x,-y,-z
x,-y,z
loop_
_atom_site_type_symbol
_atom_site_label
_atom_site_fract_x
_atom_site_fract_y
_atom_site_fract_z
Si Si1 0.731347 0.895561 0.038897
Si Si2 0.132353 0.604838 0.717747
Si Si3 0.829788 0.394683 0.973900
Si Si4 0.351914 0.901756 0.574944
Si Si5 0.354846 0.263036 0.064428
Si Si6 0.238485 0.233883 0.468690
Si Si7 0.994437 0.898509 0.330023
O O1 0.625011 0.828808 0.047378
O O2 0.871521 0.867248 0.856643
O O3 0.693527 0.000000 0.032585
O O4 0.735829 0.877919 0.210038
O O5 0.163683 0.500000 0.660280
O O6 0.224583 0.663326 0.536192
O O7 0.979476 0.625602 0.801306
O O8 0.172985 0.629627 0.851235
O O9 0.795278 0.500000 0.976148
O O10 0.720110 0.338258 0.973281
O O11 0.500000 0.915836 0.500000
O O12 0.356479 0.820258 0.452783
O O13 0.303169 0.000000 0.548619
O O14 0.260923 0.238484 0.277384
O O15 0.500000 0.297660 0.000000
O O16 0.114808 0.174444 0.626208
O O17 0.000000 0.898543 0.500000
O O18 0.958163 0.000000 0.302854
#
# Coordination Sequence:
#
# PCOD8064664 Si02
#       7
#     4   4   4   4   4   4   4
#     4  10  21  38  59  82 117 161 202 245 293 345
#     4   9  20  39  66  91 112 147 191 247 304 355
#     4   9  20  42  65  87 117 150 192 242 299 358
#     4  10  22  40  59  83 119 164 211 248 281 339
#     4  12  25  38  57  86 121 161 198 235 292 359
#     4  12  23  35  60  88 120 153 193 246 305 354
#     4  10  20  36  57  85 121 151 189 242 300 354
#
# _framework density 20.737470999999999
#
# number of rings (size 3 to 8) (size 9 to 14) (size 15 to 20)
#    0.000    1.714    1.429    3.857    0.000    3.429 
#    0.000    3.571    0.000    2.143    0.000    0.000 
#    0.000    0.000    0.000    0.000    0.000    0.000 
#
# Total GULP energy -347071.000635 kJ/mol
# GULP energy per Si atom -12395.392880 kJ/mol
# Density = 2.069027 g / cm^3
# Si number density = 20.737471 Si / 1000 Ang^3
#
#
#
# Elastic Constant Matrix: (Units=GPa)
#
#
# Indices 1 2 3 4 5 6 
#
# 1 111.6074 52.4551 15.4978 0.0000 4.0587 0.0000
# 2 52.4551 117.1997 27.0966 0.0000 11.6632 0.0000
# 3 15.4978 27.0966 71.8828 0.0000 2.2619 0.0000
# 4 0.0000 0.0000 0.0000 22.0333 0.0000 -0.6115
# 5 4.0587 11.6632 2.2619 0.0000 24.0734 0.0000
# 6 0.0000 0.0000 0.0000 -0.6115 0.0000 28.8348
#
#
#
# Elastic Compliance Matrix: (Units=1/GPa)
#
#
# Indices 1 2 3 4 5 6 
#
# 1 0.011377 -0.005014 -0.000581 0.000000 0.000566 0.000000
# 2 -0.005014 0.012002 -0.003297 0.000000 -0.004660 0.000000
# 3 -0.000581 -0.003297 0.015271 0.000000 0.000260 0.000000
# 4 0.000000 0.000000 0.000000 0.045413 0.000000 0.000963
# 5 0.000566 -0.004660 0.000260 0.000000 0.043677 0.000000
# 6 0.000000 0.000000 0.000000 0.000963 0.000000 0.034701
#
#
# Mechanical properties :
#
#
# Convention : Reuss Voigt Hill
#
# Bulk Modulus (GPa) = 47.92063 54.53209 51.22636
# Shear Modulus (GPa) = 26.71234 28.69766 27.70500
#
# Velocity S-wave (km/s) = 3.59293 3.72406 3.65908
# Velocity P-wave (km/s) = 6.35379 6.69664 6.52746
#
# Compressibility (1/GPa) = 0.02086784
#
# Stress axis : x y z
#
# Youngs Moduli (GPa) = 87.90031 83.31625 65.48255
#
# Poissons Ratio (x) = 0.41774 0.03802
# Poissons Ratio (y) = 0.44072 0.21588
# Poissons Ratio (z) = 0.05103 0.27468
#
# Static dielectric constant tensor:
#      x y z
#    x 3.647310 0.000000 0.135050 
#    y 0.000000 3.877990 0.000000 
#    z 0.135050 0.000000 3.974680 
# 
# 
# High freq. dielectric constant tensor:
#      x y z
#    x 1.800900 0.000000 0.005250 
#    y 0.000000 1.818320 0.000000 
#    z 0.005250 0.000000 1.808500 
# 
# From -- ./inp_files/25198.got.cif
#   From: 2010.06.25/outbox.cif.g09.slc.cpg/sg10_13_cif.got.tgz:25198.got - 2010.06.27 22:07:45.
