data_PCOD8064223
_publ_section_title
;
Structure prediction by ZEFSAII (Michael W. Deem and Ramdas Pophale) SiO2 
 PCOD8064223
Probable space group: P 2/M
;
_chemical_formula_sum "Si O2"
_cell_formula_units_Z 28
_cell_length_a 28.910953
_cell_length_b 8.889267
_cell_length_c 9.989948
_cell_angle_alpha 90.000000
_cell_angle_beta 35.279211
_cell_angle_gamma 90.000000
_cell_volume 1482.824637
_symmetry_space_group_name_H-M "P 2/M"
_symmetry_group_IT_number 10
_symmetry_cell_setting 'monoclinic'
loop_
_space_group_symop_operation_xyz
x,y,z
-x,y,-z
-x,-y,-z
x,-y,z
loop_
_atom_site_type_symbol
_atom_site_label
_atom_site_fract_x
_atom_site_fract_y
_atom_site_fract_z
Si Si1 0.656296 0.679879 0.430268
Si Si2 0.485188 0.665311 0.877610
Si Si3 0.910273 0.324335 0.491839
Si Si4 0.144419 0.675265 0.675208
Si Si5 0.197522 0.177139 0.039745
Si Si6 0.075638 0.176853 0.096248
Si Si7 0.681393 0.321527 0.670489
O O1 0.659864 0.500000 0.408110
O O2 0.564534 0.741570 0.624637
O O3 0.686416 0.733664 0.505324
O O4 0.713415 0.756269 0.186350
O O5 0.479312 0.500000 0.826825
O O6 0.500000 0.650736 0.000000
O O7 0.398087 0.747915 0.066143
O O8 0.909868 0.500000 0.524544
O O9 0.897436 0.291306 0.365837
O O10 0.838853 0.246838 0.740574
O O11 0.994525 0.255163 0.337825
O O12 0.138930 0.500000 0.727794
O O13 0.237392 0.727286 0.446736
O O14 0.097980 0.769571 0.895616
O O15 0.144509 0.224508 0.037056
O O16 0.202442 0.000000 0.044950
O O17 0.061124 0.000000 0.129710
O O18 0.669675 0.500000 0.698401
#
# Coordination Sequence:
#
# PCOD8064223 Si02
#       7
#     4   4   4   4   4   4   4
#     4   9  15  27  51  78 103 133 169 208 254 301
#     4   7  11  20  41  76 106 128 160 203 251 299
#     4  11  24  38  54  77 103 134 175 216 257 306
#     4  10  20  35  56  81 106 134 170 212 256 305
#     4  11  23  37  53  75 105 138 174 213 256 307
#     4  11  23  38  56  77 102 134 173 214 259 310
#     4   8  13  25  48  77 107 132 160 206 257 298
#
# _framework density 18.88288
#
# number of rings (size 3 to 8) (size 9 to 14) (size 15 to 20)
#    0.000    2.429    1.429    3.857    0.000    6.286 
#    0.000    0.000    0.000    5.571    0.000    6.000 
#    0.000    0.000    0.000    0.000    0.000    0.000 
#
# Total GULP energy -347016.884564 kJ/mol
# GULP energy per Si atom -12393.460163 kJ/mol
# Density = 1.883990 g / cm^3
# Si number density = 18.882880 Si / 1000 Ang^3
#
#
#
# Elastic Constant Matrix: (Units=GPa)
#
#
# Indices 1 2 3 4 5 6 
#
# 1 21.1721 13.2518 13.3924 0.0000 -8.3019 0.0000
# 2 13.2518 44.0581 28.3881 0.0000 0.0211 0.0000
# 3 13.3924 28.3881 126.5255 0.0000 -22.6085 0.0000
# 4 0.0000 0.0000 0.0000 -5.9233 0.0000 7.9653
# 5 -8.3019 0.0211 -22.6085 0.0000 32.3453 0.0000
# 6 0.0000 0.0000 0.0000 7.9653 0.0000 15.2651
#
#
#
# Elastic Compliance Matrix: (Units=1/GPa)
#
#
# Indices 1 2 3 4 5 6 
#
# 1 0.066480 -0.020448 0.000688 0.000000 0.017558 0.000000
# 2 -0.020448 0.033484 -0.007188 0.000000 -0.010294 0.000000
# 3 0.000688 -0.007188 0.010828 0.000000 0.007750 0.000000
# 4 0.000000 0.000000 0.000000 -0.099210 0.000000 0.051768
# 5 0.017558 -0.010294 0.007750 0.000000 0.040847 0.000000
# 6 0.000000 0.000000 0.000000 0.051768 0.000000 0.038497
#
#
# Mechanical properties :
#
#
# Convention : Reuss Voigt Hill
#
# Bulk Modulus (GPa) = 17.57546 33.53558 25.55552
# Shear Modulus (GPa) = 30.52784 17.45229 23.99006
#
# Velocity S-wave (km/s) = 4.02518 3.04343 3.56823
# Velocity P-wave (km/s) = 5.56152 5.49074 5.52625
#
# Compressibility (1/GPa) = 0.05689750
#
# Stress axis : x y z
#
# Youngs Moduli (GPa) = 15.04221 29.86523 92.35152
#
# Poissons Ratio (x) = 0.61068 -0.06357
# Poissons Ratio (y) = 0.30758 0.66380
# Poissons Ratio (z) = -0.01036 0.21466
#
# Static dielectric constant tensor:
#      x y z
#    x 3.383030 0.000000 -0.414330 
#    y 0.000000 3.111920 0.000000 
#    z -0.414330 0.000000 3.761670 
# 
# 
# High freq. dielectric constant tensor:
#      x y z
#    x 1.707960 0.000000 -0.027690 
#    y 0.000000 1.698610 0.000000 
#    z -0.027690 0.000000 1.749860 
# 
# From -- ./inp_files/36968.got.cif
#   From: 2010.06.25/outbox.cif.g09.slc.cpg/sg10_19_cif.got.tgz:36968.got - 2010.06.27 22:07:45.
