data_PCOD8064494
_publ_section_title
;
Structure prediction by ZEFSAII (Michael W. Deem and Ramdas Pophale) SiO2 
 PCOD8064494
Probable space group: P 2/M
;
_chemical_formula_sum "Si O2"
_cell_formula_units_Z 20
_cell_length_a 14.664097
_cell_length_b 8.970106
_cell_length_c 16.610683
_cell_angle_alpha 90.000000
_cell_angle_beta 151.989246
_cell_angle_gamma 90.000000
_cell_volume 1026.131339
_symmetry_space_group_name_H-M "P 2/M"
_symmetry_group_IT_number 10
_symmetry_cell_setting 'monoclinic'
loop_
_space_group_symop_operation_xyz
x,y,z
-x,y,-z
-x,-y,-z
x,-y,z
loop_
_atom_site_type_symbol
_atom_site_label
_atom_site_fract_x
_atom_site_fract_y
_atom_site_fract_z
Si Si1 0.900863 0.825306 0.191462
Si Si2 0.482142 0.825310 0.191576
Si Si3 0.894609 0.674911 0.500070
Si Si4 0.404417 0.823301 0.306052
Si Si5 0.792362 0.823297 0.693959
O O1 0.975915 0.739998 0.327540
O O2 0.012792 0.767271 0.198259
O O3 0.940742 0.000000 0.235809
O O4 0.672249 0.793331 0.999923
O O5 0.679259 0.739955 0.327721
O O6 0.383663 0.767330 0.198242
O O7 0.531011 0.000000 0.235957
O O8 0.878537 0.500000 0.500108
O O9 0.000000 0.718511 0.500000
O O10 0.611956 0.766999 0.500002
O O11 0.234891 0.763134 0.234912
O O12 0.396178 0.000000 0.300895
O O13 0.794543 0.000000 0.699176
#
# Coordination Sequence:
#
# PCOD8064494 Si02
#       5
#     4   4   4   4   4
#     4  10  20  35  59  89 116 143 180 228 278 325
#     4  10  20  35  59  89 116 143 180 228 278 325
#     4  11  25  43  60  77 104 146 189 231 282 337
#     4   8  13  24  47  80 116 149 178 213 261 317
#     4   8  13  24  47  80 116 149 178 213 261 317
#
# _framework density 19.490682
#
# number of rings (size 3 to 8) (size 9 to 14) (size 15 to 20)
#    0.000    2.600    2.000    1.800    0.000    4.000 
#    0.000    8.000    0.000    2.400    0.000    2.800 
#    0.000    0.000    0.000    0.000    0.000    0.000 
#
# Total GULP energy -247802.062121 kJ/mol
# GULP energy per Si atom -12390.103106 kJ/mol
# Density = 1.944632 g / cm^3
# Si number density = 19.490682 Si / 1000 Ang^3
#
#
#
# Elastic Constant Matrix: (Units=GPa)
#
#
# Indices 1 2 3 4 5 6 
#
# 1 161.6712 57.7373 84.8719 0.0000 2.1730 0.0000
# 2 57.7373 42.5763 41.1360 0.0000 0.4974 0.0000
# 3 84.8719 41.1360 123.6922 0.0000 -1.1524 0.0000
# 4 0.0000 0.0000 0.0000 11.8547 0.0000 -1.0596
# 5 2.1730 0.4974 -1.1524 0.0000 5.0421 0.0000
# 6 0.0000 0.0000 0.0000 -1.0596 0.0000 -19.3214
#
#
#
# Elastic Compliance Matrix: (Units=1/GPa)
#
#
# Indices 1 2 3 4 5 6 
#
# 1 0.013804 -0.013924 -0.004894 0.000000 -0.005694 0.000000
# 2 -0.013924 0.048839 -0.006691 0.000000 -0.000346 0.000000
# 3 -0.004894 -0.006691 0.013723 0.000000 0.005906 0.000000
# 4 0.000000 0.000000 0.000000 0.083943 0.000000 -0.004604
# 5 -0.005694 -0.000346 0.005906 0.000000 0.202169 0.000000
# 6 0.000000 0.000000 0.000000 -0.004604 0.000000 -0.051504
#
#
# Mechanical properties :
#
#
# Convention : Reuss Voigt Hill
#
# Bulk Modulus (GPa) = 39.45282 77.27001 58.36142
# Shear Modulus (GPa) = 13.49741 9.12804 11.31273
#
# Velocity S-wave (km/s) = 2.63441 2.16644 2.41180
# Velocity P-wave (km/s) = 5.43501 6.78149 6.14524
#
# Compressibility (1/GPa) = 0.02534673
#
# Stress axis : x y z
#
# Youngs Moduli (GPa) = 72.44391 20.47549 72.87172
#
# Poissons Ratio (x) = 0.28511 0.35662
# Poissons Ratio (y) = 1.00874 0.48760
# Poissons Ratio (z) = 0.35452 0.13700
#
# Static dielectric constant tensor:
#      x y z
#    x 4.134510 0.000000 0.020560 
#    y 0.000000 3.031450 0.000000 
#    z 0.020560 0.000000 3.533820 
# 
# 
# High freq. dielectric constant tensor:
#      x y z
#    x 1.773340 0.000000 0.000500 
#    y 0.000000 1.697550 0.000000 
#    z 0.000500 0.000000 1.758560 
# 
# From -- ./inp_files/24516.got.cif
#   From: 2010.06.25/outbox.cif.g09.slc.cpg/sg10_13_cif.got.tgz:24516.got - 2010.06.27 22:07:45.
