data_PCOD8064901
_publ_section_title
;
Structure prediction by ZEFSAII (Michael W. Deem and Ramdas Pophale) SiO2 
 PCOD8064901
Probable space group: P 2/M
;
_chemical_formula_sum "Si O2"
_cell_formula_units_Z 28
_cell_length_a 5.052109
_cell_length_b 33.029019
_cell_length_c 9.180972
_cell_angle_alpha 90.000000
_cell_angle_beta 117.095176
_cell_angle_gamma 90.000000
_cell_volume 1363.859383
_symmetry_space_group_name_H-M "P 2/M"
_symmetry_group_IT_number 10
_symmetry_cell_setting 'monoclinic'
loop_
_space_group_symop_operation_xyz
x,y,z
-x,y,-z
-x,-y,-z
x,-y,z
loop_
_atom_site_type_symbol
_atom_site_label
_atom_site_fract_x
_atom_site_fract_y
_atom_site_fract_z
Si Si1 0.857781 0.872894 0.306064
Si Si2 0.342903 0.500000 0.612735
Si Si3 0.102667 0.217800 0.690216
Si Si4 0.339789 0.000000 0.115835
Si Si5 0.667247 0.652175 0.892626
Si Si6 0.269850 0.741592 0.173660
Si Si7 0.638030 0.079774 0.694115
Si Si8 0.346526 0.587634 0.616134
O O1 0.872655 0.827950 0.242364
O O2 0.518494 0.886101 0.245248
O O3 0.000000 0.873582 0.500000
O O4 0.022738 0.904917 0.240040
O O5 0.500000 0.500000 0.500000
O O6 0.418877 0.543150 0.708208
O O7 0.000000 0.500000 0.500000
O O8 0.418454 0.239232 0.797583
O O9 0.000000 0.217250 0.500000
O O10 0.831424 0.241709 0.696239
O O11 0.412901 0.038513 0.232596
O O12 0.500000 0.000000 0.000000
O O13 0.000000 0.000000 0.000000
O O14 0.691899 0.693289 0.806296
O O15 0.468016 0.620227 0.757984
O O16 0.500000 0.662412 0.000000
O O17 0.000000 0.634540 0.000000
O O18 0.000000 0.753858 0.000000
O O19 0.500000 0.074371 0.500000
O O20 0.500000 0.592554 0.500000
O O21 0.000000 0.594502 0.500000
#
# Coordination Sequence:
#
# PCOD8064901 Si02
#       8
#     4   2   4   2   4   4   4   4
#     4   9  19  36  61  88 113 140 184 239 281 321
#     4   8  16  32  54  82 116 146 178 232 296 346
#     4  11  22  39  63  90 115 146 192 247 289 330
#     4  12  25  40  57  84 122 148 178 232 283 316
#     4  11  23  40  57  79 116 156 192 238 291 339
#     4  11  23  40  57  80 118 159 191 230 290 353
#     4  10  20  39  63  84 109 151 192 220 268 343
#     4  10  20  36  60  87 113 148 194 239 286 347
#
# _framework density 20.529976000000001
#
# number of rings (size 3 to 8) (size 9 to 14) (size 15 to 20)
#    0.000    1.714    0.000    5.357    0.000    4.000 
#    0.000   10.714    0.000    0.000    0.000    0.000 
#    0.000    0.000    0.000    0.000    0.000    0.000 
#
# Total GULP energy -347032.460018 kJ/mol
# GULP energy per Si atom -12394.016429 kJ/mol
# Density = 2.048325 g / cm^3
# Si number density = 20.529976 Si / 1000 Ang^3
#
#
#
# Elastic Constant Matrix: (Units=GPa)
#
#
# Indices 1 2 3 4 5 6 
#
# 1 144.4863 49.9585 27.0924 0.0000 -6.3834 0.0000
# 2 49.9585 166.8456 53.5447 0.0000 -10.2551 0.0000
# 3 27.0924 53.5447 51.5996 0.0000 -2.9066 0.0000
# 4 0.0000 0.0000 0.0000 282.2139 0.0000 -68.2988
# 5 -6.3834 -10.2551 -2.9066 0.0000 34.8430 0.0000
# 6 0.0000 0.0000 0.0000 -68.2988 0.0000 52.4371
#
#
#
# Elastic Compliance Matrix: (Units=1/GPa)
#
#
# Indices 1 2 3 4 5 6 
#
# 1 0.007960 -0.001511 -0.002567 0.000000 0.000800 0.000000
# 2 -0.001511 0.009396 -0.008859 0.000000 0.001750 0.000000
# 3 -0.002567 -0.008859 0.029888 0.000000 -0.000584 0.000000
# 4 0.000000 0.000000 0.000000 0.005174 0.000000 0.006740
# 5 0.000800 0.001750 -0.000584 0.000000 0.029313 0.000000
# 6 0.000000 0.000000 0.000000 0.006740 0.000000 0.027849
#
#
# Mechanical properties :
#
#
# Convention : Reuss Voigt Hill
#
# Bulk Modulus (GPa) = 46.79154 69.34695 58.06925
# Shear Modulus (GPa) = 35.06871 89.38785 62.22828
#
# Velocity S-wave (km/s) = 4.13749 6.60566 5.51151
# Velocity P-wave (km/s) = 6.75769 9.59329 8.29752
#
# Compressibility (1/GPa) = 0.02137139
#
# Stress axis : x y z
#
# Youngs Moduli (GPa) = 125.62811 106.42283 33.45852
#
# Poissons Ratio (x) = 0.16076 0.08588
# Poissons Ratio (y) = 0.18977 0.29641
# Poissons Ratio (z) = 0.32247 0.94280
#
# Static dielectric constant tensor:
#      x y z
#    x 4.131770 0.000000 -0.022520 
#    y 0.000000 3.824620 0.000000 
#    z -0.022520 0.000000 3.429000 
# 
# 
# High freq. dielectric constant tensor:
#      x y z
#    x 1.829590 0.000000 -0.002640 
#    y 0.000000 1.816750 0.000000 
#    z -0.002640 0.000000 1.772210 
# 
# From -- ./inp_files/15928.got.cif
#   From: 2010.06.25/outbox.cif.g09.slc.cpg/sg10_8_cif.got.tgz:15928.got - 2010.06.27 22:07:45.
