data_PCOD8064309
_publ_section_title
;
Structure prediction by ZEFSAII (Michael W. Deem and Ramdas Pophale) SiO2 
 PCOD8064309
Probable space group: P 2/M
;
_chemical_formula_sum "Si O2"
_cell_formula_units_Z 28
_cell_length_a 9.412865
_cell_length_b 8.738154
_cell_length_c 29.714374
_cell_angle_alpha 90.000000
_cell_angle_beta 37.161246
_cell_angle_gamma 90.000000
_cell_volume 1476.346651
_symmetry_space_group_name_H-M "P 2/M"
_symmetry_group_IT_number 10
_symmetry_cell_setting 'monoclinic'
loop_
_space_group_symop_operation_xyz
x,y,z
-x,y,-z
-x,-y,-z
x,-y,z
loop_
_atom_site_type_symbol
_atom_site_label
_atom_site_fract_x
_atom_site_fract_y
_atom_site_fract_z
Si Si1 0.098720 0.319751 0.426354
Si Si2 0.976698 0.678697 0.142784
Si Si3 0.092110 0.682103 0.702460
Si Si4 0.236497 0.318267 0.568796
Si Si5 0.846054 0.682637 0.997493
Si Si6 0.674889 0.678197 0.867247
Si Si7 0.601364 0.820284 0.299600
O O1 0.145720 0.500000 0.410276
O O2 0.337318 0.230838 0.356707
O O3 0.000000 0.275850 0.500000
O O4 0.912099 0.260999 0.436374
O O5 0.910442 0.500000 0.159947
O O6 0.755968 0.770480 0.217779
O O7 0.032397 0.740525 0.078953
O O8 0.209105 0.709389 0.113672
O O9 0.103591 0.500000 0.703164
O O10 0.114549 0.739759 0.645626
O O11 0.309054 0.743421 0.677015
O O12 0.845291 0.745077 0.785082
O O13 0.500000 0.250071 0.500000
O O14 0.248901 0.500000 0.565527
O O15 0.833275 0.500000 0.999591
O O16 0.583773 0.753837 0.068632
O O17 0.000000 0.743671 0.000000
O O18 0.644196 0.500000 0.865996
O O19 0.615204 0.000000 0.302015
#
# Coordination Sequence:
#
# PCOD8064309 Si02
#       7
#     4   4   4   4   4   4   4
#     4  10  20  35  57  82 107 135 168 208 255 307
#     4   9  17  31  51  71  96 131 168 207 255 308
#     4   9  17  32  54  76 100 132 172 216 259 303
#     4   9  17  30  52  81 106 130 165 208 251 298
#     4   9  16  25  43  74 103 124 157 211 264 305
#     4   8  14  25  43  68  95 124 158 199 249 299
#     4  11  22  35  52  75 105 138 174 213 253 302
#
# _framework density 18.965734000000001
#
# number of rings (size 3 to 8) (size 9 to 14) (size 15 to 20)
#    0.000    2.714    0.000    3.429    0.000    5.429 
#    0.000    5.000    0.000    9.000    0.000    0.000 
#    0.000    0.000    0.000    0.000    0.000    0.000 
#
# Total GULP energy -347157.901597 kJ/mol
# GULP energy per Si atom -12398.496486 kJ/mol
# Density = 1.892257 g / cm^3
# Si number density = 18.965734 Si / 1000 Ang^3
#
#
#
# Elastic Constant Matrix: (Units=GPa)
#
#
# Indices 1 2 3 4 5 6 
#
# 1 149.0710 18.6998 93.4275 0.0000 11.4280 0.0000
# 2 18.6998 28.1979 23.8853 0.0000 -1.0811 0.0000
# 3 93.4275 23.8853 137.6545 0.0000 6.1282 0.0000
# 4 0.0000 0.0000 0.0000 2.9511 0.0000 0.7033
# 5 11.4280 -1.0811 6.1282 0.0000 39.8437 0.0000
# 6 0.0000 0.0000 0.0000 0.7033 0.0000 4.9933
#
#
#
# Elastic Compliance Matrix: (Units=1/GPa)
#
#
# Indices 1 2 3 4 5 6 
#
# 1 0.011908 -0.001434 -0.007732 0.000000 -0.002265 0.000000
# 2 -0.001434 0.041949 -0.006418 0.000000 0.002537 0.000000
# 3 -0.007732 -0.006418 0.013629 0.000000 -0.000053 0.000000
# 4 0.000000 0.000000 0.000000 0.350630 0.000000 -0.049386
# 5 -0.002265 0.002537 -0.000053 0.000000 0.025825 0.000000
# 6 0.000000 0.000000 0.000000 -0.049386 0.000000 0.207225
#
#
# Mechanical properties :
#
#
# Convention : Reuss Voigt Hill
#
# Bulk Modulus (GPa) = 27.53634 65.21649 46.37642
# Shear Modulus (GPa) = 7.20005 21.48499 14.34252
#
# Velocity S-wave (km/s) = 1.95054 3.36941 2.75295
# Velocity P-wave (km/s) = 4.42982 7.04261 5.88310
#
# Compressibility (1/GPa) = 0.03631565
#
# Stress axis : x y z
#
# Youngs Moduli (GPa) = 83.97852 23.83866 73.37508
#
# Poissons Ratio (x) = 0.03418 0.56736
# Poissons Ratio (y) = 0.12042 0.47096
# Poissons Ratio (z) = 0.64935 0.15301
#
# Static dielectric constant tensor:
#      x y z
#    x 3.593150 0.000000 0.053020 
#    y 0.000000 2.883190 0.000000 
#    z 0.053020 0.000000 3.837210 
# 
# 
# High freq. dielectric constant tensor:
#      x y z
#    x 1.738790 0.000000 0.001240 
#    y 0.000000 1.676650 0.000000 
#    z 0.001240 0.000000 1.754270 
# 
# From -- ./inp_files/37935.got.cif
#   From: 2010.06.25/outbox.cif.g09.slc.cpg/sg10_19_cif.got.tgz:37935.got - 2010.06.27 22:07:45.
