data_PCOD8064349
_publ_section_title
;
Structure prediction by ZEFSAII (Michael W. Deem and Ramdas Pophale) SiO2 
 PCOD8064349
Probable space group: P 2/M
;
_chemical_formula_sum "Si O2"
_cell_formula_units_Z 24
_cell_length_a 12.422500
_cell_length_b 12.915379
_cell_length_c 20.576508
_cell_angle_alpha 90.000000
_cell_angle_beta 159.058265
_cell_angle_gamma 90.000000
_cell_volume 1179.953057
_symmetry_space_group_name_H-M "P 2/M"
_symmetry_group_IT_number 10
_symmetry_cell_setting 'monoclinic'
loop_
_space_group_symop_operation_xyz
x,y,z
-x,y,-z
-x,-y,-z
x,-y,z
loop_
_atom_site_type_symbol
_atom_site_label
_atom_site_fract_x
_atom_site_fract_y
_atom_site_fract_z
Si Si1 0.153227 0.881423 0.520221
Si Si2 0.672433 0.386007 0.038117
Si Si3 0.574380 0.703575 0.719435
Si Si4 0.761514 0.697117 0.597311
Si Si5 0.800630 0.378775 0.970995
Si Si6 0.158766 0.883723 0.787692
O O1 0.458778 0.818224 0.674249
O O2 0.000000 0.839903 0.500000
O O3 0.895260 0.869451 0.319941
O O4 0.258485 0.000000 0.587587
O O5 0.529648 0.500000 0.953570
O O6 0.022870 0.393445 0.255142
O O7 0.500000 0.324457 0.000000
O O8 0.645004 0.337913 0.950107
O O9 0.350009 0.663009 0.537001
O O10 0.562874 0.632322 0.777780
O O11 0.914510 0.696601 0.882751
O O12 0.500000 0.713475 0.500000
O O13 0.944470 0.804439 0.704295
O O14 0.899677 0.500000 0.033115
O O15 0.067447 0.000000 0.757418
O O16 0.500000 0.861036 0.000000
#
# Coordination Sequence:
#
# PCOD8064349 Si02
#       6
#     4   4   4   4   4   4
#     4   9  19  36  57  83 116 151 190 235 285 338
#     4  10  22  39  59  83 113 150 191 239 289 343
#     4  10  20  35  57  84 111 151 194 232 286 343
#     4  11  21  35  55  85 115 147 188 238 284 340
#     4  10  21  39  59  80 115 154 192 237 292 347
#     4   9  19  36  57  80 111 151 189 227 280 338
#
# _framework density 20.339793
#
# number of rings (size 3 to 8) (size 9 to 14) (size 15 to 20)
#    0.000    2.167    1.667    1.500    0.000    6.000 
#    0.000    1.667    0.000    5.000    0.000    0.000 
#    0.000    0.000    0.000    0.000    0.000    0.000 
#
# Total GULP energy -297314.057324 kJ/mol
# GULP energy per Si atom -12388.085722 kJ/mol
# Density = 2.029350 g / cm^3
# Si number density = 20.339793 Si / 1000 Ang^3
#
#
#
# Elastic Constant Matrix: (Units=GPa)
#
#
# Indices 1 2 3 4 5 6 
#
# 1 187.0157 35.9268 61.9794 0.0000 -3.3845 0.0000
# 2 35.9268 63.7054 31.0698 0.0000 6.0554 0.0000
# 3 61.9794 31.0698 100.5692 0.0000 -5.7209 0.0000
# 4 0.0000 0.0000 0.0000 28.8422 0.0000 3.2859
# 5 -3.3845 6.0554 -5.7209 0.0000 37.7860 0.0000
# 6 0.0000 0.0000 0.0000 3.2859 0.0000 12.6698
#
#
#
# Elastic Compliance Matrix: (Units=1/GPa)
#
#
# Indices 1 2 3 4 5 6 
#
# 1 0.006970 -0.002225 -0.003583 0.000000 0.000438 0.000000
# 2 -0.002225 0.019768 -0.004970 0.000000 -0.004120 0.000000
# 3 -0.003583 -0.004970 0.013833 0.000000 0.002570 0.000000
# 4 0.000000 0.000000 0.000000 0.035727 0.000000 -0.009266
# 5 0.000438 -0.004120 0.002570 0.000000 0.027553 0.000000
# 6 0.000000 0.000000 0.000000 -0.009266 0.000000 0.081331
#
#
# Mechanical properties :
#
#
# Convention : Reuss Voigt Hill
#
# Bulk Modulus (GPa) = 52.59167 67.69358 60.14262
# Shear Modulus (GPa) = 23.46570 30.68055 27.07313
#
# Velocity S-wave (km/s) = 3.40028 3.88803 3.65230
# Velocity P-wave (km/s) = 6.42873 7.31500 6.88614
#
# Compressibility (1/GPa) = 0.01901442
#
# Stress axis : x y z
#
# Youngs Moduli (GPa) = 143.47174 50.58791 72.28882
#
# Poissons Ratio (x) = 0.11255 0.25903
# Poissons Ratio (y) = 0.31920 0.35929
# Poissons Ratio (z) = 0.51410 0.25143
#
# Static dielectric constant tensor:
#      x y z
#    x 4.145920 0.000000 -0.308550 
#    y 0.000000 3.609420 0.000000 
#    z -0.308550 0.000000 3.769870 
# 
# 
# High freq. dielectric constant tensor:
#      x y z
#    x 1.811380 0.000000 -0.017810 
#    y 0.000000 1.780610 0.000000 
#    z -0.017810 0.000000 1.782620 
# 
# From -- ./inp_files/84162.got.cif
#   From: 2010.06.25/outbox.cif.g09.slc.cpg/sg10_43_cif.got.tgz:84162.got - 2010.06.27 22:07:45.
