data_PCOD8064601
_publ_section_title
;
Structure prediction by ZEFSAII (Michael W. Deem and Ramdas Pophale) SiO2 
 PCOD8064601
Probable space group: P 2/M
;
_chemical_formula_sum "Si O2"
_cell_formula_units_Z 32
_cell_length_a 25.954574
_cell_length_b 8.860289
_cell_length_c 15.133015
_cell_angle_alpha 90.000000
_cell_angle_beta 150.912119
_cell_angle_gamma 90.000000
_cell_volume 1691.835131
_symmetry_space_group_name_H-M "P 2/M"
_symmetry_group_IT_number 10
_symmetry_cell_setting 'monoclinic'
loop_
_space_group_symop_operation_xyz
x,y,z
-x,y,-z
-x,-y,-z
x,-y,z
loop_
_atom_site_type_symbol
_atom_site_label
_atom_site_fract_x
_atom_site_fract_y
_atom_site_fract_z
Si Si1 0.830436 0.821414 0.986403
Si Si2 0.452835 0.323293 0.840028
Si Si3 0.930082 0.820731 0.630575
Si Si4 0.107381 0.321309 0.611813
Si Si5 0.728315 0.177080 0.012610
Si Si6 0.497669 0.174475 0.259498
Si Si7 0.784934 0.677889 0.559009
Si Si8 0.269068 0.821093 0.343461
O O1 0.779863 0.756908 0.820666
O O2 0.825580 0.000000 0.975129
O O3 0.763514 0.762422 0.969615
O O4 0.949909 0.764359 0.176861
O O5 0.470283 0.500000 0.864967
O O6 0.518656 0.258980 0.857060
O O7 0.330144 0.279222 0.650692
O O8 0.500000 0.251717 0.000000
O O9 0.884121 0.750660 0.472194
O O10 0.868518 0.762052 0.623377
O O11 0.921512 0.000000 0.611857
O O12 0.110628 0.500000 0.606692
O O13 0.208838 0.266545 0.818170
O O14 0.000000 0.267461 0.500000
O O15 0.753143 0.000000 0.061484
O O16 0.603033 0.211746 0.830319
O O17 0.606574 0.225193 0.470387
O O18 0.503746 0.000000 0.245388
O O19 0.806414 0.500000 0.590320
O O20 0.794353 0.739922 0.672698
O O21 0.253889 0.000000 0.330639
#
# Coordination Sequence:
#
# PCOD8064601 Si02
#       8
#     4   4   4   4   4   4   4   4
#     4   9  19  35  58  82 109 146 187 227 273 328
#     4   9  19  35  53  73 103 144 183 222 273 330
#     4  11  22  37  58  83 111 147 186 228 275 328
#     4  11  23  38  56  80 112 149 185 227 275 325
#     4  10  20  36  56  84 115 146 184 225 274 328
#     4   9  19  33  54  83 111 139 179 229 272 318
#     4  10  21  37  55  80 112 145 184 230 279 328
#     4   9  18  37  59  81 110 146 186 229 275 324
#
# _framework density 18.914372
#
# number of rings (size 3 to 8) (size 9 to 14) (size 15 to 20)
#    0.000    2.250    1.250    1.125    1.750    2.750 
#    0.000    6.875    0.000    0.000    0.000    4.375 
#    0.000    0.000    0.000    0.000    0.000    0.000 
#
# Total GULP energy -396860.984863 kJ/mol
# GULP energy per Si atom -12401.905777 kJ/mol
# Density = 1.887132 g / cm^3
# Si number density = 18.914372 Si / 1000 Ang^3
#
#
#
# Elastic Constant Matrix: (Units=GPa)
#
#
# Indices 1 2 3 4 5 6 
#
# 1 165.6569 36.4828 81.1221 0.0000 -4.1226 0.0000
# 2 36.4828 37.0746 25.4851 0.0000 2.4288 0.0000
# 3 81.1221 25.4851 88.6429 0.0000 -18.6061 0.0000
# 4 0.0000 0.0000 0.0000 9.9391 0.0000 31.8549
# 5 -4.1226 2.4288 -18.6061 0.0000 40.0025 0.0000
# 6 0.0000 0.0000 0.0000 31.8549 0.0000 -59.7556
#
#
#
# Elastic Compliance Matrix: (Units=1/GPa)
#
#
# Indices 1 2 3 4 5 6 
#
# 1 0.012053 -0.004457 -0.010452 0.000000 -0.003349 0.000000
# 2 -0.004457 0.037271 -0.007988 0.000000 -0.006438 0.000000
# 3 -0.010452 -0.007988 0.025509 0.000000 0.011273 0.000000
# 4 0.000000 0.000000 0.000000 0.037146 0.000000 0.019802
# 5 -0.003349 -0.006438 0.011273 0.000000 0.030287 0.000000
# 6 0.000000 0.000000 0.000000 0.019802 0.000000 -0.006179
#
#
# Mechanical properties :
#
#
# Convention : Reuss Voigt Hill
#
# Bulk Modulus (GPa) = 34.43598 64.17272 49.30435
# Shear Modulus (GPa) = 26.10114 7.92284 17.01199
#
# Velocity S-wave (km/s) = 3.71882 2.04887 3.00229
# Velocity P-wave (km/s) = 6.05683 6.29276 6.17592
#
# Compressibility (1/GPa) = 0.02903940
#
# Stress axis : x y z
#
# Youngs Moduli (GPa) = 82.96634 26.83052 39.20129
#
# Poissons Ratio (x) = 0.11957 0.40974
# Poissons Ratio (y) = 0.36974 0.31316
# Poissons Ratio (z) = 0.86717 0.21433
#
# Static dielectric constant tensor:
#      x y z
#    x 3.626420 0.000000 -0.056690 
#    y 0.000000 3.296940 0.000000 
#    z -0.056690 0.000000 3.638120 
# 
# 
# High freq. dielectric constant tensor:
#      x y z
#    x 1.744590 0.000000 -0.000280 
#    y 0.000000 1.719940 0.000000 
#    z -0.000280 0.000000 1.737530 
# 
# From -- ./inp_files/66495.got.cif
#   From: 2010.06.25/outbox.cif.g09.slc.cpg/sg10_34_cif.got.tgz:66495.got - 2010.06.27 22:07:45.
