data_PCOD8064563
_publ_section_title
;
Structure prediction by ZEFSAII (Michael W. Deem and Ramdas Pophale) SiO2 
 PCOD8064563
Probable space group: P 2/M
;
_chemical_formula_sum "Si O2"
_cell_formula_units_Z 28
_cell_length_a 15.042328
_cell_length_b 12.448384
_cell_length_c 9.274819
_cell_angle_alpha 90.000000
_cell_angle_beta 115.141383
_cell_angle_gamma 90.000000
_cell_volume 1572.200207
_symmetry_space_group_name_H-M "P 2/M"
_symmetry_group_IT_number 10
_symmetry_cell_setting 'monoclinic'
loop_
_space_group_symop_operation_xyz
x,y,z
-x,y,-z
-x,-y,-z
x,-y,z
loop_
_atom_site_type_symbol
_atom_site_label
_atom_site_fract_x
_atom_site_fract_y
_atom_site_fract_z
Si Si1 0.401003 0.373845 0.350215
Si Si2 0.880651 0.500000 0.299087
Si Si3 0.921727 0.119138 0.340422
Si Si4 0.209855 0.298433 0.377032
Si Si5 0.085253 0.500000 0.339586
Si Si6 0.399593 0.620114 0.014850
Si Si7 0.060210 0.879052 0.173577
Si Si8 0.766974 0.708318 0.268756
O O1 0.500000 0.336096 0.500000
O O2 0.383995 0.500000 0.365010
O O3 0.306982 0.310612 0.347416
O O4 0.412994 0.344892 0.190177
O O5 0.908919 0.500000 0.485170
O O6 0.821633 0.608625 0.232334
O O7 0.967575 0.500000 0.238684
O O8 0.820862 0.182726 0.263088
O O9 0.000000 0.178316 0.500000
O O10 0.972079 0.113282 0.223534
O O11 0.897170 0.000000 0.384302
O O12 0.134724 0.396413 0.301008
O O13 0.152992 0.190474 0.290952
O O14 0.244416 0.297857 0.566917
O O15 0.352648 0.500000 0.976675
O O16 0.500000 0.616985 0.000000
O O17 0.337080 0.707933 0.883383
O O18 0.099555 0.000000 0.166748
O O19 0.000000 0.826897 0.000000
#
# Coordination Sequence:
#
# PCOD8064563 Si02
#       8
#     4   2   4   4   2   4   4   4
#     4  10  21  37  56  78 111 146 182 223 272 329
#     4   9  18  28  46  74 112 142 176 210 264 319
#     4  10  20  36  55  79 109 146 192 228 262 314
#     4  11  20  34  54  80 110 146 181 223 274 325
#     4   9  18  30  45  75 109 145 175 211 261 323
#     4  10  21  37  56  81 109 142 184 227 270 326
#     4  10  22  38  55  78 110 150 190 227 266 318
#     4  11  20  32  55  81 109 144 182 227 271 321
#
# _framework density 17.809435000000001
#
# number of rings (size 3 to 8) (size 9 to 14) (size 15 to 20)
#    0.000    1.857    2.857    1.714    4.000    1.143 
#    0.000    0.357    0.000    0.857    0.000    0.000 
#    0.000    0.000    0.000    0.000    0.000    0.000 
#
# Total GULP energy -347041.774312 kJ/mol
# GULP energy per Si atom -12394.349083 kJ/mol
# Density = 1.776890 g / cm^3
# Si number density = 17.809435 Si / 1000 Ang^3
#
#
#
# Elastic Constant Matrix: (Units=GPa)
#
#
# Indices 1 2 3 4 5 6 
#
# 1 105.0238 39.8367 45.0232 0.0000 -6.5458 0.0000
# 2 39.8367 78.4086 34.0359 0.0000 6.7649 0.0000
# 3 45.0232 34.0359 120.9409 0.0000 6.0958 0.0000
# 4 0.0000 0.0000 0.0000 22.0188 0.0000 -3.0518
# 5 -6.5458 6.7649 6.0958 0.0000 25.7841 0.0000
# 6 0.0000 0.0000 0.0000 -3.0518 0.0000 56.1257
#
#
#
# Elastic Compliance Matrix: (Units=1/GPa)
#
#
# Indices 1 2 3 4 5 6 
#
# 1 0.013720 -0.005848 -0.003759 0.000000 0.005906 0.000000
# 2 -0.005848 0.017236 -0.002399 0.000000 -0.005440 0.000000
# 3 -0.003759 -0.002399 0.010485 0.000000 -0.002804 0.000000
# 4 0.000000 0.000000 0.000000 0.045761 0.000000 0.002488
# 5 0.005906 -0.005440 -0.002804 0.000000 0.042373 0.000000
# 6 0.000000 0.000000 0.000000 0.002488 0.000000 0.017952
#
#
# Mechanical properties :
#
#
# Convention : Reuss Voigt Hill
#
# Bulk Modulus (GPa) = 57.38440 60.24055 58.81247
# Shear Modulus (GPa) = 28.19309 33.15087 30.67198
#
# Velocity S-wave (km/s) = 3.98306 4.31910 4.15448
# Velocity P-wave (km/s) = 7.31056 7.66625 7.49052
#
# Compressibility (1/GPa) = 0.01742634
#
# Stress axis : x y z
#
# Youngs Moduli (GPa) = 72.88814 58.01886 95.37846
#
# Poissons Ratio (x) = 0.33930 0.35856
# Poissons Ratio (y) = 0.42626 0.22884
# Poissons Ratio (z) = 0.27401 0.13920
#
# Static dielectric constant tensor:
#      x y z
#    x 3.245070 0.000000 0.009920 
#    y 0.000000 3.284160 0.000000 
#    z 0.009920 0.000000 3.303770 
# 
# 
# High freq. dielectric constant tensor:
#      x y z
#    x 1.686040 0.000000 -0.005220 
#    y 0.000000 1.666560 0.000000 
#    z -0.005220 0.000000 1.690750 
# 
# From -- ./inp_files/28364.got.cif
#   From: 2010.06.25/outbox.cif.g09.slc.cpg/sg10_15_cif.got.tgz:28364.got - 2010.06.27 22:07:45.
