data_PCOD8064136
_publ_section_title
;
Structure prediction by ZEFSAII (Michael W. Deem and Ramdas Pophale) SiO2 
 PCOD8064136
Probable space group: P 2/M
;
_chemical_formula_sum "Si O2"
_cell_formula_units_Z 28
_cell_length_a 9.308913
_cell_length_b 8.994591
_cell_length_c 29.316726
_cell_angle_alpha 90.000000
_cell_angle_beta 37.353911
_cell_angle_gamma 90.000000
_cell_volume 1489.347572
_symmetry_space_group_name_H-M "P 2/M"
_symmetry_group_IT_number 10
_symmetry_cell_setting 'monoclinic'
loop_
_space_group_symop_operation_xyz
x,y,z
-x,y,-z
-x,-y,-z
x,-y,z
loop_
_atom_site_type_symbol
_atom_site_label
_atom_site_fract_x
_atom_site_fract_y
_atom_site_fract_z
Si Si1 0.308241 0.829293 0.732235
Si Si2 0.659166 0.674965 0.003382
Si Si3 0.486596 0.175846 0.138891
Si Si4 0.439729 0.674123 0.564272
Si Si5 0.005517 0.674778 0.733869
Si Si6 0.735576 0.827384 0.563647
Si Si7 0.843217 0.172671 0.129279
O O1 0.577507 0.794090 0.648555
O O2 0.299021 0.795832 0.788259
O O3 0.118924 0.729582 0.752855
O O4 0.242272 0.000000 0.738296
O O5 0.652999 0.500000 0.014340
O O6 0.925895 0.726097 0.927747
O O7 0.500000 0.717717 0.000000
O O8 0.557532 0.759159 0.072467
O O9 0.236623 0.242986 0.216813
O O10 0.680413 0.220513 0.127872
O O11 0.463498 0.000000 0.140701
O O12 0.500000 0.743419 0.500000
O O13 0.475922 0.500000 0.554862
O O14 0.633898 0.740904 0.547359
O O15 0.177196 0.714660 0.648219
O O16 0.959312 0.500000 0.750440
O O17 0.000000 0.765221 0.500000
O O18 0.735889 0.000000 0.551793
O O19 0.917270 0.000000 0.106369
#
# Coordination Sequence:
#
# PCOD8064136 Si02
#       7
#     4   4   4   4   4   4   4
#     4   9  18  35  56  77 106 143 179 218 267 319
#     4  11  24  40  59  83 109 139 177 218 260 310
#     4  11  23  38  57  82 111 141 175 216 264 317
#     4   9  19  35  53  75 106 143 181 221 266 317
#     4  10  20  35  55  79 107 140 181 224 264 313
#     4   9  18  32  52  79 108 139 178 223 268 315
#     4  10  22  38  56  80 109 141 177 217 263 316
#
# _framework density 18.800177999999999
#
# number of rings (size 3 to 8) (size 9 to 14) (size 15 to 20)
#    0.000    2.143    0.000    2.571    0.000    9.143 
#    0.000    1.429    0.000    0.000    0.000    0.000 
#    0.000    0.000    0.000    0.000    0.000    0.000 
#
# Total GULP energy -347215.293732 kJ/mol
# GULP energy per Si atom -12400.546205 kJ/mol
# Density = 1.875739 g / cm^3
# Si number density = 18.800178 Si / 1000 Ang^3
#
#
#
# Elastic Constant Matrix: (Units=GPa)
#
#
# Indices 1 2 3 4 5 6 
#
# 1 144.8822 67.9366 95.4358 0.0000 -5.4169 0.0000
# 2 67.9366 71.3554 53.3964 0.0000 -5.2565 0.0000
# 3 95.4358 53.3964 140.4218 0.0000 -1.2032 0.0000
# 4 0.0000 0.0000 0.0000 30.4101 0.0000 -4.1266
# 5 -5.4169 -5.2565 -1.2032 0.0000 41.5648 0.0000
# 6 0.0000 0.0000 0.0000 -4.1266 0.0000 32.4069
#
#
#
# Elastic Compliance Matrix: (Units=1/GPa)
#
#
# Indices 1 2 3 4 5 6 
#
# 1 0.016573 -0.010212 -0.007375 0.000000 0.000655 0.000000
# 2 -0.010212 0.026096 -0.002966 0.000000 0.001883 0.000000
# 3 -0.007375 -0.002966 0.013253 0.000000 -0.000953 0.000000
# 4 0.000000 0.000000 0.000000 0.033462 0.000000 0.004261
# 5 0.000655 0.001883 -0.000953 0.000000 0.024355 0.000000
# 6 0.000000 0.000000 0.000000 0.004261 0.000000 0.031400
#
#
# Mechanical properties :
#
#
# Convention : Reuss Voigt Hill
#
# Bulk Modulus (GPa) = 67.49668 87.79968 77.64818
# Shear Modulus (GPa) = 26.15273 30.20240 28.17757
#
# Velocity S-wave (km/s) = 3.73378 4.01246 3.87562
# Velocity P-wave (km/s) = 7.38703 8.26253 7.83701
#
# Compressibility (1/GPa) = 0.01481554
#
# Stress axis : x y z
#
# Youngs Moduli (GPa) = 60.33869 38.32044 75.45186
#
# Poissons Ratio (x) = 0.39133 0.55645
# Poissons Ratio (y) = 0.61618 0.22382
# Poissons Ratio (z) = 0.44499 0.11368
#
# Static dielectric constant tensor:
#      x y z
#    x 3.489050 0.000000 0.021690 
#    y 0.000000 3.477290 0.000000 
#    z 0.021690 0.000000 3.823770 
# 
# 
# High freq. dielectric constant tensor:
#      x y z
#    x 1.727320 0.000000 -0.000150 
#    y 0.000000 1.731790 0.000000 
#    z -0.000150 0.000000 1.747400 
# 
# From -- ./inp_files/37035.got.cif
#   From: 2010.06.25/outbox.cif.g09.slc.cpg/sg10_19_cif.got.tgz:37035.got - 2010.06.27 22:07:45.
