data_PCOD8064743
_publ_section_title
;
Structure prediction by ZEFSAII (Michael W. Deem and Ramdas Pophale) SiO2 
 PCOD8064743
Probable space group: P 2/M
;
_chemical_formula_sum "Si O2"
_cell_formula_units_Z 28
_cell_length_a 15.043202
_cell_length_b 8.577085
_cell_length_c 21.473957
_cell_angle_alpha 90.000000
_cell_angle_beta 29.031879
_cell_angle_gamma 90.000000
_cell_volume 1344.618095
_symmetry_space_group_name_H-M "P 2/M"
_symmetry_group_IT_number 10
_symmetry_cell_setting 'monoclinic'
loop_
_space_group_symop_operation_xyz
x,y,z
-x,y,-z
-x,-y,-z
x,-y,z
loop_
_atom_site_type_symbol
_atom_site_label
_atom_site_fract_x
_atom_site_fract_y
_atom_site_fract_z
Si Si1 0.355878 0.676014 0.900990
Si Si2 0.278311 0.820550 0.320249
Si Si3 0.984122 0.815310 0.081221
Si Si4 0.957280 0.679373 0.300129
Si Si5 0.011084 0.677525 0.577089
Si Si6 0.646139 0.323311 0.955802
Si Si7 0.699556 0.182185 0.359223
O O1 0.331959 0.500000 0.891141
O O2 0.533361 0.757876 0.763077
O O3 0.167570 0.765689 0.004562
O O4 0.418586 0.681662 0.934133
O O5 0.131441 0.798034 0.464513
O O6 0.201820 0.728137 0.305390
O O7 0.304253 0.000000 0.286683
O O8 0.805631 0.753304 0.230965
O O9 0.974832 0.000000 0.085017
O O10 0.000000 0.750268 0.000000
O O11 0.946707 0.500000 0.282486
O O12 0.916616 0.692024 0.397541
O O13 0.819384 0.784890 0.346279
O O14 0.156044 0.756808 0.168376
O O15 0.036939 0.500000 0.538280
O O16 0.673752 0.500000 0.913801
O O17 0.500000 0.237826 0.000000
O O18 0.500000 0.256409 0.500000
O O19 0.674118 0.000000 0.364665
#
# Coordination Sequence:
#
# PCOD8064743 Si02
#       7
#     4   4   4   4   4   4   4
#     4  11  21  36  60  86 117 153 197 248 300 359
#     4  11  22  36  55  82 121 162 202 243 294 357
#     4  10  22  41  62  85 118 159 204 257 315 375
#     4  10  20  36  59  87 116 150 193 245 301 356
#     4  10  20  36  58  84 118 157 202 247 295 356
#     4   9  17  31  54  84 117 151 186 229 290 354
#     4  10  22  40  61  85 117 158 204 253 311 375
#
# _framework density 20.823755999999999
#
# number of rings (size 3 to 8) (size 9 to 14) (size 15 to 20)
#    0.000    1.857    1.429    3.857    0.000    5.143 
#    0.000    1.429    0.000    2.143    0.000    0.000 
#    0.000    0.000    0.000    0.000    0.000    0.000 
#
# Total GULP energy -346878.873339 kJ/mol
# GULP energy per Si atom -12388.531191 kJ/mol
# Density = 2.077636 g / cm^3
# Si number density = 20.823756 Si / 1000 Ang^3
#
#
#
# Elastic Constant Matrix: (Units=GPa)
#
#
# Indices 1 2 3 4 5 6 
#
# 1 110.8437 15.5235 60.1325 0.0000 -6.6839 0.0000
# 2 15.5235 28.9130 13.7678 0.0000 3.9038 0.0000
# 3 60.1325 13.7678 134.3982 0.0000 -18.5359 0.0000
# 4 0.0000 0.0000 0.0000 18.2972 0.0000 -2.8224
# 5 -6.6839 3.9038 -18.5359 0.0000 39.2705 0.0000
# 6 0.0000 0.0000 0.0000 -2.8224 0.0000 27.6264
#
#
#
# Elastic Compliance Matrix: (Units=1/GPa)
#
#
# Indices 1 2 3 4 5 6 
#
# 1 0.012384 -0.004243 -0.005089 0.000000 0.000128 0.000000
# 2 -0.004243 0.039068 -0.002930 0.000000 -0.005989 0.000000
# 3 -0.005089 -0.002930 0.010630 0.000000 0.004443 0.000000
# 4 0.000000 0.000000 0.000000 0.055528 0.000000 0.005673
# 5 0.000128 -0.005989 0.004443 0.000000 0.028178 0.000000
# 6 0.000000 0.000000 0.000000 0.005673 0.000000 0.036777
#
#
# Mechanical properties :
#
#
# Convention : Reuss Voigt Hill
#
# Bulk Modulus (GPa) = 26.62432 50.33364 38.47898
# Shear Modulus (GPa) = 22.76771 29.35423 26.06097
#
# Velocity S-wave (km/s) = 3.31018 3.75860 3.54150
# Velocity P-wave (km/s) = 5.23670 6.56200 5.93645
#
# Compressibility (1/GPa) = 0.03755965
#
# Stress axis : x y z
#
# Youngs Moduli (GPa) = 80.74758 25.59619 94.07180
#
# Poissons Ratio (x) = 0.10861 0.47870
# Poissons Ratio (y) = 0.34264 0.27559
# Poissons Ratio (z) = 0.41090 0.07499
#
# Static dielectric constant tensor:
#      x y z
#    x 3.830430 0.000000 -0.060970 
#    y 0.000000 3.461300 0.000000 
#    z -0.060970 0.000000 4.097430 
# 
# 
# High freq. dielectric constant tensor:
#      x y z
#    x 1.812190 0.000000 -0.005870 
#    y 0.000000 1.786110 0.000000 
#    z -0.005870 0.000000 1.825580 
# 
# From -- ./inp_files/63630.got.cif
#   From: 2010.06.25/outbox.cif.g09.slc.cpg/sg10_32_cif.got.tgz:63630.got - 2010.06.27 22:07:45.
