data_PCOD8064053
_publ_section_title
;
Structure prediction by ZEFSAII (Michael W. Deem and Ramdas Pophale) SiO2 
 PCOD8064053
Probable space group: P 2/M
;
_chemical_formula_sum "Si O2"
_cell_formula_units_Z 32
_cell_length_a 27.794832
_cell_length_b 9.479718
_cell_length_c 10.590402
_cell_angle_alpha 90.000000
_cell_angle_beta 144.107808
_cell_angle_gamma 90.000000
_cell_volume 1635.925925
_symmetry_space_group_name_H-M "P 2/M"
_symmetry_group_IT_number 10
_symmetry_cell_setting 'monoclinic'
loop_
_space_group_symop_operation_xyz
x,y,z
-x,y,-z
-x,-y,-z
x,-y,z
loop_
_atom_site_type_symbol
_atom_site_label
_atom_site_fract_x
_atom_site_fract_y
_atom_site_fract_z
Si Si1 0.269094 0.336789 0.450989
Si Si2 0.189141 0.156679 0.482968
Si Si3 0.942411 0.662874 0.682022
Si Si4 0.545677 0.335623 0.225624
Si Si5 0.113682 0.334251 0.957603
Si Si6 0.159939 0.338482 0.788033
Si Si7 0.712171 0.154824 0.054672
Si Si8 0.470320 0.165756 0.296885
O O1 0.260798 0.500000 0.473652
O O2 0.256896 0.239367 0.546469
O O3 0.357620 0.306330 0.580719
O O4 0.198734 0.291277 0.203291
O O5 0.104568 0.245964 0.311580
O O6 0.226218 0.142511 0.699121
O O7 0.171644 0.000000 0.390290
O O8 0.940154 0.500000 0.722053
O O9 0.900751 0.680210 0.457398
O O10 0.034750 0.725325 0.865619
O O11 0.526676 0.500000 0.208477
O O12 0.517185 0.249700 0.287274
O O13 0.500000 0.285036 0.000000
O O14 0.100221 0.500000 0.925249
O O15 0.115120 0.277071 0.817149
O O16 0.184768 0.500000 0.861999
O O17 0.246706 0.258800 0.958416
O O18 0.700162 0.000000 0.966694
O O19 0.624506 0.212111 0.913758
O O20 0.500000 0.208571 0.500000
O O21 0.483422 0.000000 0.299443
#
# Coordination Sequence:
#
# PCOD8064053 Si02
#       8
#     4   4   4   4   4   4   4   4
#     4  10  21  36  54  76 105 138 174 217 264 315
#     4  10  20  35  54  76 103 136 178 219 258 309
#     4   9  17  32  54  77 102 135 173 213 259 311
#     4  10  22  39  59  84 113 146 187 233 279 330
#     4   9  18  32  51  76 105 136 171 213 261 312
#     4   9  17  30  53  80 103 132 173 215 255 310
#     4   9  19  35  53  75 105 139 172 213 263 315
#     4  10  22  38  57  83 114 147 185 228 277 336
#
# _framework density 19.560787999999999
#
# number of rings (size 3 to 8) (size 9 to 14) (size 15 to 20)
#    0.000    2.500    0.000    1.500    1.750    4.000 
#    0.000    4.375    0.000    3.000    0.000    0.000 
#    0.000    0.000    0.000    0.000    0.000    0.000 
#
# Total GULP energy -396714.950807 kJ/mol
# GULP energy per Si atom -12397.342213 kJ/mol
# Density = 1.951627 g / cm^3
# Si number density = 19.560788 Si / 1000 Ang^3
#
#
#
# Elastic Constant Matrix: (Units=GPa)
#
#
# Indices 1 2 3 4 5 6 
#
# 1 120.6164 60.9424 49.2350 0.0000 22.1677 0.0000
# 2 60.9424 79.3306 39.2274 0.0000 12.8130 0.0000
# 3 49.2350 39.2274 82.1984 0.0000 26.4624 0.0000
# 4 0.0000 0.0000 0.0000 14.9197 0.0000 -0.2674
# 5 22.1677 12.8130 26.4624 0.0000 37.3267 0.0000
# 6 0.0000 0.0000 0.0000 -0.2674 0.0000 19.1761
#
#
#
# Elastic Compliance Matrix: (Units=1/GPa)
#
#
# Indices 1 2 3 4 5 6 
#
# 1 0.015003 -0.009259 -0.003527 0.000000 -0.003231 0.000000
# 2 -0.009259 0.022214 -0.005663 0.000000 0.001888 0.000000
# 3 -0.003527 -0.005663 0.020318 0.000000 -0.010365 0.000000
# 4 0.000000 0.000000 0.000000 0.067042 0.000000 0.000935
# 5 -0.003231 0.001888 -0.010365 0.000000 0.035409 0.000000
# 6 0.000000 0.000000 0.000000 0.000935 0.000000 0.052161
#
#
# Mechanical properties :
#
#
# Convention : Reuss Voigt Hill
#
# Bulk Modulus (GPa) = 48.46036 64.55054 56.50545
# Shear Modulus (GPa) = 19.53702 23.13388 21.33545
#
# Velocity S-wave (km/s) = 3.16378 3.44272 3.30620
# Velocity P-wave (km/s) = 6.17852 6.99105 6.59730
#
# Compressibility (1/GPa) = 0.02063542
#
# Stress axis : x y z
#
# Youngs Moduli (GPa) = 66.65503 45.01752 49.21741
#
# Poissons Ratio (x) = 0.41682 0.17361
# Poissons Ratio (y) = 0.61716 0.27871
# Poissons Ratio (z) = 0.23512 0.25493
#
# Static dielectric constant tensor:
#      x y z
#    x 3.602210 0.000000 0.156350 
#    y 0.000000 3.635260 0.000000 
#    z 0.156350 0.000000 3.587930 
# 
# 
# High freq. dielectric constant tensor:
#      x y z
#    x 1.767250 0.000000 0.010890 
#    y 0.000000 1.740340 0.000000 
#    z 0.010890 0.000000 1.762960 
# 
# From -- ./inp_files/58284.got.cif
#   From: 2010.06.25/outbox.cif.g09.slc.cpg/sg10_30_cif.got.tgz:58284.got - 2010.06.27 22:07:45.
