data_PCOD8064173
_publ_section_title
;
Structure prediction by ZEFSAII (Michael W. Deem and Ramdas Pophale) SiO2 
 PCOD8064173
Probable space group: P 2/M
;
_chemical_formula_sum "Si O2"
_cell_formula_units_Z 28
_cell_length_a 11.756851
_cell_length_b 9.113869
_cell_length_c 15.440481
_cell_angle_alpha 90.000000
_cell_angle_beta 56.844872
_cell_angle_gamma 90.000000
_cell_volume 1385.096883
_symmetry_space_group_name_H-M "P 2/M"
_symmetry_group_IT_number 10
_symmetry_cell_setting 'monoclinic'
loop_
_space_group_symop_operation_xyz
x,y,z
-x,y,-z
-x,-y,-z
x,-y,z
loop_
_atom_site_type_symbol
_atom_site_label
_atom_site_fract_x
_atom_site_fract_y
_atom_site_fract_z
Si Si1 0.139766 0.827879 0.489448
Si Si2 0.137266 0.167976 0.154741
Si Si3 0.148351 0.167020 0.952461
Si Si4 0.327881 0.669135 0.743510
Si Si5 0.129082 0.672887 0.676473
Si Si6 0.611540 0.331965 0.885807
Si Si7 0.387040 0.666711 0.311034
O O1 0.150592 0.741698 0.574195
O O2 0.263687 0.777654 0.377545
O O3 0.000000 0.787078 0.500000
O O4 0.149772 0.000000 0.503524
O O5 0.251860 0.236980 0.167482
O O6 0.998331 0.256352 0.222219
O O7 0.111956 0.000000 0.193753
O O8 0.190188 0.179230 0.034884
O O9 0.260532 0.246259 0.850117
O O10 0.142764 0.000000 0.922231
O O11 0.000000 0.239260 0.000000
O O12 0.304547 0.500000 0.774497
O O13 0.262747 0.709425 0.677926
O O14 0.488565 0.706164 0.676160
O O15 0.105125 0.500000 0.676917
O O16 0.646657 0.500000 0.894962
O O17 0.557736 0.317220 0.810189
O O18 0.500000 0.270750 0.000000
O O19 0.336571 0.500000 0.348641
#
# Coordination Sequence:
#
# PCOD8064173 Si02
#       7
#     4   4   4   4   4   4   4
#     4  11  25  44  65  89 117 152 197 246 297 356
#     4  11  22  36  57  86 122 159 199 248 297 350
#     4  10  20  35  55  83 122 164 200 238 291 349
#     4  10  22  39  61  90 121 156 200 246 293 352
#     4  11  23  39  62  90 118 152 196 246 299 352
#     4  10  21  38  61  88 120 158 200 244 293 351
#     4  10  22  41  63  88 121 158 196 244 298 350
#
# _framework density 20.215192999999999
#
# number of rings (size 3 to 8) (size 9 to 14) (size 15 to 20)
#    0.000    1.571    1.429    3.000    0.000    8.571 
#    0.000    2.857    0.000    0.000    0.000    0.000 
#    0.000    0.000    0.000    0.000    0.000    0.000 
#
# Total GULP energy -347306.682979 kJ/mol
# GULP energy per Si atom -12403.810106 kJ/mol
# Density = 2.016918 g / cm^3
# Si number density = 20.215193 Si / 1000 Ang^3
#
#
#
# Elastic Constant Matrix: (Units=GPa)
#
#
# Indices 1 2 3 4 5 6 
#
# 1 144.1636 59.5403 44.0422 0.0000 -1.4676 0.0000
# 2 59.5403 88.2948 47.4043 0.0000 -1.1057 0.0000
# 3 44.0422 47.4043 100.8466 0.0000 -0.2791 0.0000
# 4 0.0000 0.0000 0.0000 25.3600 0.0000 11.9299
# 5 -1.4676 -1.1057 -0.2791 0.0000 30.3178 0.0000
# 6 0.0000 0.0000 0.0000 11.9299 0.0000 4.4619
#
#
#
# Elastic Compliance Matrix: (Units=1/GPa)
#
#
# Indices 1 2 3 4 5 6 
#
# 1 0.009798 -0.005761 -0.001570 0.000000 0.000250 0.000000
# 2 -0.005761 0.018543 -0.006200 0.000000 0.000340 0.000000
# 3 -0.001570 -0.006200 0.013516 0.000000 -0.000178 0.000000
# 4 0.000000 0.000000 0.000000 -0.152963 0.000000 0.408983
# 5 0.000250 0.000340 -0.000178 0.000000 0.033007 0.000000
# 6 0.000000 0.000000 0.000000 0.408983 0.000000 -0.869394
#
#
# Mechanical properties :
#
#
# Convention : Reuss Voigt Hill
#
# Bulk Modulus (GPa) = 67.59009 70.58652 69.08831
# Shear Modulus (GPa) = -5.46150 24.18250 9.36050
#
# Velocity S-wave (km/s) = -1.64546 3.46244 2.15418
# Velocity P-wave (km/s) = 5.46789 7.13989 6.35908
#
# Compressibility (1/GPa) = 0.01479507
#
# Stress axis : x y z
#
# Youngs Moduli (GPa) = 102.05969 53.92786 73.98862
#
# Poissons Ratio (x) = 0.31068 0.11619
# Poissons Ratio (y) = 0.58797 0.45870
# Poissons Ratio (z) = 0.16027 0.33433
#
# Static dielectric constant tensor:
#      x y z
#    x 3.831650 0.000000 0.075050 
#    y 0.000000 3.693350 0.000000 
#    z 0.075050 0.000000 3.530210 
# 
# 
# High freq. dielectric constant tensor:
#      x y z
#    x 1.800880 0.000000 0.006250 
#    y 0.000000 1.787810 0.000000 
#    z 0.006250 0.000000 1.786650 
# 
# From -- ./inp_files/63643.got.cif
#   From: 2010.06.25/outbox.cif.g09.slc.cpg/sg10_32_cif.got.tgz:63643.got - 2010.06.27 22:07:45.
