data_PCOD8064990
_publ_section_title
;
Structure prediction by ZEFSAII (Michael W. Deem and Ramdas Pophale) SiO2 
 PCOD8064990
Probable space group: P 2/M
;
_chemical_formula_sum "Si O2"
_cell_formula_units_Z 32
_cell_length_a 11.866026
_cell_length_b 14.025846
_cell_length_c 18.242877
_cell_angle_alpha 90.000000
_cell_angle_beta 30.424706
_cell_angle_gamma 90.000000
_cell_volume 1537.539283
_symmetry_space_group_name_H-M "P 2/M"
_symmetry_group_IT_number 10
_symmetry_cell_setting 'monoclinic'
loop_
_space_group_symop_operation_xyz
x,y,z
-x,y,-z
-x,-y,-z
x,-y,z
loop_
_atom_site_type_symbol
_atom_site_label
_atom_site_fract_x
_atom_site_fract_y
_atom_site_fract_z
Si Si1 0.288757 0.395944 0.653183
Si Si2 0.984922 0.108149 0.344829
Si Si3 0.103820 0.610516 0.520333
Si Si4 0.405156 0.890017 0.206613
Si Si5 0.203744 0.790902 0.088020
Si Si6 0.119538 0.254521 0.857684
Si Si7 0.137835 0.394843 0.201010
Si Si8 0.593302 0.210558 0.640398
O O1 0.500000 0.338807 0.500000
O O2 0.371819 0.500000 0.630483
O O3 0.187581 0.353105 0.783028
O O4 0.110800 0.399631 0.689160
O O5 0.158156 0.119286 0.313879
O O6 0.053016 0.168436 0.236745
O O7 0.747993 0.141807 0.506602
O O8 0.966137 0.000000 0.329309
O O9 0.182652 0.500000 0.482837
O O10 0.315559 0.680484 0.413515
O O11 0.000000 0.632688 0.500000
O O12 0.902650 0.632520 0.690911
O O13 0.421692 0.824302 0.267933
O O14 0.462918 0.000000 0.192484
O O15 0.574042 0.851361 0.049575
O O16 0.273187 0.683565 0.076760
O O17 0.053399 0.798345 0.099156
O O18 0.347444 0.197261 0.744131
O O19 0.000000 0.278685 0.000000
O O20 0.252934 0.500000 0.128497
#
# Coordination Sequence:
#
# PCOD8064990 Si02
#       8
#     4   4   4   4   4   4   4   4
#     4   9  18  33  59  89 118 162 215 263 306 354
#     4  11  24  43  69  98 120 155 219 277 320 375
#     4  10  20  36  61  96 133 170 213 261 317 376
#     4  11  24  44  69  94 127 165 209 266 329 385
#     4  11  22  42  66  94 128 171 209 258 321 380
#     4  11  24  41  58  89 131 173 210 253 313 392
#     4   9  18  34  58  90 128 166 207 253 306 371
#     4  12  23  41  66  96 131 169 211 264 317 374
#
# _framework density 20.812477000000001
#
# number of rings (size 3 to 8) (size 9 to 14) (size 15 to 20)
#    0.000    1.500    2.500    3.000    1.750    3.750 
#    0.000    4.375    0.000    2.250    0.000    0.000 
#    0.000    0.000    0.000    0.000    0.000    0.000 
#
# Total GULP energy -396711.196972 kJ/mol
# GULP energy per Si atom -12397.224905 kJ/mol
# Density = 2.076511 g / cm^3
# Si number density = 20.812477 Si / 1000 Ang^3
#
#
#
# Elastic Constant Matrix: (Units=GPa)
#
#
# Indices 1 2 3 4 5 6 
#
# 1 74.3675 21.5413 23.0872 0.0000 18.7745 0.0000
# 2 21.5413 95.1923 21.7151 0.0000 0.5676 0.0000
# 3 23.0872 21.7151 96.3991 0.0000 2.5789 0.0000
# 4 0.0000 0.0000 0.0000 20.7413 0.0000 -2.3378
# 5 18.7745 0.5676 2.5789 0.0000 28.1136 0.0000
# 6 0.0000 0.0000 0.0000 -2.3378 0.0000 17.0417
#
#
#
# Elastic Compliance Matrix: (Units=1/GPa)
#
#
# Indices 1 2 3 4 5 6 
#
# 1 0.018476 -0.003345 -0.003351 0.000000 -0.011964 0.000000
# 2 -0.003345 0.011680 -0.001888 0.000000 0.002171 0.000000
# 3 -0.003351 -0.001888 0.011569 0.000000 0.001215 0.000000
# 4 0.000000 0.000000 0.000000 0.048970 0.000000 0.006718
# 5 -0.011964 0.002171 0.001215 0.000000 0.043404 0.000000
# 6 0.000000 0.000000 0.000000 0.006718 0.000000 0.059601
#
#
# Mechanical properties :
#
#
# Convention : Reuss Voigt Hill
#
# Bulk Modulus (GPa) = 40.72319 44.29402 42.50861
# Shear Modulus (GPa) = 22.82528 26.48700 24.65614
#
# Velocity S-wave (km/s) = 3.31526 3.57129 3.44565
# Velocity P-wave (km/s) = 5.85353 6.19146 6.02486
#
# Compressibility (1/GPa) = 0.02455603
#
# Stress axis : x y z
#
# Youngs Moduli (GPa) = 54.12289 85.61811 86.43812
#
# Poissons Ratio (x) = 0.28641 0.28969
# Poissons Ratio (y) = 0.18105 0.16319
# Poissons Ratio (z) = 0.18139 0.16164
#
# Static dielectric constant tensor:
#      x y z
#    x 3.917010 0.000000 0.062470 
#    y 0.000000 4.008120 0.000000 
#    z 0.062470 0.000000 3.775180 
# 
# 
# High freq. dielectric constant tensor:
#      x y z
#    x 1.819260 0.000000 0.010640 
#    y 0.000000 1.812440 0.000000 
#    z 0.010640 0.000000 1.815980 
# 
# From -- ./inp_files/76991.got.cif
#   From: 2010.06.25/outbox.cif.g09.slc.cpg/sg10_39_cif.got.tgz:76991.got - 2010.06.27 22:07:45.
