data_PCOD8064459
_publ_section_title
;
Structure prediction by ZEFSAII (Michael W. Deem and Ramdas Pophale) SiO2 
 PCOD8064459
Probable space group: P 2/M
;
_chemical_formula_sum "Si O2"
_cell_formula_units_Z 32
_cell_length_a 18.759091
_cell_length_b 14.107346
_cell_length_c 12.386088
_cell_angle_alpha 90.000000
_cell_angle_beta 150.472673
_cell_angle_gamma 90.000000
_cell_volume 1615.459221
_symmetry_space_group_name_H-M "P 2/M"
_symmetry_group_IT_number 10
_symmetry_cell_setting 'monoclinic'
loop_
_space_group_symop_operation_xyz
x,y,z
-x,y,-z
-x,-y,-z
x,-y,z
loop_
_atom_site_type_symbol
_atom_site_label
_atom_site_fract_x
_atom_site_fract_y
_atom_site_fract_z
Si Si1 0.159737 0.892005 0.664263
Si Si2 0.660332 0.396516 0.996394
Si Si3 0.086685 0.112110 0.333898
Si Si4 0.904567 0.609764 0.466290
Si Si5 0.687586 0.889621 0.550056
Si Si6 0.880708 0.604548 0.089539
Si Si7 0.392471 0.802394 0.124413
Si Si8 0.781575 0.205613 0.888942
O O1 0.153513 0.849756 0.534545
O O2 0.000000 0.885206 0.500000
O O3 0.216050 0.000000 0.741040
O O4 0.270224 0.828625 0.877007
O O5 0.579569 0.500000 0.890684
O O6 0.557892 0.307206 0.833473
O O7 0.735095 0.378438 0.213203
O O8 0.785507 0.400024 0.072184
O O9 0.191024 0.142567 0.374424
O O10 0.927532 0.149040 0.101350
O O11 0.073386 0.000000 0.326385
O O12 0.948714 0.500000 0.524439
O O13 0.000000 0.663545 0.500000
O O14 0.959387 0.642371 0.658526
O O15 0.530609 0.869450 0.292332
O O16 0.702092 0.000000 0.597972
O O17 0.704553 0.827400 0.679058
O O18 0.885024 0.500000 0.039296
O O19 0.815901 0.681889 0.921989
O O20 0.329258 0.814648 0.160616
#
# Coordination Sequence:
#
# PCOD8064459 Si02
#       8
#     4   4   4   4   4   4   4   4
#     4  10  20  35  58  89 119 140 176 238 300 345
#     4   8  15  27  46  76 114 149 182 222 276 339
#     4  10  22  40  61  83 110 149 191 234 287 346
#     4   7  10  19  38  67 104 139 168 210 265 319
#     4  11  25  42  57  78 112 156 200 235 276 340
#     4   8  15  27  47  80 115 143 181 232 281 326
#     4  11  22  34  58  89 119 148 187 236 293 333
#     4  11  21  35  60  86 113 150 197 237 277 327
#
# _framework density 19.808608
#
# number of rings (size 3 to 8) (size 9 to 14) (size 15 to 20)
#    0.000    2.500    1.250    3.000    1.750    4.000 
#    0.000    2.500    0.000    5.250    0.000    0.875 
#    0.000    0.000    0.000    0.000    0.000    0.000 
#
# Total GULP energy -396476.634879 kJ/mol
# GULP energy per Si atom -12389.894840 kJ/mol
# Density = 1.976352 g / cm^3
# Si number density = 19.808608 Si / 1000 Ang^3
#
#
#
# Elastic Constant Matrix: (Units=GPa)
#
#
# Indices 1 2 3 4 5 6 
#
# 1 28.6885 22.7726 18.7371 0.0000 1.9303 0.0000
# 2 22.7726 64.9783 27.3603 0.0000 -5.3780 0.0000
# 3 18.7371 27.3603 62.9684 0.0000 -16.3403 0.0000
# 4 0.0000 0.0000 0.0000 29.9605 0.0000 -4.9100
# 5 1.9303 -5.3780 -16.3403 0.0000 16.1462 0.0000
# 6 0.0000 0.0000 0.0000 -4.9100 0.0000 7.6534
#
#
#
# Elastic Compliance Matrix: (Units=1/GPa)
#
#
# Indices 1 2 3 4 5 6 
#
# 1 0.063644 -0.016439 -0.020601 0.000000 -0.033933 0.000000
# 2 -0.016439 0.023171 -0.003612 0.000000 0.006028 0.000000
# 3 -0.020601 -0.003612 0.032422 0.000000 0.034072 0.000000
# 4 0.000000 0.000000 0.000000 0.037299 0.000000 0.023929
# 5 -0.033933 0.006028 0.034072 0.000000 0.102479 0.000000
# 6 0.000000 0.000000 0.000000 0.023929 0.000000 0.146012
#
#
# Mechanical properties :
#
#
# Convention : Reuss Voigt Hill
#
# Bulk Modulus (GPa) = 26.36219 32.70838 29.53528
# Shear Modulus (GPa) = 10.02051 16.60303 13.31177
#
# Velocity S-wave (km/s) = 2.25159 2.89826 2.59515
# Velocity P-wave (km/s) = 4.48295 5.26763 4.89105
#
# Compressibility (1/GPa) = 0.03793311
#
# Stress axis : x y z
#
# Youngs Moduli (GPa) = 15.71231 43.15746 30.84313
#
# Poissons Ratio (x) = 0.70948 0.63539
# Poissons Ratio (y) = 0.25830 0.11141
# Poissons Ratio (z) = 0.32369 0.15589
#
# Static dielectric constant tensor:
#      x y z
#    x 3.316990 0.000000 -0.199900 
#    y 0.000000 3.905180 0.000000 
#    z -0.199900 0.000000 3.454930 
# 
# 
# High freq. dielectric constant tensor:
#      x y z
#    x 1.723550 0.000000 -0.017580 
#    y 0.000000 1.785930 0.000000 
#    z -0.017580 0.000000 1.761420 
# 
# From -- ./inp_files/54068.got.cif
#   From: 2010.06.25/outbox.cif.g09.slc.cpg/sg10_28_cif.got.tgz:54068.got - 2010.06.27 22:07:45.
