data_PCOD8064243
_publ_section_title
;
Structure prediction by ZEFSAII (Michael W. Deem and Ramdas Pophale) SiO2 
 PCOD8064243
Probable space group: P 2/M
;
_chemical_formula_sum "Si O2"
_cell_formula_units_Z 32
_cell_length_a 9.551135
_cell_length_b 13.696398
_cell_length_c 14.003871
_cell_angle_alpha 90.000000
_cell_angle_beta 110.896001
_cell_angle_gamma 90.000000
_cell_volume 1711.445089
_symmetry_space_group_name_H-M "P 2/M"
_symmetry_group_IT_number 10
_symmetry_cell_setting 'monoclinic'
loop_
_space_group_symop_operation_xyz
x,y,z
-x,y,-z
-x,-y,-z
x,-y,z
loop_
_atom_site_type_symbol
_atom_site_label
_atom_site_fract_x
_atom_site_fract_y
_atom_site_fract_z
Si Si1 0.277382 0.114413 0.066003
Si Si2 0.850212 0.197516 0.779016
Si Si3 0.558561 0.610335 0.302547
Si Si4 0.555814 0.115547 0.618029
Si Si5 0.241974 0.389226 0.314950
Si Si6 0.169171 0.115775 0.832168
Si Si7 0.158532 0.385037 0.504508
Si Si8 0.569871 0.806944 0.223418
O O1 0.170098 0.165370 0.116689
O O2 0.450072 0.141145 0.125501
O O3 0.254465 0.000000 0.072646
O O4 0.230234 0.149451 0.949932
O O5 0.719920 0.158240 0.678083
O O6 0.845378 0.316001 0.777551
O O7 0.003268 0.155220 0.775538
O O8 0.570120 0.500000 0.263414
O O9 0.420873 0.616698 0.343150
O O10 0.710256 0.643798 0.391417
O O11 0.539202 0.689594 0.213110
O O12 0.500000 0.148598 0.500000
O O13 0.442311 0.156505 0.670274
O O14 0.563138 0.000000 0.628849
O O15 0.184931 0.500000 0.283288
O O16 0.203677 0.349073 0.410612
O O17 0.266757 0.166475 0.774185
O O18 0.174476 0.000000 0.821618
O O19 0.142426 0.500000 0.496741
O O20 0.000000 0.338241 0.500000
#
# Coordination Sequence:
#
# PCOD8064243 Si02
#       8
#     4   4   4   4   4   4   4   4
#     4  10  20  39  63  85 110 143 189 242 298 349
#     4  11  21  36  59  86 113 150 188 237 285 349
#     4  10  20  35  56  81 113 153 197 239 274 329
#     4  10  21  37  55  77 113 156 194 226 274 348
#     4  10  20  35  56  81 113 153 197 239 274 329
#     4  11  23  38  61  89 114 140 185 250 302 341
#     4   9  19  33  53  81 112 147 192 243 288 323
#     4  11  21  36  59  86 113 150 188 237 285 349
#
# _framework density 18.697649999999999
#
# number of rings (size 3 to 8) (size 9 to 14) (size 15 to 20)
#    0.000    1.750    2.500    4.125    3.500    3.500 
#    0.000    0.625    0.000    6.750    0.000    0.000 
#    0.000    0.000    0.000    0.000    0.000    0.000 
#
# Total GULP energy -396791.317500 kJ/mol
# GULP energy per Si atom -12399.728672 kJ/mol
# Density = 1.865509 g / cm^3
# Si number density = 18.697650 Si / 1000 Ang^3
#
#
#
# Elastic Constant Matrix: (Units=GPa)
#
#
# Indices 1 2 3 4 5 6 
#
# 1 143.4219 34.0818 43.2939 0.0000 -6.0742 0.0000
# 2 34.0818 100.4573 37.7197 0.0000 -12.3113 0.0000
# 3 43.2939 37.7197 91.5612 0.0000 -10.2470 0.0000
# 4 0.0000 0.0000 0.0000 14.3311 0.0000 0.6453
# 5 -6.0742 -12.3113 -10.2470 0.0000 10.9938 0.0000
# 6 0.0000 0.0000 0.0000 0.6453 0.0000 28.4996
#
#
#
# Elastic Compliance Matrix: (Units=1/GPa)
#
#
# Indices 1 2 3 4 5 6 
#
# 1 0.008345 -0.001624 -0.003309 0.000000 -0.000293 0.000000
# 2 -0.001624 0.013092 -0.003444 0.000000 0.010553 0.000000
# 3 -0.003309 -0.003444 0.014814 0.000000 0.008123 0.000000
# 4 0.000000 0.000000 0.000000 0.069850 0.000000 -0.001582
# 5 -0.000293 0.010553 0.008123 0.000000 0.110187 0.000000
# 6 0.000000 0.000000 0.000000 -0.001582 0.000000 0.035124
#
#
# Mechanical properties :
#
#
# Convention : Reuss Voigt Hill
#
# Bulk Modulus (GPa) = 51.29460 62.84793 57.07127
# Shear Modulus (GPa) = 18.20382 25.45456 21.82919
#
# Velocity S-wave (km/s) = 3.12362 3.69369 3.42055
# Velocity P-wave (km/s) = 6.36417 7.20256 6.79630
#
# Compressibility (1/GPa) = 0.01949523
#
# Stress axis : x y z
#
# Youngs Moduli (GPa) = 119.83136 76.38128 67.50158
#
# Poissons Ratio (x) = 0.12408 0.22339
# Poissons Ratio (y) = 0.19466 0.23250
# Poissons Ratio (z) = 0.39658 0.26308
#
# Static dielectric constant tensor:
#      x y z
#    x 3.598750 0.000000 -0.000750 
#    y 0.000000 3.593180 0.000000 
#    z -0.000750 0.000000 3.293590 
# 
# 
# High freq. dielectric constant tensor:
#      x y z
#    x 1.734170 0.000000 0.000870 
#    y 0.000000 1.730890 0.000000 
#    z 0.000870 0.000000 1.701240 
# 
# From -- ./inp_files/61864.got.cif
#   From: 2010.06.25/outbox.cif.g09.slc.cpg/sg10_31_cif.got.tgz:61864.got - 2010.06.27 22:07:45.
