data_PCOD8064019
_publ_section_title
;
Structure prediction by ZEFSAII (Michael W. Deem and Ramdas Pophale) SiO2 
 PCOD8064019
Probable space group: P 2/M
;
_chemical_formula_sum "Si O2"
_cell_formula_units_Z 32
_cell_length_a 14.864828
_cell_length_b 8.878906
_cell_length_c 15.075669
_cell_angle_alpha 90.000000
_cell_angle_beta 78.600282
_cell_angle_gamma 90.000000
_cell_volume 1950.484948
_symmetry_space_group_name_H-M "P 2/M"
_symmetry_group_IT_number 10
_symmetry_cell_setting 'monoclinic'
loop_
_space_group_symop_operation_xyz
x,y,z
-x,y,-z
-x,-y,-z
x,-y,z
loop_
_atom_site_type_symbol
_atom_site_label
_atom_site_fract_x
_atom_site_fract_y
_atom_site_fract_z
Si Si1 0.624566 0.674781 0.617239
Si Si2 0.437198 0.322551 0.889122
Si Si3 0.116071 0.326253 0.567820
Si Si4 0.743973 0.177058 0.746567
Si Si5 0.586842 0.324857 0.302186
Si Si6 0.633830 0.321951 0.913120
Si Si7 0.702718 0.176499 0.427456
Si Si8 0.090063 0.326512 0.367783
O O1 0.650563 0.500000 0.616849
O O2 0.676146 0.754663 0.687146
O O3 0.516724 0.701553 0.646488
O O4 0.655057 0.737463 0.517127
O O5 0.449245 0.500000 0.883234
O O6 0.400855 0.265712 0.801326
O O7 0.539046 0.260293 0.889011
O O8 0.366891 0.279009 0.981895
O O9 0.134206 0.500000 0.588183
O O10 0.190650 0.222172 0.601282
O O11 0.124390 0.302027 0.461110
O O12 0.015707 0.276369 0.621210
O O13 0.717164 0.236494 0.849348
O O14 0.848835 0.224820 0.708586
O O15 0.735853 0.000000 0.744516
O O16 0.614100 0.500000 0.306833
O O17 0.653856 0.222278 0.346241
O O18 0.645773 0.500000 0.896972
O O19 0.693670 0.000000 0.445200
O O20 0.101270 0.500000 0.338467
#
# Coordination Sequence:
#
# PCOD8064019 Si02
#       8
#     4   4   4   4   4   4   4   4
#     4  11  21  35  52  68  94 135 179 212 237 277
#     4   8  15  30  53  75  92 122 172 215 243 278
#     4   9  18  34  54  73  93 125 168 208 242 287
#     4  12  22  30  46  76 108 135 160 195 249 306
#     4  10  20  35  53  71  93 132 178 212 241 281
#     4   9  16  31  53  73  96 127 165 208 247 289
#     4  12  24  34  47  72 104 135 165 203 249 296
#     4   9  18  33  54  74  94 125 166 206 245 288
#
# _framework density 16.406175000000001
#
# number of rings (size 3 to 8) (size 9 to 14) (size 15 to 20)
#    0.000    2.000    2.500    4.500    0.000    3.000 
#    0.000    3.125    0.000    0.000    0.000    0.875 
#    0.000    7.000    0.000    0.000    0.000    0.000 
#
# Total GULP energy -396793.768655 kJ/mol
# GULP energy per Si atom -12399.805270 kJ/mol
# Density = 1.636883 g / cm^3
# Si number density = 16.406175 Si / 1000 Ang^3
#
#
#
# Elastic Constant Matrix: (Units=GPa)
#
#
# Indices 1 2 3 4 5 6 
#
# 1 84.4533 46.1291 53.1412 0.0000 -9.8403 0.0000
# 2 46.1291 84.6883 44.8445 0.0000 -10.6803 0.0000
# 3 53.1412 44.8445 107.8325 0.0000 -10.0233 0.0000
# 4 0.0000 0.0000 0.0000 9.9465 0.0000 4.5561
# 5 -9.8403 -10.6803 -10.0233 0.0000 20.7619 0.0000
# 6 0.0000 0.0000 0.0000 4.5561 0.0000 8.1609
#
#
#
# Elastic Compliance Matrix: (Units=1/GPa)
#
#
# Indices 1 2 3 4 5 6 
#
# 1 0.020330 -0.007133 -0.006803 0.000000 0.002682 0.000000
# 2 -0.007133 0.018152 -0.003643 0.000000 0.004198 0.000000
# 3 -0.006803 -0.003643 0.014310 0.000000 0.001810 0.000000
# 4 0.000000 0.000000 0.000000 0.135082 0.000000 -0.075415
# 5 0.002682 0.004198 0.001810 0.000000 0.052469 0.000000
# 6 0.000000 0.000000 0.000000 -0.075415 0.000000 0.164639
#
#
# Mechanical properties :
#
#
# Convention : Reuss Voigt Hill
#
# Bulk Modulus (GPa) = 56.71322 62.80041 59.75681
# Shear Modulus (GPa) = 11.21025 16.63115 13.92070
#
# Velocity S-wave (km/s) = 2.61683 3.18734 2.91607
# Velocity P-wave (km/s) = 6.61616 7.20466 6.91667
#
# Compressibility (1/GPa) = 0.01763257
#
# Stress axis : x y z
#
# Youngs Moduli (GPa) = 49.18738 55.09016 69.88197
#
# Poissons Ratio (x) = 0.39296 0.47543
# Poissons Ratio (y) = 0.35086 0.25461
# Poissons Ratio (z) = 0.33464 0.20072
#
# Static dielectric constant tensor:
#      x y z
#    x 3.052450 0.000000 -0.068750 
#    y 0.000000 2.933000 0.000000 
#    z -0.068750 0.000000 3.294810 
# 
# 
# High freq. dielectric constant tensor:
#      x y z
#    x 1.615840 0.000000 -0.012660 
#    y 0.000000 1.619550 0.000000 
#    z -0.012660 0.000000 1.622750 
# 
# From -- ./inp_files/66090.got.cif
#   From: 2010.06.25/outbox.cif.g09.slc.cpg/sg10_34_cif.got.tgz:66090.got - 2010.06.27 22:07:45.
