data_PCOD8064328
_publ_section_title
;
Structure prediction by ZEFSAII (Michael W. Deem and Ramdas Pophale) SiO2 
 PCOD8064328
Probable space group: P 2/M
;
_chemical_formula_sum "Si O2"
_cell_formula_units_Z 32
_cell_length_a 21.739879
_cell_length_b 9.232934
_cell_length_c 27.957322
_cell_angle_alpha 90.000000
_cell_angle_beta 162.426209
_cell_angle_gamma 90.000000
_cell_volume 1694.354224
_symmetry_space_group_name_H-M "P 2/M"
_symmetry_group_IT_number 10
_symmetry_cell_setting 'monoclinic'
loop_
_space_group_symop_operation_xyz
x,y,z
-x,y,-z
-x,-y,-z
x,-y,z
loop_
_atom_site_type_symbol
_atom_site_label
_atom_site_fract_x
_atom_site_fract_y
_atom_site_fract_z
Si Si1 0.759783 0.839905 0.783455
Si Si2 0.933158 0.335567 0.712674
Si Si3 0.637604 0.169710 0.058091
Si Si4 0.605594 0.667370 0.939183
Si Si5 0.435444 0.334904 0.501311
Si Si6 0.108244 0.171359 0.410962
Si Si7 0.465638 0.327119 0.731123
Si Si8 0.823790 0.837193 0.942888
O O1 0.566694 0.736013 0.640008
O O2 0.808277 0.843109 0.874786
O O3 0.699964 0.000000 0.721832
O O4 0.939161 0.785220 0.879292
O O5 0.917560 0.500000 0.681064
O O6 0.802307 0.315364 0.663590
O O7 0.843963 0.226944 0.606808
O O8 0.159057 0.297587 0.896823
O O9 0.545749 0.243596 0.942239
O O10 0.870718 0.212166 0.244016
O O11 0.619358 0.000000 0.035721
O O12 0.500000 0.222641 0.000000
O O13 0.568267 0.500000 0.923365
O O14 0.482403 0.712347 0.800112
O O15 0.500000 0.256782 0.500000
O O16 0.501958 0.500000 0.548745
O O17 0.257302 0.252368 0.558576
O O18 0.148144 0.000000 0.444172
O O19 0.454344 0.500000 0.715441
O O20 0.664973 0.270101 0.850781
O O21 0.790732 0.000000 0.939373
#
# Coordination Sequence:
#
# PCOD8064328 Si02
#       8
#     4   4   4   4   4   4   4   4
#     4   9  19  35  50  68  96 130 173 223 274 325
#     4   9  18  35  54  73 102 139 181 227 269 318
#     4   9  19  38  63  88 112 141 179 218 257 310
#     4   9  20  36  55  81 112 145 180 219 266 317
#     4  10  21  32  47  69  97 132 173 221 272 318
#     4  10  20  35  57  83 109 140 176 216 263 316
#     4  11  22  34  53  81 112 143 179 221 266 316
#     4   9  19  35  53  71  97 134 174 222 273 320
#
# _framework density 18.886251999999999
#
# number of rings (size 3 to 8) (size 9 to 14) (size 15 to 20)
#    0.000    2.500    0.000    2.250    1.750    5.500 
#    0.000    1.875    0.000    3.750    0.000    0.000 
#    0.000    0.000    0.000    0.000    0.000    0.000 
#
# Total GULP energy -396477.673306 kJ/mol
# GULP energy per Si atom -12389.927291 kJ/mol
# Density = 1.884327 g / cm^3
# Si number density = 18.886252 Si / 1000 Ang^3
#
#
#
# Elastic Constant Matrix: (Units=GPa)
#
#
# Indices 1 2 3 4 5 6 
#
# 1 116.2411 48.5142 45.2962 0.0000 1.9159 0.0000
# 2 48.5142 70.4524 35.4559 0.0000 -3.6050 0.0000
# 3 45.2962 35.4559 72.9037 0.0000 -9.4325 0.0000
# 4 0.0000 0.0000 0.0000 30.6320 0.0000 1.5040
# 5 1.9159 -3.6050 -9.4325 0.0000 27.4513 0.0000
# 6 0.0000 0.0000 0.0000 1.5040 0.0000 26.7441
#
#
#
# Elastic Compliance Matrix: (Units=1/GPa)
#
#
# Indices 1 2 3 4 5 6 
#
# 1 0.013720 -0.006759 -0.005731 0.000000 -0.003814 0.000000
# 2 -0.006759 0.022136 -0.006415 0.000000 0.001175 0.000000
# 3 -0.005731 -0.006415 0.021286 0.000000 0.006872 0.000000
# 4 0.000000 0.000000 0.000000 0.032736 0.000000 -0.001841
# 5 -0.003814 0.001175 0.006872 0.000000 0.039210 0.000000
# 6 0.000000 0.000000 0.000000 -0.001841 0.000000 0.037495
#
#
# Mechanical properties :
#
#
# Convention : Reuss Voigt Hill
#
# Bulk Modulus (GPa) = 51.72179 57.56998 54.64589
# Shear Modulus (GPa) = 23.71522 25.65419 24.68470
#
# Velocity S-wave (km/s) = 3.54741 3.68958 3.61919
# Velocity P-wave (km/s) = 6.65013 6.97849 6.81629
#
# Compressibility (1/GPa) = 0.01933421
#
# Stress axis : x y z
#
# Youngs Moduli (GPa) = 72.88879 45.17471 46.97914
#
# Poissons Ratio (x) = 0.30531 0.26922
# Poissons Ratio (y) = 0.49262 0.30135
# Poissons Ratio (z) = 0.41771 0.28978
#
# Static dielectric constant tensor:
#      x y z
#    x 3.488850 0.000000 0.110510 
#    y 0.000000 3.473430 0.000000 
#    z 0.110510 0.000000 3.666760 
# 
# 
# High freq. dielectric constant tensor:
#      x y z
#    x 1.723850 0.000000 0.000570 
#    y 0.000000 1.732060 0.000000 
#    z 0.000570 0.000000 1.730350 
# 
# From -- ./inp_files/93780.got.cif
#   From: 2010.06.25/outbox.cif.g09.slc.cpg/sg10_47_cif.got.tgz:93780.got - 2010.06.27 22:07:45.
