data_PCOD8064791
_publ_section_title
;
Structure prediction by ZEFSAII (Michael W. Deem and Ramdas Pophale) SiO2 
 PCOD8064791
Probable space group: P 2/M
;
_chemical_formula_sum "Si O2"
_cell_formula_units_Z 24
_cell_length_a 14.861855
_cell_length_b 8.816477
_cell_length_c 9.446402
_cell_angle_alpha 90.000000
_cell_angle_beta 97.453766
_cell_angle_gamma 90.000000
_cell_volume 1227.295330
_symmetry_space_group_name_H-M "P 2/M"
_symmetry_group_IT_number 10
_symmetry_cell_setting 'monoclinic'
loop_
_space_group_symop_operation_xyz
x,y,z
-x,y,-z
-x,-y,-z
x,-y,z
loop_
_atom_site_type_symbol
_atom_site_label
_atom_site_fract_x
_atom_site_fract_y
_atom_site_fract_z
Si Si1 0.918249 0.321733 0.385821
Si Si2 0.752807 0.320268 0.550544
Si Si3 0.254097 0.179293 0.147802
Si Si4 0.554328 0.676862 0.869608
Si Si5 0.569797 0.334536 0.391400
Si Si6 0.915279 0.820854 0.075656
O O1 0.926516 0.500000 0.363276
O O2 0.828074 0.276553 0.451763
O O3 0.919425 0.246040 0.233192
O O4 0.000000 0.261195 0.500000
O O5 0.745226 0.500000 0.574342
O O6 0.773138 0.245210 0.705300
O O7 0.659462 0.250279 0.467209
O O8 0.349776 0.239507 0.109708
O O9 0.258653 0.000000 0.162262
O O10 0.177418 0.230655 0.020273
O O11 0.572797 0.500000 0.838474
O O12 0.485685 0.753291 0.741630
O O13 0.500000 0.701415 0.000000
O O14 0.500000 0.359757 0.500000
O O15 0.600782 0.500000 0.338132
O O16 0.920410 0.000000 0.091368
O O17 0.000000 0.760448 0.000000
#
# Coordination Sequence:
#
# PCOD8064791 Si02
#       6
#     4   4   4   4   4   4
#     4  10  22  38  60  92 119 141 182 244 297 334
#     4  10  20  36  59  83 114 150 188 234 285 343
#     4  11  23  38  57  84 117 151 193 241 287 333
#     4  10  21  36  58  83 111 152 197 233 281 346
#     4   9  16  31  54  80 107 142 188 230 266 328
#     4  10  23  42  61  82 114 158 197 229 277 349
#
# _framework density 19.555195000000001
#
# number of rings (size 3 to 8) (size 9 to 14) (size 15 to 20)
#    0.000    2.000    1.667    1.500    2.333    3.000 
#    0.000    1.667    0.000    0.000    0.000    0.000 
#    0.000    0.000    0.000    0.000    0.000    0.000 
#
# Total GULP energy -297500.315705 kJ/mol
# GULP energy per Si atom -12395.846488 kJ/mol
# Density = 1.951069 g / cm^3
# Si number density = 19.555195 Si / 1000 Ang^3
#
#
#
# Elastic Constant Matrix: (Units=GPa)
#
#
# Indices 1 2 3 4 5 6 
#
# 1 168.0707 40.7976 100.4812 0.0000 14.8701 0.0000
# 2 40.7976 42.4502 42.8170 0.0000 3.4070 0.0000
# 3 100.4812 42.8170 179.5740 0.0000 15.0205 0.0000
# 4 0.0000 0.0000 0.0000 27.5312 0.0000 3.8675
# 5 14.8701 3.4070 15.0205 0.0000 42.2554 0.0000
# 6 0.0000 0.0000 0.0000 3.8675 0.0000 17.2477
#
#
#
# Elastic Compliance Matrix: (Units=1/GPa)
#
#
# Indices 1 2 3 4 5 6 
#
# 1 0.009804 -0.005129 -0.004132 0.000000 -0.001568 0.000000
# 2 -0.005129 0.033700 -0.005245 0.000000 0.000952 0.000000
# 3 -0.004132 -0.005245 0.009249 0.000000 -0.001411 0.000000
# 4 0.000000 0.000000 0.000000 0.037504 0.000000 -0.008409
# 5 -0.001568 0.000952 -0.001411 0.000000 0.024642 0.000000
# 6 0.000000 0.000000 0.000000 -0.008409 0.000000 0.059864
#
#
# Mechanical properties :
#
#
# Convention : Reuss Voigt Hill
#
# Bulk Modulus (GPa) = 42.11959 84.25404 63.18682
# Shear Modulus (GPa) = 23.61962 31.14016 27.37989
#
# Velocity S-wave (km/s) = 3.47917 3.99485 3.74590
# Velocity P-wave (km/s) = 6.14208 8.02852 7.14781
#
# Compressibility (1/GPa) = 0.02374192
#
# Stress axis : x y z
#
# Youngs Moduli (GPa) = 102.00268 29.67337 108.11680
#
# Poissons Ratio (x) = 0.15219 0.44670
# Poissons Ratio (y) = 0.52316 0.56709
# Poissons Ratio (z) = 0.42144 0.15564
#
# Static dielectric constant tensor:
#      x y z
#    x 3.979430 0.000000 0.101600 
#    y 0.000000 3.287570 0.000000 
#    z 0.101600 0.000000 3.661950 
# 
# 
# High freq. dielectric constant tensor:
#      x y z
#    x 1.781490 0.000000 0.006690 
#    y 0.000000 1.725730 0.000000 
#    z 0.006690 0.000000 1.777860 
# 
# From -- ./inp_files/27209.got.cif
#   From: 2010.06.25/outbox.cif.g09.slc.cpg/sg10_14_cif.got.tgz:27209.got - 2010.06.27 22:07:45.
