data_PCOD8064965
_publ_section_title
;
Structure prediction by ZEFSAII (Michael W. Deem and Ramdas Pophale) SiO2 
 PCOD8064965
Probable space group: P 2/M
;
_chemical_formula_sum "Si O2"
_cell_formula_units_Z 20
_cell_length_a 10.319583
_cell_length_b 16.000358
_cell_length_c 14.505377
_cell_angle_alpha 90.000000
_cell_angle_beta 26.193486
_cell_angle_gamma 90.000000
_cell_volume 1057.199566
_symmetry_space_group_name_H-M "P 2/M"
_symmetry_group_IT_number 10
_symmetry_cell_setting 'monoclinic'
loop_
_space_group_symop_operation_xyz
x,y,z
-x,y,-z
-x,-y,-z
x,-y,z
loop_
_atom_site_type_symbol
_atom_site_label
_atom_site_fract_x
_atom_site_fract_y
_atom_site_fract_z
Si Si1 0.704868 0.906580 0.446779
Si Si2 0.276616 0.809506 0.379496
Si Si3 0.806911 0.384969 0.537533
Si Si4 0.268713 0.500000 0.900973
Si Si5 0.839635 0.500000 0.815353
Si Si6 0.375318 0.093941 0.981024
O O1 0.500000 0.864838 0.500000
O O2 0.674166 0.854469 0.557309
O O3 0.593344 0.000000 0.539880
O O4 0.029580 0.907595 0.201527
O O5 0.230087 0.713609 0.434467
O O6 0.548305 0.833573 0.140937
O O7 0.000000 0.845695 0.500000
O O8 0.476003 0.419805 0.752398
O O9 0.000000 0.417601 0.500000
O O10 0.986186 0.417567 0.333181
O O11 0.140286 0.500000 0.086674
O O12 0.000000 0.500000 0.000000
O O13 0.500000 0.500000 0.000000
O O14 0.494763 0.000000 0.880107
O O15 0.500000 0.122291 0.000000
#
# Coordination Sequence:
#
# PCOD8064965 Si02
#       6
#     4   4   4   2   2   4
#     4  10  22  40  59  86 123 164 206 248 302 359
#     4  11  22  38  60  91 123 159 200 257 294 350
#     4  10  22  40  62  95 122 154 209 238 294 375
#     4  11  23  43  65  95 121 155 199 247 296 360
#     4  11  19  41  73  84 115 167 193 240 295 361
#     4  10  20  36  61  88 117 161 210 246 292 352
#
# _framework density 18.917904
#
# number of rings (size 3 to 8) (size 9 to 14) (size 15 to 20)
#    0.000    1.600    4.000    1.200    0.000    4.800 
#    7.200    3.000    0.000    0.000    0.000    0.000 
#    0.000    0.000    0.000    0.000    0.000    0.000 
#
# Total GULP energy -247903.735715 kJ/mol
# GULP energy per Si atom -12395.186786 kJ/mol
# Density = 1.887485 g / cm^3
# Si number density = 18.917904 Si / 1000 Ang^3
#
#
#
# Elastic Constant Matrix: (Units=GPa)
#
#
# Indices 1 2 3 4 5 6 
#
# 1 176.8844 61.6034 68.1171 0.0000 -0.2375 0.0000
# 2 61.6034 96.9300 55.8085 0.0000 17.6243 0.0000
# 3 68.1171 55.8085 115.4473 0.0000 14.7919 0.0000
# 4 0.0000 0.0000 0.0000 29.5168 0.0000 4.4938
# 5 -0.2375 17.6243 14.7919 0.0000 37.9748 0.0000
# 6 0.0000 0.0000 0.0000 4.4938 0.0000 24.6796
#
#
#
# Elastic Compliance Matrix: (Units=1/GPa)
#
#
# Indices 1 2 3 4 5 6 
#
# 1 0.008344 -0.003900 -0.003448 0.000000 0.003206 0.000000
# 2 -0.003900 0.016768 -0.005057 0.000000 -0.005837 0.000000
# 3 -0.003448 -0.005057 0.013518 0.000000 -0.002940 0.000000
# 4 0.000000 0.000000 0.000000 0.034845 0.000000 -0.006345
# 5 0.003206 -0.005837 -0.002940 0.000000 0.030208 0.000000
# 6 0.000000 0.000000 0.000000 -0.006345 0.000000 0.041675
#
#
# Mechanical properties :
#
#
# Convention : Reuss Voigt Hill
#
# Bulk Modulus (GPa) = 72.36409 84.47998 78.42204
# Shear Modulus (GPa) = 28.60815 32.01641 30.31228
#
# Velocity S-wave (km/s) = 3.89295 4.11833 4.00722
# Velocity P-wave (km/s) = 7.65124 8.20775 7.93438
#
# Compressibility (1/GPa) = 0.01381901
#
# Stress axis : x y z
#
# Youngs Moduli (GPa) = 119.84526 59.63576 73.97607
#
# Poissons Ratio (x) = 0.23260 0.25510
# Poissons Ratio (y) = 0.46745 0.37408
# Poissons Ratio (z) = 0.41328 0.30157
#
# Static dielectric constant tensor:
#      x y z
#    x 3.546930 0.000000 -0.042030 
#    y 0.000000 3.479200 0.000000 
#    z -0.042030 0.000000 3.507880 
# 
# 
# High freq. dielectric constant tensor:
#      x y z
#    x 1.736680 0.000000 0.000200 
#    y 0.000000 1.729430 0.000000 
#    z 0.000200 0.000000 1.739240 
# 
# From -- ./inp_files/7140.got.cif
#   From: 2010.06.25/outbox.cif.g09.slc.cpg/sg10_4_cif.got.tgz:7140.got - 2010.06.27 22:07:45.
