data_PCOD8064151
_publ_section_title
;
Structure prediction by ZEFSAII (Michael W. Deem and Ramdas Pophale) SiO2 
 PCOD8064151
Probable space group: P 2/M
;
_chemical_formula_sum "Si O2"
_cell_formula_units_Z 32
_cell_length_a 11.766848
_cell_length_b 9.161176
_cell_length_c 14.998617
_cell_angle_alpha 90.000000
_cell_angle_beta 93.770757
_cell_angle_gamma 90.000000
_cell_volume 1613.323239
_symmetry_space_group_name_H-M "P 2/M"
_symmetry_group_IT_number 10
_symmetry_cell_setting 'monoclinic'
loop_
_space_group_symop_operation_xyz
x,y,z
-x,y,-z
-x,-y,-z
x,-y,z
loop_
_atom_site_type_symbol
_atom_site_label
_atom_site_fract_x
_atom_site_fract_y
_atom_site_fract_z
Si Si1 0.944756 0.833475 0.584839
Si Si2 0.627702 0.327130 0.997288
Si Si3 0.411184 0.666797 0.340731
Si Si4 0.693257 0.834728 0.514127
Si Si5 0.245894 0.673054 0.175009
Si Si6 0.669021 0.666550 0.336049
Si Si7 0.018948 0.824951 0.215769
Si Si8 0.206506 0.327663 0.837808
O O1 0.809459 0.820472 0.574974
O O2 0.984537 0.766056 0.681513
O O3 0.000000 0.754674 0.500000
O O4 0.986836 0.000000 0.585830
O O5 0.618472 0.500000 0.000463
O O6 0.684478 0.276259 0.908158
O O7 0.500000 0.260631 0.000000
O O8 0.707280 0.272038 0.081838
O O9 0.387929 0.500000 0.364810
O O10 0.403141 0.756277 0.432238
O O11 0.321133 0.720982 0.263347
O O12 0.536312 0.689840 0.307131
O O13 0.711275 0.764931 0.418958
O O14 0.655097 0.000000 0.498116
O O15 0.221898 0.500000 0.172718
O O16 0.128380 0.760632 0.171231
O O17 0.693588 0.500000 0.363547
O O18 0.738343 0.714086 0.253367
O O19 0.910094 0.762099 0.158314
O O20 0.022614 0.000000 0.211483
O O21 0.181724 0.500000 0.845052
#
# Coordination Sequence:
#
# PCOD8064151 Si02
#       8
#     4   4   4   4   4   4   4   4
#     4   9  18  33  52  73 102 144 191 234 273 319
#     4   9  18  36  64  93 116 145 189 237 285 338
#     4  10  20  35  55  80 114 149 184 231 288 342
#     4  11  21  34  53  79 110 148 195 235 275 334
#     4  10  20  36  61  88 114 148 192 239 284 336
#     4  10  21  36  54  80 114 150 184 231 292 342
#     4  11  22  38  58  81 116 155 191 233 285 341
#     4  10  21  38  60  86 115 145 188 238 282 335
#
# _framework density 19.834835000000002
#
# number of rings (size 3 to 8) (size 9 to 14) (size 15 to 20)
#    0.000    2.000    1.250    2.625    0.000    7.000 
#    0.000    3.125    0.000    6.000    0.000    0.000 
#    0.000    0.000    0.000    0.000    0.000    0.000 
#
# Total GULP energy -396847.349692 kJ/mol
# GULP energy per Si atom -12401.479678 kJ/mol
# Density = 1.978969 g / cm^3
# Si number density = 19.834835 Si / 1000 Ang^3
#
#
#
# Elastic Constant Matrix: (Units=GPa)
#
#
# Indices 1 2 3 4 5 6 
#
# 1 121.1413 39.6873 54.9256 0.0000 -1.0742 0.0000
# 2 39.6873 59.8445 41.1622 0.0000 -0.1944 0.0000
# 3 54.9256 41.1622 125.2967 0.0000 -0.5875 0.0000
# 4 0.0000 0.0000 0.0000 15.4621 0.0000 2.8101
# 5 -1.0742 -0.1944 -0.5875 0.0000 36.4483 0.0000
# 6 0.0000 0.0000 0.0000 2.8101 0.0000 17.7804
#
#
#
# Elastic Compliance Matrix: (Units=1/GPa)
#
#
# Indices 1 2 3 4 5 6 
#
# 1 0.011503 -0.005375 -0.003276 0.000000 0.000258 0.000000
# 2 -0.005375 0.024099 -0.005562 0.000000 -0.000120 0.000000
# 3 -0.003276 -0.005562 0.011244 0.000000 0.000055 0.000000
# 4 0.000000 0.000000 0.000000 0.066587 0.000000 -0.010524
# 5 0.000258 -0.000120 0.000055 0.000000 0.027444 0.000000
# 6 0.000000 0.000000 0.000000 -0.010524 0.000000 0.057905
#
#
# Mechanical properties :
#
#
# Convention : Reuss Voigt Hill
#
# Bulk Modulus (GPa) = 54.28015 64.20364 59.24189
# Shear Modulus (GPa) = 21.42729 25.30531 23.36630
#
# Velocity S-wave (km/s) = 3.29034 3.57571 3.43599
# Velocity P-wave (km/s) = 6.46997 7.03470 6.75824
#
# Compressibility (1/GPa) = 0.01842294
#
# Stress axis : x y z
#
# Youngs Moduli (GPa) = 86.93312 41.49512 88.93382
#
# Poissons Ratio (x) = 0.22302 0.29132
# Poissons Ratio (y) = 0.46723 0.49461
# Poissons Ratio (z) = 0.28476 0.23078
#
# Static dielectric constant tensor:
#      x y z
#    x 3.662860 0.000000 0.006960 
#    y 0.000000 3.287300 0.000000 
#    z 0.006960 0.000000 3.724980 
# 
# 
# High freq. dielectric constant tensor:
#      x y z
#    x 1.786380 0.000000 -0.000880 
#    y 0.000000 1.738620 0.000000 
#    z -0.000880 0.000000 1.779270 
# 
# From -- ./inp_files/63798.got.cif
#   From: 2010.06.25/outbox.cif.g09.slc.cpg/sg10_32_cif.got.tgz:63798.got - 2010.06.27 22:07:45.
