data_PCOD8064675
_publ_section_title
;
Structure prediction by ZEFSAII (Michael W. Deem and Ramdas Pophale) SiO2 
 PCOD8064675
Probable space group: P 2/M
;
_chemical_formula_sum "Si O2"
_cell_formula_units_Z 32
_cell_length_a 26.195848
_cell_length_b 9.227023
_cell_length_c 21.729141
_cell_angle_alpha 90.000000
_cell_angle_beta 161.448818
_cell_angle_gamma 90.000000
_cell_volume 1670.978335
_symmetry_space_group_name_H-M "P 2/M"
_symmetry_group_IT_number 10
_symmetry_cell_setting 'monoclinic'
loop_
_space_group_symop_operation_xyz
x,y,z
-x,y,-z
-x,-y,-z
x,-y,z
loop_
_atom_site_type_symbol
_atom_site_label
_atom_site_fract_x
_atom_site_fract_y
_atom_site_fract_z
Si Si1 0.026694 0.661212 0.894489
Si Si2 0.152481 0.671985 0.425572
Si Si3 0.647127 0.666125 0.125301
Si Si4 0.475709 0.328363 0.732618
Si Si5 0.690465 0.340080 0.579446
Si Si6 0.830615 0.161824 0.840879
Si Si7 0.049653 0.332327 0.442267
Si Si8 0.726507 0.172707 0.096122
O O1 0.100175 0.500000 0.972657
O O2 0.984609 0.727771 0.778928
O O3 0.862762 0.654358 0.744715
O O4 0.156168 0.758874 0.078097
O O5 0.155706 0.500000 0.424219
O O6 0.328823 0.727148 0.607685
O O7 0.111791 0.725125 0.447380
O O8 0.627210 0.500000 0.079899
O O9 0.811406 0.686081 0.349483
O O10 0.641276 0.771849 0.060570
O O11 0.500000 0.711415 0.000000
O O12 0.505590 0.500000 0.774815
O O13 0.439242 0.289629 0.619648
O O14 0.632852 0.238476 0.930681
O O15 0.646275 0.500000 0.553208
O O16 0.693912 0.234470 0.642096
O O17 0.773605 0.000000 0.789083
O O18 0.000000 0.166092 0.000000
O O19 0.993852 0.500000 0.374413
O O20 0.906876 0.231208 0.301390
O O21 0.725773 0.000000 0.092916
#
# Coordination Sequence:
#
# PCOD8064675 Si02
#       8
#     4   4   4   4   4   4   4   4
#     4   8  13  23  40  63  92 123 158 203 254 302
#     4   8  15  30  54  79  98 124 169 222 264 299
#     4  10  21  39  64  87 104 129 169 214 255 297
#     4   9  17  33  55  76  99 130 174 221 261 304
#     4   8  14  24  41  64  90 123 162 208 257 299
#     4   9  15  21  32  56  93 132 165 198 241 298
#     4  10  20  36  58  80 103 134 172 211 252 298
#     4  12  25  37  51  76 111 144 171 203 248 303
#
# _framework density 19.150458
#
# number of rings (size 3 to 8) (size 9 to 14) (size 15 to 20)
#    0.000    2.750    0.000    4.125    0.000    6.250 
#    0.000    4.375    0.000    0.000    0.000    0.875 
#    0.000    7.000    0.000    0.000    0.000    0.000 
#
# Total GULP energy -396711.843968 kJ/mol
# GULP energy per Si atom -12397.245124 kJ/mol
# Density = 1.910687 g / cm^3
# Si number density = 19.150458 Si / 1000 Ang^3
#
#
#
# Elastic Constant Matrix: (Units=GPa)
#
#
# Indices 1 2 3 4 5 6 
#
# 1 17.2772 17.6725 24.6166 0.0000 -7.8761 0.0000
# 2 17.6725 98.9952 52.5412 0.0000 -10.7197 0.0000
# 3 24.6166 52.5412 99.3123 0.0000 -15.4430 0.0000
# 4 0.0000 0.0000 0.0000 14.9284 0.0000 -1.4531
# 5 -7.8761 -10.7197 -15.4430 0.0000 31.2798 0.0000
# 6 0.0000 0.0000 0.0000 -1.4531 0.0000 10.8648
#
#
#
# Elastic Compliance Matrix: (Units=1/GPa)
#
#
# Indices 1 2 3 4 5 6 
#
# 1 0.096632 -0.005843 -0.018835 0.000000 0.013030 0.000000
# 2 -0.005843 0.014443 -0.006122 0.000000 0.000456 0.000000
# 3 -0.018835 -0.006122 0.018319 0.000000 0.002204 0.000000
# 4 0.000000 0.000000 0.000000 0.067870 0.000000 0.009078
# 5 0.013030 0.000456 0.002204 0.000000 0.036495 0.000000
# 6 0.000000 0.000000 0.000000 0.009078 0.000000 0.093255
#
#
# Mechanical properties :
#
#
# Convention : Reuss Voigt Hill
#
# Bulk Modulus (GPa) = 14.75035 45.02726 29.88881
# Shear Modulus (GPa) = 12.15916 19.46488 15.81202
#
# Velocity S-wave (km/s) = 2.52251 3.19159 2.87657
# Velocity P-wave (km/s) = 4.02531 6.09468 5.16470
#
# Compressibility (1/GPa) = 0.06779499
#
# Stress axis : x y z
#
# Youngs Moduli (GPa) = 10.34852 69.23677 54.58729
#
# Poissons Ratio (x) = 0.40457 1.02813
# Poissons Ratio (y) = 0.06047 0.33418
# Poissons Ratio (z) = 0.19491 0.42386
#
# Static dielectric constant tensor:
#      x y z
#    x 3.449680 0.000000 -0.368440 
#    y 0.000000 3.349520 0.000000 
#    z -0.368440 0.000000 3.527070 
# 
# 
# High freq. dielectric constant tensor:
#      x y z
#    x 1.723050 0.000000 -0.030950 
#    y 0.000000 1.715560 0.000000 
#    z -0.030950 0.000000 1.744620 
# 
# From -- ./inp_files/87065.got.cif
#   From: 2010.06.25/outbox.cif.g09.slc.cpg/sg10_44_cif.got.tgz:87065.got - 2010.06.27 22:07:45.
