data_PCOD8064741
_publ_section_title
;
Structure prediction by ZEFSAII (Michael W. Deem and Ramdas Pophale) SiO2 
 PCOD8064741
Probable space group: P 2/M
;
_chemical_formula_sum "Si O2"
_cell_formula_units_Z 24
_cell_length_a 9.454804
_cell_length_b 8.768482
_cell_length_c 14.671094
_cell_angle_alpha 90.000000
_cell_angle_beta 98.059220
_cell_angle_gamma 90.000000
_cell_volume 1204.283948
_symmetry_space_group_name_H-M "P 2/M"
_symmetry_group_IT_number 10
_symmetry_cell_setting 'monoclinic'
loop_
_space_group_symop_operation_xyz
x,y,z
-x,y,-z
-x,-y,-z
x,-y,z
loop_
_atom_site_type_symbol
_atom_site_label
_atom_site_fract_x
_atom_site_fract_y
_atom_site_fract_z
Si Si1 0.381849 0.678460 0.913984
Si Si2 0.455794 0.320753 0.247568
Si Si3 0.869253 0.824943 0.554610
Si Si4 0.397748 0.167466 0.574078
Si Si5 0.137625 0.680660 0.251829
Si Si6 0.073268 0.180359 0.912711
O O1 0.345863 0.500000 0.903602
O O2 0.450631 0.744828 0.827207
O O3 0.236331 0.764491 0.924755
O O4 0.500000 0.712378 0.000000
O O5 0.445134 0.500000 0.236270
O O6 0.536027 0.280926 0.347210
O O7 0.293397 0.256054 0.234103
O O8 0.742975 0.756570 0.481182
O O9 0.892090 0.726166 0.646815
O O10 0.000000 0.811859 0.500000
O O11 0.837086 0.000000 0.580348
O O12 0.500000 0.142745 0.500000
O O13 0.366635 0.000000 0.615698
O O14 0.129847 0.500000 0.242370
O O15 0.014332 0.751789 0.179192
O O16 0.071017 0.000000 0.904171
O O17 0.000000 0.235651 0.000000
#
# Coordination Sequence:
#
# PCOD8064741 Si02
#       6
#     4   4   4   4   4   4
#     4  10  22  42  66  92 123 157 196 244 300 361
#     4  10  22  38  60  90 121 156 199 249 298 352
#     4  10  22  39  58  84 122 163 204 249 298 354
#     4  10  20  36  58  84 116 160 203 243 295 351
#     4  11  23  40  63  90 121 161 203 247 303 358
#     4  11  25  43  64  91 123 158 199 247 299 358
#
# _framework density 19.928856
#
# number of rings (size 3 to 8) (size 9 to 14) (size 15 to 20)
#    0.000    1.667    1.667    2.000    2.333    5.667 
#    0.000    0.000    0.000    0.000    0.000    0.000 
#    0.000    0.000    0.000    0.000    0.000    0.000 
#
# Total GULP energy -297584.163023 kJ/mol
# GULP energy per Si atom -12399.340126 kJ/mol
# Density = 1.988350 g / cm^3
# Si number density = 19.928856 Si / 1000 Ang^3
#
#
#
# Elastic Constant Matrix: (Units=GPa)
#
#
# Indices 1 2 3 4 5 6 
#
# 1 135.3064 35.2031 62.3963 0.0000 7.0464 0.0000
# 2 35.2031 46.9076 28.7152 0.0000 -1.3882 0.0000
# 3 62.3963 28.7152 106.8337 0.0000 1.2588 0.0000
# 4 0.0000 0.0000 0.0000 16.6730 0.0000 -19.4922
# 5 7.0464 -1.3882 1.2588 0.0000 39.5584 0.0000
# 6 0.0000 0.0000 0.0000 -19.4922 0.0000 4.4983
#
#
#
# Elastic Compliance Matrix: (Units=1/GPa)
#
#
# Indices 1 2 3 4 5 6 
#
# 1 0.011247 -0.005379 -0.005099 0.000000 -0.002030 0.000000
# 2 -0.005379 0.028139 -0.004446 0.000000 0.002087 0.000000
# 3 -0.005099 -0.004446 0.013530 0.000000 0.000322 0.000000
# 4 0.000000 0.000000 0.000000 -0.014751 0.000000 -0.063920
# 5 -0.002030 0.002087 0.000322 0.000000 0.025704 0.000000
# 6 0.000000 0.000000 0.000000 -0.063920 0.000000 -0.054675
#
#
# Mechanical properties :
#
#
# Convention : Reuss Voigt Hill
#
# Bulk Modulus (GPa) = 43.35223 60.18632 51.76927
# Shear Modulus (GPa) = 106.99331 22.99483 64.99407
#
# Velocity S-wave (km/s) = 7.33513 3.40052 5.71698
# Velocity P-wave (km/s) = 9.67159 6.75901 8.34337
#
# Compressibility (1/GPa) = 0.02306686
#
# Stress axis : x y z
#
# Youngs Moduli (GPa) = 88.90904 35.53768 73.91086
#
# Poissons Ratio (x) = 0.19117 0.37689
# Poissons Ratio (y) = 0.47828 0.32861
# Poissons Ratio (z) = 0.45337 0.15800
#
# Static dielectric constant tensor:
#      x y z
#    x 6.509240 0.000000 -1.152310 
#    y 0.000000 3.537360 0.000000 
#    z -1.152310 0.000000 4.105180 
# 
# 
# High freq. dielectric constant tensor:
#      x y z
#    x 1.796450 0.000000 0.002640 
#    y 0.000000 1.764120 0.000000 
#    z 0.002640 0.000000 1.787240 
# 
# From -- ./inp_files/60382.got.cif
#   From: 2010.06.25/outbox.cif.g09.slc.cpg/sg10_31_cif.got.tgz:60382.got - 2010.06.27 22:07:45.
