data_PCOD8064183
_publ_section_title
;
Structure prediction by ZEFSAII (Michael W. Deem and Ramdas Pophale) SiO2 
 PCOD8064183
Probable space group: P 2/M
;
_chemical_formula_sum "Si O2"
_cell_formula_units_Z 24
_cell_length_a 24.172942
_cell_length_b 8.855270
_cell_length_c 7.656388
_cell_angle_alpha 90.000000
_cell_angle_beta 51.497576
_cell_angle_gamma 90.000000
_cell_volume 1282.581602
_symmetry_space_group_name_H-M "P 2/M"
_symmetry_group_IT_number 10
_symmetry_cell_setting 'monoclinic'
loop_
_space_group_symop_operation_xyz
x,y,z
-x,y,-z
-x,-y,-z
x,-y,z
loop_
_atom_site_type_symbol
_atom_site_label
_atom_site_fract_x
_atom_site_fract_y
_atom_site_fract_z
Si Si1 0.919026 0.676081 0.189232
Si Si2 0.836916 0.178983 0.658636
Si Si3 0.320910 0.823106 0.061805
Si Si4 0.174397 0.322196 0.955733
Si Si5 0.421221 0.820808 0.162233
Si Si6 0.322877 0.176473 0.666756
O O1 0.908654 0.500000 0.248725
O O2 0.893610 0.767677 0.407264
O O3 0.875671 0.727038 0.104683
O O4 0.000000 0.718481 0.000000
O O5 0.758814 0.239063 0.756921
O O6 0.856240 0.245178 0.809977
O O7 0.837531 0.000000 0.673190
O O8 0.374277 0.749475 0.097404
O O9 0.319452 0.000000 0.098791
O O10 0.348153 0.785279 0.813383
O O11 0.174225 0.500000 0.985002
O O12 0.252977 0.267810 0.754262
O O13 0.386049 0.774864 0.414922
O O14 0.425537 0.000000 0.133398
O O15 0.500000 0.751207 0.000000
O O16 0.304236 0.000000 0.684673
#
# Coordination Sequence:
#
# PCOD8064183 Si02
#       6
#     4   4   4   4   4   4
#     4  10  22  38  54  75 105 139 171 206 253 307
#     4  10  20  35  56  79 104 134 170 214 258 301
#     4   8  15  27  43  66  94 124 158 199 247 291
#     4  10  20  35  56  78 101 133 173 213 253 303
#     4   9  16  25  41  68  99 128 159 200 250 298
#     4   9  17  30  48  70  97 127 163 208 251 293
#
# _framework density 18.712257999999999
#
# number of rings (size 3 to 8) (size 9 to 14) (size 15 to 20)
#    0.000    2.667    0.000    3.000    0.000    4.333 
#    0.000    6.667    0.000    0.500    0.000    4.667 
#    0.000    0.000    0.000    0.000    0.000    0.000 
#
# Total GULP energy -297585.982959 kJ/mol
# GULP energy per Si atom -12399.415957 kJ/mol
# Density = 1.866967 g / cm^3
# Si number density = 18.712258 Si / 1000 Ang^3
#
#
#
# Elastic Constant Matrix: (Units=GPa)
#
#
# Indices 1 2 3 4 5 6 
#
# 1 72.2522 15.3968 65.9275 0.0000 3.7414 0.0000
# 2 15.3968 38.9730 35.9221 0.0000 3.5000 0.0000
# 3 65.9275 35.9221 158.6215 0.0000 7.5249 0.0000
# 4 0.0000 0.0000 0.0000 19.1509 0.0000 3.3209
# 5 3.7414 3.5000 7.5249 0.0000 22.8544 0.0000
# 6 0.0000 0.0000 0.0000 3.3209 0.0000 17.9674
#
#
#
# Elastic Compliance Matrix: (Units=1/GPa)
#
#
# Indices 1 2 3 4 5 6 
#
# 1 0.022307 -0.000303 -0.009175 0.000000 -0.000584 0.000000
# 2 -0.000303 0.032583 -0.007130 0.000000 -0.002593 0.000000
# 3 -0.009175 -0.007130 0.011794 0.000000 -0.001289 0.000000
# 4 0.000000 0.000000 0.000000 0.053946 0.000000 -0.009971
# 5 -0.000584 -0.002593 -0.001289 0.000000 0.044672 0.000000
# 6 0.000000 0.000000 0.000000 -0.009971 0.000000 0.057499
#
#
# Mechanical properties :
#
#
# Convention : Reuss Voigt Hill
#
# Bulk Modulus (GPa) = 29.87987 56.03771 42.95879
# Shear Modulus (GPa) = 18.71438 22.16788 20.44113
#
# Velocity S-wave (km/s) = 3.16589 3.44564 3.30872
# Velocity P-wave (km/s) = 5.41909 6.77067 6.13223
#
# Compressibility (1/GPa) = 0.03346735
#
# Stress axis : x y z
#
# Youngs Moduli (GPa) = 44.82846 30.69063 84.79215
#
# Poissons Ratio (x) = 0.00931 0.77797
# Poissons Ratio (y) = 0.01360 0.60455
# Poissons Ratio (z) = 0.41130 0.21882
#
# Static dielectric constant tensor:
#      x y z
#    x 3.692450 0.000000 0.014680 
#    y 0.000000 3.078500 0.000000 
#    z 0.014680 0.000000 3.515440 
# 
# 
# High freq. dielectric constant tensor:
#      x y z
#    x 1.730870 0.000000 0.009300 
#    y 0.000000 1.689970 0.000000 
#    z 0.009300 0.000000 1.734320 
# 
# From -- ./inp_files/35643.got.cif
#   From: 2010.06.25/outbox.cif.g09.slc.cpg/sg10_18_cif.got.tgz:35643.got - 2010.06.27 22:07:45.
