data_PCOD8064408
_publ_section_title
;
Structure prediction by ZEFSAII (Michael W. Deem and Ramdas Pophale) SiO2 
 PCOD8064408
Probable space group: P 2/M
;
_chemical_formula_sum "Si O2"
_cell_formula_units_Z 26
_cell_length_a 11.621239
_cell_length_b 7.490902
_cell_length_c 14.277172
_cell_angle_alpha 90.000000
_cell_angle_beta 89.532841
_cell_angle_gamma 90.000000
_cell_volume 1242.837372
_symmetry_space_group_name_H-M "P 2/M"
_symmetry_group_IT_number 10
_symmetry_cell_setting 'monoclinic'
loop_
_space_group_symop_operation_xyz
x,y,z
-x,y,-z
-x,-y,-z
x,-y,z
loop_
_atom_site_type_symbol
_atom_site_label
_atom_site_fract_x
_atom_site_fract_y
_atom_site_fract_z
Si Si1 0.025419 0.206022 0.218491
Si Si2 0.289188 0.500000 0.999142
Si Si3 0.227539 0.794101 0.338615
Si Si4 0.645081 0.500000 0.781993
Si Si5 0.872303 0.198626 0.963211
Si Si6 0.215860 0.203267 0.724921
Si Si7 0.873120 0.293623 0.472955
Si Si8 0.619939 0.500000 0.201552
O O1 0.092059 0.233886 0.314914
O O2 0.111138 0.287826 0.139773
O O3 0.897252 0.286205 0.222100
O O4 0.010032 0.000000 0.191259
O O5 0.338933 0.500000 0.104611
O O6 0.213241 0.324183 0.979329
O O7 0.379943 0.500000 0.912799
O O8 0.306577 0.675552 0.270218
O O9 0.225164 0.736039 0.446691
O O10 0.266222 0.000000 0.325044
O O11 0.510046 0.500000 0.763722
O O12 0.817649 0.000000 0.962544
O O13 0.000000 0.194082 0.000000
O O14 0.182632 0.196527 0.615775
O O15 0.322549 0.325025 0.752930
O O16 0.242992 0.000000 0.755973
O O17 0.886123 0.500000 0.448320
O O18 0.000000 0.215476 0.500000
#
# Coordination Sequence:
#
# PCOD8064408 Si02
#       8
#     4   2   4   2   4   4   4   2
#     4   9  18  33  59  93 130 166 199 247 317 389
#     4  12  24  42  68  90 118 169 219 274 330 378
#     4  11  22  40  67  99 131 167 211 260 318 382
#     4  12  27  47  67  88 126 172 226 284 317 365
#     4  10  20  35  57  93 133 163 198 251 322 401
#     4  11  23  42  66  95 137 177 210 261 323 385
#     4  11  21  36  66 107 142 172 205 250 319 399
#     4  12  29  47  63  90 124 170 234 278 317 377
#
# _framework density 20.919874
#
# number of rings (size 3 to 8) (size 9 to 14) (size 15 to 20)
#    0.000    1.231    4.615    1.846    0.000    4.308 
#    0.000    1.538    0.000    4.615    0.000    0.000 
#    0.000    0.000    0.000    0.000    0.000    0.000 
#
# Total GULP energy -322159.060142 kJ/mol
# GULP energy per Si atom -12390.733082 kJ/mol
# Density = 2.087226 g / cm^3
# Si number density = 20.919874 Si / 1000 Ang^3
#
#
#
# Elastic Constant Matrix: (Units=GPa)
#
#
# Indices 1 2 3 4 5 6 
#
# 1 105.2238 42.8157 29.0112 0.0000 -8.4404 0.0000
# 2 42.8157 117.7669 22.4214 0.0000 -5.1695 0.0000
# 3 29.0112 22.4214 93.6767 0.0000 -7.1502 0.0000
# 4 0.0000 0.0000 0.0000 25.2449 0.0000 -0.4394
# 5 -8.4404 -5.1695 -7.1502 0.0000 22.3853 0.0000
# 6 0.0000 0.0000 0.0000 -0.4394 0.0000 22.2360
#
#
#
# Elastic Compliance Matrix: (Units=1/GPa)
#
#
# Indices 1 2 3 4 5 6 
#
# 1 0.011964 -0.003732 -0.002597 0.000000 0.002820 0.000000
# 2 -0.003732 0.010104 -0.001222 0.000000 0.000536 0.000000
# 3 -0.002597 -0.001222 0.011967 0.000000 0.002561 0.000000
# 4 0.000000 0.000000 0.000000 0.039626 0.000000 0.000783
# 5 0.002820 0.000536 0.002561 0.000000 0.046677 0.000000
# 6 0.000000 0.000000 0.000000 0.000783 0.000000 0.044988
#
#
# Mechanical properties :
#
#
# Convention : Reuss Voigt Hill
#
# Bulk Modulus (GPa) = 52.81229 56.12932 54.47081
# Shear Modulus (GPa) = 26.77546 28.80117 27.78831
#
# Velocity S-wave (km/s) = 3.58146 3.71447 3.64857
# Velocity P-wave (km/s) = 6.51170 6.72943 6.62146
#
# Compressibility (1/GPa) = 0.01893499
#
# Stress axis : x y z
#
# Youngs Moduli (GPa) = 83.58353 98.96926 83.56186
#
# Poissons Ratio (x) = 0.36930 0.21700
# Poissons Ratio (y) = 0.31189 0.10210
# Poissons Ratio (z) = 0.21705 0.12093
#
# Static dielectric constant tensor:
#      x y z
#    x 3.393870 0.000000 0.021860 
#    y 0.000000 3.749450 0.000000 
#    z 0.021860 0.000000 4.458630 
# 
# 
# High freq. dielectric constant tensor:
#      x y z
#    x 1.773760 0.000000 0.000400 
#    y 0.000000 1.822270 0.000000 
#    z 0.000400 0.000000 1.840560 
# 
# From -- ./inp_files/63166.got.cif
#   From: 2010.06.25/outbox.cif.g09.slc.cpg/sg10_32_cif.got.tgz:63166.got - 2010.06.27 22:07:45.
