data_PCOD8064315
_publ_section_title
;
Structure prediction by ZEFSAII (Michael W. Deem and Ramdas Pophale) SiO2 
 PCOD8064315
Probable space group: P 2/M
;
_chemical_formula_sum "Si O2"
_cell_formula_units_Z 28
_cell_length_a 28.956422
_cell_length_b 9.138659
_cell_length_c 9.305307
_cell_angle_alpha 90.000000
_cell_angle_beta 142.859450
_cell_angle_gamma 90.000000
_cell_volume 1486.727136
_symmetry_space_group_name_H-M "P 2/M"
_symmetry_group_IT_number 10
_symmetry_cell_setting 'monoclinic'
loop_
_space_group_symop_operation_xyz
x,y,z
-x,y,-z
-x,-y,-z
x,-y,z
loop_
_atom_site_type_symbol
_atom_site_label
_atom_site_fract_x
_atom_site_fract_y
_atom_site_fract_z
Si Si1 0.068696 0.670897 0.067464
Si Si2 0.788648 0.329878 0.383381
Si Si3 0.804436 0.333294 0.097979
Si Si4 0.071914 0.827473 0.773729
Si Si5 0.372175 0.331151 0.331770
Si Si6 0.364808 0.170536 0.021361
Si Si7 0.490418 0.831786 0.811225
O O1 0.062874 0.500000 0.016497
O O2 0.148028 0.709266 0.342247
O O3 0.062524 0.760152 0.906864
O O4 0.000000 0.720120 0.000000
O O5 0.765526 0.500000 0.328465
O O6 0.820280 0.290567 0.303255
O O7 0.713642 0.237280 0.234417
O O8 0.829865 0.500000 0.131674
O O9 0.851110 0.227794 0.110134
O O10 0.715683 0.310181 0.841076
O O11 0.000000 0.777981 0.500000
O O12 0.076932 0.000000 0.802271
O O13 0.391180 0.500000 0.350848
O O14 0.391406 0.244214 0.234863
O O15 0.423527 0.270385 0.586831
O O16 0.429538 0.202617 0.065773
O O17 0.352478 0.000000 0.019239
O O18 0.466367 0.000000 0.728466
O O19 0.500000 0.791796 0.000000
#
# Coordination Sequence:
#
# PCOD8064315 Si02
#       7
#     4   4   4   4   4   4   4
#     4  10  21  38  60  83 109 145 185 225 272 324
#     4   9  19  36  58  84 110 137 178 229 273 319
#     4   9  19  37  59  82 108 140 179 222 270 325
#     4  11  24  38  54  81 114 146 182 225 270 318
#     4  10  21  37  58  83 109 140 182 229 272 319
#     4  10  20  35  57  82 109 145 183 219 268 328
#     4  10  22  38  54  77 111 147 183 224 271 326
#
# _framework density 18.833314000000001
#
# number of rings (size 3 to 8) (size 9 to 14) (size 15 to 20)
#    0.000    2.143    0.000    3.429    0.000   10.286 
#    0.000    2.857    0.000    0.000    0.000    0.000 
#    0.000    0.000    0.000    0.000    0.000    0.000 
#
# Total GULP energy -347334.671104 kJ/mol
# GULP energy per Si atom -12404.809682 kJ/mol
# Density = 1.879045 g / cm^3
# Si number density = 18.833314 Si / 1000 Ang^3
#
#
#
# Elastic Constant Matrix: (Units=GPa)
#
#
# Indices 1 2 3 4 5 6 
#
# 1 135.2299 70.4896 76.9488 0.0000 -8.1591 0.0000
# 2 70.4896 97.3311 75.0642 0.0000 -2.1287 0.0000
# 3 76.9488 75.0642 136.6148 0.0000 -11.0000 0.0000
# 4 0.0000 0.0000 0.0000 32.4689 0.0000 -1.5148
# 5 -8.1591 -2.1287 -11.0000 0.0000 20.3877 0.0000
# 6 0.0000 0.0000 0.0000 -1.5148 0.0000 29.2779
#
#
#
# Elastic Compliance Matrix: (Units=1/GPa)
#
#
# Indices 1 2 3 4 5 6 
#
# 1 0.013005 -0.006727 -0.003415 0.000000 0.002660 0.000000
# 2 -0.006727 0.021562 -0.008462 0.000000 -0.005006 0.000000
# 3 -0.003415 -0.008462 0.014334 0.000000 0.005484 0.000000
# 4 0.000000 0.000000 0.000000 0.030873 0.000000 0.001597
# 5 0.002660 -0.005006 0.005484 0.000000 0.052550 0.000000
# 6 0.000000 0.000000 0.000000 0.001597 0.000000 0.034238
#
#
# Mechanical properties :
#
#
# Convention : Reuss Voigt Hill
#
# Bulk Modulus (GPa) = 85.50898 90.46455 87.98676
# Shear Modulus (GPa) = 24.07702 26.20511 25.14107
#
# Velocity S-wave (km/s) = 3.57939 3.73423 3.65763
# Velocity P-wave (km/s) = 7.91102 8.16892 8.04100
#
# Compressibility (1/GPa) = 0.01169468
#
# Stress axis : x y z
#
# Youngs Moduli (GPa) = 76.89569 46.37723 69.76272
#
# Poissons Ratio (x) = 0.31196 0.23823
# Poissons Ratio (y) = 0.51724 0.59033
# Poissons Ratio (z) = 0.26258 0.39244
#
# Static dielectric constant tensor:
#      x y z
#    x 3.384990 0.000000 0.004420 
#    y 0.000000 3.455710 0.000000 
#    z 0.004420 0.000000 3.571930 
# 
# 
# High freq. dielectric constant tensor:
#      x y z
#    x 1.733520 0.000000 0.003410 
#    y 0.000000 1.733560 0.000000 
#    z 0.003410 0.000000 1.740490 
# 
# From -- ./inp_files/37302.got.cif
#   From: 2010.06.25/outbox.cif.g09.slc.cpg/sg10_19_cif.got.tgz:37302.got - 2010.06.27 22:07:45.
