data_PCOD8064686
_publ_section_title
;
Structure prediction by ZEFSAII (Michael W. Deem and Ramdas Pophale) SiO2 
 PCOD8064686
Probable space group: P 2/M
;
_chemical_formula_sum "Si O2"
_cell_formula_units_Z 28
_cell_length_a 28.802840
_cell_length_b 9.174288
_cell_length_c 8.993021
_cell_angle_alpha 90.000000
_cell_angle_beta 38.784219
_cell_angle_gamma 90.000000
_cell_volume 1488.529700
_symmetry_space_group_name_H-M "P 2/M"
_symmetry_group_IT_number 10
_symmetry_cell_setting 'monoclinic'
loop_
_space_group_symop_operation_xyz
x,y,z
-x,y,-z
-x,-y,-z
x,-y,z
loop_
_atom_site_type_symbol
_atom_site_label
_atom_site_fract_x
_atom_site_fract_y
_atom_site_fract_z
Si Si1 0.644336 0.331383 0.472549
Si Si2 0.072137 0.171413 0.225767
Si Si3 0.499114 0.164440 0.179093
Si Si4 0.209755 0.673009 0.385801
Si Si5 0.203608 0.328192 0.064743
Si Si6 0.643856 0.329204 0.817643
Si Si7 0.928214 0.667137 0.078426
O O1 0.623960 0.500000 0.505243
O O2 0.575638 0.241234 0.576750
O O3 0.659317 0.292812 0.606946
O O4 0.716345 0.288336 0.199924
O O5 0.143097 0.245241 0.120750
O O6 0.000000 0.212366 0.500000
O O7 0.085566 0.000000 0.184471
O O8 0.059523 0.232368 0.093489
O O9 0.500644 0.000000 0.235340
O O10 0.500000 0.171258 0.000000
O O11 0.571098 0.248102 0.060923
O O12 0.210468 0.500000 0.383360
O O13 0.200376 0.730272 0.241487
O O14 0.286357 0.731361 0.263939
O O15 0.141563 0.729237 0.655224
O O16 0.187848 0.500000 0.093126
O O17 0.631556 0.500000 0.873260
O O18 0.914451 0.500000 0.062523
O O19 0.000000 0.678806 0.000000
#
# Coordination Sequence:
#
# PCOD8064686 Si02
#       7
#     4   4   4   4   4   4   4
#     4   9  17  30  51  77 102 132 170 214 266 317
#     4  11  24  39  55  79 112 146 178 214 260 314
#     4   9  17  29  47  72 100 131 172 218 260 308
#     4   9  18  33  54  81 108 135 173 222 270 314
#     4  10  20  36  58  81 106 138 178 221 264 313
#     4   9  16  29  49  72 101 134 170 214 263 315
#     4  10  20  36  60  86 109 137 177 222 265 311
#
# _framework density 18.810507999999999
#
# number of rings (size 3 to 8) (size 9 to 14) (size 15 to 20)
#    0.000    2.429    0.000    2.571    0.000    7.143 
#    0.000    5.714    0.000    4.286    0.000    0.000 
#    0.000    0.000    0.000    0.000    0.000    0.000 
#
# Total GULP energy -347261.092861 kJ/mol
# GULP energy per Si atom -12402.181888 kJ/mol
# Density = 1.876769 g / cm^3
# Si number density = 18.810508 Si / 1000 Ang^3
#
#
#
# Elastic Constant Matrix: (Units=GPa)
#
#
# Indices 1 2 3 4 5 6 
#
# 1 91.2639 36.7771 57.4502 0.0000 -9.7835 0.0000
# 2 36.7771 64.6303 58.2980 0.0000 -8.7369 0.0000
# 3 57.4502 58.2980 136.6835 0.0000 -9.4984 0.0000
# 4 0.0000 0.0000 0.0000 21.2983 0.0000 -1.2781
# 5 -9.7835 -8.7369 -9.4984 0.0000 33.9664 0.0000
# 6 0.0000 0.0000 0.0000 -1.2781 0.0000 10.3725
#
#
#
# Elastic Compliance Matrix: (Units=1/GPa)
#
#
# Indices 1 2 3 4 5 6 
#
# 1 0.015936 -0.004669 -0.004560 0.000000 0.002114 0.000000
# 2 -0.004669 0.026940 -0.009321 0.000000 0.002978 0.000000
# 3 -0.004560 -0.009321 0.013207 0.000000 -0.000018 0.000000
# 4 0.000000 0.000000 0.000000 0.047302 0.000000 0.005829
# 5 0.002114 0.002978 -0.000018 0.000000 0.030811 0.000000
# 6 0.000000 0.000000 0.000000 0.005829 0.000000 0.097127
#
#
# Mechanical properties :
#
#
# Convention : Reuss Voigt Hill
#
# Bulk Modulus (GPa) = 52.67884 66.40315 59.54099
# Shear Modulus (GPa) = 18.19842 22.46426 20.33134
#
# Velocity S-wave (km/s) = 3.11378 3.45953 3.29120
# Velocity P-wave (km/s) = 6.40260 7.16488 6.79444
#
# Compressibility (1/GPa) = 0.01898295
#
# Stress axis : x y z
#
# Youngs Moduli (GPa) = 62.75205 37.11977 75.71835
#
# Poissons Ratio (x) = 0.17333 0.34524
# Poissons Ratio (y) = 0.29302 0.70575
# Poissons Ratio (z) = 0.28612 0.34598
#
# Static dielectric constant tensor:
#      x y z
#    x 3.457520 0.000000 -0.122930 
#    y 0.000000 3.314950 0.000000 
#    z -0.122930 0.000000 3.633010 
# 
# 
# High freq. dielectric constant tensor:
#      x y z
#    x 1.729960 0.000000 -0.014440 
#    y 0.000000 1.708240 0.000000 
#    z -0.014440 0.000000 1.738920 
# 
# From -- ./inp_files/36991.got.cif
#   From: 2010.06.25/outbox.cif.g09.slc.cpg/sg10_19_cif.got.tgz:36991.got - 2010.06.27 22:07:45.
