data_PCOD8064615
_publ_section_title
;
Structure prediction by ZEFSAII (Michael W. Deem and Ramdas Pophale) SiO2 
 PCOD8064615
Probable space group: P 2/M
;
_chemical_formula_sum "Si O2"
_cell_formula_units_Z 28
_cell_length_a 26.910199
_cell_length_b 8.972889
_cell_length_c 9.756668
_cell_angle_alpha 90.000000
_cell_angle_beta 38.528444
_cell_angle_gamma 90.000000
_cell_volume 1467.476683
_symmetry_space_group_name_H-M "P 2/M"
_symmetry_group_IT_number 10
_symmetry_cell_setting 'monoclinic'
loop_
_space_group_symop_operation_xyz
x,y,z
-x,y,-z
-x,-y,-z
x,-y,z
loop_
_atom_site_type_symbol
_atom_site_label
_atom_site_fract_x
_atom_site_fract_y
_atom_site_fract_z
Si Si1 0.275621 0.325545 0.988886
Si Si2 0.178717 0.176104 0.698319
Si Si3 0.431844 0.170013 0.744751
Si Si4 0.026577 0.664075 0.098639
Si Si5 0.303288 0.675843 0.622952
Si Si6 0.145072 0.324278 0.484362
Si Si7 0.466037 0.170545 0.217119
O O1 0.288931 0.500000 0.966561
O O2 0.349870 0.255790 0.906888
O O3 0.269106 0.274047 0.845073
O O4 0.195734 0.277462 0.241910
O O5 0.256217 0.239348 0.605882
O O6 0.177356 0.237995 0.547288
O O7 0.183644 0.000000 0.681749
O O8 0.100172 0.222993 0.955054
O O9 0.500000 0.239842 0.500000
O O10 0.459826 0.184147 0.840211
O O11 0.416597 0.000000 0.732857
O O12 0.054196 0.500000 0.090834
O O13 0.947282 0.718654 0.350951
O O14 0.000000 0.653049 0.000000
O O15 0.295345 0.500000 0.617214
O O16 0.395307 0.722718 0.418123
O O17 0.151166 0.500000 0.503574
O O18 0.434916 0.000000 0.276515
O O19 0.500000 0.226870 0.000000
#
# Coordination Sequence:
#
# PCOD8064615 Si02
#       7
#     4   4   4   4   4   4   4
#     4  10  22  38  58  83 111 144 186 231 272 324
#     4  11  22  35  56  84 114 147 184 227 276 327
#     4  10  20  36  57  79 108 147 183 220 272 328
#     4   8  15  32  57  81 110 145 181 223 273 325
#     4  11  23  39  57  80 112 149 187 227 277 327
#     4   9  19  37  59  85 113 143 182 229 275 326
#     4  10  22  39  57  80 112 145 183 227 273 328
#
# _framework density 19.080372000000001
#
# number of rings (size 3 to 8) (size 9 to 14) (size 15 to 20)
#    0.000    2.143    1.429    2.571    2.000    4.857 
#    0.000    0.714    0.000    4.286    0.000    0.000 
#    0.000    0.000    0.000    0.000    0.000    0.000 
#
# Total GULP energy -347196.697512 kJ/mol
# GULP energy per Si atom -12399.882054 kJ/mol
# Density = 1.903694 g / cm^3
# Si number density = 19.080372 Si / 1000 Ang^3
#
#
#
# Elastic Constant Matrix: (Units=GPa)
#
#
# Indices 1 2 3 4 5 6 
#
# 1 46.2737 26.8165 12.5433 0.0000 7.4328 0.0000
# 2 26.8165 66.9443 33.0779 0.0000 2.8677 0.0000
# 3 12.5433 33.0779 122.9317 0.0000 7.9150 0.0000
# 4 0.0000 0.0000 0.0000 -43.5138 0.0000 -4.7398
# 5 7.4328 2.8677 7.9150 0.0000 27.7553 0.0000
# 6 0.0000 0.0000 0.0000 -4.7398 0.0000 26.7412
#
#
#
# Elastic Compliance Matrix: (Units=1/GPa)
#
#
# Indices 1 2 3 4 5 6 
#
# 1 0.029362 -0.011772 0.000611 0.000000 -0.006821 0.000000
# 2 -0.011772 0.021954 -0.004852 0.000000 0.002268 0.000000
# 3 0.000611 -0.004852 0.009531 0.000000 -0.002380 0.000000
# 4 0.000000 0.000000 0.000000 -0.022546 0.000000 -0.003996
# 5 -0.006821 0.002268 -0.002380 0.000000 0.038300 0.000000
# 6 0.000000 0.000000 0.000000 -0.003996 0.000000 0.036687
#
#
# Mechanical properties :
#
#
# Convention : Reuss Voigt Hill
#
# Bulk Modulus (GPa) = 34.69669 42.33611 38.51640
# Shear Modulus (GPa) = 32.27438 13.11068 22.69253
#
# Velocity S-wave (km/s) = 4.11724 2.62416 3.45238
# Velocity P-wave (km/s) = 6.38954 5.60518 6.01017
#
# Compressibility (1/GPa) = 0.02882119
#
# Stress axis : x y z
#
# Youngs Moduli (GPa) = 34.05707 45.55071 104.91948
#
# Poissons Ratio (x) = 0.53620 -0.06407
# Poissons Ratio (y) = 0.40090 0.50908
# Poissons Ratio (z) = -0.02080 0.22102
#
# Static dielectric constant tensor:
#      x y z
#    x 3.380210 0.000000 -0.090790 
#    y 0.000000 3.400790 0.000000 
#    z -0.090790 0.000000 3.873270 
# 
# 
# High freq. dielectric constant tensor:
#      x y z
#    x 1.730740 0.000000 -0.007360 
#    y 0.000000 1.731620 0.000000 
#    z -0.007360 0.000000 1.749680 
# 
# From -- ./inp_files/37078.got.cif
#   From: 2010.06.25/outbox.cif.g09.slc.cpg/sg10_19_cif.got.tgz:37078.got - 2010.06.27 22:07:45.
