data_PCOD8064507
_publ_section_title
;
Structure prediction by ZEFSAII (Michael W. Deem and Ramdas Pophale) SiO2 
 PCOD8064507
Probable space group: P 2/M
;
_chemical_formula_sum "Si O2"
_cell_formula_units_Z 28
_cell_length_a 20.122490
_cell_length_b 8.935886
_cell_length_c 14.366891
_cell_angle_alpha 90.000000
_cell_angle_beta 147.115066
_cell_angle_gamma 90.000000
_cell_volume 1402.635722
_symmetry_space_group_name_H-M "P 2/M"
_symmetry_group_IT_number 10
_symmetry_cell_setting 'monoclinic'
loop_
_space_group_symop_operation_xyz
x,y,z
-x,y,-z
-x,-y,-z
x,-y,z
loop_
_atom_site_type_symbol
_atom_site_label
_atom_site_fract_x
_atom_site_fract_y
_atom_site_fract_z
Si Si1 0.727420 0.327098 0.079990
Si Si2 0.551124 0.172883 0.732790
Si Si3 0.639153 0.672263 0.179190
Si Si4 0.927210 0.173783 0.204282
Si Si5 0.236737 0.829305 0.159656
Si Si6 0.799589 0.825124 0.518031
Si Si7 0.291156 0.676185 0.408281
O O1 0.711504 0.500000 0.034144
O O2 0.620540 0.234630 0.904614
O O3 0.717408 0.302367 0.178234
O O4 0.861052 0.270130 0.206185
O O5 0.633413 0.194061 0.738161
O O6 0.427477 0.261354 0.571970
O O7 0.520246 0.000000 0.714361
O O8 0.644016 0.500000 0.217531
O O9 0.693004 0.774054 0.323727
O O10 0.500000 0.722900 0.000000
O O11 0.069840 0.213748 0.374170
O O12 0.901324 0.000000 0.195204
O O13 0.872306 0.214446 0.038674
O O14 0.226784 0.721550 0.236181
O O15 0.223728 0.000000 0.178547
O O16 0.790337 0.740166 0.604416
O O17 0.786535 0.000000 0.522254
O O18 0.296377 0.500000 0.422970
#
# Coordination Sequence:
#
# PCOD8064507 Si02
#       7
#     4   4   4   4   4   4   4
#     4  10  20  35  60  89 118 153 188 232 288 338
#     4  10  20  36  59  86 117 152 192 236 281 336
#     4  10  22  40  60  86 120 152 183 227 286 345
#     4   9  21  41  61  83 113 150 193 239 283 334
#     4   9  19  37  59  82 112 150 190 234 283 337
#     4  11  24  41  61  83 110 150 197 240 283 336
#     4  12  24  36  54  83 118 152 189 238 292 342
#
# _framework density 19.962419000000001
#
# number of rings (size 3 to 8) (size 9 to 14) (size 15 to 20)
#    0.000    1.857    0.000    4.714    0.000    9.429 
#    0.000    5.714    0.000    0.000    0.000    0.000 
#    0.000    0.000    0.000    0.000    0.000    0.000 
#
# Total GULP energy -347354.740261 kJ/mol
# GULP energy per Si atom -12405.526438 kJ/mol
# Density = 1.991698 g / cm^3
# Si number density = 19.962419 Si / 1000 Ang^3
#
#
#
# Elastic Constant Matrix: (Units=GPa)
#
#
# Indices 1 2 3 4 5 6 
#
# 1 92.5976 55.0020 33.0182 0.0000 -1.3641 0.0000
# 2 55.0020 116.4788 30.9478 0.0000 2.6471 0.0000
# 3 33.0182 30.9478 64.9760 0.0000 15.3836 0.0000
# 4 0.0000 0.0000 0.0000 24.9231 0.0000 -1.9485
# 5 -1.3641 2.6471 15.3836 0.0000 23.8736 0.0000
# 6 0.0000 0.0000 0.0000 -1.9485 0.0000 35.0421
#
#
#
# Elastic Compliance Matrix: (Units=1/GPa)
#
#
# Indices 1 2 3 4 5 6 
#
# 1 0.017259 -0.006370 -0.007242 0.000000 0.006359 0.000000
# 2 -0.006370 0.012286 -0.002603 0.000000 -0.000049 0.000000
# 3 -0.007242 -0.002603 0.024002 0.000000 -0.015591 0.000000
# 4 0.000000 0.000000 0.000000 0.040299 0.000000 0.002241
# 5 0.006359 -0.000049 -0.015591 0.000000 0.052303 0.000000
# 6 0.000000 0.000000 0.000000 0.002241 0.000000 0.028662
#
#
# Mechanical properties :
#
#
# Convention : Reuss Voigt Hill
#
# Bulk Modulus (GPa) = 47.35675 56.88761 52.12218
# Shear Modulus (GPa) = 23.33404 27.10672 25.22038
#
# Velocity S-wave (km/s) = 3.42262 3.68895 3.55828
# Velocity P-wave (km/s) = 6.27643 6.83401 6.56115
#
# Compressibility (1/GPa) = 0.02111631
#
# Stress axis : x y z
#
# Youngs Moduli (GPa) = 57.93980 81.39277 41.66405
#
# Poissons Ratio (x) = 0.51850 0.30173
# Poissons Ratio (y) = 0.36910 0.10846
# Poissons Ratio (z) = 0.41959 0.21187
#
# Static dielectric constant tensor:
#      x y z
#    x 3.703320 0.000000 0.052360 
#    y 0.000000 3.650510 0.000000 
#    z 0.052360 0.000000 3.564360 
# 
# 
# High freq. dielectric constant tensor:
#      x y z
#    x 1.784330 0.000000 0.000820 
#    y 0.000000 1.781570 0.000000 
#    z 0.000820 0.000000 1.777140 
# 
# From -- ./inp_files/50038.got.cif
#   From: 2010.06.25/outbox.cif.g09.slc.cpg/sg10_26_cif.got.tgz:50038.got - 2010.06.27 22:07:45.
