data_PCOD8064976
_publ_section_title
;
Structure prediction by ZEFSAII (Michael W. Deem and Ramdas Pophale) SiO2 
 PCOD8064976
Probable space group: P 2/M
;
_chemical_formula_sum "Si O2"
_cell_formula_units_Z 32
_cell_length_a 19.956805
_cell_length_b 8.448928
_cell_length_c 25.822690
_cell_angle_alpha 90.000000
_cell_angle_beta 158.654506
_cell_angle_gamma 90.000000
_cell_volume 1584.837094
_symmetry_space_group_name_H-M "P 2/M"
_symmetry_group_IT_number 10
_symmetry_cell_setting 'monoclinic'
loop_
_space_group_symop_operation_xyz
x,y,z
-x,y,-z
-x,-y,-z
x,-y,z
loop_
_atom_site_type_symbol
_atom_site_label
_atom_site_fract_x
_atom_site_fract_y
_atom_site_fract_z
Si Si1 0.372093 0.815169 0.671861
Si Si2 0.207001 0.682533 0.378687
Si Si3 0.212905 0.313981 0.658900
Si Si4 0.279457 0.315153 0.130664
Si Si5 0.042966 0.183425 0.361555
Si Si6 0.087572 0.814553 0.184299
Si Si7 0.689982 0.313676 0.157983
Si Si8 0.603738 0.816795 0.677106
O O1 0.329735 0.782025 0.701086
O O2 0.549941 0.715216 0.784368
O O3 0.203102 0.754349 0.514946
O O4 0.410854 0.000000 0.690463
O O5 0.170234 0.500000 0.364468
O O6 0.099683 0.786273 0.343490
O O7 0.126773 0.724289 0.265345
O O8 0.424027 0.713560 0.537495
O O9 0.249231 0.500000 0.677765
O O10 0.275133 0.247720 0.759362
O O11 0.000000 0.272212 0.500000
O O12 0.259349 0.500000 0.127718
O O13 0.304793 0.222904 0.202426
O O14 0.098852 0.250279 0.973565
O O15 0.854732 0.273198 0.237916
O O16 0.008205 0.000000 0.345932
O O17 0.252787 0.776487 0.264357
O O18 0.069932 0.000000 0.182513
O O19 0.673116 0.500000 0.149357
O O20 0.500000 0.239142 0.000000
O O21 0.545702 0.000000 0.634678
#
# Coordination Sequence:
#
# PCOD8064976 Si02
#       8
#     4   4   4   4   4   4   4   4
#     4  11  23  39  63  91 123 163 210 261 312 371
#     4  12  25  41  66  96 128 167 213 265 316 375
#     4  10  20  36  61  89 119 156 200 252 307 364
#     4  12  25  41  65  95 128 166 212 265 319 376
#     4  11  23  40  64  90 123 165 209 258 310 373
#     4  11  25  44  65  91 130 170 208 261 320 381
#     4  10  22  40  62  90 125 161 199 251 314 374
#     4  11  23  42  67  94 126 169 214 258 316 380
#
# _framework density 20.191348999999999
#
# number of rings (size 3 to 8) (size 9 to 14) (size 15 to 20)
#    0.000    1.000    2.500    4.500    0.000    8.000 
#    0.000    3.750    0.000    0.000    0.000    0.000 
#    0.000    0.000    0.000    0.000    0.000    0.000 
#
# Total GULP energy -397036.457146 kJ/mol
# GULP energy per Si atom -12407.389286 kJ/mol
# Density = 2.014539 g / cm^3
# Si number density = 20.191349 Si / 1000 Ang^3
#
#
#
# Elastic Constant Matrix: (Units=GPa)
#
#
# Indices 1 2 3 4 5 6 
#
# 1 148.2774 21.3570 57.5634 0.0000 -7.3776 0.0000
# 2 21.3570 38.7310 19.7261 0.0000 4.3451 0.0000
# 3 57.5634 19.7261 136.9237 0.0000 -18.3326 0.0000
# 4 0.0000 0.0000 0.0000 28.8776 0.0000 2.2432
# 5 -7.3776 4.3451 -18.3326 0.0000 32.9371 0.0000
# 6 0.0000 0.0000 0.0000 2.2432 0.0000 38.5030
#
#
#
# Elastic Compliance Matrix: (Units=1/GPa)
#
#
# Indices 1 2 3 4 5 6 
#
# 1 0.008393 -0.003179 -0.002985 0.000000 0.000638 0.000000
# 2 -0.003179 0.030369 -0.003966 0.000000 -0.006926 0.000000
# 3 -0.002985 -0.003966 0.009844 0.000000 0.005334 0.000000
# 4 0.000000 0.000000 0.000000 0.034786 0.000000 -0.002027
# 5 0.000638 -0.006926 0.005334 0.000000 0.034386 0.000000
# 6 0.000000 0.000000 0.000000 -0.002027 0.000000 0.026090
#
#
# Mechanical properties :
#
#
# Convention : Reuss Voigt Hill
#
# Bulk Modulus (GPa) = 35.27915 57.91389 46.59652
# Shear Modulus (GPa) = 28.80586 35.08260 31.94423
#
# Velocity S-wave (km/s) = 3.78119 4.17286 3.98185
# Velocity P-wave (km/s) = 6.04761 7.20846 6.65340
#
# Compressibility (1/GPa) = 0.02834535
#
# Stress axis : x y z
#
# Youngs Moduli (GPa) = 119.15386 32.92832 101.58851
#
# Poissons Ratio (x) = 0.10468 0.30323
# Poissons Ratio (y) = 0.37881 0.40289
# Poissons Ratio (z) = 0.35565 0.13059
#
# Static dielectric constant tensor:
#      x y z
#    x 3.715920 0.000000 -0.049570 
#    y 0.000000 3.598820 0.000000 
#    z -0.049570 0.000000 3.819400 
# 
# 
# High freq. dielectric constant tensor:
#      x y z
#    x 1.803120 0.000000 -0.000370 
#    y 0.000000 1.790450 0.000000 
#    z -0.000370 0.000000 1.795330 
# 
# From -- ./inp_files/93821.got.cif
#   From: 2010.06.25/outbox.cif.g09.slc.cpg/sg10_47_cif.got.tgz:93821.got - 2010.06.27 22:07:45.
