data_PCOD8064577
_publ_section_title
;
Structure prediction by ZEFSAII (Michael W. Deem and Ramdas Pophale) SiO2 
 PCOD8064577
Probable space group: P 2/M
;
_chemical_formula_sum "Si O2"
_cell_formula_units_Z 32
_cell_length_a 26.193015
_cell_length_b 8.768073
_cell_length_c 20.294886
_cell_angle_alpha 90.000000
_cell_angle_beta 21.077555
_cell_angle_gamma 90.000000
_cell_volume 1676.230563
_symmetry_space_group_name_H-M "P 2/M"
_symmetry_group_IT_number 10
_symmetry_cell_setting 'monoclinic'
loop_
_space_group_symop_operation_xyz
x,y,z
-x,y,-z
-x,-y,-z
x,-y,z
loop_
_atom_site_type_symbol
_atom_site_label
_atom_site_fract_x
_atom_site_fract_y
_atom_site_fract_z
Si Si1 0.202848 0.821215 0.378365
Si Si2 0.366513 0.820947 0.450365
Si Si3 0.345560 0.818509 0.705776
Si Si4 0.603923 0.177188 0.732280
Si Si5 0.878807 0.819227 0.765257
Si Si6 0.692546 0.679000 0.878159
Si Si7 0.158468 0.817883 0.811413
Si Si8 0.329317 0.181699 0.872117
O O1 0.276608 0.780654 0.358652
O O2 0.287614 0.731808 0.220516
O O3 0.040783 0.764525 0.576950
O O4 0.211904 0.000000 0.351915
O O5 0.329691 0.783223 0.418987
O O6 0.245100 0.752664 0.644165
O O7 0.520070 0.752182 0.284328
O O8 0.373390 0.000000 0.454678
O O9 0.500000 0.754085 0.500000
O O10 0.231299 0.758310 0.790767
O O11 0.301184 0.759254 0.831755
O O12 0.350963 0.000000 0.698810
O O13 0.559793 0.000000 0.789604
O O14 0.463358 0.275105 0.910923
O O15 0.813812 0.754411 0.776590
O O16 0.868814 0.000000 0.773357
O O17 0.793277 0.756183 0.931752
O O18 0.709725 0.500000 0.862455
O O19 0.155240 0.000000 0.813861
O O20 0.000000 0.750564 0.000000
O O21 0.330541 0.000000 0.872582
#
# Coordination Sequence:
#
# PCOD8064577 Si02
#       8
#     4   4   4   4   4   4   4   4
#     4  10  22  37  55  79 105 135 175 219 266 317
#     4   9  15  26  45  66  94 135 173 206 251 304
#     4   9  14  21  35  57  87 124 163 198 238 292
#     4  10  20  36  57  78 104 140 180 219 260 311
#     4  10  20  36  56  78 104 138 178 220 263 311
#     4  12  24  37  56  80 105 137 175 215 266 322
#     4   9  16  23  34  60  99 135 163 199 251 304
#     4   9  15  25  45  67  91 129 174 212 247 296
#
# _framework density 19.090453
#
# number of rings (size 3 to 8) (size 9 to 14) (size 15 to 20)
#    0.000    2.250    2.500    1.875    0.000    5.000 
#    0.000    5.000    0.000    0.000    0.000    0.000 
#    0.000    5.000    0.000    0.000    0.000    0.125 
#
# Total GULP energy -396783.365568 kJ/mol
# GULP energy per Si atom -12399.480174 kJ/mol
# Density = 1.904700 g / cm^3
# Si number density = 19.090453 Si / 1000 Ang^3
#
#
#
# Elastic Constant Matrix: (Units=GPa)
#
#
# Indices 1 2 3 4 5 6 
#
# 1 158.8276 11.3334 57.3435 0.0000 1.7918 0.0000
# 2 11.3334 13.2281 11.9563 0.0000 -1.0012 0.0000
# 3 57.3435 11.9563 105.3139 0.0000 -2.4702 0.0000
# 4 0.0000 0.0000 0.0000 3.4135 0.0000 -2.2154
# 5 1.7918 -1.0012 -2.4702 0.0000 42.3642 0.0000
# 6 0.0000 0.0000 0.0000 -2.2154 0.0000 -0.8683
#
#
#
# Elastic Compliance Matrix: (Units=1/GPa)
#
#
# Indices 1 2 3 4 5 6 
#
# 1 0.007977 -0.003280 -0.003986 0.000000 -0.000647 0.000000
# 2 -0.003280 0.085677 -0.007901 0.000000 0.001703 0.000000
# 3 -0.003986 -0.007901 0.012580 0.000000 0.000715 0.000000
# 4 0.000000 0.000000 0.000000 0.110304 0.000000 -0.281433
# 5 -0.000647 0.001703 0.000715 0.000000 0.023714 0.000000
# 6 0.000000 0.000000 0.000000 -0.281433 0.000000 -0.433637
#
#
# Mechanical properties :
#
#
# Convention : Reuss Voigt Hill
#
# Bulk Modulus (GPa) = 13.17536 48.73733 30.95635
# Shear Modulus (GPa) = -36.29754 22.09763 -7.09995
#
# Velocity S-wave (km/s) = -4.36517 3.40593 -1.93059
# Velocity P-wave (km/s) = 4.29997 6.40720 3.35876
#
# Compressibility (1/GPa) = 0.07589923
#
# Stress axis : x y z
#
# Youngs Moduli (GPa) = 125.36598 11.67168 79.49370
#
# Poissons Ratio (x) = 0.03829 0.31687
# Poissons Ratio (y) = 0.41123 0.62807
# Poissons Ratio (z) = 0.49972 0.09222
#
# Static dielectric constant tensor:
#      x y z
#    x 3.758930 0.000000 0.086300 
#    y 0.000000 2.845360 0.000000 
#    z 0.086300 0.000000 3.725890 
# 
# 
# High freq. dielectric constant tensor:
#      x y z
#    x 1.759660 0.000000 0.006110 
#    y 0.000000 1.672340 0.000000 
#    z 0.006110 0.000000 1.749800 
# 
# From -- ./inp_files/86851.got.cif
#   From: 2010.06.25/outbox.cif.g09.slc.cpg/sg10_44_cif.got.tgz:86851.got - 2010.06.27 22:07:45.
