data_PCOD8064954
_publ_section_title
;
Structure prediction by ZEFSAII (Michael W. Deem and Ramdas Pophale) SiO2 
 PCOD8064954
Probable space group: P 2/M
;
_chemical_formula_sum "Si O2"
_cell_formula_units_Z 22
_cell_length_a 14.988959
_cell_length_b 13.228546
_cell_length_c 5.959957
_cell_angle_alpha 90.000000
_cell_angle_beta 109.821005
_cell_angle_gamma 90.000000
_cell_volume 1111.741833
_symmetry_space_group_name_H-M "P 2/M"
_symmetry_group_IT_number 10
_symmetry_cell_setting 'monoclinic'
loop_
_space_group_symop_operation_xyz
x,y,z
-x,y,-z
-x,-y,-z
x,-y,z
loop_
_atom_site_type_symbol
_atom_site_label
_atom_site_fract_x
_atom_site_fract_y
_atom_site_fract_z
Si Si1 0.771399 0.385882 0.961753
Si Si2 0.604360 0.703196 0.064490
Si Si3 0.596279 0.886048 0.717886
Si Si4 0.730723 0.228915 0.552403
Si Si5 0.105059 0.692684 0.544248
Si Si6 0.049401 0.500000 0.289588
O O1 0.787671 0.500000 0.887955
O O2 0.767605 0.309034 0.758908
O O3 0.671351 0.379921 0.007763
O O4 0.859559 0.357014 0.194529
O O5 0.642386 0.724822 0.344226
O O6 0.500000 0.656097 0.000000
O O7 0.601100 0.809335 0.928216
O O8 0.500000 0.866781 0.500000
O O9 0.689780 0.870913 0.638899
O O10 0.599840 0.000000 0.815421
O O11 0.823041 0.215617 0.467705
O O12 0.107189 0.605666 0.350905
O O13 0.000000 0.737565 0.500000
O O14 0.000000 0.500000 0.500000
O O15 0.000000 0.500000 0.000000
#
# Coordination Sequence:
#
# PCOD8064954 Si02
#       6
#     4   4   4   4   4   2
#     4  10  22  36  52  81 114 156 200 233 281 334
#     4  10  20  37  54  79 115 147 186 236 283 347
#     4  10  20  36  61  87 108 138 181 235 301 357
#     4  10  22  35  56  81 116 148 187 240 282 351
#     4  10  22  35  55  82 116 156 195 243 290 337
#     4  10  22  34  56  88 116 157 212 257 300 350
#
# _framework density 19.788765999999999
#
# number of rings (size 3 to 8) (size 9 to 14) (size 15 to 20)
#    0.000    2.000    2.727    0.000    6.364    2.182 
#    0.000    0.909    0.000    0.545    0.000   11.455 
#    0.000    0.000    0.000    0.000    0.000    0.000 
#
# Total GULP energy -272538.133846 kJ/mol
# GULP energy per Si atom -12388.096993 kJ/mol
# Density = 1.974373 g / cm^3
# Si number density = 19.788766 Si / 1000 Ang^3
#
#
#
# Elastic Constant Matrix: (Units=GPa)
#
#
# Indices 1 2 3 4 5 6 
#
# 1 109.7445 8.6291 5.9175 0.0000 25.2640 0.0000
# 2 8.6291 55.7303 17.2565 0.0000 6.5805 0.0000
# 3 5.9175 17.2565 115.7396 0.0000 18.0581 0.0000
# 4 0.0000 0.0000 0.0000 17.1765 0.0000 -6.5011
# 5 25.2640 6.5805 18.0581 0.0000 29.0521 0.0000
# 6 0.0000 0.0000 0.0000 -6.5011 0.0000 22.5820
#
#
#
# Elastic Compliance Matrix: (Units=1/GPa)
#
#
# Indices 1 2 3 4 5 6 
#
# 1 0.011556 -0.000910 0.001197 0.000000 -0.010587 0.000000
# 2 -0.000910 0.019090 -0.002490 0.000000 -0.001985 0.000000
# 3 0.001197 -0.002490 0.009994 0.000000 -0.006689 0.000000
# 4 0.000000 0.000000 0.000000 0.065338 0.000000 0.018810
# 5 -0.010587 -0.001985 -0.006689 0.000000 0.048235 0.000000
# 6 0.000000 0.000000 0.000000 0.018810 0.000000 0.049698
#
#
# Mechanical properties :
#
#
# Convention : Reuss Voigt Hill
#
# Bulk Modulus (GPa) = 27.59860 38.31340 32.95600
# Shear Modulus (GPa) = 22.68648 30.38955 26.53801
#
# Velocity S-wave (km/s) = 3.38957 3.92305 3.66603
# Velocity P-wave (km/s) = 5.41256 6.31851 5.88300
#
# Compressibility (1/GPa) = 0.03623372
#
# Stress axis : x y z
#
# Youngs Moduli (GPa) = 86.53250 52.38389 100.06284
#
# Poissons Ratio (x) = 0.04766 -0.11974
# Poissons Ratio (y) = 0.07872 0.24916
# Poissons Ratio (z) = -0.10355 0.13044
#
# Static dielectric constant tensor:
#      x y z
#    x 4.115570 0.000000 0.028440 
#    y 0.000000 3.458360 0.000000 
#    z 0.028440 0.000000 3.828850 
# 
# 
# High freq. dielectric constant tensor:
#      x y z
#    x 1.791310 0.000000 -0.002950 
#    y 0.000000 1.720110 0.000000 
#    z -0.002950 0.000000 1.788550 
# 
# From -- ./inp_files/9099.got.cif
#   From: 2010.06.25/outbox.cif.g09.slc.cpg/sg10_5_cif.got.tgz:9099.got - 2010.06.27 22:07:45.
