data_PCOD8064197
_publ_section_title
;
Structure prediction by ZEFSAII (Michael W. Deem and Ramdas Pophale) SiO2 
 PCOD8064197
Probable space group: P 2/M
;
_chemical_formula_sum "Si O2"
_cell_formula_units_Z 24
_cell_length_a 10.241580
_cell_length_b 9.063901
_cell_length_c 13.601646
_cell_angle_alpha 90.000000
_cell_angle_beta 78.973880
_cell_angle_gamma 90.000000
_cell_volume 1239.314776
_symmetry_space_group_name_H-M "P 2/M"
_symmetry_group_IT_number 10
_symmetry_cell_setting 'monoclinic'
loop_
_space_group_symop_operation_xyz
x,y,z
-x,y,-z
-x,-y,-z
x,-y,z
loop_
_atom_site_type_symbol
_atom_site_label
_atom_site_fract_x
_atom_site_fract_y
_atom_site_fract_z
Si Si1 0.859113 0.675431 0.554914
Si Si2 0.777248 0.674299 0.779648
Si Si3 0.515442 0.171764 0.886766
Si Si4 0.720350 0.827321 0.223963
Si Si5 0.641641 0.328119 0.431971
Si Si6 0.984443 0.673901 0.114563
O O1 0.862983 0.500000 0.557164
O O2 0.827748 0.736279 0.667873
O O3 0.749604 0.730768 0.493818
O O4 0.000000 0.740604 0.500000
O O5 0.760438 0.500000 0.779093
O O6 0.634023 0.741548 0.819139
O O7 0.881955 0.722095 0.848114
O O8 0.378070 0.207603 0.851776
O O9 0.550944 0.000000 0.877899
O O10 0.500000 0.228396 0.000000
O O11 0.653837 0.763431 0.331042
O O12 0.861007 0.752573 0.183200
O O13 0.743371 0.000000 0.234210
O O14 0.500000 0.297349 0.500000
O O15 0.662346 0.500000 0.404261
O O16 0.959808 0.500000 0.125874
O O17 0.000000 0.725958 0.000000
#
# Coordination Sequence:
#
# PCOD8064197 Si02
#       6
#     4   4   4   4   4   4
#     4   9  17  31  52  77 105 137 173 216 266 317
#     4  10  20  35  58  85 109 139 182 228 272 319
#     4  10  22  39  56  77 109 147 183 220 267 324
#     4  11  23  37  56  82 112 148 185 223 272 328
#     4  10  20  35  56  79 105 141 183 227 274 321
#     4  10  21  37  58  85 114 143 180 228 277 325
#
# _framework density 19.365539999999999
#
# number of rings (size 3 to 8) (size 9 to 14) (size 15 to 20)
#    0.000    2.000    0.000    3.500    0.000    7.000 
#    0.000    0.833    0.000    2.000    0.000    0.000 
#    0.000    0.000    0.000    0.000    0.000    0.000 
#
# Total GULP energy -297704.276596 kJ/mol
# GULP energy per Si atom -12404.344858 kJ/mol
# Density = 1.932146 g / cm^3
# Si number density = 19.365540 Si / 1000 Ang^3
#
#
#
# Elastic Constant Matrix: (Units=GPa)
#
#
# Indices 1 2 3 4 5 6 
#
# 1 93.4231 23.1078 14.5376 0.0000 -4.7506 0.0000
# 2 23.1078 33.3412 19.3558 0.0000 -2.2311 0.0000
# 3 14.5376 19.3558 107.4205 0.0000 2.4124 0.0000
# 4 0.0000 0.0000 0.0000 62.0905 0.0000 -17.4954
# 5 -4.7506 -2.2311 2.4124 0.0000 40.1241 0.0000
# 6 0.0000 0.0000 0.0000 -17.4954 0.0000 31.2294
#
#
#
# Elastic Compliance Matrix: (Units=1/GPa)
#
#
# Indices 1 2 3 4 5 6 
#
# 1 0.012965 -0.008804 -0.000192 0.000000 0.001057 0.000000
# 2 -0.008804 0.039675 -0.005992 0.000000 0.001524 0.000000
# 3 -0.000192 -0.005992 0.010437 0.000000 -0.000983 0.000000
# 4 0.000000 0.000000 0.000000 0.019124 0.000000 0.010714
# 5 0.001057 0.001524 -0.000983 0.000000 0.025192 0.000000
# 6 0.000000 0.000000 0.000000 0.010714 0.000000 0.038023
#
#
# Mechanical properties :
#
#
# Convention : Reuss Voigt Hill
#
# Bulk Modulus (GPa) = 30.20945 38.68748 34.44847
# Shear Modulus (GPa) = 26.82045 38.50104 32.66074
#
# Velocity S-wave (km/s) = 3.72554 4.46367 4.11120
# Velocity P-wave (km/s) = 5.84291 6.82544 6.35320
#
# Compressibility (1/GPa) = 0.03310222
#
# Stress axis : x y z
#
# Youngs Moduli (GPa) = 77.12992 25.20495 95.81376
#
# Poissons Ratio (x) = 0.22189 0.01840
# Poissons Ratio (y) = 0.67901 0.57409
# Poissons Ratio (z) = 0.01481 0.15102
#
# Static dielectric constant tensor:
#      x y z
#    x 3.641960 0.000000 0.114620 
#    y 0.000000 3.259760 0.000000 
#    z 0.114620 0.000000 3.777190 
# 
# 
# High freq. dielectric constant tensor:
#      x y z
#    x 1.771140 0.000000 0.002650 
#    y 0.000000 1.725210 0.000000 
#    z 0.002650 0.000000 1.772650 
# 
# From -- ./inp_files/60211.got.cif
#   From: 2010.06.25/outbox.cif.g09.slc.cpg/sg10_31_cif.got.tgz:60211.got - 2010.06.27 22:07:45.
