data_PCOD8064161
_publ_section_title
;
Structure prediction by ZEFSAII (Michael W. Deem and Ramdas Pophale) SiO2 
 PCOD8064161
Probable space group: P 2/M
;
_chemical_formula_sum "Si O2"
_cell_formula_units_Z 32
_cell_length_a 14.397113
_cell_length_b 8.920180
_cell_length_c 12.471950
_cell_angle_alpha 90.000000
_cell_angle_beta 81.079486
_cell_angle_gamma 90.000000
_cell_volume 1582.334572
_symmetry_space_group_name_H-M "P 2/M"
_symmetry_group_IT_number 10
_symmetry_cell_setting 'monoclinic'
loop_
_space_group_symop_operation_xyz
x,y,z
-x,y,-z
-x,-y,-z
x,-y,z
loop_
_atom_site_type_symbol
_atom_site_label
_atom_site_fract_x
_atom_site_fract_y
_atom_site_fract_z
Si Si1 0.189830 0.176090 0.223338
Si Si2 0.563272 0.326947 0.295141
Si Si3 0.239140 0.668112 0.836108
Si Si4 0.214553 0.333185 0.609906
Si Si5 0.107400 0.162822 0.461594
Si Si6 0.387693 0.175035 0.508106
Si Si7 0.101945 0.177332 0.019253
Si Si8 0.637709 0.671934 0.712831
O O1 0.130148 0.221933 0.338683
O O2 0.294545 0.245823 0.214478
O O3 0.203556 0.000000 0.209114
O O4 0.131255 0.237870 0.131914
O O5 0.578181 0.500000 0.328512
O O6 0.654244 0.274677 0.210952
O O7 0.535360 0.233998 0.413368
O O8 0.472387 0.310044 0.233990
O O9 0.244049 0.500000 0.883901
O O10 0.176503 0.667558 0.738705
O O11 0.187457 0.777132 0.926999
O O12 0.250705 0.500000 0.573867
O O13 0.134703 0.287033 0.542211
O O14 0.297978 0.211783 0.598284
O O15 0.000000 0.135249 0.500000
O O16 0.158514 0.000000 0.469302
O O17 0.354796 0.261933 0.407709
O O18 0.403489 0.000000 0.483025
O O19 0.094486 0.000000 0.020615
O O20 0.000000 0.243966 0.000000
O O21 0.668820 0.500000 0.703811
#
# Coordination Sequence:
#
# PCOD8064161 Si02
#       8
#     4   4   4   4   4   4   4   4
#     4  10  22  40  58  85 121 152 193 247 291 344
#     4   9  20  37  56  82 118 156 196 241 288 343
#     4   9  20  39  60  84 115 148 192 246 288 333
#     4  10  20  35  55  82 116 153 192 239 289 342
#     4  10  21  35  56  84 116 154 190 233 295 355
#     4  11  20  31  51  82 119 157 195 236 283 340
#     4  10  23  42  65  88 113 150 194 242 295 351
#     4  11  21  35  57  83 115 158 197 235 291 352
#
# _framework density 20.223284
#
# number of rings (size 3 to 8) (size 9 to 14) (size 15 to 20)
#    0.000    2.000    1.250    3.000    1.750    6.000 
#    0.000    0.625    0.000    3.750    0.000    0.000 
#    0.000    0.000    0.000    0.000    0.000    0.000 
#
# Total GULP energy -396427.849387 kJ/mol
# GULP energy per Si atom -12388.370293 kJ/mol
# Density = 2.017726 g / cm^3
# Si number density = 20.223284 Si / 1000 Ang^3
#
#
#
# Elastic Constant Matrix: (Units=GPa)
#
#
# Indices 1 2 3 4 5 6 
#
# 1 110.8242 30.8827 64.0968 0.0000 24.6010 0.0000
# 2 30.8827 53.3249 31.6099 0.0000 13.6804 0.0000
# 3 64.0968 31.6099 95.6044 0.0000 9.7066 0.0000
# 4 0.0000 0.0000 0.0000 28.4322 0.0000 -1.8252
# 5 24.6010 13.6804 9.7066 0.0000 29.4092 0.0000
# 6 0.0000 0.0000 0.0000 -1.8252 0.0000 26.3927
#
#
#
# Elastic Compliance Matrix: (Units=1/GPa)
#
#
# Indices 1 2 3 4 5 6 
#
# 1 0.017826 -0.001382 -0.010394 0.000000 -0.010838 0.000000
# 2 -0.001382 0.025738 -0.006710 0.000000 -0.008602 0.000000
# 3 -0.010394 -0.006710 0.019087 0.000000 0.005516 0.000000
# 4 0.000000 0.000000 0.000000 0.035328 0.000000 0.002443
# 5 -0.010838 -0.008602 0.005516 0.000000 0.045250 0.000000
# 6 0.000000 0.000000 0.000000 0.002443 0.000000 0.038058
#
#
# Mechanical properties :
#
#
# Convention : Reuss Voigt Hill
#
# Bulk Modulus (GPa) = 38.94264 56.99248 47.96756
# Shear Modulus (GPa) = 22.04428 25.72442 23.88435
#
# Velocity S-wave (km/s) = 3.30516 3.57041 3.44034
# Velocity P-wave (km/s) = 5.81925 6.72606 6.28902
#
# Compressibility (1/GPa) = 0.02567879
#
# Stress axis : x y z
#
# Youngs Moduli (GPa) = 56.09929 38.85371 52.39304
#
# Poissons Ratio (x) = 0.05369 0.54455
# Poissons Ratio (y) = 0.07753 0.35155
# Poissons Ratio (z) = 0.58308 0.26070
#
# Static dielectric constant tensor:
#      x y z
#    x 3.954450 0.000000 0.145890 
#    y 0.000000 3.355210 0.000000 
#    z 0.145890 0.000000 3.616030 
# 
# 
# High freq. dielectric constant tensor:
#      x y z
#    x 1.801710 0.000000 0.004940 
#    y 0.000000 1.779230 0.000000 
#    z 0.004940 0.000000 1.769540 
# 
# From -- ./inp_files/49898.got.cif
#   From: 2010.06.25/outbox.cif.g09.slc.cpg/sg10_25_cif.got.tgz:49898.got - 2010.06.27 22:07:45.
