data_PCOD8064377
_publ_section_title
;
Structure prediction by ZEFSAII (Michael W. Deem and Ramdas Pophale) SiO2 
 PCOD8064377
Probable space group: P 2/M
;
_chemical_formula_sum "Si O2"
_cell_formula_units_Z 32
_cell_length_a 12.772162
_cell_length_b 8.935673
_cell_length_c 30.742126
_cell_angle_alpha 90.000000
_cell_angle_beta 27.128909
_cell_angle_gamma 90.000000
_cell_volume 1599.870109
_symmetry_space_group_name_H-M "P 2/M"
_symmetry_group_IT_number 10
_symmetry_cell_setting 'monoclinic'
loop_
_space_group_symop_operation_xyz
x,y,z
-x,y,-z
-x,-y,-z
x,-y,z
loop_
_atom_site_type_symbol
_atom_site_label
_atom_site_fract_x
_atom_site_fract_y
_atom_site_fract_z
Si Si1 0.208028 0.175656 0.015592
Si Si2 0.513363 0.676501 0.835838
Si Si3 0.844441 0.671047 0.317811
Si Si4 0.281784 0.824655 0.842072
Si Si5 0.656426 0.328972 0.536572
Si Si6 0.996912 0.176566 0.347678
Si Si7 0.482654 0.165487 0.679011
Si Si8 0.021252 0.834134 0.174158
O O1 0.973784 0.219861 0.077740
O O2 0.194289 0.218849 0.071967
O O3 0.256096 0.000000 0.992601
O O4 0.416742 0.268568 0.917973
O O5 0.539418 0.500000 0.826749
O O6 0.339699 0.726964 0.862478
O O7 0.758076 0.748902 0.736878
O O8 0.898391 0.500000 0.309854
O O9 0.585169 0.692894 0.398116
O O10 0.874757 0.771705 0.348782
O O11 0.023188 0.721379 0.214163
O O12 0.463782 0.784866 0.736392
O O13 0.295974 0.000000 0.848453
O O14 0.738347 0.500000 0.504001
O O15 0.841999 0.223505 0.445655
O O16 0.635358 0.281463 0.594983
O O17 0.025667 0.000000 0.336583
O O18 0.227749 0.158107 0.754828
O O19 0.593640 0.000000 0.634567
O O20 0.090463 0.000000 0.165225
#
# Coordination Sequence:
#
# PCOD8064377 Si02
#       8
#     4   4   4   4   4   4   4   4
#     4   9  18  35  59  84 111 144 182 222 263 314
#     4  12  25  38  53  77 111 145 181 228 277 324
#     4  10  20  35  57  85 115 142 171 216 272 323
#     4   9  18  35  59  84 111 144 182 222 263 314
#     4  10  20  35  57  85 115 142 171 216 272 323
#     4  12  25  40  57  75 103 145 189 228 265 316
#     4   8  15  30  54  83 111 140 177 218 259 310
#     4   8  15  30  54  83 111 140 177 218 259 310
#
# _framework density 20.001624
#
# number of rings (size 3 to 8) (size 9 to 14) (size 15 to 20)
#    0.000    2.250    0.000    5.250    0.000    6.000 
#    0.000    3.750    0.000    7.500    0.000    0.000 
#    0.000    0.000    0.000    0.000    0.000    0.000 
#
# Total GULP energy -396797.250878 kJ/mol
# GULP energy per Si atom -12399.914090 kJ/mol
# Density = 1.995610 g / cm^3
# Si number density = 20.001624 Si / 1000 Ang^3
#
#
#
# Elastic Constant Matrix: (Units=GPa)
#
#
# Indices 1 2 3 4 5 6 
#
# 1 18.4144 25.9478 45.1357 0.0000 15.0066 0.0000
# 2 25.9478 97.9911 18.9992 0.0000 8.8433 0.0000
# 3 45.1357 18.9992 26.7566 0.0000 24.9868 0.0000
# 4 0.0000 0.0000 0.0000 28.9409 0.0000 -0.3873
# 5 15.0066 8.8433 24.9868 0.0000 28.4732 0.0000
# 6 0.0000 0.0000 0.0000 -0.3873 0.0000 20.1828
#
#
#
# Elastic Compliance Matrix: (Units=1/GPa)
#
#
# Indices 1 2 3 4 5 6 
#
# 1 -0.004134 -0.003177 0.034757 0.000000 -0.027336 0.000000
# 2 -0.003177 0.012032 -0.006968 0.000000 0.004052 0.000000
# 3 0.034757 -0.006968 -0.006782 0.000000 -0.010202 0.000000
# 4 0.000000 0.000000 0.000000 0.034562 0.000000 0.000663
# 5 -0.027336 0.004052 -0.010202 0.000000 0.057222 0.000000
# 6 0.000000 0.000000 0.000000 0.000663 0.000000 0.049560
#
#
# Mechanical properties :
#
#
# Convention : Reuss Voigt Hill
#
# Bulk Modulus (GPa) = 19.86525 35.92528 27.89527
# Shear Modulus (GPa) = 45.44791 19.05801 32.25296
#
# Velocity S-wave (km/s) = 4.77194 3.09013 4.01997
# Velocity P-wave (km/s) = 6.34943 5.54365 5.96017
#
# Compressibility (1/GPa) = 0.05033915
#
# Stress axis : x y z
#
# Youngs Moduli (GPa) = -241.91334 83.11422 -147.44293
#
# Poissons Ratio (x) = 0.26409 5.12467
# Poissons Ratio (y) = -0.76866 -1.02736
# Poissons Ratio (z) = 8.40818 0.57913
#
# Static dielectric constant tensor:
#      x y z
#    x 3.576670 0.000000 0.350440 
#    y 0.000000 3.633360 0.000000 
#    z 0.350440 0.000000 3.712380 
# 
# 
# High freq. dielectric constant tensor:
#      x y z
#    x 1.765240 0.000000 0.026810 
#    y 0.000000 1.775310 0.000000 
#    z 0.026810 0.000000 1.780080 
# 
# From -- ./inp_files/94956.got.cif
#   From: 2010.06.25/outbox.cif.g09.slc.cpg/sg10_48_cif.got.tgz:94956.got - 2010.06.27 22:07:45.
