data_PCOD8064464
_publ_section_title
;
Structure prediction by ZEFSAII (Michael W. Deem and Ramdas Pophale) SiO2 
 PCOD8064464
Probable space group: P 2/M
;
_chemical_formula_sum "Si O2"
_cell_formula_units_Z 32
_cell_length_a 12.531194
_cell_length_b 8.805071
_cell_length_c 32.018969
_cell_angle_alpha 90.000000
_cell_angle_beta 26.427630
_cell_angle_gamma 90.000000
_cell_volume 1572.382213
_symmetry_space_group_name_H-M "P 2/M"
_symmetry_group_IT_number 10
_symmetry_cell_setting 'monoclinic'
loop_
_space_group_symop_operation_xyz
x,y,z
-x,y,-z
-x,-y,-z
x,-y,z
loop_
_atom_site_type_symbol
_atom_site_label
_atom_site_fract_x
_atom_site_fract_y
_atom_site_fract_z
Si Si1 0.952074 0.677913 0.722640
Si Si2 0.339004 0.669110 0.861888
Si Si3 0.753723 0.672084 0.648728
Si Si4 0.593192 0.821969 0.289845
Si Si5 0.897968 0.175130 0.415217
Si Si6 0.454219 0.177257 0.904837
Si Si7 0.365211 0.174017 0.628502
Si Si8 0.002746 0.323767 0.906407
O O1 0.905395 0.500000 0.738833
O O2 0.000372 0.728255 0.658524
O O3 0.172896 0.716879 0.674905
O O4 0.716479 0.759106 0.823183
O O5 0.332832 0.500000 0.884344
O O6 0.552892 0.680345 0.754315
O O7 0.381868 0.793210 0.882204
O O8 0.093823 0.700479 0.922335
O O9 0.833051 0.500000 0.611783
O O10 0.645412 0.742756 0.644491
O O11 0.983612 0.767524 0.583197
O O12 0.607394 0.778800 0.333223
O O13 0.834784 0.765516 0.183260
O O14 0.567285 0.000000 0.291552
O O15 0.614127 0.197786 0.517247
O O16 0.965100 0.000000 0.384416
O O17 0.448834 0.000000 0.915827
O O18 0.265859 0.258835 0.001798
O O19 0.279484 0.000000 0.654097
O O20 0.010019 0.500000 0.891480
#
# Coordination Sequence:
#
# PCOD8064464 Si02
#       8
#     4   4   4   4   4   4   4   4
#     4  12  25  41  62  89 122 156 197 250 304 357
#     4   9  18  33  53  81 121 159 191 236 295 350
#     4  10  20  35  58  89 126 161 196 244 298 352
#     4  10  21  40  63  87 121 160 203 247 293 353
#     4  11  22  39  64  91 121 156 198 246 302 362
#     4  12  23  35  57  87 119 156 199 243 293 357
#     4  10  24  44  64  87 117 158 203 251 301 352
#     4  10  21  37  58  85 121 158 196 244 295 351
#
# _framework density 20.351286000000002
#
# number of rings (size 3 to 8) (size 9 to 14) (size 15 to 20)
#    0.000    1.500    1.250    5.250    0.000    8.000 
#    0.000    3.125    0.000    3.750    0.000    0.000 
#    0.000    0.000    0.000    0.000    0.000    0.000 
#
# Total GULP energy -396963.962159 kJ/mol
# GULP energy per Si atom -12405.123817 kJ/mol
# Density = 2.030497 g / cm^3
# Si number density = 20.351286 Si / 1000 Ang^3
#
#
#
# Elastic Constant Matrix: (Units=GPa)
#
#
# Indices 1 2 3 4 5 6 
#
# 1 84.5570 38.4248 27.5480 0.0000 -12.6027 0.0000
# 2 38.4248 86.6108 13.6750 0.0000 -9.7079 0.0000
# 3 27.5480 13.6750 35.5388 0.0000 -20.0143 0.0000
# 4 0.0000 0.0000 0.0000 17.8439 0.0000 -10.5612
# 5 -12.6027 -9.7079 -20.0143 0.0000 29.2376 0.0000
# 6 0.0000 0.0000 0.0000 -10.5612 0.0000 30.7815
#
#
#
# Elastic Compliance Matrix: (Units=1/GPa)
#
#
# Indices 1 2 3 4 5 6 
#
# 1 0.018881 -0.006552 -0.014250 0.000000 -0.003791 0.000000
# 2 -0.006552 0.014600 0.000977 0.000000 0.002692 0.000000
# 3 -0.014250 0.000977 0.057823 0.000000 0.033765 0.000000
# 4 0.000000 0.000000 0.000000 0.070322 0.000000 0.024128
# 5 -0.003791 0.002692 0.033765 0.000000 0.056575 0.000000
# 6 0.000000 0.000000 0.000000 0.024128 0.000000 0.040765
#
#
# Mechanical properties :
#
#
# Convention : Reuss Voigt Hill
#
# Bulk Modulus (GPa) = 19.35922 40.66692 30.01307
# Shear Modulus (GPa) = 15.83106 24.04318 19.93712
#
# Velocity S-wave (km/s) = 2.79209 3.44089 3.13333
# Velocity P-wave (km/s) = 4.46403 5.98433 5.27919
#
# Compressibility (1/GPa) = 0.05165498
#
# Stress axis : x y z
#
# Youngs Moduli (GPa) = 52.96353 68.49292 17.29403
#
# Poissons Ratio (x) = 0.44873 0.24644
# Poissons Ratio (y) = 0.34699 -0.01689
# Poissons Ratio (z) = 0.75472 -0.06690
#
# Static dielectric constant tensor:
#      x y z
#    x 3.648380 0.000000 -0.183870 
#    y 0.000000 3.739360 0.000000 
#    z -0.183870 0.000000 3.726660 
# 
# 
# High freq. dielectric constant tensor:
#      x y z
#    x 1.781150 0.000000 -0.012200 
#    y 0.000000 1.802280 0.000000 
#    z -0.012200 0.000000 1.802380 
# 
# From -- ./inp_files/94965.got.cif
#   From: 2010.06.25/outbox.cif.g09.slc.cpg/sg10_48_cif.got.tgz:94965.got - 2010.06.27 22:07:45.
