data_PCOD8064859
_publ_section_title
;
Structure prediction by ZEFSAII (Michael W. Deem and Ramdas Pophale) SiO2 
 PCOD8064859
Probable space group: P 2/M
;
_chemical_formula_sum "Si O2"
_cell_formula_units_Z 28
_cell_length_a 22.870604
_cell_length_b 13.266136
_cell_length_c 9.767113
_cell_angle_alpha 90.000000
_cell_angle_beta 28.673066
_cell_angle_gamma 90.000000
_cell_volume 1421.865743
_symmetry_space_group_name_H-M "P 2/M"
_symmetry_group_IT_number 10
_symmetry_cell_setting 'monoclinic'
loop_
_space_group_symop_operation_xyz
x,y,z
-x,y,-z
-x,-y,-z
x,-y,z
loop_
_atom_site_type_symbol
_atom_site_label
_atom_site_fract_x
_atom_site_fract_y
_atom_site_fract_z
Si Si1 0.136585 0.617792 0.172814
Si Si2 0.739627 0.704661 0.333698
Si Si3 0.575998 0.113399 0.214988
Si Si4 0.132422 0.382748 0.676050
Si Si5 0.594605 0.887470 0.693135
Si Si6 0.502934 0.616405 0.148888
Si Si7 0.730132 0.301297 0.842737
O O1 0.150200 0.500000 0.105940
O O2 0.233470 0.645749 0.090632
O O3 0.000000 0.642834 0.500000
O O4 0.161153 0.687511 0.989144
O O5 0.772046 0.638223 0.399723
O O6 0.718422 0.821141 0.423353
O O7 0.609760 0.667839 0.540926
O O8 0.500000 0.154149 0.500000
O O9 0.479632 0.113252 0.292971
O O10 0.627035 0.000000 0.135511
O O11 0.691663 0.185498 0.947626
O O12 0.140848 0.500000 0.615145
O O13 0.156820 0.311395 0.494646
O O14 0.000000 0.352634 0.000000
O O15 0.637956 0.000000 0.644324
O O16 0.500000 0.844456 0.000000
O O17 0.478642 0.500000 0.195154
O O18 0.500000 0.660150 0.000000
O O19 0.622803 0.638378 0.988754
#
# Coordination Sequence:
#
# PCOD8064859 Si02
#       7
#     4   4   4   4   4   4   4
#     4  11  25  42  58  81 117 161 204 239 278 337
#     4  12  21  37  60  84 119 152 191 243 291 345
#     4  10  21  38  58  84 117 152 189 230 288 359
#     4  11  23  39  60  83 112 160 208 235 274 345
#     4  10  20  36  59  88 118 149 187 232 290 356
#     4  11  21  33  54  89 125 151 178 233 304 356
#     4  12  22  37  62  86 118 151 193 245 290 343
#
# _framework density 19.692435
#
# number of rings (size 3 to 8) (size 9 to 14) (size 15 to 20)
#    0.000    1.000    2.857    5.571    0.000    2.286 
#    0.000    1.429    0.000    5.143    0.000    0.000 
#    0.000    0.000    0.000    0.000    0.000    0.000 
#
# Total GULP energy -347158.712512 kJ/mol
# GULP energy per Si atom -12398.525447 kJ/mol
# Density = 1.964761 g / cm^3
# Si number density = 19.692435 Si / 1000 Ang^3
#
#
#
# Elastic Constant Matrix: (Units=GPa)
#
#
# Indices 1 2 3 4 5 6 
#
# 1 68.7817 11.8663 13.8879 0.0000 15.4735 0.0000
# 2 11.8663 122.0590 66.8444 0.0000 9.2164 0.0000
# 3 13.8879 66.8444 118.3263 0.0000 20.8245 0.0000
# 4 0.0000 0.0000 0.0000 35.8564 0.0000 3.4791
# 5 15.4735 9.2164 20.8245 0.0000 37.2493 0.0000
# 6 0.0000 0.0000 0.0000 3.4791 0.0000 20.7246
#
#
#
# Elastic Compliance Matrix: (Units=1/GPa)
#
#
# Indices 1 2 3 4 5 6 
#
# 1 0.016182 -0.000964 -0.000237 0.000000 -0.006351 0.000000
# 2 -0.000964 0.011947 -0.006861 0.000000 0.001280 0.000000
# 3 -0.000237 -0.006861 0.013353 0.000000 -0.005669 0.000000
# 4 0.000000 0.000000 0.000000 0.028351 0.000000 -0.004759
# 5 -0.006351 0.001280 -0.005669 0.000000 0.032337 0.000000
# 6 0.000000 0.000000 0.000000 -0.004759 0.000000 0.049051
#
#
# Mechanical properties :
#
#
# Convention : Reuss Voigt Hill
#
# Bulk Modulus (GPa) = 39.43643 54.92935 47.18289
# Shear Modulus (GPa) = 28.44183 33.20394 30.82289
#
# Velocity S-wave (km/s) = 3.80452 4.11070 3.96057
# Velocity P-wave (km/s) = 6.27446 7.10526 6.70274
#
# Compressibility (1/GPa) = 0.02535727
#
# Stress axis : x y z
#
# Youngs Moduli (GPa) = 61.79848 83.70015 74.89031
#
# Poissons Ratio (x) = 0.08067 0.01775
# Poissons Ratio (y) = 0.05956 0.51386
# Poissons Ratio (z) = 0.01465 0.57431
#
# Static dielectric constant tensor:
#      x y z
#    x 3.585720 0.000000 0.164520 
#    y 0.000000 3.866030 0.000000 
#    z 0.164520 0.000000 3.801750 
# 
# 
# High freq. dielectric constant tensor:
#      x y z
#    x 1.768720 0.000000 0.015930 
#    y 0.000000 1.763840 0.000000 
#    z 0.015930 0.000000 1.763330 
# 
# From -- ./inp_files/35248.got.cif
#   From: 2010.06.25/outbox.cif.g09.slc.cpg/sg10_18_cif.got.tgz:35248.got - 2010.06.27 22:07:45.
