data_PCOD8064996
_publ_section_title
;
Structure prediction by ZEFSAII (Michael W. Deem and Ramdas Pophale) SiO2 
 PCOD8064996
Probable space group: P 2/M
;
_chemical_formula_sum "Si O2"
_cell_formula_units_Z 28
_cell_length_a 18.092531
_cell_length_b 13.725886
_cell_length_c 9.276397
_cell_angle_alpha 90.000000
_cell_angle_beta 37.965113
_cell_angle_gamma 90.000000
_cell_volume 1417.171271
_symmetry_space_group_name_H-M "P 2/M"
_symmetry_group_IT_number 10
_symmetry_cell_setting 'monoclinic'
loop_
_space_group_symop_operation_xyz
x,y,z
-x,y,-z
-x,-y,-z
x,-y,z
loop_
_atom_site_type_symbol
_atom_site_label
_atom_site_fract_x
_atom_site_fract_y
_atom_site_fract_z
Si Si1 0.873481 0.110003 0.754838
Si Si2 0.275106 0.611309 0.033448
Si Si3 0.886085 0.386916 0.449927
Si Si4 0.518354 0.723277 0.127220
Si Si5 0.136300 0.719747 0.021018
Si Si6 0.311194 0.112142 0.219033
Si Si7 0.253383 0.739629 0.543563
O O1 0.841382 0.177132 0.938155
O O2 0.778387 0.122428 0.775477
O O3 0.000000 0.144804 0.500000
O O4 0.878517 0.000000 0.805440
O O5 0.313596 0.500000 0.967463
O O6 0.161907 0.628483 0.313877
O O7 0.232445 0.644606 0.941004
O O8 0.392695 0.668180 0.903496
O O9 0.916256 0.500000 0.373676
O O10 0.780262 0.351959 0.506297
O O11 0.002810 0.321599 0.244912
O O12 0.387715 0.728668 0.402434
O O13 0.500000 0.669381 0.000000
O O14 0.568146 0.831507 0.013642
O O15 0.159283 0.740093 0.818062
O O16 0.248845 0.161632 0.454894
O O17 0.341385 0.000000 0.207629
#
# Coordination Sequence:
#
# PCOD8064996 Si02
#       7
#     4   4   4   4   4   4   4
#     4  10  20  36  62  88 118 160 203 248 300 361
#     4  11  22  39  64  89 115 158 209 253 296 358
#     4  11  23  41  64  88 118 164 214 251 295 362
#     4  10  20  40  62  88 117 156 207 251 296 353
#     4  12  23  38  59  89 131 154 193 252 314 362
#     4  10  20  40  66  90 117 160 213 254 297 360
#     4  11  24  38  59  90 124 162 195 251 307 363
#
# _framework density 19.757667000000001
#
# number of rings (size 3 to 8) (size 9 to 14) (size 15 to 20)
#    0.000    1.286    4.286    3.000    0.000    7.429 
#    0.000    0.714    0.000    6.000    0.000    0.000 
#    0.000    0.000    0.000    0.000    0.000    0.000 
#
# Total GULP energy -347185.303317 kJ/mol
# GULP energy per Si atom -12399.475118 kJ/mol
# Density = 1.971270 g / cm^3
# Si number density = 19.757667 Si / 1000 Ang^3
#
#
#
# Elastic Constant Matrix: (Units=GPa)
#
#
# Indices 1 2 3 4 5 6 
#
# 1 68.2075 33.1180 20.3200 0.0000 -7.3026 0.0000
# 2 33.1180 115.4718 37.6559 0.0000 4.4950 0.0000
# 3 20.3200 37.6559 59.8113 0.0000 1.5960 0.0000
# 4 0.0000 0.0000 0.0000 23.0402 0.0000 4.0233
# 5 -7.3026 4.4950 1.5960 0.0000 34.6053 0.0000
# 6 0.0000 0.0000 0.0000 4.0233 0.0000 24.7445
#
#
#
# Elastic Compliance Matrix: (Units=1/GPa)
#
#
# Indices 1 2 3 4 5 6 
#
# 1 0.018300 -0.004227 -0.003678 0.000000 0.004580 0.000000
# 2 -0.004227 0.011916 -0.006008 0.000000 -0.002163 0.000000
# 3 -0.003678 -0.006008 0.021778 0.000000 -0.001000 0.000000
# 4 0.000000 0.000000 0.000000 0.044671 0.000000 -0.007263
# 5 0.004580 -0.002163 -0.001000 0.000000 0.030191 0.000000
# 6 0.000000 0.000000 0.000000 -0.007263 0.000000 0.041594
#
#
# Mechanical properties :
#
#
# Convention : Reuss Voigt Hill
#
# Bulk Modulus (GPa) = 41.37861 47.29760 44.33810
# Shear Modulus (GPa) = 24.46997 26.63778 25.55388
#
# Velocity S-wave (km/s) = 3.52306 3.67580 3.60024
# Velocity P-wave (km/s) = 6.12681 6.48122 6.30650
#
# Compressibility (1/GPa) = 0.02416708
#
# Stress axis : x y z
#
# Youngs Moduli (GPa) = 54.64525 83.92021 45.91785
#
# Poissons Ratio (x) = 0.35477 0.16888
# Poissons Ratio (y) = 0.23101 0.27588
# Poissons Ratio (z) = 0.20097 0.50421
#
# Static dielectric constant tensor:
#      x y z
#    x 3.599420 0.000000 -0.083300 
#    y 0.000000 3.724780 0.000000 
#    z -0.083300 0.000000 3.405770 
# 
# 
# High freq. dielectric constant tensor:
#      x y z
#    x 1.786540 0.000000 -0.015680 
#    y 0.000000 1.771920 0.000000 
#    z -0.015680 0.000000 1.749690 
# 
# From -- ./inp_files/24909.got.cif
#   From: 2010.06.25/outbox.cif.g09.slc.cpg/sg10_13_cif.got.tgz:24909.got - 2010.06.27 22:07:45.
