data_PCOD8064203
_publ_section_title
;
Structure prediction by ZEFSAII (Michael W. Deem and Ramdas Pophale) SiO2 
 PCOD8064203
Probable space group: P 2/M
;
_chemical_formula_sum "Si O2"
_cell_formula_units_Z 28
_cell_length_a 19.602246
_cell_length_b 9.256974
_cell_length_c 14.503950
_cell_angle_alpha 90.000000
_cell_angle_beta 32.470428
_cell_angle_gamma 90.000000
_cell_volume 1412.946274
_symmetry_space_group_name_H-M "P 2/M"
_symmetry_group_IT_number 10
_symmetry_cell_setting 'monoclinic'
loop_
_space_group_symop_operation_xyz
x,y,z
-x,y,-z
-x,-y,-z
x,-y,z
loop_
_atom_site_type_symbol
_atom_site_label
_atom_site_fract_x
_atom_site_fract_y
_atom_site_fract_z
Si Si1 0.960339 0.661919 0.765562
Si Si2 0.531375 0.160871 0.357433
Si Si3 0.709507 0.669682 0.407198
Si Si4 0.859506 0.665155 0.690021
Si Si5 0.804183 0.166450 0.468927
Si Si6 0.355714 0.832457 0.174264
Si Si7 0.237233 0.664553 0.860479
O O1 0.018379 0.500000 0.692920
O O2 0.853507 0.680493 0.808016
O O3 0.069829 0.778882 0.622618
O O4 0.898996 0.684677 0.936534
O O5 0.500000 0.154035 0.500000
O O6 0.428020 0.257771 0.423549
O O7 0.667891 0.233843 0.190601
O O8 0.532465 0.000000 0.312798
O O9 0.696258 0.500000 0.437916
O O10 0.797535 0.737474 0.384866
O O11 0.771689 0.707015 0.237104
O O12 0.842491 0.500000 0.676793
O O13 0.742676 0.753753 0.781184
O O14 0.000000 0.721258 0.500000
O O15 0.685335 0.189955 0.672586
O O16 0.818726 0.000000 0.424208
O O17 0.351616 0.000000 0.151173
O O18 0.500000 0.772053 0.000000
O O19 0.286704 0.500000 0.812100
#
# Coordination Sequence:
#
# PCOD8064203 Si02
#       7
#     4   4   4   4   4   4   4
#     4  10  21  38  59  84 115 148 191 238 284 345
#     4   9  17  31  52  77 107 143 184 233 284 332
#     4  10  20  35  56  79 111 154 193 232 282 337
#     4  10  20  37  63  90 115 148 191 239 293 347
#     4  11  23  38  57  82 112 149 193 237 292 349
#     4  10  23  42  62  87 120 154 192 241 295 355
#     4   9  19  35  55  81 112 150 193 233 276 337
#
# _framework density 19.816746999999999
#
# number of rings (size 3 to 8) (size 9 to 14) (size 15 to 20)
#    0.000    2.143    1.429    1.286    0.000    6.286 
#    0.000    5.714    0.000    0.000    0.000    0.000 
#    0.000    0.000    0.000    0.000    0.000    0.000 
#
# Total GULP energy -347165.957011 kJ/mol
# GULP energy per Si atom -12398.784179 kJ/mol
# Density = 1.977164 g / cm^3
# Si number density = 19.816747 Si / 1000 Ang^3
#
#
#
# Elastic Constant Matrix: (Units=GPa)
#
#
# Indices 1 2 3 4 5 6 
#
# 1 102.8526 52.8250 46.5238 0.0000 -7.7477 0.0000
# 2 52.8250 108.7397 49.2380 0.0000 -7.1484 0.0000
# 3 46.5238 49.2380 103.5221 0.0000 -7.2027 0.0000
# 4 0.0000 0.0000 0.0000 26.1666 0.0000 -6.8795
# 5 -7.7477 -7.1484 -7.2027 0.0000 30.2185 0.0000
# 6 0.0000 0.0000 0.0000 -6.8795 0.0000 30.0900
#
#
#
# Elastic Compliance Matrix: (Units=1/GPa)
#
#
# Indices 1 2 3 4 5 6 
#
# 1 0.014172 -0.005033 -0.003870 0.000000 0.001521 0.000000
# 2 -0.005033 0.013572 -0.004128 0.000000 0.000936 0.000000
# 3 -0.003870 -0.004128 0.013448 0.000000 0.001237 0.000000
# 4 0.000000 0.000000 0.000000 0.040661 0.000000 0.009296
# 5 0.001521 0.000936 0.001237 0.000000 0.033998 0.000000
# 6 0.000000 0.000000 0.000000 0.009296 0.000000 0.035359
#
#
# Mechanical properties :
#
#
# Convention : Reuss Voigt Hill
#
# Bulk Modulus (GPa) = 66.08777 68.03199 67.05988
# Shear Modulus (GPa) = 27.42486 28.39688 27.91087
#
# Velocity S-wave (km/s) = 3.72415 3.78957 3.75700
# Velocity P-wave (km/s) = 7.20515 7.31798 7.26179
#
# Compressibility (1/GPa) = 0.01513139
#
# Stress axis : x y z
#
# Youngs Moduli (GPa) = 70.55982 73.68112 74.35787
#
# Poissons Ratio (x) = 0.37081 0.28774
# Poissons Ratio (y) = 0.35510 0.30698
# Poissons Ratio (z) = 0.27305 0.30418
#
# Static dielectric constant tensor:
#      x y z
#    x 3.528750 0.000000 0.057870 
#    y 0.000000 3.670330 0.000000 
#    z 0.057870 0.000000 3.541680 
# 
# 
# High freq. dielectric constant tensor:
#      x y z
#    x 1.768880 0.000000 0.004020 
#    y 0.000000 1.772410 0.000000 
#    z 0.004020 0.000000 1.762970 
# 
# From -- ./inp_files/70166.got.cif
#   From: 2010.06.25/outbox.cif.g09.slc.cpg/sg10_36_cif.got.tgz:70166.got - 2010.06.27 22:07:45.
