data_PCOD8064605
_publ_section_title
;
Structure prediction by ZEFSAII (Michael W. Deem and Ramdas Pophale) SiO2 
 PCOD8064605
Probable space group: P 2/M
;
_chemical_formula_sum "Si O2"
_cell_formula_units_Z 32
_cell_length_a 30.870932
_cell_length_b 9.334822
_cell_length_c 12.078328
_cell_angle_alpha 90.000000
_cell_angle_beta 151.419574
_cell_angle_gamma 90.000000
_cell_volume 1665.123325
_symmetry_space_group_name_H-M "P 2/M"
_symmetry_group_IT_number 10
_symmetry_cell_setting 'monoclinic'
loop_
_space_group_symop_operation_xyz
x,y,z
-x,y,-z
-x,-y,-z
x,-y,z
loop_
_atom_site_type_symbol
_atom_site_label
_atom_site_fract_x
_atom_site_fract_y
_atom_site_fract_z
Si Si1 0.926787 0.165851 0.021005
Si Si2 0.906455 0.161126 0.226157
Si Si3 0.434189 0.829013 0.948795
Si Si4 0.356620 0.838189 0.182492
Si Si5 0.100845 0.333234 0.378755
Si Si6 0.492161 0.839142 0.660882
Si Si7 0.226727 0.166809 0.496989
Si Si8 0.186580 0.335898 0.801591
O O1 0.915023 0.219149 0.120549
O O2 0.005218 0.257511 0.136413
O O3 0.957148 0.000000 0.085951
O O4 0.832234 0.190388 0.746053
O O5 0.838846 0.262207 0.140253
O O6 0.000000 0.166503 0.500000
O O7 0.867395 0.000000 0.136643
O O8 0.329226 0.778857 0.701654
O O9 0.434303 0.000000 0.951736
O O10 0.500000 0.770802 0.000000
O O11 0.477873 0.761074 0.158690
O O12 0.405072 0.772880 0.402010
O O13 0.424273 0.841014 0.233231
O O14 0.321058 0.000000 0.124454
O O15 0.278766 0.733999 0.967455
O O16 0.096791 0.500000 0.335959
O O17 0.183068 0.258418 0.498122
O O18 0.114718 0.314505 0.541830
O O19 0.464346 0.000000 0.629704
O O20 0.226501 0.000000 0.532236
O O21 0.202533 0.500000 0.864392
#
# Coordination Sequence:
#
# PCOD8064605 Si02
#       8
#     4   4   4   4   4   4   4   4
#     4  10  21  37  57  83 112 142 183 230 273 318
#     4  10  20  36  57  78 104 142 181 218 266 320
#     4   9  17  30  51  79 109 138 169 214 274 327
#     4   9  17  31  53  78 103 135 177 223 268 317
#     4  11  23  37  55  79 111 150 187 224 270 324
#     4   8  15  29  50  76 103 133 173 219 267 320
#     4  10  21  36  57  85 112 140 180 230 274 319
#     4  11  23  35  51  79 112 145 183 224 269 319
#
# _framework density 19.217797000000001
#
# number of rings (size 3 to 8) (size 9 to 14) (size 15 to 20)
#    0.000    2.250    1.250    2.625    0.000    6.250 
#    0.000    5.000    0.000    1.125    0.000    0.000 
#    0.000    0.000    0.000    0.000    0.000    0.000 
#
# Total GULP energy -396656.881984 kJ/mol
# GULP energy per Si atom -12395.527562 kJ/mol
# Density = 1.917406 g / cm^3
# Si number density = 19.217797 Si / 1000 Ang^3
#
#
#
# Elastic Constant Matrix: (Units=GPa)
#
#
# Indices 1 2 3 4 5 6 
#
# 1 103.3113 35.6963 40.0181 0.0000 -8.1794 0.0000
# 2 35.6963 67.8931 28.1395 0.0000 2.4716 0.0000
# 3 40.0181 28.1395 90.5237 0.0000 -5.4574 0.0000
# 4 0.0000 0.0000 0.0000 9.1425 0.0000 -10.8863
# 5 -8.1794 2.4716 -5.4574 0.0000 30.3791 0.0000
# 6 0.0000 0.0000 0.0000 -10.8863 0.0000 2.2667
#
#
#
# Elastic Compliance Matrix: (Units=1/GPa)
#
#
# Indices 1 2 3 4 5 6 
#
# 1 0.013399 -0.005504 -0.004011 0.000000 0.003335 0.000000
# 2 -0.005504 0.019335 -0.003803 0.000000 -0.003738 0.000000
# 3 -0.004011 -0.003803 0.014109 0.000000 0.001764 0.000000
# 4 0.000000 0.000000 0.000000 -0.023179 0.000000 -0.111325
# 5 0.003335 -0.003738 0.001764 0.000000 0.034436 0.000000
# 6 0.000000 0.000000 0.000000 -0.111325 0.000000 -0.093493
#
#
# Mechanical properties :
#
#
# Convention : Reuss Voigt Hill
#
# Bulk Modulus (GPa) = 49.48785 52.15954 50.82370
# Shear Modulus (GPa) = -2471.76482 18.88260 -1226.44111
#
# Velocity S-wave (km/s) = -35.90233 3.13798 -25.28963
# Velocity P-wave (km/s) = 41.14401 6.35054 28.74457
#
# Compressibility (1/GPa) = 0.02020698
#
# Stress axis : x y z
#
# Youngs Moduli (GPa) = 74.63256 51.72026 70.87881
#
# Poissons Ratio (x) = 0.28465 0.28433
# Poissons Ratio (y) = 0.41075 0.26953
# Poissons Ratio (z) = 0.29939 0.19667
#
# Static dielectric constant tensor:
#      x y z
#    x 3.551370 0.000000 -0.157230 
#    y 0.000000 3.228720 0.000000 
#    z -0.157230 0.000000 3.789870 
# 
# 
# High freq. dielectric constant tensor:
#      x y z
#    x 1.748090 0.000000 -0.008080 
#    y 0.000000 1.706560 0.000000 
#    z -0.008080 0.000000 1.757750 
# 
# From -- ./inp_files/58124.got.cif
#   From: 2010.06.25/outbox.cif.g09.slc.cpg/sg10_30_cif.got.tgz:58124.got - 2010.06.27 22:07:45.
