data_PCOD8064829
_publ_section_title
;
Structure prediction by ZEFSAII (Michael W. Deem and Ramdas Pophale) SiO2 
 PCOD8064829
Probable space group: P 2/M
;
_chemical_formula_sum "Si O2"
_cell_formula_units_Z 32
_cell_length_a 25.631986
_cell_length_b 9.107972
_cell_length_c 19.879480
_cell_angle_alpha 90.000000
_cell_angle_beta 21.336084
_cell_angle_gamma 90.000000
_cell_volume 1688.561676
_symmetry_space_group_name_H-M "P 2/M"
_symmetry_group_IT_number 10
_symmetry_cell_setting 'monoclinic'
loop_
_space_group_symop_operation_xyz
x,y,z
-x,y,-z
-x,-y,-z
x,-y,z
loop_
_atom_site_type_symbol
_atom_site_label
_atom_site_fract_x
_atom_site_fract_y
_atom_site_fract_z
Si Si1 0.157450 0.328268 0.412591
Si Si2 0.342805 0.670460 0.318529
Si Si3 0.840450 0.670913 0.212675
Si Si4 0.861259 0.827060 0.955646
Si Si5 0.866803 0.173588 0.794249
Si Si6 0.337049 0.327895 0.703582
Si Si7 0.168956 0.173847 0.639105
Si Si8 0.325325 0.670257 0.077043
O O1 0.121450 0.500000 0.457789
O O2 0.258248 0.281843 0.353336
O O3 0.238410 0.283952 0.247535
O O4 0.010299 0.239970 0.590393
O O5 0.317101 0.500000 0.365847
O O6 0.288428 0.766617 0.445471
O O7 0.509214 0.705397 0.107477
O O8 0.824835 0.500000 0.249418
O O9 0.740047 0.719253 0.272241
O O10 0.793458 0.765060 0.332882
O O11 0.000000 0.712377 0.000000
O O12 0.852496 0.778125 0.888842
O O13 0.012070 0.770526 0.804627
O O14 0.846913 0.000000 0.981194
O O15 0.730776 0.752699 0.151286
O O16 0.728981 0.234864 0.920642
O O17 0.873667 0.000000 0.778625
O O18 0.500000 0.277547 0.500000
O O19 0.321976 0.500000 0.735040
O O20 0.177038 0.000000 0.630180
O O21 0.302291 0.500000 0.087363
#
# Coordination Sequence:
#
# PCOD8064829 Si02
#       8
#     4   4   4   4   4   4   4   4
#     4  10  20  37  62  87 113 151 197 242 291 345
#     4  10  21  38  61  86 115 152 193 241 296 345
#     4  10  20  36  59  86 113 144 186 232 277 332
#     4  10  22  39  58  81 114 152 190 232 276 337
#     4  11  23  39  58  85 120 156 196 238 286 344
#     4  10  22  39  60  87 116 145 182 231 284 336
#     4  11  22  37  59  86 116 150 193 239 282 337
#     4  10  22  39  58  86 119 150 193 245 292 346
#
# _framework density 18.951039000000002
#
# number of rings (size 3 to 8) (size 9 to 14) (size 15 to 20)
#    0.000    1.750    2.500    1.500    0.000    7.500 
#    0.000    3.750    0.000    2.250    0.000    0.000 
#    0.000    0.000    0.000    0.000    0.000    0.000 
#
# Total GULP energy -396993.009843 kJ/mol
# GULP energy per Si atom -12406.031558 kJ/mol
# Density = 1.890791 g / cm^3
# Si number density = 18.951039 Si / 1000 Ang^3
#
#
#
# Elastic Constant Matrix: (Units=GPa)
#
#
# Indices 1 2 3 4 5 6 
#
# 1 102.0478 30.0502 40.5459 0.0000 6.7976 0.0000
# 2 30.0502 44.4817 30.7019 0.0000 9.0308 0.0000
# 3 40.5459 30.7019 99.5686 0.0000 5.8097 0.0000
# 4 0.0000 0.0000 0.0000 17.3087 0.0000 -6.6645
# 5 6.7976 9.0308 5.8097 0.0000 38.5146 0.0000
# 6 0.0000 0.0000 0.0000 -6.6645 0.0000 61.2212
#
#
#
# Elastic Compliance Matrix: (Units=1/GPa)
#
#
# Indices 1 2 3 4 5 6 
#
# 1 0.013034 -0.006473 -0.003295 0.000000 -0.000286 0.000000
# 2 -0.006473 0.032939 -0.007200 0.000000 -0.005495 0.000000
# 3 -0.003295 -0.007200 0.013592 0.000000 0.000220 0.000000
# 4 0.000000 0.000000 0.000000 0.060302 0.000000 0.006564
# 5 -0.000286 -0.005495 0.000220 0.000000 0.027270 0.000000
# 6 0.000000 0.000000 0.000000 0.006564 0.000000 0.017049
#
#
# Mechanical properties :
#
#
# Convention : Reuss Voigt Hill
#
# Bulk Modulus (GPa) = 39.01801 49.85491 44.43646
# Shear Modulus (GPa) = 24.19370 33.06224 28.62797
#
# Velocity S-wave (km/s) = 3.57689 4.18139 3.89090
# Velocity P-wave (km/s) = 6.13941 7.04814 6.60942
#
# Compressibility (1/GPa) = 0.02562919
#
# Stress axis : x y z
#
# Youngs Moduli (GPa) = 76.72495 30.35885 73.57007
#
# Poissons Ratio (x) = 0.19651 0.24241
# Poissons Ratio (y) = 0.49663 0.52973
# Poissons Ratio (z) = 0.25280 0.21859
#
# Static dielectric constant tensor:
#      x y z
#    x 3.604880 0.000000 -0.033720 
#    y 0.000000 3.348970 0.000000 
#    z -0.033720 0.000000 3.473370 
# 
# 
# High freq. dielectric constant tensor:
#      x y z
#    x 1.749890 0.000000 0.001600 
#    y 0.000000 1.728330 0.000000 
#    z 0.001600 0.000000 1.741770 
# 
# From -- ./inp_files/86790.got.cif
#   From: 2010.06.25/outbox.cif.g09.slc.cpg/sg10_44_cif.got.tgz:86790.got - 2010.06.27 22:07:45.
