data_PCOD8064006
_publ_section_title
;
Structure prediction by ZEFSAII (Michael W. Deem and Ramdas Pophale) SiO2 
 PCOD8064006
Probable space group: P 2/M
;
_chemical_formula_sum "Si O2"
_cell_formula_units_Z 18
_cell_length_a 9.511482
_cell_length_b 7.477549
_cell_length_c 18.652099
_cell_angle_alpha 90.000000
_cell_angle_beta 49.867147
_cell_angle_gamma 90.000000
_cell_volume 1014.243339
_symmetry_space_group_name_H-M "P 2/M"
_symmetry_group_IT_number 10
_symmetry_cell_setting 'monoclinic'
loop_
_space_group_symop_operation_xyz
x,y,z
-x,y,-z
-x,-y,-z
x,-y,z
loop_
_atom_site_type_symbol
_atom_site_label
_atom_site_fract_x
_atom_site_fract_y
_atom_site_fract_z
Si Si1 0.593313 0.000000 0.046369
Si Si2 0.107953 0.705755 0.034107
Si Si3 0.995746 0.701633 0.225271
Si Si4 0.289182 0.292696 0.563293
Si Si5 0.784527 0.000000 0.773860
Si Si6 0.064879 0.000000 0.559611
O O1 0.435964 0.000000 0.159543
O O2 0.500000 0.000000 0.000000
O O3 0.710013 0.178927 0.017029
O O4 0.168833 0.500000 0.005354
O O5 0.973954 0.731472 0.147061
O O6 0.000000 0.774094 0.000000
O O7 0.057893 0.500000 0.221720
O O8 0.157063 0.825524 0.201152
O O9 0.803281 0.744323 0.328529
O O10 0.500000 0.231603 0.500000
O O11 0.274002 0.500000 0.545339
O O12 0.185484 0.175986 0.537323
O O13 0.875368 0.000000 0.666098
O O14 0.000000 0.000000 0.500000
#
# Coordination Sequence:
#
# PCOD8064006 Si02
#       6
#     2   4   4   4   2   2
#     4  12  21  34  55  79 101 135 178 216 245 298
#     4  10  21  36  53  76 108 139 168 210 261 303
#     4   9  17  32  54  75 102 137 171 208 253 302
#     4   9  18  34  57  79  99 132 178 216 248 300
#     4  10  20  35  51  76 103 135 175 206 250 307
#     4  10  21  37  53  75 109 138 162 208 269 312
#
# _framework density 17.747219000000001
#
# number of rings (size 3 to 8) (size 9 to 14) (size 15 to 20)
#    0.000    2.222    2.222    0.667    0.000    1.778 
#    4.000    0.000    0.000    0.000    0.000    0.000 
#    0.000    0.000    0.000    0.000    0.000    0.000 
#
# Total GULP energy -223182.183747 kJ/mol
# GULP energy per Si atom -12399.010208 kJ/mol
# Density = 1.770683 g / cm^3
# Si number density = 17.747219 Si / 1000 Ang^3
#
#
#
# Elastic Constant Matrix: (Units=GPa)
#
#
# Indices 1 2 3 4 5 6 
#
# 1 131.2641 61.7878 82.5007 0.0000 5.7279 0.0000
# 2 61.7878 98.3142 52.8611 0.0000 -1.8124 0.0000
# 3 82.5007 52.8611 125.5622 0.0000 -4.3800 0.0000
# 4 0.0000 0.0000 0.0000 34.8351 0.0000 -14.2637
# 5 5.7279 -1.8124 -4.3800 0.0000 36.6153 0.0000
# 6 0.0000 0.0000 0.0000 -14.2637 0.0000 37.3427
#
#
#
# Elastic Compliance Matrix: (Units=1/GPa)
#
#
# Indices 1 2 3 4 5 6 
#
# 1 0.015289 -0.005437 -0.007882 0.000000 -0.003604 0.000000
# 2 -0.005437 0.015081 -0.002732 0.000000 0.001270 0.000000
# 3 -0.007882 -0.002732 0.014392 0.000000 0.002819 0.000000
# 4 0.000000 0.000000 0.000000 0.034029 0.000000 0.012998
# 5 -0.003604 0.001270 0.002819 0.000000 0.028275 0.000000
# 6 0.000000 0.000000 0.000000 0.012998 0.000000 0.031744
#
#
# Mechanical properties :
#
#
# Convention : Reuss Voigt Hill
#
# Bulk Modulus (GPa) = 78.99839 83.27108 81.13474
# Shear Modulus (GPa) = 28.54990 32.29136 30.42063
#
# Velocity S-wave (km/s) = 4.01521 4.27021 4.14467
# Velocity P-wave (km/s) = 8.13054 8.44603 8.28978
#
# Compressibility (1/GPa) = 0.01265849
#
# Stress axis : x y z
#
# Youngs Moduli (GPa) = 65.40729 66.30873 69.48345
#
# Poissons Ratio (x) = 0.36052 0.54769
# Poissons Ratio (y) = 0.35561 0.18986
# Poissons Ratio (z) = 0.51556 0.18118
#
# Static dielectric constant tensor:
#      x y z
#    x 3.073910 0.000000 -0.037560 
#    y 0.000000 3.501840 0.000000 
#    z -0.037560 0.000000 3.556690 
# 
# 
# High freq. dielectric constant tensor:
#      x y z
#    x 1.655510 0.000000 -0.002110 
#    y 0.000000 1.706410 0.000000 
#    z -0.002110 0.000000 1.695290 
# 
# From -- ./inp_files/74128.got.cif
#   From: 2010.06.25/outbox.cif.g09.slc.cpg/sg10_38_cif.got.tgz:74128.got - 2010.06.27 22:07:45.
