data_PCOD8064888
_publ_section_title
;
Structure prediction by ZEFSAII (Michael W. Deem and Ramdas Pophale) SiO2 
 PCOD8064888
Probable space group: P 2/M
;
_chemical_formula_sum "Si O2"
_cell_formula_units_Z 32
_cell_length_a 11.823239
_cell_length_b 8.709474
_cell_length_c 14.866826
_cell_angle_alpha 90.000000
_cell_angle_beta 93.628674
_cell_angle_gamma 90.000000
_cell_volume 1527.830226
_symmetry_space_group_name_H-M "P 2/M"
_symmetry_group_IT_number 10
_symmetry_cell_setting 'monoclinic'
loop_
_space_group_symop_operation_xyz
x,y,z
-x,y,-z
-x,-y,-z
x,-y,z
loop_
_atom_site_type_symbol
_atom_site_label
_atom_site_fract_x
_atom_site_fract_y
_atom_site_fract_z
Si Si1 0.278321 0.821906 0.168280
Si Si2 0.246821 0.682579 0.834300
Si Si3 0.508284 0.321118 0.214629
Si Si4 0.201569 0.822299 0.520695
Si Si5 0.825440 0.324864 0.670548
Si Si6 0.084008 0.323425 0.670069
Si Si7 0.128760 0.317870 0.007638
Si Si8 0.573475 0.322354 0.417052
O O1 0.407653 0.768976 0.159920
O O2 0.245560 0.785993 0.269109
O O3 0.191824 0.731905 0.100736
O O4 0.268087 0.000000 0.146769
O O5 0.242806 0.500000 0.834015
O O6 0.374578 0.740130 0.823032
O O7 0.166478 0.743558 0.750657
O O8 0.198868 0.747948 0.925931
O O9 0.492396 0.500000 0.193247
O O10 0.504667 0.290121 0.321885
O O11 0.199882 0.719096 0.432483
O O12 0.097352 0.776514 0.580211
O O13 0.316294 0.784234 0.580238
O O14 0.193456 0.000000 0.494580
O O15 0.785157 0.500000 0.683611
O O16 0.957339 0.306065 0.700144
O O17 0.112607 0.500000 0.648390
O O18 0.125359 0.500000 0.004238
O O19 0.000000 0.253276 0.000000
O O20 0.500000 0.276448 0.500000
O O21 0.611127 0.500000 0.422820
#
# Coordination Sequence:
#
# PCOD8064888 Si02
#       8
#     4   4   4   4   4   4   4   4
#     4  12  26  42  61  90 130 163 197 250 316 381
#     4   9  18  36  65  94 118 153 205 263 307 350
#     4  10  20  38  63  88 120 160 210 261 302 357
#     4  12  24  36  55  88 129 165 200 248 312 380
#     4  11  23  40  64  88 117 162 215 263 304 359
#     4  10  20  39  64  90 119 157 209 260 305 359
#     4  10  21  41  69  97 123 157 208 256 301 365
#     4  10  20  36  60  85 114 160 215 263 304 354
#
# _framework density 20.944735000000001
#
# number of rings (size 3 to 8) (size 9 to 14) (size 15 to 20)
#    0.000    1.500    1.250    4.500    0.000    7.000 
#    0.000    3.750    0.000    0.000    0.000    0.000 
#    0.000    0.000    0.000    0.000    0.000    0.000 
#
# Total GULP energy -396954.091785 kJ/mol
# GULP energy per Si atom -12404.815368 kJ/mol
# Density = 2.089706 g / cm^3
# Si number density = 20.944735 Si / 1000 Ang^3
#
#
#
# Elastic Constant Matrix: (Units=GPa)
#
#
# Indices 1 2 3 4 5 6 
#
# 1 120.3141 26.6467 40.4925 0.0000 2.2069 0.0000
# 2 26.6467 42.3922 10.1379 0.0000 -3.1057 0.0000
# 3 40.4925 10.1379 99.1403 0.0000 -6.7208 0.0000
# 4 0.0000 0.0000 0.0000 15.9260 0.0000 -1.6837
# 5 2.2069 -3.1057 -6.7208 0.0000 39.4686 0.0000
# 6 0.0000 0.0000 0.0000 -1.6837 0.0000 13.2782
#
#
#
# Elastic Compliance Matrix: (Units=1/GPa)
#
#
# Indices 1 2 3 4 5 6 
#
# 1 0.011048 -0.006116 -0.004008 0.000000 -0.001781 0.000000
# 2 -0.006116 0.027655 -0.000161 0.000000 0.002491 0.000000
# 3 -0.004008 -0.000161 0.011892 0.000000 0.002236 0.000000
# 4 0.000000 0.000000 0.000000 0.063644 0.000000 0.008070
# 5 -0.001781 0.002491 0.002236 0.000000 0.026013 0.000000
# 6 0.000000 0.000000 0.000000 0.008070 0.000000 0.076335
#
#
# Mechanical properties :
#
#
# Convention : Reuss Voigt Hill
#
# Bulk Modulus (GPa) = 33.30639 46.26676 39.78658
# Shear Modulus (GPa) = 20.22953 26.03918 23.13436
#
# Velocity S-wave (km/s) = 3.11119 3.52978 3.32707
# Velocity P-wave (km/s) = 5.37053 6.22497 5.81347
#
# Compressibility (1/GPa) = 0.03002427
#
# Stress axis : x y z
#
# Youngs Moduli (GPa) = 90.51688 36.16012 84.09282
#
# Poissons Ratio (x) = 0.22117 0.33701
# Poissons Ratio (y) = 0.55364 0.01353
# Poissons Ratio (z) = 0.36275 0.00582
#
# Static dielectric constant tensor:
#      x y z
#    x 3.996440 0.000000 -0.113210 
#    y 0.000000 3.410520 0.000000 
#    z -0.113210 0.000000 3.798400 
# 
# 
# High freq. dielectric constant tensor:
#      x y z
#    x 1.835600 0.000000 -0.001590 
#    y 0.000000 1.786170 0.000000 
#    z -0.001590 0.000000 1.822870 
# 
# From -- ./inp_files/63809.got.cif
#   From: 2010.06.25/outbox.cif.g09.slc.cpg/sg10_32_cif.got.tgz:63809.got - 2010.06.27 22:07:45.
