data_PCOD8064388
_publ_section_title
;
Structure prediction by ZEFSAII (Michael W. Deem and Ramdas Pophale) SiO2 
 PCOD8064388
Probable space group: P 2/M
;
_chemical_formula_sum "Si O2"
_cell_formula_units_Z 32
_cell_length_a 14.163154
_cell_length_b 9.423040
_cell_length_c 23.190006
_cell_angle_alpha 90.000000
_cell_angle_beta 31.462961
_cell_angle_gamma 90.000000
_cell_volume 1615.394123
_symmetry_space_group_name_H-M "P 2/M"
_symmetry_group_IT_number 10
_symmetry_cell_setting 'monoclinic'
loop_
_space_group_symop_operation_xyz
x,y,z
-x,y,-z
-x,-y,-z
x,-y,z
loop_
_atom_site_type_symbol
_atom_site_label
_atom_site_fract_x
_atom_site_fract_y
_atom_site_fract_z
Si Si1 0.339759 0.332606 0.512331
Si Si2 0.815165 0.836770 0.065180
Si Si3 0.774083 0.664950 0.731785
Si Si4 0.158851 0.667296 0.494278
Si Si5 0.927937 0.162006 0.878505
Si Si6 0.739544 0.333671 0.321065
Si Si7 0.705182 0.832831 0.882596
Si Si8 0.459450 0.333385 0.251104
O O1 0.320057 0.500000 0.527752
O O2 0.222865 0.267302 0.521895
O O3 0.548781 0.295898 0.391175
O O4 0.265865 0.271305 0.611014
O O5 0.642082 0.745882 0.175502
O O6 0.783645 0.000000 0.099421
O O7 0.817992 0.819520 0.994723
O O8 0.000000 0.782125 0.000000
O O9 0.786659 0.500000 0.742970
O O10 0.779736 0.754853 0.787200
O O11 0.593831 0.695287 0.788151
O O12 0.945965 0.704399 0.600654
O O13 0.187057 0.500000 0.478968
O O14 0.288981 0.727791 0.376609
O O15 0.813698 0.216369 0.883020
O O16 0.106903 0.253875 0.794052
O O17 0.984714 0.000000 0.839492
O O18 0.780919 0.500000 0.297615
O O19 0.721334 0.000000 0.863423
O O20 0.500000 0.786223 0.000000
O O21 0.491077 0.500000 0.245391
#
# Coordination Sequence:
#
# PCOD8064388 Si02
#       8
#     4   4   4   4   4   4   4   4
#     4   8  15  28  47  75 107 140 176 213 258 317
#     4  10  23  42  60  78 107 148 188 228 278 332
#     4  10  20  35  57  86 117 146 181 228 276 326
#     4   9  17  31  53  79 113 150 180 217 274 330
#     4  10  21  36  54  77 105 136 176 222 273 326
#     4   9  17  30  51  77 105 137 176 218 262 315
#     4  10  21  37  57  79 107 146 185 224 275 331
#     4  10  21  36  57  85 113 143 185 232 276 324
#
# _framework density 19.809407
#
# number of rings (size 3 to 8) (size 9 to 14) (size 15 to 20)
#    0.000    2.500    0.000    2.625    1.750    5.500 
#    0.000    1.875    0.000    3.000    0.000    0.000 
#    0.000    0.000    0.000    0.000    0.000    0.000 
#
# Total GULP energy -396640.417935 kJ/mol
# GULP energy per Si atom -12395.013060 kJ/mol
# Density = 1.976432 g / cm^3
# Si number density = 19.809407 Si / 1000 Ang^3
#
#
#
# Elastic Constant Matrix: (Units=GPa)
#
#
# Indices 1 2 3 4 5 6 
#
# 1 89.5673 22.4607 28.2658 0.0000 -13.2425 0.0000
# 2 22.4607 39.7707 37.9220 0.0000 -6.1667 0.0000
# 3 28.2658 37.9220 102.1543 0.0000 -11.9519 0.0000
# 4 0.0000 0.0000 0.0000 -285.5182 0.0000 104.6845
# 5 -13.2425 -6.1667 -11.9519 0.0000 31.3014 0.0000
# 6 0.0000 0.0000 0.0000 104.6845 0.0000 -11.0927
#
#
#
# Elastic Compliance Matrix: (Units=1/GPa)
#
#
# Indices 1 2 3 4 5 6 
#
# 1 0.013629 -0.006067 -0.001030 0.000000 0.004177 0.000000
# 2 -0.006067 0.041774 -0.013782 0.000000 0.000401 0.000000
# 3 -0.001030 -0.013782 0.015515 0.000000 0.002773 0.000000
# 4 0.000000 0.000000 0.000000 0.001424 0.000000 0.013435
# 5 0.004177 0.000401 0.002773 0.000000 0.034853 0.000000
# 6 0.000000 0.000000 0.000000 0.013435 0.000000 0.036644
#
#
# Mechanical properties :
#
#
# Convention : Reuss Voigt Hill
#
# Bulk Modulus (GPa) = 34.29408 45.42103 39.85755
# Shear Modulus (GPa) = 25.59962 -43.53900 -8.96969
#
# Velocity S-wave (km/s) = 3.59875 -4.69326 -2.13022
# Velocity P-wave (km/s) = 5.88367 2.52786 3.75683
#
# Compressibility (1/GPa) = 0.02915955
#
# Stress axis : x y z
#
# Youngs Moduli (GPa) = 73.37340 23.93843 64.45507
#
# Poissons Ratio (x) = 0.14524 0.06640
# Poissons Ratio (y) = 0.44516 0.88830
# Poissons Ratio (z) = 0.07558 0.32991
#
# Static dielectric constant tensor:
#      x y z
#    x 3.885070 0.000000 0.006500 
#    y 0.000000 3.170140 0.000000 
#    z 0.006500 0.000000 3.571240 
# 
# 
# High freq. dielectric constant tensor:
#      x y z
#    x 1.786310 0.000000 -0.003970 
#    y 0.000000 1.726480 0.000000 
#    z -0.003970 0.000000 1.776440 
# 
# From -- ./inp_files/89358.got.cif
#   From: 2010.06.25/outbox.cif.g09.slc.cpg/sg10_45_cif.got.tgz:89358.got - 2010.06.27 22:07:45.
