data_PCOD8064485
_publ_section_title
;
Structure prediction by ZEFSAII (Michael W. Deem and Ramdas Pophale) SiO2 
 PCOD8064485
Probable space group: P 2/M
;
_chemical_formula_sum "Si O2"
_cell_formula_units_Z 32
_cell_length_a 27.828705
_cell_length_b 8.692440
_cell_length_c 11.837067
_cell_angle_alpha 90.000000
_cell_angle_beta 146.988258
_cell_angle_gamma 90.000000
_cell_volume 1559.999972
_symmetry_space_group_name_H-M "P 2/M"
_symmetry_group_IT_number 10
_symmetry_cell_setting 'monoclinic'
loop_
_space_group_symop_operation_xyz
x,y,z
-x,y,-z
-x,-y,-z
x,-y,z
loop_
_atom_site_type_symbol
_atom_site_label
_atom_site_fract_x
_atom_site_fract_y
_atom_site_fract_z
Si Si1 0.576333 0.326713 0.570358
Si Si2 0.728592 0.818004 0.476973
Si Si3 0.618524 0.180976 0.047856
Si Si4 0.880942 0.179381 0.308877
Si Si5 0.043529 0.682599 0.755811
Si Si6 0.078652 0.817263 0.070817
Si Si7 0.292345 0.671947 0.978986
Si Si8 0.423033 0.820597 0.664566
O O1 0.500000 0.259086 0.500000
O O2 0.551134 0.500000 0.481759
O O3 0.589326 0.217552 0.490189
O O4 0.667830 0.326107 0.817587
O O5 0.694858 0.771200 0.286176
O O6 0.827830 0.756607 0.694208
O O7 0.656998 0.743431 0.422439
O O8 0.730254 0.000000 0.492990
O O9 0.633715 0.274410 0.963377
O O10 0.620669 0.000000 0.026176
O O11 0.520889 0.229138 0.900280
O O12 0.883651 0.264236 0.192524
O O13 0.787760 0.208837 0.183952
O O14 0.951876 0.244329 0.536129
O O15 0.897393 0.000000 0.322642
O O16 0.036751 0.500000 0.742507
O O17 0.067116 0.740458 0.926569
O O18 0.077883 0.000000 0.053875
O O19 0.000000 0.765354 0.000000
O O20 0.260006 0.500000 0.884851
O O21 0.413225 0.000000 0.663464
#
# Coordination Sequence:
#
# PCOD8064485 Si02
#       8
#     4   4   4   4   4   4   4   4
#     4  10  21  38  56  79 119 163 196 236 298 359
#     4   9  20  38  59  86 117 155 202 254 306 353
#     4  10  20  36  59  86 117 158 205 254 303 357
#     4  11  23  41  66  93 121 157 202 248 299 363
#     4  11  23  42  65  92 126 158 196 247 308 364
#     4  10  22  40  62  88 121 164 210 253 301 362
#     4  11  23  38  58  87 123 160 198 247 303 360
#     4  10  20  35  59  87 116 152 203 258 303 352
#
# _framework density 20.512820999999999
#
# number of rings (size 3 to 8) (size 9 to 14) (size 15 to 20)
#    0.000    1.750    1.250    3.750    3.500    3.000 
#    0.000    1.250    0.000    1.500    0.000    0.000 
#    0.000    0.000    0.000    0.000    0.000    0.000 
#
# Total GULP energy -396767.515355 kJ/mol
# GULP energy per Si atom -12398.984855 kJ/mol
# Density = 2.046613 g / cm^3
# Si number density = 20.512821 Si / 1000 Ang^3
#
#
#
# Elastic Constant Matrix: (Units=GPa)
#
#
# Indices 1 2 3 4 5 6 
#
# 1 122.8890 53.3969 92.6027 0.0000 4.1495 0.0000
# 2 53.3969 94.9610 71.3977 0.0000 -4.6644 0.0000
# 3 92.6027 71.3977 162.5104 0.0000 -5.0002 0.0000
# 4 0.0000 0.0000 0.0000 22.5709 0.0000 5.1202
# 5 4.1495 -4.6644 -5.0002 0.0000 40.8464 0.0000
# 6 0.0000 0.0000 0.0000 5.1202 0.0000 2.5670
#
#
#
# Elastic Compliance Matrix: (Units=1/GPa)
#
#
# Indices 1 2 3 4 5 6 
#
# 1 0.015106 -0.003128 -0.007319 0.000000 -0.002788 0.000000
# 2 -0.003128 0.016410 -0.005380 0.000000 0.001533 0.000000
# 3 -0.007319 -0.005380 0.012740 0.000000 0.001689 0.000000
# 4 0.000000 0.000000 0.000000 0.080918 0.000000 -0.161399
# 5 -0.002788 0.001533 0.001689 0.000000 0.025147 0.000000
# 6 0.000000 0.000000 0.000000 -0.161399 0.000000 0.711484
#
#
# Mechanical properties :
#
#
# Convention : Reuss Voigt Hill
#
# Bulk Modulus (GPa) = 79.35787 90.57277 84.96532
# Shear Modulus (GPa) = 5.57004 24.06108 14.81556
#
# Velocity S-wave (km/s) = 1.64963 3.42859 2.69040
# Velocity P-wave (km/s) = 6.51148 7.74104 7.15273
#
# Compressibility (1/GPa) = 0.01260115
#
# Stress axis : x y z
#
# Youngs Moduli (GPa) = 66.19766 60.93915 78.49370
#
# Poissons Ratio (x) = 0.19062 0.57453
# Poissons Ratio (y) = 0.20707 0.42229
# Poissons Ratio (z) = 0.48453 0.32785
#
# Static dielectric constant tensor:
#      x y z
#    x 3.803270 0.000000 0.151310 
#    y 0.000000 3.479670 0.000000 
#    z 0.151310 0.000000 3.851940 
# 
# 
# High freq. dielectric constant tensor:
#      x y z
#    x 1.807240 0.000000 0.005520 
#    y 0.000000 1.780230 0.000000 
#    z 0.005520 0.000000 1.811150 
# 
# From -- ./inp_files/58311.got.cif
#   From: 2010.06.25/outbox.cif.g09.slc.cpg/sg10_30_cif.got.tgz:58311.got - 2010.06.27 22:07:45.
