data_PCOD8064311
_publ_section_title
;
Structure prediction by ZEFSAII (Michael W. Deem and Ramdas Pophale) SiO2 
 PCOD8064311
Probable space group: P 2/M
;
_chemical_formula_sum "Si O2"
_cell_formula_units_Z 28
_cell_length_a 7.098143
_cell_length_b 9.052086
_cell_length_c 29.671516
_cell_angle_alpha 90.000000
_cell_angle_beta 126.961260
_cell_angle_gamma 90.000000
_cell_volume 1523.361199
_symmetry_space_group_name_H-M "P 2/M"
_symmetry_group_IT_number 10
_symmetry_cell_setting 'monoclinic'
loop_
_space_group_symop_operation_xyz
x,y,z
-x,y,-z
-x,-y,-z
x,-y,z
loop_
_atom_site_type_symbol
_atom_site_label
_atom_site_fract_x
_atom_site_fract_y
_atom_site_fract_z
Si Si1 0.312752 0.829810 0.351468
Si Si2 0.570256 0.166907 0.059131
Si Si3 0.084854 0.324384 0.648237
Si Si4 0.206079 0.326346 0.061551
Si Si5 0.881730 0.833607 0.860733
Si Si6 0.432782 0.827694 0.268610
Si Si7 0.852444 0.828106 0.435607
O O1 0.303770 0.790020 0.297085
O O2 0.578075 0.797891 0.406724
O O3 0.132934 0.726623 0.352308
O O4 0.242474 0.000000 0.349663
O O5 0.454746 0.267927 0.080231
O O6 0.843307 0.174866 0.109358
O O7 0.473242 0.000000 0.048859
O O8 0.500000 0.230865 0.000000
O O9 0.091081 0.500000 0.648353
O O10 0.328506 0.264244 0.704090
O O11 0.052853 0.264590 0.593034
O O12 0.202922 0.500000 0.058887
O O13 0.179121 0.278205 0.108749
O O14 0.000000 0.259752 0.000000
O O15 0.745696 0.783158 0.796524
O O16 0.808986 0.000000 0.864291
O O17 0.501865 0.000000 0.277699
O O18 0.000000 0.776818 0.500000
O O19 0.893121 0.000000 0.430095
#
# Coordination Sequence:
#
# PCOD8064311 Si02
#       7
#     4   4   4   4   4   4   4
#     4   9  18  35  58  81 109 146 189 233 274 320
#     4  10  20  35  57  82 107 137 178 224 269 321
#     4  11  22  35  55  83 117 152 184 225 280 333
#     4  11  23  36  53  79 112 146 176 211 267 335
#     4  10  21  38  60  83 106 138 183 233 279 325
#     4   9  20  39  60  80 104 140 189 237 277 323
#     4   9  19  37  60  85 113 149 194 236 271 315
#
# _framework density 18.380410000000001
#
# number of rings (size 3 to 8) (size 9 to 14) (size 15 to 20)
#    0.000    2.143    1.429    2.571    0.000    6.286 
#    0.000    5.714    0.000    0.000    0.000    0.000 
#    0.000    0.000    0.000    0.000    0.000    0.000 
#
# Total GULP energy -347267.611164 kJ/mol
# GULP energy per Si atom -12402.414684 kJ/mol
# Density = 1.833857 g / cm^3
# Si number density = 18.380410 Si / 1000 Ang^3
#
#
#
# Elastic Constant Matrix: (Units=GPa)
#
#
# Indices 1 2 3 4 5 6 
#
# 1 122.1363 64.1189 58.2932 0.0000 -4.2292 0.0000
# 2 64.1189 91.5454 48.6239 0.0000 -3.6310 0.0000
# 3 58.2932 48.6239 156.8199 0.0000 -0.3346 0.0000
# 4 0.0000 0.0000 0.0000 20.7862 0.0000 -1.0885
# 5 -4.2292 -3.6310 -0.3346 0.0000 17.7826 0.0000
# 6 0.0000 0.0000 0.0000 -1.0885 0.0000 18.8750
#
#
#
# Elastic Compliance Matrix: (Units=1/GPa)
#
#
# Indices 1 2 3 4 5 6 
#
# 1 0.013789 -0.008231 -0.002570 0.000000 0.001550 0.000000
# 2 -0.008231 0.018112 -0.002552 0.000000 0.001692 0.000000
# 3 -0.002570 -0.002552 0.008121 0.000000 -0.000980 0.000000
# 4 0.000000 0.000000 0.000000 0.048255 0.000000 0.002783
# 5 0.001550 0.001692 -0.000980 0.000000 0.056931 0.000000
# 6 0.000000 0.000000 0.000000 0.002783 0.000000 0.053141
#
#
# Mechanical properties :
#
#
# Convention : Reuss Voigt Hill
#
# Bulk Modulus (GPa) = 75.10643 79.17483 77.14063
# Shear Modulus (GPa) = 21.78701 24.78645 23.28673
#
# Velocity S-wave (km/s) = 3.44661 3.67621 3.56326
# Velocity P-wave (km/s) = 7.53590 7.82231 7.68044
#
# Compressibility (1/GPa) = 0.01331444
#
# Stress axis : x y z
#
# Youngs Moduli (GPa) = 72.52004 55.21298 123.13105
#
# Poissons Ratio (x) = 0.45448 0.31647
# Poissons Ratio (y) = 0.59695 0.31427
# Poissons Ratio (z) = 0.18639 0.14092
#
# Static dielectric constant tensor:
#      x y z
#    x 3.262630 0.000000 0.004720 
#    y 0.000000 3.275160 0.000000 
#    z 0.004720 0.000000 3.505890 
# 
# 
# High freq. dielectric constant tensor:
#      x y z
#    x 1.714050 0.000000 0.000720 
#    y 0.000000 1.703060 0.000000 
#    z 0.000720 0.000000 1.717440 
# 
# From -- ./inp_files/94361.got.cif
#   From: 2010.06.25/outbox.cif.g09.slc.cpg/sg10_48_cif.got.tgz:94361.got - 2010.06.27 22:07:45.
