data_PCOD8064476
_publ_section_title
;
Structure prediction by ZEFSAII (Michael W. Deem and Ramdas Pophale) SiO2 
 PCOD8064476
Probable space group: P 2/M
;
_chemical_formula_sum "Si O2"
_cell_formula_units_Z 32
_cell_length_a 14.136123
_cell_length_b 9.059416
_cell_length_c 14.078368
_cell_angle_alpha 90.000000
_cell_angle_beta 117.882855
_cell_angle_gamma 90.000000
_cell_volume 1593.634498
_symmetry_space_group_name_H-M "P 2/M"
_symmetry_group_IT_number 10
_symmetry_cell_setting 'monoclinic'
loop_
_space_group_symop_operation_xyz
x,y,z
-x,y,-z
-x,-y,-z
x,-y,z
loop_
_atom_site_type_symbol
_atom_site_label
_atom_site_fract_x
_atom_site_fract_y
_atom_site_fract_z
Si Si1 0.775379 0.326142 0.989099
Si Si2 0.044441 0.174337 0.805112
Si Si3 0.533724 0.327653 0.910410
Si Si4 0.605514 0.836579 0.613002
Si Si5 0.033011 0.671536 0.410137
Si Si6 0.450240 0.825412 0.695726
Si Si7 0.721092 0.671773 0.514215
Si Si8 0.093680 0.337514 0.120394
O O1 0.794269 0.500000 0.015321
O O2 0.655293 0.276795 0.952871
O O3 0.802315 0.285825 0.891168
O O4 0.849926 0.238130 0.096610
O O5 0.039173 0.233943 0.695578
O O6 0.936698 0.224444 0.810624
O O7 0.050562 0.000000 0.808084
O O8 0.518951 0.500000 0.882470
O O9 0.455971 0.238182 0.804250
O O10 0.500000 0.285128 0.000000
O O11 0.500000 0.842354 0.500000
O O12 0.562417 0.782820 0.695588
O O13 0.692746 0.726356 0.608202
O O14 0.657083 0.000000 0.643027
O O15 0.007673 0.500000 0.381371
O O16 0.156758 0.707546 0.450907
O O17 0.000000 0.720611 0.500000
O O18 0.348238 0.756372 0.596180
O O19 0.433737 0.000000 0.689502
O O20 0.694556 0.500000 0.495073
O O21 0.111642 0.500000 0.174998
O O22 0.000000 0.346967 0.000000
#
# Coordination Sequence:
#
# PCOD8064476 Si02
#       8
#     4   4   4   4   4   4   4   4
#     4   9  19  37  59  81 110 147 182 222 270 319
#     4  11  22  35  56  85 114 142 175 223 277 327
#     4  10  22  39  58  81 108 142 189 235 268 310
#     4   8  16  32  53  80 113 145 174 210 268 332
#     4  10  23  42  59  76 104 145 190 229 267 319
#     4  10  21  37  57  81 114 150 177 215 274 331
#     4  10  20  35  59  86 108 138 182 228 270 317
#     4   8  15  31  55  81 109 142 179 217 264 324
#
# _framework density 20.079885999999998
#
# number of rings (size 3 to 8) (size 9 to 14) (size 15 to 20)
#    0.000    2.500    0.000    3.375    0.000    9.000 
#    0.000    8.750    0.000    0.000    0.000    0.000 
#    0.000    0.000    0.000    0.000    0.000    0.000 
#
# Total GULP energy -396778.099423 kJ/mol
# GULP energy per Si atom -12399.315607 kJ/mol
# Density = 2.003418 g / cm^3
# Si number density = 20.079886 Si / 1000 Ang^3
#
#
#
# Elastic Constant Matrix: (Units=GPa)
#
#
# Indices 1 2 3 4 5 6 
#
# 1 55.0338 6.8528 -0.1993 0.0000 -8.5156 0.0000
# 2 6.8528 76.1545 31.1176 0.0000 -3.0179 0.0000
# 3 -0.1993 31.1176 67.4333 0.0000 -16.6121 0.0000
# 4 0.0000 0.0000 0.0000 9.0257 0.0000 -5.1049
# 5 -8.5156 -3.0179 -16.6121 0.0000 26.0218 0.0000
# 6 0.0000 0.0000 0.0000 -5.1049 0.0000 13.5639
#
#
#
# Elastic Compliance Matrix: (Units=1/GPa)
#
#
# Indices 1 2 3 4 5 6 
#
# 1 0.019831 -0.002857 0.003434 0.000000 0.008351 0.000000
# 2 -0.002857 0.016856 -0.008942 0.000000 -0.004688 0.000000
# 3 0.003434 -0.008942 0.022531 0.000000 0.014470 0.000000
# 4 0.000000 0.000000 0.000000 0.140757 0.000000 0.052975
# 5 0.008351 -0.004688 0.014470 0.000000 0.049856 0.000000
# 6 0.000000 0.000000 0.000000 0.052975 0.000000 0.093663
#
#
# Mechanical properties :
#
#
# Convention : Reuss Voigt Hill
#
# Bulk Modulus (GPa) = 23.53574 30.46264 26.99919
# Shear Modulus (GPa) = 13.35522 20.44564 16.90043
#
# Velocity S-wave (km/s) = 2.58176 3.19441 2.90428
# Velocity P-wave (km/s) = 4.54245 5.36743 4.97208
#
# Compressibility (1/GPa) = 0.04248857
#
# Stress axis : x y z
#
# Youngs Moduli (GPa) = 50.42627 59.32532 44.38421
#
# Poissons Ratio (x) = 0.16948 -0.15242
# Poissons Ratio (y) = 0.14406 0.39688
# Poissons Ratio (z) = -0.17316 0.53048
#
# Static dielectric constant tensor:
#      x y z
#    x 3.898470 0.000000 -0.275510 
#    y 0.000000 3.527200 0.000000 
#    z -0.275510 0.000000 3.551750 
# 
# 
# High freq. dielectric constant tensor:
#      x y z
#    x 1.782440 0.000000 -0.007910 
#    y 0.000000 1.775310 0.000000 
#    z -0.007910 0.000000 1.779540 
# 
# From -- ./inp_files/66589.got.cif
#   From: 2010.06.25/outbox.cif.g09.slc.cpg/sg10_34_cif.got.tgz:66589.got - 2010.06.27 22:07:45.
