data_PCOD8064770
_publ_section_title
;
Structure prediction by ZEFSAII (Michael W. Deem and Ramdas Pophale) SiO2 
 PCOD8064770
Probable space group: P 2/M
;
_chemical_formula_sum "Si O2"
_cell_formula_units_Z 20
_cell_length_a 9.522885
_cell_length_b 8.496381
_cell_length_c 26.952408
_cell_angle_alpha 90.000000
_cell_angle_beta 28.150669
_cell_angle_gamma 90.000000
_cell_volume 1028.846246
_symmetry_space_group_name_H-M "P 2/M"
_symmetry_group_IT_number 10
_symmetry_cell_setting 'monoclinic'
loop_
_space_group_symop_operation_xyz
x,y,z
-x,y,-z
-x,-y,-z
x,-y,z
loop_
_atom_site_type_symbol
_atom_site_label
_atom_site_fract_x
_atom_site_fract_y
_atom_site_fract_z
Si Si1 0.167468 0.183342 0.596260
Si Si2 0.602651 0.317718 0.817282
Si Si3 0.675675 0.816276 0.191691
Si Si4 0.353741 0.184443 0.993659
Si Si5 0.889004 0.316924 0.588455
O O1 0.500000 0.247716 0.500000
O O2 0.948809 0.276460 0.701228
O O3 0.076735 0.212140 0.567887
O O4 0.145539 0.000000 0.616044
O O5 0.549117 0.500000 0.823257
O O6 0.394986 0.221492 0.843786
O O7 0.522741 0.277833 0.898273
O O8 0.460444 0.720429 0.295781
O O9 0.625050 0.000000 0.216535
O O10 0.009365 0.765240 0.100993
O O11 0.390337 0.000000 0.971988
O O12 0.500000 0.234217 0.000000
O O13 0.947080 0.500000 0.580893
O O14 0.000000 0.266771 0.500000
#
# Coordination Sequence:
#
# PCOD8064770 Si02
#       5
#     4   4   4   4   4
#     4  10  21  37  58  82 108 142 184 225 265 316
#     4  11  22  36  57  82 110 144 180 221 269 324
#     4  10  20  36  59  81 105 143 186 225 265 316
#     4  10  22  39  57  80 110 142 180 226 272 318
#     4  10  21  36  55  81 113 145 178 221 271 322
#
# _framework density 19.439252
#
# number of rings (size 3 to 8) (size 9 to 14) (size 15 to 20)
#    0.000    1.800    0.000    6.600    0.000    9.200 
#    0.000    6.000    0.000    0.000    0.000    0.000 
#    0.000    0.000    0.000    0.000    0.000    0.000 
#
# Total GULP energy -248089.151777 kJ/mol
# GULP energy per Si atom -12404.457589 kJ/mol
# Density = 1.939501 g / cm^3
# Si number density = 19.439252 Si / 1000 Ang^3
#
#
#
# Elastic Constant Matrix: (Units=GPa)
#
#
# Indices 1 2 3 4 5 6 
#
# 1 99.7050 14.9163 89.4384 0.0000 -2.2347 0.0000
# 2 14.9163 44.5436 27.9866 0.0000 2.3059 0.0000
# 3 89.4384 27.9866 144.2701 0.0000 -3.9816 0.0000
# 4 0.0000 0.0000 0.0000 25.3059 0.0000 14.4011
# 5 -2.2347 2.3059 -3.9816 0.0000 44.1474 0.0000
# 6 0.0000 0.0000 0.0000 14.4011 0.0000 13.7569
#
#
#
# Elastic Compliance Matrix: (Units=1/GPa)
#
#
# Indices 1 2 3 4 5 6 
#
# 1 0.022674 0.001428 -0.014340 0.000000 -0.000220 0.000000
# 2 0.001428 0.025797 -0.005940 0.000000 -0.001811 0.000000
# 3 -0.014340 -0.005940 0.017004 0.000000 0.001118 0.000000
# 4 0.000000 0.000000 0.000000 0.097746 0.000000 -0.102323
# 5 -0.000220 -0.001811 0.001118 0.000000 0.022836 0.000000
# 6 0.000000 0.000000 0.000000 -0.102323 0.000000 0.179805
#
#
# Mechanical properties :
#
#
# Convention : Reuss Voigt Hill
#
# Bulk Modulus (GPa) = 36.00600 61.46684 48.73642
# Shear Modulus (GPa) = 12.11175 27.05387 19.58281
#
# Velocity S-wave (km/s) = 2.49882 3.73461 3.17738
# Velocity P-wave (km/s) = 5.18536 7.09120 6.21181
#
# Compressibility (1/GPa) = 0.02777315
#
# Stress axis : x y z
#
# Youngs Moduli (GPa) = 44.10325 38.76376 58.80906
#
# Poissons Ratio (x) = -0.05536 0.84330
# Poissons Ratio (y) = -0.06298 0.34931
# Poissons Ratio (z) = 0.63242 0.23024
#
# Static dielectric constant tensor:
#      x y z
#    x 3.456390 0.000000 -0.078340 
#    y 0.000000 3.506020 0.000000 
#    z -0.078340 0.000000 3.730350 
# 
# 
# High freq. dielectric constant tensor:
#      x y z
#    x 1.747480 0.000000 -0.000480 
#    y 0.000000 1.761950 0.000000 
#    z -0.000480 0.000000 1.769040 
# 
# From -- ./inp_files/36619.got.cif
#   From: 2010.06.25/outbox.cif.g09.slc.cpg/sg10_19_cif.got.tgz:36619.got - 2010.06.27 22:07:45.
