data_PCOD8064334
_publ_section_title
;
Structure prediction by ZEFSAII (Michael W. Deem and Ramdas Pophale) SiO2 
 PCOD8064334
Probable space group: P 2/M
;
_chemical_formula_sum "Si O2"
_cell_formula_units_Z 28
_cell_length_a 13.624743
_cell_length_b 9.004575
_cell_length_c 13.647176
_cell_angle_alpha 90.000000
_cell_angle_beta 59.600508
_cell_angle_gamma 90.000000
_cell_volume 1444.117653
_symmetry_space_group_name_H-M "P 2/M"
_symmetry_group_IT_number 10
_symmetry_cell_setting 'monoclinic'
loop_
_space_group_symop_operation_xyz
x,y,z
-x,y,-z
-x,-y,-z
x,-y,z
loop_
_atom_site_type_symbol
_atom_site_label
_atom_site_fract_x
_atom_site_fract_y
_atom_site_fract_z
Si Si1 0.174330 0.174850 0.659512
Si Si2 0.402860 0.325246 0.474649
Si Si3 0.965122 0.170012 0.629065
Si Si4 0.535992 0.327517 0.774821
Si Si5 0.744807 0.327325 0.810128
Si Si6 0.878459 0.823353 0.096629
Si Si7 0.310381 0.823997 0.959763
O O1 0.285849 0.248592 0.560288
O O2 0.149382 0.236528 0.780905
O O3 0.069114 0.219667 0.644681
O O4 0.194345 0.000000 0.650348
O O5 0.500000 0.270879 0.500000
O O6 0.383729 0.500000 0.490643
O O7 0.440177 0.275705 0.347661
O O8 0.861877 0.279509 0.701611
O O9 0.000000 0.190304 0.500000
O O10 0.929642 0.000000 0.669517
O O11 0.502379 0.500000 0.796705
O O12 0.646127 0.291953 0.783092
O O13 0.434015 0.232642 0.869336
O O14 0.748541 0.500000 0.835408
O O15 0.725131 0.233992 0.917019
O O16 0.781023 0.764911 0.072913
O O17 0.883272 0.000000 0.094750
O O18 0.000000 0.759028 0.000000
O O19 0.311993 0.000000 0.961938
#
# Coordination Sequence:
#
# PCOD8064334 Si02
#       7
#     4   4   4   4   4   4   4
#     4  10  20  35  57  83 111 144 181 224 274 326
#     4  10  21  37  57  81 111 146 182 224 271 320
#     4  10  21  37  58  85 114 143 180 228 274 317
#     4  10  22  39  56  78 111 147 181 220 271 328
#     4  11  23  38  57  80 110 149 185 220 270 330
#     4   9  18  34  55  79 109 143 177 218 272 327
#     4  11  22  36  58  84 108 140 184 231 274 318
#
# _framework density 19.389002000000001
#
# number of rings (size 3 to 8) (size 9 to 14) (size 15 to 20)
#    0.000    1.857    0.000    3.857    0.000    6.857 
#    0.000    0.714    0.000    3.000    0.000    0.000 
#    0.000    0.000    0.000    0.000    0.000    0.000 
#
# Total GULP energy -347339.113173 kJ/mol
# GULP energy per Si atom -12404.968328 kJ/mol
# Density = 1.934487 g / cm^3
# Si number density = 19.389002 Si / 1000 Ang^3
#
#
#
# Elastic Constant Matrix: (Units=GPa)
#
#
# Indices 1 2 3 4 5 6 
#
# 1 147.6089 41.8586 62.5443 0.0000 3.6480 0.0000
# 2 41.8586 39.3468 31.5418 0.0000 -6.2145 0.0000
# 3 62.5443 31.5418 113.8310 0.0000 1.2019 0.0000
# 4 0.0000 0.0000 0.0000********** 0.0000**********
# 5 3.6480 -6.2145 1.2019 0.0000 46.0021 0.0000
# 6 0.0000 0.0000 0.0000********** 0.0000**********
#
#
#
# Elastic Compliance Matrix: (Units=1/GPa)
#
#
# Indices 1 2 3 4 5 6 
#
# 1 0.010862 -0.009134 -0.003416 0.000000 -0.002006 0.000000
# 2 -0.009134 0.041379 -0.006516 0.000000 0.006485 0.000000
# 3 -0.003416 -0.006516 0.012477 0.000000 -0.000935 0.000000
# 4 0.000000 0.000000 0.000000 0.010639 0.000000 0.018042
# 5 -0.002006 0.006485 -0.000935 0.000000 0.022798 0.000000
# 6 0.000000 0.000000 0.000000 0.018042 0.000000 0.030589
#
#
# Mechanical properties :
#
#
# Convention : Reuss Voigt Hill
#
# Bulk Modulus (GPa) = 37.61196 63.63068 50.62132
# Shear Modulus (GPa) = 28.45159 -113986.60543 -56979.07692
#
# Velocity S-wave (km/s) = 3.83483 -242.72811 -171.61327
# Velocity P-wave (km/s) = 6.24889 280.21960 198.09591
#
# Compressibility (1/GPa) = 0.02658729
#
# Stress axis : x y z
#
# Youngs Moduli (GPa) = 92.06674 24.16669 80.14597
#
# Poissons Ratio (x) = 0.22073 0.27377
# Poissons Ratio (y) = 0.84090 0.52223
# Poissons Ratio (z) = 0.31449 0.15747
#
# Static dielectric constant tensor:
#      x y z
#    x 3.735580 0.000000 0.046440 
#    y 0.000000 3.358810 0.000000 
#    z 0.046440 0.000000 3.511580 
# 
# 
# High freq. dielectric constant tensor:
#      x y z
#    x 1.775030 0.000000 0.003970 
#    y 0.000000 1.736000 0.000000 
#    z 0.003970 0.000000 1.773500 
# 
# From -- ./inp_files/63650.got.cif
#   From: 2010.06.25/outbox.cif.g09.slc.cpg/sg10_32_cif.got.tgz:63650.got - 2010.06.27 22:07:45.
