data_PCOD8064758
_publ_section_title
;
Structure prediction by ZEFSAII (Michael W. Deem and Ramdas Pophale) SiO2 
 PCOD8064758
Probable space group: P 2/M
;
_chemical_formula_sum "Si O2"
_cell_formula_units_Z 32
_cell_length_a 11.120568
_cell_length_b 9.000427
_cell_length_c 14.950132
_cell_angle_alpha 90.000000
_cell_angle_beta 94.642501
_cell_angle_gamma 90.000000
_cell_volume 1491.447251
_symmetry_space_group_name_H-M "P 2/M"
_symmetry_group_IT_number 10
_symmetry_cell_setting 'monoclinic'
loop_
_space_group_symop_operation_xyz
x,y,z
-x,y,-z
-x,-y,-z
x,-y,z
loop_
_atom_site_type_symbol
_atom_site_label
_atom_site_fract_x
_atom_site_fract_y
_atom_site_fract_z
Si Si1 0.987865 0.672865 0.895750
Si Si2 0.640283 0.336944 0.992800
Si Si3 0.373264 0.670558 0.211934
Si Si4 0.396407 0.832699 0.719626
Si Si5 0.892582 0.673306 0.562000
Si Si6 0.156004 0.175423 0.262988
Si Si7 0.785843 0.166037 0.138280
Si Si8 0.630770 0.671231 0.462505
O O1 0.955789 0.500000 0.887086
O O2 0.112004 0.709701 0.853910
O O3 0.888179 0.764242 0.835764
O O4 0.000000 0.724070 0.000000
O O5 0.693836 0.500000 0.022954
O O6 0.694089 0.203742 0.053186
O O7 0.500000 0.339117 0.000000
O O8 0.671710 0.307787 0.891775
O O9 0.364848 0.500000 0.242465
O O10 0.510114 0.722805 0.227879
O O11 0.294546 0.769287 0.275634
O O12 0.275259 0.826821 0.769473
O O13 0.361017 0.779812 0.620031
O O14 0.448563 0.000000 0.719533
O O15 0.907583 0.500000 0.582158
O O16 0.916536 0.759315 0.656607
O O17 0.753628 0.708710 0.524735
O O18 0.000000 0.723987 0.500000
O O19 0.146005 0.000000 0.265268
O O20 0.837162 0.000000 0.124100
O O21 0.500000 0.703368 0.500000
O O22 0.634893 0.500000 0.432445
#
# Coordination Sequence:
#
# PCOD8064758 Si02
#       8
#     4   4   4   4   4   4   4   4
#     4  11  25  45  68  93 125 171 224 271 318 381
#     4  10  20  36  58  87 121 166 216 261 312 375
#     4  11  22  39  64  92 127 169 218 266 314 378
#     4  11  24  39  60  94 131 165 205 257 325 390
#     4  10  23  44  69  99 131 171 224 275 326 392
#     4  12  26  43  67  98 134 172 212 265 330 390
#     4  11  24  39  59  91 129 166 207 261 326 388
#     4  10  22  41  66  94 125 165 214 267 324 388
#
# _framework density 21.455669
#
# number of rings (size 3 to 8) (size 9 to 14) (size 15 to 20)
#    0.000    1.250    1.250    4.125    1.750    8.750 
#    0.000    0.000    0.000    0.000    0.000    0.000 
#    0.000    0.000    0.000    0.000    0.000    0.000 
#
# Total GULP energy -396737.621192 kJ/mol
# GULP energy per Si atom -12398.050662 kJ/mol
# Density = 2.140683 g / cm^3
# Si number density = 21.455669 Si / 1000 Ang^3
#
#
#
# Elastic Constant Matrix: (Units=GPa)
#
#
# Indices 1 2 3 4 5 6 
#
# 1 100.3124 36.5718 38.7677 0.0000 -12.9522 0.0000
# 2 36.5718 107.6164 63.1640 0.0000 -10.4194 0.0000
# 3 38.7677 63.1640 94.3484 0.0000 -13.0303 0.0000
# 4 0.0000 0.0000 0.0000 418.6620 0.0000 -10.9813
# 5 -12.9522 -10.4194 -13.0303 0.0000 31.0280 0.0000
# 6 0.0000 0.0000 0.0000 -10.9813 0.0000 29.1587
#
#
#
# Elastic Compliance Matrix: (Units=1/GPa)
#
#
# Indices 1 2 3 4 5 6 
#
# 1 0.012373 -0.001930 -0.003363 0.000000 0.003104 0.000000
# 2 -0.001930 0.015631 -0.009616 0.000000 0.000405 0.000000
# 3 -0.003363 -0.009616 0.018873 0.000000 0.003293 0.000000
# 4 0.000000 0.000000 0.000000 0.002412 0.000000 0.000909
# 5 0.003104 0.000405 0.003293 0.000000 0.035044 0.000000
# 6 0.000000 0.000000 0.000000 0.000909 0.000000 0.034637
#
#
# Mechanical properties :
#
#
# Convention : Reuss Voigt Hill
#
# Bulk Modulus (GPa) = 58.61841 64.36490 61.49165
# Shear Modulus (GPa) = 32.36757 106.68798 69.52778
#
# Velocity S-wave (km/s) = 3.88826 7.05923 5.69874
# Velocity P-wave (km/s) = 6.89479 9.82384 8.48663
#
# Compressibility (1/GPa) = 0.01705949
#
# Stress axis : x y z
#
# Youngs Moduli (GPa) = 80.81990 63.97437 52.98551
#
# Poissons Ratio (x) = 0.12350 0.17819
# Poissons Ratio (y) = 0.15601 0.50949
# Poissons Ratio (z) = 0.27180 0.61515
#
# Static dielectric constant tensor:
#      x y z
#    x 4.264350 0.000000 0.029960 
#    y 0.000000 3.867050 0.000000 
#    z 0.029960 0.000000 3.955580 
# 
# 
# High freq. dielectric constant tensor:
#      x y z
#    x 1.852070 0.000000 -0.008670 
#    y 0.000000 1.840140 0.000000 
#    z -0.008670 0.000000 1.843430 
# 
# From -- ./inp_files/63850.got.cif
#   From: 2010.06.25/outbox.cif.g09.slc.cpg/sg10_32_cif.got.tgz:63850.got - 2010.06.27 22:07:45.
