data_PCOD8064207
_publ_section_title
;
Structure prediction by ZEFSAII (Michael W. Deem and Ramdas Pophale) SiO2 
 PCOD8064207
Probable space group: P 2/M
;
_chemical_formula_sum "Si O2"
_cell_formula_units_Z 32
_cell_length_a 21.206979
_cell_length_b 9.229314
_cell_length_c 27.374012
_cell_angle_alpha 90.000000
_cell_angle_beta 160.892110
_cell_angle_gamma 90.000000
_cell_volume 1753.865971
_symmetry_space_group_name_H-M "P 2/M"
_symmetry_group_IT_number 10
_symmetry_cell_setting 'monoclinic'
loop_
_space_group_symop_operation_xyz
x,y,z
-x,y,-z
-x,-y,-z
x,-y,z
loop_
_atom_site_type_symbol
_atom_site_label
_atom_site_fract_x
_atom_site_fract_y
_atom_site_fract_z
Si Si1 0.280592 0.329064 0.332417
Si Si2 0.976561 0.335614 0.188348
Si Si3 0.360710 0.829554 0.785421
Si Si4 0.779277 0.831869 0.123705
Si Si5 0.700990 0.665216 0.898590
Si Si6 0.076571 0.167693 0.664962
Si Si7 0.712215 0.670369 0.367654
Si Si8 0.998288 0.830631 0.941583
O O1 0.500000 0.279363 0.500000
O O2 0.262132 0.500000 0.308686
O O3 0.167953 0.286170 0.299458
O O4 0.186606 0.247349 0.217676
O O5 0.997652 0.500000 0.221072
O O6 0.948840 0.241856 0.216575
O O7 0.792556 0.313457 0.018949
O O8 0.212091 0.791052 0.719210
O O9 0.290838 0.746713 0.686739
O O10 0.362949 0.000000 0.776057
O O11 0.570312 0.772619 0.955078
O O12 0.805930 0.797794 0.200036
O O13 0.793734 0.000000 0.123135
O O14 0.731313 0.500000 0.903131
O O15 0.477401 0.706117 0.739410
O O16 0.801602 0.770191 0.933420
O O17 0.889089 0.267937 0.527985
O O18 0.013530 0.000000 0.616570
O O19 0.734269 0.500000 0.375290
O O20 0.984806 0.000000 0.920108
O O21 0.000000 0.797974 0.000000
#
# Coordination Sequence:
#
# PCOD8064207 Si02
#       8
#     4   4   4   4   4   4   4   4
#     4   9  19  37  59  82 110 147 185 219 262 319
#     4   9  17  33  56  80 107 138 179 226 263 310
#     4  10  20  36  59  80 103 142 186 223 268 327
#     4  10  20  35  56  80 106 141 182 222 268 321
#     4   9  19  36  57  79 106 144 186 222 260 320
#     4  10  22  38  53  77 112 145 179 223 272 326
#     4  11  22  37  56  81 110 140 181 228 272 319
#     4  10  21  36  56  85 116 142 176 225 272 315
#
# _framework density 18.245407
#
# number of rings (size 3 to 8) (size 9 to 14) (size 15 to 20)
#    0.000    2.250    1.250    2.250    0.000    8.250 
#    2.250    0.000    0.000    2.250    0.000    0.000 
#    0.000    0.000    0.000    0.000    0.000    0.000 
#
# Total GULP energy -396881.675782 kJ/mol
# GULP energy per Si atom -12402.552368 kJ/mol
# Density = 1.820388 g / cm^3
# Si number density = 18.245407 Si / 1000 Ang^3
#
#
#
# Elastic Constant Matrix: (Units=GPa)
#
#
# Indices 1 2 3 4 5 6 
#
# 1 90.5932 46.6362 38.3677 0.0000 7.8411 0.0000
# 2 46.6362 60.2566 36.7355 0.0000 4.3517 0.0000
# 3 38.3677 36.7355 98.4699 0.0000 18.3787 0.0000
# 4 0.0000 0.0000 0.0000 17.2764 0.0000 11.5683
# 5 7.8411 4.3517 18.3787 0.0000 24.6746 0.0000
# 6 0.0000 0.0000 0.0000 11.5683 0.0000 20.0586
#
#
#
# Elastic Compliance Matrix: (Units=1/GPa)
#
#
# Indices 1 2 3 4 5 6 
#
# 1 0.018895 -0.013236 -0.002020 0.000000 -0.002165 0.000000
# 2 -0.013236 0.030890 -0.007126 0.000000 0.004066 0.000000
# 3 -0.002020 -0.007126 0.015385 0.000000 -0.009561 0.000000
# 4 0.000000 0.000000 0.000000 0.094299 0.000000 -0.054385
# 5 -0.002165 0.004066 -0.009561 0.000000 0.047620 0.000000
# 6 0.000000 0.000000 0.000000 -0.054385 0.000000 0.081219
#
#
# Mechanical properties :
#
#
# Convention : Reuss Voigt Hill
#
# Bulk Modulus (GPa) = 49.00271 54.75541 51.87906
# Shear Modulus (GPa) = 14.71130 20.90726 17.80928
#
# Velocity S-wave (km/s) = 2.84263 3.38877 3.12764
# Velocity P-wave (km/s) = 6.13921 6.73702 6.44505
#
# Compressibility (1/GPa) = 0.02040703
#
# Stress axis : x y z
#
# Youngs Moduli (GPa) = 52.92368 32.37250 64.99684
#
# Poissons Ratio (x) = 0.42848 0.13131
# Poissons Ratio (y) = 0.70050 0.46314
# Poissons Ratio (z) = 0.10692 0.23068
#
# Static dielectric constant tensor:
#      x y z
#    x 3.298600 0.000000 0.123650 
#    y 0.000000 3.321440 0.000000 
#    z 0.123650 0.000000 3.429890 
# 
# 
# High freq. dielectric constant tensor:
#      x y z
#    x 1.708190 0.000000 0.008840 
#    y 0.000000 1.703300 0.000000 
#    z 0.008840 0.000000 1.706130 
# 
# From -- ./inp_files/86745.got.cif
#   From: 2010.06.25/outbox.cif.g09.slc.cpg/sg10_44_cif.got.tgz:86745.got - 2010.06.27 22:07:45.
