data_PCOD8064753
_publ_section_title
;
Structure prediction by ZEFSAII (Michael W. Deem and Ramdas Pophale) SiO2 
 PCOD8064753
Probable space group: P 2/M
;
_chemical_formula_sum "Si O2"
_cell_formula_units_Z 32
_cell_length_a 9.016634
_cell_length_b 14.257697
_cell_length_c 12.518949
_cell_angle_alpha 90.000000
_cell_angle_beta 87.462344
_cell_angle_gamma 90.000000
_cell_volume 1607.813191
_symmetry_space_group_name_H-M "P 2/M"
_symmetry_group_IT_number 10
_symmetry_cell_setting 'monoclinic'
loop_
_space_group_symop_operation_xyz
x,y,z
-x,y,-z
-x,-y,-z
x,-y,z
loop_
_atom_site_type_symbol
_atom_site_label
_atom_site_fract_x
_atom_site_fract_y
_atom_site_fract_z
Si Si1 0.826806 0.106185 0.031880
Si Si2 0.325580 0.710976 0.000932
Si Si3 0.713757 0.895949 0.273001
Si Si4 0.813514 0.735797 0.618716
Si Si5 0.421202 0.894317 0.391948
Si Si6 0.154360 0.727338 0.617833
Si Si7 0.825075 0.607797 0.810939
Si Si8 0.833212 0.390552 0.183934
O O1 0.782713 0.128659 0.155670
O O2 0.774543 0.000000 0.003613
O O3 0.742738 0.186515 0.967372
O O4 0.000000 0.116634 0.000000
O O5 0.280104 0.634537 0.088805
O O6 0.500000 0.722002 0.000000
O O7 0.267736 0.672824 0.889376
O O8 0.534350 0.890478 0.286784
O O9 0.765272 0.824066 0.360434
O O10 0.767137 0.000000 0.304193
O O11 0.716903 0.829189 0.634013
O O12 0.797533 0.692012 0.500803
O O13 0.765403 0.660192 0.707915
O O14 0.984421 0.758358 0.633613
O O15 0.500000 0.861910 0.500000
O O16 0.360433 0.000000 0.408474
O O17 0.200671 0.642582 0.694421
O O18 0.807212 0.500000 0.783549
O O19 0.993194 0.629590 0.843411
O O20 0.793461 0.500000 0.172057
#
# Coordination Sequence:
#
# PCOD8064753 Si02
#       8
#     4   4   4   4   4   4   4   4
#     4  10  22  41  65  91 121 160 205 251 302 363
#     4  12  25  39  63  92 125 159 200 252 306 366
#     4  10  20  36  61  87 119 161 200 245 301 365
#     4  10  22  36  60  89 125 158 201 254 303 361
#     4  10  20  36  58  86 122 165 206 245 299 365
#     4  10  20  37  59  92 120 156 204 254 305 360
#     4  10  23  42  63  87 119 162 207 255 309 365
#     4  10  21  40  65  88 115 157 208 257 309 365
#
# _framework density 19.902809000000001
#
# number of rings (size 3 to 8) (size 9 to 14) (size 15 to 20)
#    0.000    1.750    2.500    1.500    3.500    3.250 
#    0.000    4.375    0.000    0.375    0.000    0.000 
#    0.000    0.000    0.000    0.000    0.000    0.000 
#
# Total GULP energy -396672.435267 kJ/mol
# GULP energy per Si atom -12396.013602 kJ/mol
# Density = 1.985751 g / cm^3
# Si number density = 19.902809 Si / 1000 Ang^3
#
#
#
# Elastic Constant Matrix: (Units=GPa)
#
#
# Indices 1 2 3 4 5 6 
#
# 1 90.0774 52.4177 43.1867 0.0000 -1.9527 0.0000
# 2 52.4177 111.3003 32.7763 0.0000 16.8709 0.0000
# 3 43.1867 32.7763 91.2428 0.0000 -5.4750 0.0000
# 4 0.0000 0.0000 0.0000 26.9052 0.0000 6.9368
# 5 -1.9527 16.8709 -5.4750 0.0000 22.9293 0.0000
# 6 0.0000 0.0000 0.0000 6.9368 0.0000 11.0078
#
#
#
# Elastic Compliance Matrix: (Units=1/GPa)
#
#
# Indices 1 2 3 4 5 6 
#
# 1 0.018575 -0.008060 -0.005525 0.000000 0.006193 0.000000
# 2 -0.008060 0.015427 -0.002485 0.000000 -0.012630 0.000000
# 3 -0.005525 -0.002485 0.014760 0.000000 0.004882 0.000000
# 4 0.000000 0.000000 0.000000 0.044378 0.000000 -0.027966
# 5 0.006193 -0.012630 0.004882 0.000000 0.054598 0.000000
# 6 0.000000 0.000000 0.000000 -0.027966 0.000000 0.108467
#
#
# Mechanical properties :
#
#
# Convention : Reuss Voigt Hill
#
# Bulk Modulus (GPa) = 60.15694 61.04243 60.59969
# Shear Modulus (GPa) = 17.01347 23.11779 20.06563
#
# Velocity S-wave (km/s) = 2.92692 3.41183 3.17863
# Velocity P-wave (km/s) = 6.45859 6.80129 6.63216
#
# Compressibility (1/GPa) = 0.01662319
#
# Stress axis : x y z
#
# Youngs Moduli (GPa) = 53.83664 64.82314 67.74918
#
# Poissons Ratio (x) = 0.52245 0.37431
# Poissons Ratio (y) = 0.43390 0.16834
# Poissons Ratio (z) = 0.29745 0.16107
#
# Static dielectric constant tensor:
#      x y z
#    x 3.535600 0.000000 -0.154640 
#    y 0.000000 3.688320 0.000000 
#    z -0.154640 0.000000 3.730750 
# 
# 
# High freq. dielectric constant tensor:
#      x y z
#    x 1.764040 0.000000 -0.015750 
#    y 0.000000 1.782690 0.000000 
#    z -0.015750 0.000000 1.777370 
# 
# From -- ./inp_files/42983.got.cif
#   From: 2010.06.25/outbox.cif.g09.slc.cpg/sg10_22_cif.got.tgz:42983.got - 2010.06.27 22:07:45.
