data_PCOD8064473
_publ_section_title
;
Structure prediction by ZEFSAII (Michael W. Deem and Ramdas Pophale) SiO2 
 PCOD8064473
Probable space group: P 2/M
;
_chemical_formula_sum "Si O2"
_cell_formula_units_Z 20
_cell_length_a 9.383201
_cell_length_b 12.455321
_cell_length_c 18.418261
_cell_angle_alpha 90.000000
_cell_angle_beta 30.122760
_cell_angle_gamma 90.000000
_cell_volume 1080.269900
_symmetry_space_group_name_H-M "P 2/M"
_symmetry_group_IT_number 10
_symmetry_cell_setting 'monoclinic'
loop_
_space_group_symop_operation_xyz
x,y,z
-x,y,-z
-x,-y,-z
x,-y,z
loop_
_atom_site_type_symbol
_atom_site_label
_atom_site_fract_x
_atom_site_fract_y
_atom_site_fract_z
Si Si1 0.225458 0.698067 0.793296
Si Si2 0.397271 0.697355 0.881468
Si Si3 0.756127 0.875489 0.335052
Si Si4 0.233106 0.500000 0.298511
Si Si5 0.596594 0.500000 0.609312
Si Si6 0.340729 0.877984 0.143985
O O1 0.357733 0.717421 0.813795
O O2 0.253166 0.805635 0.733891
O O3 0.402272 0.603195 0.676093
O O4 0.895371 0.666036 0.948921
O O5 0.624764 0.604781 0.799722
O O6 0.524984 0.808626 0.851849
O O7 0.500000 0.847536 0.500000
O O8 0.017928 0.846383 0.271339
O O9 0.764083 0.000000 0.306742
O O10 0.314998 0.500000 0.346333
O O11 0.892883 0.500000 0.433549
O O12 0.374084 0.000000 0.155132
O O13 0.500000 0.854557 0.000000
#
# Coordination Sequence:
#
# PCOD8064473 Si02
#       6
#     4   4   4   2   2   4
#     4  10  20  36  58  84 111 143 185 227 270 323
#     4  10  20  35  59  85 110 142 184 230 270 320
#     4  10  22  39  57  79 113 151 181 220 277 331
#     4   9  19  35  55  81 111 145 181 223 278 325
#     4   9  19  35  55  79 113 148 177 222 278 328
#     4  10  20  37  57  80 112 148 182 219 274 331
#
# _framework density 18.513891999999998
#
# number of rings (size 3 to 8) (size 9 to 14) (size 15 to 20)
#    0.000    2.200    2.000    0.600    2.800    3.200 
#    0.000    4.000    0.000    3.600    0.000    0.000 
#    0.000    0.000    0.000    0.000    0.000    0.000 
#
# Total GULP energy -247967.234304 kJ/mol
# GULP energy per Si atom -12398.361715 kJ/mol
# Density = 1.847175 g / cm^3
# Si number density = 18.513892 Si / 1000 Ang^3
#
#
#
# Elastic Constant Matrix: (Units=GPa)
#
#
# Indices 1 2 3 4 5 6 
#
# 1 64.5335 62.3341 49.1426 0.0000 -16.0461 0.0000
# 2 62.3341 128.0692 64.8406 0.0000 -10.0649 0.0000
# 3 49.1426 64.8406 150.0631 0.0000 -22.1462 0.0000
# 4 0.0000 0.0000 0.0000 33.8937 0.0000 -2.1852
# 5 -16.0461 -10.0649 -22.1462 0.0000 32.2548 0.0000
# 6 0.0000 0.0000 0.0000 -2.1852 0.0000 23.5656
#
#
#
# Elastic Compliance Matrix: (Units=1/GPa)
#
#
# Indices 1 2 3 4 5 6 
#
# 1 0.034470 -0.014109 -0.003684 0.000000 0.010216 0.000000
# 2 -0.014109 0.015771 -0.002786 0.000000 -0.004011 0.000000
# 3 -0.003684 -0.002786 0.009653 0.000000 0.003926 0.000000
# 4 0.000000 0.000000 0.000000 0.029681 0.000000 0.002752
# 5 0.010216 -0.004011 0.003926 0.000000 0.037529 0.000000
# 6 0.000000 0.000000 0.000000 0.002752 0.000000 0.042690
#
#
# Mechanical properties :
#
#
# Convention : Reuss Voigt Hill
#
# Bulk Modulus (GPa) = 53.37350 77.25560 65.31455
# Shear Modulus (GPa) = 23.02050 29.03270 26.02660
#
# Velocity S-wave (km/s) = 3.53004 3.96429 3.75345
# Velocity P-wave (km/s) = 6.74584 7.92295 7.35797
#
# Compressibility (1/GPa) = 0.01873589
#
# Stress axis : x y z
#
# Youngs Moduli (GPa) = 29.01111 63.40877 103.58991
#
# Poissons Ratio (x) = 0.89463 0.38163
# Poissons Ratio (y) = 0.40932 0.28858
# Poissons Ratio (z) = 0.10688 0.17664
#
# Static dielectric constant tensor:
#      x y z
#    x 3.068060 0.000000 -0.225120 
#    y 0.000000 3.440330 0.000000 
#    z -0.225120 0.000000 3.698680 
# 
# 
# High freq. dielectric constant tensor:
#      x y z
#    x 1.696810 0.000000 -0.017230 
#    y 0.000000 1.721670 0.000000 
#    z -0.017230 0.000000 1.733660 
# 
# From -- ./inp_files/17964.got.cif
#   From: 2010.06.25/outbox.cif.g09.slc.cpg/sg10_9_cif.got.tgz:17964.got - 2010.06.27 22:07:45.
