data_PCOD8064375
_publ_section_title
;
Structure prediction by ZEFSAII (Michael W. Deem and Ramdas Pophale) SiO2 
 PCOD8064375
Probable space group: P 2/M
;
_chemical_formula_sum "Si O2"
_cell_formula_units_Z 28
_cell_length_a 26.718618
_cell_length_b 8.725351
_cell_length_c 9.418699
_cell_angle_alpha 90.000000
_cell_angle_beta 138.223032
_cell_angle_gamma 90.000000
_cell_volume 1462.897140
_symmetry_space_group_name_H-M "P 2/M"
_symmetry_group_IT_number 10
_symmetry_cell_setting 'monoclinic'
loop_
_space_group_symop_operation_xyz
x,y,z
-x,y,-z
-x,-y,-z
x,-y,z
loop_
_atom_site_type_symbol
_atom_site_label
_atom_site_fract_x
_atom_site_fract_y
_atom_site_fract_z
Si Si1 0.059455 0.823885 0.738960
Si Si2 0.584708 0.319605 0.643013
Si Si3 0.072738 0.320023 0.068246
Si Si4 0.193502 0.329596 0.899580
Si Si5 0.764777 0.177337 0.531447
Si Si6 0.703473 0.326655 0.129615
Si Si7 0.311400 0.821616 0.336043
O O1 0.137299 0.805466 0.821488
O O2 0.000000 0.762916 0.500000
O O3 0.046946 0.000000 0.755770
O O4 0.057567 0.719887 0.873163
O O5 0.500000 0.275914 0.500000
O O6 0.595076 0.500000 0.637228
O O7 0.604779 0.224528 0.539923
O O8 0.635905 0.266556 0.886305
O O9 0.077511 0.500000 0.098622
O O10 0.153278 0.256173 0.289410
O O11 0.000000 0.254875 0.000000
O O12 0.161560 0.500000 0.866242
O O13 0.216903 0.319390 0.784883
O O14 0.266369 0.299547 0.146523
O O15 0.714569 0.222887 0.290855
O O16 0.710141 0.216686 0.547800
O O17 0.783899 0.000000 0.566818
O O18 0.686408 0.500000 0.142449
O O19 0.294841 0.000000 0.268181
#
# Coordination Sequence:
#
# PCOD8064375 Si02
#       7
#     4   4   4   4   4   4   4
#     4  11  24  39  56  82 113 147 189 238 294 350
#     4   9  19  38  63  90 118 150 191 237 285 342
#     4  11  25  42  60  83 112 152 199 246 296 346
#     4  10  20  36  58  81 107 146 193 241 285 335
#     4  11  23  38  58  84 117 155 194 238 289 349
#     4   9  20  36  57  86 115 147 191 237 284 339
#     4  10  20  35  57  85 114 148 190 232 283 344
#
# _framework density 19.140101999999999
#
# number of rings (size 3 to 8) (size 9 to 14) (size 15 to 20)
#    0.000    1.857    1.429    3.000    2.000    7.143 
#    0.000    0.714    0.000    4.286    0.000    0.000 
#    0.000    0.000    0.000    0.000    0.000    0.000 
#
# Total GULP energy -347010.547914 kJ/mol
# GULP energy per Si atom -12393.233854 kJ/mol
# Density = 1.909654 g / cm^3
# Si number density = 19.140102 Si / 1000 Ang^3
#
#
#
# Elastic Constant Matrix: (Units=GPa)
#
#
# Indices 1 2 3 4 5 6 
#
# 1 140.7627 44.6294 66.3454 0.0000 5.9113 0.0000
# 2 44.6294 58.0721 27.4439 0.0000 -5.4264 0.0000
# 3 66.3454 27.4439 93.9725 0.0000 -4.6816 0.0000
# 4 0.0000 0.0000 0.0000 31.3907 0.0000 -5.9509
# 5 5.9113 -5.4264 -4.6816 0.0000 29.7911 0.0000
# 6 0.0000 0.0000 0.0000 -5.9509 0.0000 32.4278
#
#
#
# Elastic Compliance Matrix: (Units=1/GPa)
#
#
# Indices 1 2 3 4 5 6 
#
# 1 0.013014 -0.006972 -0.007402 0.000000 -0.005015 0.000000
# 2 -0.006972 0.023937 -0.001796 0.000000 0.005461 0.000000
# 3 -0.007402 -0.001796 0.016578 0.000000 0.003747 0.000000
# 4 0.000000 0.000000 0.000000 0.033005 0.000000 0.006057
# 5 -0.005015 0.005461 0.003747 0.000000 0.036146 0.000000
# 6 0.000000 0.000000 0.000000 0.006057 0.000000 0.031949
#
#
# Mechanical properties :
#
#
# Convention : Reuss Voigt Hill
#
# Bulk Modulus (GPa) = 47.19318 63.29385 55.24351
# Shear Modulus (GPa) = 25.76885 29.01448 27.39167
#
# Velocity S-wave (km/s) = 3.67321 3.89768 3.78711
# Velocity P-wave (km/s) = 6.53454 7.30728 6.93169
#
# Compressibility (1/GPa) = 0.02118950
#
# Stress axis : x y z
#
# Youngs Moduli (GPa) = 76.84068 41.77563 60.31997
#
# Poissons Ratio (x) = 0.29127 0.44647
# Poissons Ratio (y) = 0.53575 0.10835
# Poissons Ratio (z) = 0.56875 0.07504
#
# Static dielectric constant tensor:
#      x y z
#    x 3.657410 0.000000 -0.034400 
#    y 0.000000 3.431270 0.000000 
#    z -0.034400 0.000000 3.342130 
# 
# 
# High freq. dielectric constant tensor:
#      x y z
#    x 1.753930 0.000000 -0.002210 
#    y 0.000000 1.747180 0.000000 
#    z -0.002210 0.000000 1.726110 
# 
# From -- ./inp_files/37316.got.cif
#   From: 2010.06.25/outbox.cif.g09.slc.cpg/sg10_19_cif.got.tgz:37316.got - 2010.06.27 22:07:45.
