data_PCOD8064504
_publ_section_title
;
Structure prediction by ZEFSAII (Michael W. Deem and Ramdas Pophale) SiO2 
 PCOD8064504
Probable space group: P 2/M
;
_chemical_formula_sum "Si O2"
_cell_formula_units_Z 32
_cell_length_a 23.378140
_cell_length_b 8.610824
_cell_length_c 14.435441
_cell_angle_alpha 90.000000
_cell_angle_beta 32.018581
_cell_angle_gamma 90.000000
_cell_volume 1540.705893
_symmetry_space_group_name_H-M "P 2/M"
_symmetry_group_IT_number 10
_symmetry_cell_setting 'monoclinic'
loop_
_space_group_symop_operation_xyz
x,y,z
-x,y,-z
-x,-y,-z
x,-y,z
loop_
_atom_site_type_symbol
_atom_site_label
_atom_site_fract_x
_atom_site_fract_y
_atom_site_fract_z
Si Si1 0.242639 0.180232 0.945332
Si Si2 0.002654 0.180141 0.724629
Si Si3 0.922539 0.679936 0.192776
Si Si4 0.104840 0.321042 0.415010
Si Si5 0.395385 0.682606 0.592487
Si Si6 0.489815 0.318175 0.117115
Si Si7 0.322667 0.684645 0.495038
Si Si8 0.314373 0.821523 0.048439
O O1 0.289667 0.280298 0.797124
O O2 0.249333 0.000000 0.909429
O O3 0.119536 0.231829 0.128971
O O4 0.309512 0.217409 0.946291
O O5 0.030191 0.212368 0.792591
O O6 0.081690 0.284075 0.553824
O O7 0.019806 0.000000 0.677663
O O8 0.922264 0.500000 0.223618
O O9 0.801441 0.738605 0.337180
O O10 0.000000 0.707072 0.000000
O O11 0.138966 0.500000 0.356951
O O12 0.199441 0.210224 0.251742
O O13 0.000000 0.278531 0.500000
O O14 0.500000 0.757611 0.500000
O O15 0.410331 0.500000 0.565017
O O16 0.378933 0.751292 0.511468
O O17 0.472964 0.500000 0.128554
O O18 0.387680 0.250581 0.315663
O O19 0.500000 0.242417 0.000000
O O20 0.597681 0.288322 0.026318
O O21 0.328733 0.500000 0.489254
O O22 0.345342 0.000000 0.023044
#
# Coordination Sequence:
#
# PCOD8064504 Si02
#       8
#     4   4   4   4   4   4   4   4
#     4  10  22  38  57  84 120 157 189 236 299 362
#     4  11  23  39  59  86 122 160 198 243 304 364
#     4  10  21  38  61  88 121 163 207 254 305 358
#     4  11  23  39  62  92 121 156 202 249 299 364
#     4  10  20  35  60  88 114 148 194 247 298 354
#     4  10  22  40  62  87 117 158 206 256 303 354
#     4   9  19  37  58  85 122 156 195 253 310 352
#     4  11  23  40  61  86 123 160 195 245 306 365
#
# _framework density 20.7697
#
# number of rings (size 3 to 8) (size 9 to 14) (size 15 to 20)
#    0.000    1.750    1.250    2.625    1.750    5.250 
#    0.000    1.875    0.000    0.000    0.000    0.000 
#    0.000    0.000    0.000    0.000    0.000    0.000 
#
# Total GULP energy -396891.982184 kJ/mol
# GULP energy per Si atom -12402.874443 kJ/mol
# Density = 2.072243 g / cm^3
# Si number density = 20.769700 Si / 1000 Ang^3
#
#
#
# Elastic Constant Matrix: (Units=GPa)
#
#
# Indices 1 2 3 4 5 6 
#
# 1 124.6413 16.2471 50.9935 0.0000 6.7757 0.0000
# 2 16.2471 15.0089 14.6687 0.0000 2.6321 0.0000
# 3 50.9935 14.6687 130.1597 0.0000 11.8056 0.0000
# 4 0.0000 0.0000 0.0000 25.5464 0.0000 -0.0682
# 5 6.7757 2.6321 11.8056 0.0000 38.1705 0.0000
# 6 0.0000 0.0000 0.0000 -0.0682 0.0000 18.4626
#
#
#
# Elastic Compliance Matrix: (Units=1/GPa)
#
#
# Indices 1 2 3 4 5 6 
#
# 1 0.010376 -0.008127 -0.003121 0.000000 -0.000316 0.000000
# 2 -0.008127 0.081496 -0.005784 0.000000 -0.002388 0.000000
# 3 -0.003121 -0.005784 0.009744 0.000000 -0.002061 0.000000
# 4 0.000000 0.000000 0.000000 0.039145 0.000000 0.000145
# 5 -0.000316 -0.002388 -0.002061 0.000000 0.027057 0.000000
# 6 0.000000 0.000000 0.000000 0.000145 0.000000 0.054164
#
#
# Mechanical properties :
#
#
# Convention : Reuss Voigt Hill
#
# Bulk Modulus (GPa) = 14.80299 48.18096 31.49197
# Shear Modulus (GPa) = 17.94924 28.96260 23.45592
#
# Velocity S-wave (km/s) = 2.94292 3.73830 3.36420
# Velocity P-wave (km/s) = 4.32324 6.47158 5.50326
#
# Compressibility (1/GPa) = 0.06755393
#
# Stress axis : x y z
#
# Youngs Moduli (GPa) = 96.37355 12.27047 102.62505
#
# Poissons Ratio (x) = 0.09972 0.32025
# Poissons Ratio (y) = 0.78323 0.59357
# Poissons Ratio (z) = 0.30074 0.07097
#
# Static dielectric constant tensor:
#      x y z
#    x 3.928680 0.000000 0.067520 
#    y 0.000000 3.384240 0.000000 
#    z 0.067520 0.000000 3.901440 
# 
# 
# High freq. dielectric constant tensor:
#      x y z
#    x 1.821890 0.000000 0.004810 
#    y 0.000000 1.784290 0.000000 
#    z 0.004810 0.000000 1.825300 
# 
# From -- ./inp_files/71518.got.cif
#   From: 2010.06.25/outbox.cif.g09.slc.cpg/sg10_36_cif.got.tgz:71518.got - 2010.06.27 22:07:45.
