data_PCOD8064098
_publ_section_title
;
Structure prediction by ZEFSAII (Michael W. Deem and Ramdas Pophale) SiO2 
 PCOD8064098
Probable space group: P 2/M
;
_chemical_formula_sum "Si O2"
_cell_formula_units_Z 32
_cell_length_a 16.312897
_cell_length_b 8.892564
_cell_length_c 22.867196
_cell_angle_alpha 90.000000
_cell_angle_beta 32.016576
_cell_angle_gamma 90.000000
_cell_volume 1758.659341
_symmetry_space_group_name_H-M "P 2/M"
_symmetry_group_IT_number 10
_symmetry_cell_setting 'monoclinic'
loop_
_space_group_symop_operation_xyz
x,y,z
-x,y,-z
-x,-y,-z
x,-y,z
loop_
_atom_site_type_symbol
_atom_site_label
_atom_site_fract_x
_atom_site_fract_y
_atom_site_fract_z
Si Si1 0.807445 0.326095 0.181696
Si Si2 0.139861 0.164973 0.371021
Si Si3 0.945057 0.323089 0.398312
Si Si4 0.882679 0.324570 0.936387
Si Si5 0.035617 0.174549 0.737670
Si Si6 0.660007 0.826988 0.374871
Si Si7 0.676571 0.823052 0.150257
Si Si8 0.324053 0.822772 0.366589
O O1 0.784940 0.500000 0.179492
O O2 0.681034 0.277194 0.305786
O O3 0.786558 0.229837 0.136079
O O4 0.976658 0.292330 0.104413
O O5 0.283230 0.223567 0.323992
O O6 0.000000 0.148725 0.500000
O O7 0.094148 0.280003 0.347566
O O8 0.176043 0.000000 0.321821
O O9 0.930094 0.500000 0.404632
O O10 0.978295 0.260249 0.314456
O O11 0.784763 0.258917 0.520650
O O12 0.862028 0.500000 0.936381
O O13 0.910577 0.241634 0.858176
O O14 0.728735 0.257664 0.058877
O O15 0.207436 0.201143 0.657905
O O16 0.999510 0.000000 0.749945
O O17 0.500000 0.777512 0.500000
O O18 0.657510 0.000000 0.355518
O O19 0.500657 0.776104 0.271236
O O20 0.692766 0.000000 0.131558
O O21 0.297014 0.000000 0.391401
#
# Coordination Sequence:
#
# PCOD8064098 Si02
#       8
#     4   4   4   4   4   4   4   4
#     4  10  21  35  51  74 103 138 176 216 263 311
#     4   8  15  32  54  74 102 139 173 206 253 310
#     4  11  21  32  52  82 112 138 170 211 257 311
#     4  10  21  38  55  74 104 138 177 222 267 308
#     4  10  20  35  55  76 102 138 179 215 255 308
#     4   9  19  34  51  72 100 136 174 216 258 302
#     4  11  22  35  55  79 104 136 178 222 261 307
#     4   9  20  36  53  77 108 140 173 212 259 311
#
# _framework density 18.195678000000001
#
# number of rings (size 3 to 8) (size 9 to 14) (size 15 to 20)
#    0.000    2.250    0.000    3.750    1.750    7.000 
#    0.000    0.000    0.000    0.750    0.000    5.250 
#    0.000    0.000    0.000    0.000    0.000    0.000 
#
# Total GULP energy -396824.605950 kJ/mol
# GULP energy per Si atom -12400.768936 kJ/mol
# Density = 1.815426 g / cm^3
# Si number density = 18.195678 Si / 1000 Ang^3
#
#
#
# Elastic Constant Matrix: (Units=GPa)
#
#
# Indices 1 2 3 4 5 6 
#
# 1 80.7792 45.0160 38.4095 0.0000 19.1371 0.0000
# 2 45.0160 92.5526 41.8458 0.0000 10.0055 0.0000
# 3 38.4095 41.8458 73.4657 0.0000 17.4249 0.0000
# 4 0.0000 0.0000 0.0000 15.1231 0.0000 -1.4757
# 5 19.1371 10.0055 17.4249 0.0000 18.6051 0.0000
# 6 0.0000 0.0000 0.0000 -1.4757 0.0000 20.5769
#
#
#
# Elastic Compliance Matrix: (Units=1/GPa)
#
#
# Indices 1 2 3 4 5 6 
#
# 1 0.021740 -0.007303 -0.003644 0.000000 -0.015022 0.000000
# 2 -0.007303 0.017005 -0.007046 0.000000 0.004965 0.000000
# 3 -0.003644 -0.007046 0.022809 0.000000 -0.013825 0.000000
# 4 0.000000 0.000000 0.000000 0.066590 0.000000 0.004776
# 5 -0.015022 0.004965 -0.013825 0.000000 0.079479 0.000000
# 6 0.000000 0.000000 0.000000 0.004776 0.000000 0.048941
#
#
# Mechanical properties :
#
#
# Convention : Reuss Voigt Hill
#
# Bulk Modulus (GPa) = 39.10764 55.26001 47.18382
# Shear Modulus (GPa) = 16.60727 18.96275 17.78501
#
# Velocity S-wave (km/s) = 3.02438 3.23175 3.12978
# Velocity P-wave (km/s) = 5.80821 6.66043 6.24887
#
# Compressibility (1/GPa) = 0.02557045
#
# Stress axis : x y z
#
# Youngs Moduli (GPa) = 45.99720 58.80451 43.84179
#
# Poissons Ratio (x) = 0.42943 0.15975
# Poissons Ratio (y) = 0.33591 0.30891
# Poissons Ratio (z) = 0.16760 0.41433
#
# Static dielectric constant tensor:
#      x y z
#    x 3.600670 0.000000 -0.080370 
#    y 0.000000 3.361180 0.000000 
#    z -0.080370 0.000000 3.308310 
# 
# 
# High freq. dielectric constant tensor:
#      x y z
#    x 1.697590 0.000000 0.008030 
#    y 0.000000 1.709560 0.000000 
#    z 0.008030 0.000000 1.690600 
# 
# From -- ./inp_files/89935.got.cif
#   From: 2010.06.25/outbox.cif.g09.slc.cpg/sg10_45_cif.got.tgz:89935.got - 2010.06.27 22:07:45.
