data_PCOD8064718
_publ_section_title
;
Structure prediction by ZEFSAII (Michael W. Deem and Ramdas Pophale) SiO2 
 PCOD8064718
Probable space group: P 2/M
;
_chemical_formula_sum "Si O2"
_cell_formula_units_Z 24
_cell_length_a 13.604792
_cell_length_b 8.871314
_cell_length_c 10.275941
_cell_angle_alpha 90.000000
_cell_angle_beta 100.814014
_cell_angle_gamma 90.000000
_cell_volume 1218.203072
_symmetry_space_group_name_H-M "P 2/M"
_symmetry_group_IT_number 10
_symmetry_cell_setting 'monoclinic'
loop_
_space_group_symop_operation_xyz
x,y,z
-x,y,-z
-x,-y,-z
x,-y,z
loop_
_atom_site_type_symbol
_atom_site_label
_atom_site_fract_x
_atom_site_fract_y
_atom_site_fract_z
Si Si1 0.604232 0.325601 0.798172
Si Si2 0.709342 0.324388 0.554910
Si Si3 0.064370 0.679577 0.395714
Si Si4 0.605842 0.177488 0.291447
Si Si5 0.723076 0.677662 0.086337
Si Si6 0.050948 0.679674 0.883165
O O1 0.571145 0.500000 0.795178
O O2 0.676625 0.295004 0.694705
O O3 0.507211 0.223261 0.765568
O O4 0.662038 0.277902 0.942677
O O5 0.702870 0.500000 0.517608
O O6 0.821965 0.261958 0.565995
O O7 0.635833 0.236210 0.441092
O O8 0.064474 0.500000 0.393674
O O9 0.000000 0.742137 0.500000
O O10 0.012932 0.743158 0.253092
O O11 0.678459 0.244299 0.201352
O O12 0.614855 0.000000 0.291393
O O13 0.720898 0.500000 0.109825
O O14 0.835666 0.737851 0.097511
O O15 0.049655 0.500000 0.884743
O O16 0.000000 0.745206 0.000000
#
# Coordination Sequence:
#
# PCOD8064718 Si02
#       6
#     4   4   4   4   4   4
#     4  10  21  37  58  83 109 140 181 227 276 328
#     4  10  20  36  58  83 111 143 180 224 273 324
#     4   9  16  27  48  79 110 138 169 208 258 315
#     4  12  25  38  54  78 109 147 189 229 271 321
#     4  10  20  36  59  85 113 144 178 221 273 326
#     4   9  16  28  51  84 114 136 167 216 269 320
#
# _framework density 19.701149000000001
#
# number of rings (size 3 to 8) (size 9 to 14) (size 15 to 20)
#    0.000    2.000    0.000    4.500    0.000   12.000 
#    0.000    0.000    0.000    5.000    0.000    0.000 
#    0.000    0.000    0.000    0.000    0.000    0.000 
#
# Total GULP energy -297681.430476 kJ/mol
# GULP energy per Si atom -12403.392937 kJ/mol
# Density = 1.965631 g / cm^3
# Si number density = 19.701149 Si / 1000 Ang^3
#
#
#
# Elastic Constant Matrix: (Units=GPa)
#
#
# Indices 1 2 3 4 5 6 
#
# 1 115.0958 21.9291 18.6087 0.0000 2.3709 0.0000
# 2 21.9291 35.8739 17.6544 0.0000 4.7682 0.0000
# 3 18.6087 17.6544 107.4817 0.0000 4.5594 0.0000
# 4 0.0000 0.0000 0.0000 2.5354 0.0000 -0.7337
# 5 2.3709 4.7682 4.5594 0.0000 42.1285 0.0000
# 6 0.0000 0.0000 0.0000 -0.7337 0.0000 -3.3542
#
#
#
# Elastic Compliance Matrix: (Units=1/GPa)
#
#
# Indices 1 2 3 4 5 6 
#
# 1 0.009895 -0.005684 -0.000787 0.000000 0.000172 0.000000
# 2 -0.005684 0.033951 -0.004463 0.000000 -0.003040 0.000000
# 3 -0.000787 -0.004463 0.010197 0.000000 -0.000554 0.000000
# 4 0.000000 0.000000 0.000000 0.370944 0.000000 -0.081137
# 5 0.000172 -0.003040 -0.000554 0.000000 0.024131 0.000000
# 6 0.000000 0.000000 0.000000 -0.081137 0.000000 -0.280391
#
#
# Mechanical properties :
#
#
# Convention : Reuss Voigt Hill
#
# Bulk Modulus (GPa) = 31.08154 41.64841 36.36498
# Shear Modulus (GPa) = 24.83604 21.61255 23.22429
#
# Velocity S-wave (km/s) = 3.55440 3.31572 3.43713
# Velocity P-wave (km/s) = 5.71452 5.98704 5.85237
#
# Compressibility (1/GPa) = 0.03217344
#
# Stress axis : x y z
#
# Youngs Moduli (GPa) = 101.05996 29.45447 98.07020
#
# Poissons Ratio (x) = 0.16743 0.07716
# Poissons Ratio (y) = 0.57446 0.43773
# Poissons Ratio (z) = 0.07951 0.13147
#
# Static dielectric constant tensor:
#      x y z
#    x 3.806810 0.000000 -0.014390 
#    y 0.000000 3.097250 0.000000 
#    z -0.014390 0.000000 3.793850 
# 
# 
# High freq. dielectric constant tensor:
#      x y z
#    x 1.787470 0.000000 -0.000740 
#    y 0.000000 1.711970 0.000000 
#    z -0.000740 0.000000 1.788740 
# 
# From -- ./inp_files/27336.got.cif
#   From: 2010.06.25/outbox.cif.g09.slc.cpg/sg10_14_cif.got.tgz:27336.got - 2010.06.27 22:07:45.
