data_PCOD8064190
_publ_section_title
;
Structure prediction by ZEFSAII (Michael W. Deem and Ramdas Pophale) SiO2 
 PCOD8064190
Probable space group: P 2/M
;
_chemical_formula_sum "Si O2"
_cell_formula_units_Z 28
_cell_length_a 29.761221
_cell_length_b 8.917237
_cell_length_c 9.376393
_cell_angle_alpha 90.000000
_cell_angle_beta 142.269226
_cell_angle_gamma 90.000000
_cell_volume 1522.769469
_symmetry_space_group_name_H-M "P 2/M"
_symmetry_group_IT_number 10
_symmetry_cell_setting 'monoclinic'
loop_
_space_group_symop_operation_xyz
x,y,z
-x,y,-z
-x,-y,-z
x,-y,z
loop_
_atom_site_type_symbol
_atom_site_label
_atom_site_fract_x
_atom_site_fract_y
_atom_site_fract_z
Si Si1 0.628951 0.175352 0.986648
Si Si2 0.500931 0.323728 0.165503
Si Si3 0.071649 0.677210 0.594739
Si Si4 0.787856 0.172541 0.079299
Si Si5 0.934448 0.323278 0.743437
Si Si6 0.774564 0.674530 0.343309
Si Si7 0.374073 0.170265 0.353842
O O1 0.564500 0.248453 0.913402
O O2 0.620035 0.216947 0.797684
O O3 0.626573 0.000000 0.005119
O O4 0.707302 0.234081 0.244017
O O5 0.490452 0.500000 0.148352
O O6 0.577951 0.280021 0.429901
O O7 0.500000 0.267781 0.000000
O O8 0.085347 0.500000 0.641053
O O9 0.143015 0.764934 0.838857
O O10 0.060445 0.735834 0.405286
O O11 0.000000 0.727556 0.500000
O O12 0.782094 0.283642 0.197622
O O13 0.800220 0.000000 0.158551
O O14 0.710068 0.184005 0.801458
O O15 0.945967 0.500000 0.766735
O O16 0.854467 0.286350 0.613194
O O17 0.000000 0.248287 0.000000
O O18 0.756297 0.500000 0.312377
O O19 0.402741 0.000000 0.443851
#
# Coordination Sequence:
#
# PCOD8064190 Si02
#       7
#     4   4   4   4   4   4   4
#     4  10  20  35  56  79 102 130 167 208 250 299
#     4  11  24  38  52  75 105 134 166 204 248 298
#     4   9  17  29  46  69  96 127 164 202 243 292
#     4   9  17  30  49  73 100 127 161 204 247 294
#     4   8  14  26  45  68  94 125 159 196 239 284
#     4   9  16  28  49  74  99 127 163 206 248 289
#     4   9  19  35  55  78 100 128 168 208 249 300
#
# _framework density 18.387550000000001
#
# number of rings (size 3 to 8) (size 9 to 14) (size 15 to 20)
#    0.000    2.714    0.000    3.857    0.000    6.571 
#    0.000    1.429    0.000   14.143    0.000    0.000 
#    0.000    0.000    0.000    0.000    0.000    0.000 
#
# Total GULP energy -346999.499980 kJ/mol
# GULP energy per Si atom -12392.839285 kJ/mol
# Density = 1.834570 g / cm^3
# Si number density = 18.387550 Si / 1000 Ang^3
#
#
#
# Elastic Constant Matrix: (Units=GPa)
#
#
# Indices 1 2 3 4 5 6 
#
# 1 110.9377 42.6599 64.4555 0.0000 28.6777 0.0000
# 2 42.6599 58.3284 46.4427 0.0000 10.7552 0.0000
# 3 64.4555 46.4427 116.7734 0.0000 26.8101 0.0000
# 4 0.0000 0.0000 0.0000 20.4007 0.0000 9.0028
# 5 28.6777 10.7552 26.8101 0.0000 30.4228 0.0000
# 6 0.0000 0.0000 0.0000 9.0028 0.0000 25.6482
#
#
#
# Elastic Compliance Matrix: (Units=1/GPa)
#
#
# Indices 1 2 3 4 5 6 
#
# 1 0.016613 -0.007074 -0.004181 0.000000 -0.009474 0.000000
# 2 -0.007074 0.028102 -0.008176 0.000000 0.003939 0.000000
# 3 -0.004181 -0.008176 0.015739 0.000000 -0.007038 0.000000
# 4 0.000000 0.000000 0.000000 0.058003 0.000000 -0.020360
# 5 -0.009474 0.003939 -0.007038 0.000000 0.046611 0.000000
# 6 0.000000 0.000000 0.000000 -0.020360 0.000000 0.046136
#
#
# Mechanical properties :
#
#
# Convention : Reuss Voigt Hill
#
# Bulk Modulus (GPa) = 46.31530 65.90618 56.11074
# Shear Modulus (GPa) = 19.43537 24.12644 21.78091
#
# Velocity S-wave (km/s) = 3.25466 3.62623 3.44546
# Velocity P-wave (km/s) = 6.27430 7.31118 6.81250
#
# Compressibility (1/GPa) = 0.02159114
#
# Stress axis : x y z
#
# Youngs Moduli (GPa) = 60.19511 35.58466 63.53561
#
# Poissons Ratio (x) = 0.25173 0.26564
# Poissons Ratio (y) = 0.42582 0.51949
# Poissons Ratio (z) = 0.25168 0.29095
#
# Static dielectric constant tensor:
#      x y z
#    x 3.456820 0.000000 0.424750 
#    y 0.000000 3.331410 0.000000 
#    z 0.424750 0.000000 3.676160 
# 
# 
# High freq. dielectric constant tensor:
#      x y z
#    x 1.698610 0.000000 0.038780 
#    y 0.000000 1.706040 0.000000 
#    z 0.038780 0.000000 1.704200 
# 
# From -- ./inp_files/38015.got.cif
#   From: 2010.06.25/outbox.cif.g09.slc.cpg/sg10_20_cif.got.tgz:38015.got - 2010.06.27 22:07:45.
