data_PCOD8064113
_publ_section_title
;
Structure prediction by ZEFSAII (Michael W. Deem and Ramdas Pophale) SiO2 
 PCOD8064113
Probable space group: P 2/M
;
_chemical_formula_sum "Si O2"
_cell_formula_units_Z 28
_cell_length_a 12.595368
_cell_length_b 8.938736
_cell_length_c 16.178517
_cell_angle_alpha 90.000000
_cell_angle_beta 56.131879
_cell_angle_gamma 90.000000
_cell_volume 1512.420233
_symmetry_space_group_name_H-M "P 2/M"
_symmetry_group_IT_number 10
_symmetry_cell_setting 'monoclinic'
loop_
_space_group_symop_operation_xyz
x,y,z
-x,y,-z
-x,-y,-z
x,-y,z
loop_
_atom_site_type_symbol
_atom_site_label
_atom_site_fract_x
_atom_site_fract_y
_atom_site_fract_z
Si Si1 0.799416 0.177548 0.085544
Si Si2 0.820075 0.327145 0.502055
Si Si3 0.750247 0.821975 0.698778
Si Si4 0.948480 0.327305 0.718921
Si Si5 0.521860 0.174378 0.234978
Si Si6 0.998502 0.176925 0.134234
Si Si7 0.579964 0.825841 0.543836
O O1 0.656075 0.248219 0.147270
O O2 0.877286 0.231874 0.132710
O O3 0.793487 0.000000 0.093287
O O4 0.872255 0.224976 0.970340
O O5 0.797813 0.500000 0.533986
O O6 0.822545 0.233285 0.585248
O O7 0.708884 0.270101 0.489604
O O8 0.953441 0.302909 0.398291
O O9 0.816690 0.755087 0.751354
O O10 0.602346 0.764406 0.760591
O O11 0.757244 0.000000 0.697790
O O12 0.918790 0.500000 0.747160
O O13 0.006894 0.258590 0.776274
O O14 0.505668 0.207426 0.338891
O O15 0.530277 0.000000 0.214044
O O16 0.994743 0.000000 0.150604
O O17 0.500000 0.772618 0.500000
O O18 0.617820 0.000000 0.521998
#
# Coordination Sequence:
#
# PCOD8064113 Si02
#       7
#     4   4   4   4   4   4   4
#     4   8  15  31  54  80 106 130 163 212 264 309
#     4  10  21  35  50  71 104 143 173 206 258 311
#     4  10  20  35  55  78 101 133 178 218 255 304
#     4  11  23  36  51  73 106 141 173 212 262 308
#     4   8  15  29  50  75 104 132 161 208 264 305
#     4   9  18  32  55  82 102 129 172 214 255 306
#     4   9  18  30  48  77 106 135 173 213 250 295
#
# _framework density 18.513373000000001
#
# number of rings (size 3 to 8) (size 9 to 14) (size 15 to 20)
#    0.000    2.714    0.000    3.429    2.000    4.286 
#    0.000    2.143    0.000    9.429    0.000    0.000 
#    0.000    0.000    0.000    0.000    0.000    0.000 
#
# Total GULP energy -347116.972613 kJ/mol
# GULP energy per Si atom -12397.034736 kJ/mol
# Density = 1.847124 g / cm^3
# Si number density = 18.513373 Si / 1000 Ang^3
#
#
#
# Elastic Constant Matrix: (Units=GPa)
#
#
# Indices 1 2 3 4 5 6 
#
# 1 100.6348 33.7495 34.2026 0.0000 -8.4547 0.0000
# 2 33.7495 60.5829 26.0955 0.0000 -1.8208 0.0000
# 3 34.2026 26.0955 47.1255 0.0000 -11.6264 0.0000
# 4 0.0000 0.0000 0.0000 14.1077 0.0000 -0.4889
# 5 -8.4547 -1.8208 -11.6264 0.0000 31.5075 0.0000
# 6 0.0000 0.0000 0.0000 -0.4889 0.0000 13.2248
#
#
#
# Elastic Compliance Matrix: (Units=1/GPa)
#
#
# Indices 1 2 3 4 5 6 
#
# 1 0.014089 -0.004598 -0.007494 0.000000 0.000749 0.000000
# 2 -0.004598 0.023533 -0.010631 0.000000 -0.003797 0.000000
# 3 -0.007494 -0.010631 0.035093 0.000000 0.010324 0.000000
# 4 0.000000 0.000000 0.000000 0.070974 0.000000 0.002624
# 5 0.000749 -0.003797 0.010324 0.000000 0.035530 0.000000
# 6 0.000000 0.000000 0.000000 0.002624 0.000000 0.075712
#
#
# Mechanical properties :
#
#
# Convention : Reuss Voigt Hill
#
# Bulk Modulus (GPa) = 36.67244 44.04871 40.36057
# Shear Modulus (GPa) = 16.15681 19.38771 17.77226
#
# Velocity S-wave (km/s) = 2.95737 3.23960 3.10170
# Velocity P-wave (km/s) = 5.61365 6.15125 5.88859
#
# Compressibility (1/GPa) = 0.02726843
#
# Stress axis : x y z
#
# Youngs Moduli (GPa) = 70.97720 42.49402 28.49568
#
# Poissons Ratio (x) = 0.19539 0.21356
# Poissons Ratio (y) = 0.32635 0.30293
# Poissons Ratio (z) = 0.53194 0.45174
#
# Static dielectric constant tensor:
#      x y z
#    x 3.795510 0.000000 -0.214700 
#    y 0.000000 3.132270 0.000000 
#    z -0.214700 0.000000 3.389820 
# 
# 
# High freq. dielectric constant tensor:
#      x y z
#    x 1.731730 0.000000 -0.004190 
#    y 0.000000 1.689190 0.000000 
#    z -0.004190 0.000000 1.703100 
# 
# From -- ./inp_files/63618.got.cif
#   From: 2010.06.25/outbox.cif.g09.slc.cpg/sg10_32_cif.got.tgz:63618.got - 2010.06.27 22:07:45.
