data_PCOD8064748
_publ_section_title
;
Structure prediction by ZEFSAII (Michael W. Deem and Ramdas Pophale) SiO2 
 PCOD8064748
Probable space group: P 2/M
;
_chemical_formula_sum "Si O2"
_cell_formula_units_Z 32
_cell_length_a 22.270959
_cell_length_b 8.872916
_cell_length_c 14.876408
_cell_angle_alpha 90.000000
_cell_angle_beta 148.096517
_cell_angle_gamma 90.000000
_cell_volume 1553.603161
_symmetry_space_group_name_H-M "P 2/M"
_symmetry_group_IT_number 10
_symmetry_cell_setting 'monoclinic'
loop_
_space_group_symop_operation_xyz
x,y,z
-x,y,-z
-x,-y,-z
x,-y,z
loop_
_atom_site_type_symbol
_atom_site_label
_atom_site_fract_x
_atom_site_fract_y
_atom_site_fract_z
Si Si1 0.131744 0.674909 0.175864
Si Si2 0.426182 0.827571 0.321834
Si Si3 0.088960 0.822323 0.764216
Si Si4 0.803278 0.675289 0.939876
Si Si5 0.858329 0.674338 0.468258
Si Si6 0.275329 0.325966 0.877969
Si Si7 0.244848 0.177388 0.488652
Si Si8 0.500080 0.172737 0.781422
O O1 0.149734 0.500000 0.223053
O O2 0.190443 0.718483 0.156503
O O3 0.189104 0.775989 0.324150
O O4 0.000000 0.714706 0.000000
O O5 0.500000 0.774773 0.500000
O O6 0.319498 0.717971 0.177902
O O7 0.500317 0.807809 0.326674
O O8 0.384266 0.000000 0.280491
O O9 0.197216 0.770687 0.844695
O O10 0.972785 0.753567 0.577545
O O11 0.080916 0.000000 0.750473
O O12 0.102311 0.767077 0.884172
O O13 0.827468 0.500000 0.985838
O O14 0.885566 0.500000 0.517026
O O15 0.761029 0.701161 0.270932
O O16 0.819414 0.742295 0.512568
O O17 0.263131 0.500000 0.890037
O O18 0.405682 0.275346 0.051334
O O19 0.376909 0.225595 0.658956
O O20 0.231483 0.000000 0.483111
O O21 0.524538 0.000000 0.838936
#
# Coordination Sequence:
#
# PCOD8064748 Si02
#       8
#     4   4   4   4   4   4   4   4
#     4  10  22  40  61  87 124 169 211 257 312 370
#     4  10  20  36  58  85 120 163 206 252 308 365
#     4  12  24  40  65  96 129 163 205 261 321 378
#     4  11  22  36  59  91 124 162 208 254 307 371
#     4  11  25  44  65  91 125 165 210 261 318 377
#     4  11  24  42  66  94 125 165 210 259 316 379
#     4  11  24  42  65  94 126 166 215 262 313 372
#     4  10  22  40  62  90 127 168 208 259 313 369
#
# _framework density 20.597279
#
# number of rings (size 3 to 8) (size 9 to 14) (size 15 to 20)
#    0.000    1.250    1.250    4.500    0.000    8.500 
#    0.000    2.500    0.000    0.000    0.000    0.000 
#    0.000    0.000    0.000    0.000    0.000    0.000 
#
# Total GULP energy -397016.396051 kJ/mol
# GULP energy per Si atom -12406.762377 kJ/mol
# Density = 2.055040 g / cm^3
# Si number density = 20.597279 Si / 1000 Ang^3
#
#
#
# Elastic Constant Matrix: (Units=GPa)
#
#
# Indices 1 2 3 4 5 6 
#
# 1 74.5146 38.0534 23.8202 0.0000 5.0133 0.0000
# 2 38.0534 115.9071 54.7419 0.0000 -3.3647 0.0000
# 3 23.8202 54.7419 111.8790 0.0000 -0.3703 0.0000
# 4 0.0000 0.0000 0.0000 37.6738 0.0000 2.3881
# 5 5.0133 -3.3647 -0.3703 0.0000 33.6935 0.0000
# 6 0.0000 0.0000 0.0000 2.3881 0.0000 10.8100
#
#
#
# Elastic Compliance Matrix: (Units=1/GPa)
#
#
# Indices 1 2 3 4 5 6 
#
# 1 0.016518 -0.004999 -0.001081 0.000000 -0.002969 0.000000
# 2 -0.004999 0.012771 -0.005178 0.000000 0.001962 0.000000
# 3 -0.001081 -0.005178 0.011701 0.000000 -0.000228 0.000000
# 4 0.000000 0.000000 0.000000 0.026921 0.000000 -0.005947
# 5 -0.002969 0.001962 -0.000228 0.000000 0.030314 0.000000
# 6 0.000000 0.000000 0.000000 -0.005947 0.000000 0.093820
#
#
# Mechanical properties :
#
#
# Convention : Reuss Voigt Hill
#
# Bulk Modulus (GPa) = 54.12660 59.50352 56.81506
# Shear Modulus (GPa) = 22.65310 28.81449 25.73379
#
# Velocity S-wave (km/s) = 3.31994 3.74431 3.53849
# Velocity P-wave (km/s) = 6.40559 6.90252 6.65869
#
# Compressibility (1/GPa) = 0.01847520
#
# Stress axis : x y z
#
# Youngs Moduli (GPa) = 60.53911 78.30057 85.46098
#
# Poissons Ratio (x) = 0.39141 0.09237
# Poissons Ratio (y) = 0.30262 0.44253
# Poissons Ratio (z) = 0.06543 0.40545
#
# Static dielectric constant tensor:
#      x y z
#    x 3.747620 0.000000 -0.029170 
#    y 0.000000 3.698810 0.000000 
#    z -0.029170 0.000000 3.878360 
# 
# 
# High freq. dielectric constant tensor:
#      x y z
#    x 1.808550 0.000000 -0.002520 
#    y 0.000000 1.807820 0.000000 
#    z -0.002520 0.000000 1.817710 
# 
# From -- ./inp_files/71622.got.cif
#   From: 2010.06.25/outbox.cif.g09.slc.cpg/sg10_36_cif.got.tgz:71622.got - 2010.06.27 22:07:45.
