data_PCOD8064304
_publ_section_title
;
Structure prediction by ZEFSAII (Michael W. Deem and Ramdas Pophale) SiO2 
 PCOD8064304
Probable space group: P 2/M
;
_chemical_formula_sum "Si O2"
_cell_formula_units_Z 32
_cell_length_a 10.560676
_cell_length_b 9.179261
_cell_length_c 19.969247
_cell_angle_alpha 90.000000
_cell_angle_beta 55.605043
_cell_angle_gamma 90.000000
_cell_volume 1597.353321
_symmetry_space_group_name_H-M "P 2/M"
_symmetry_group_IT_number 10
_symmetry_cell_setting 'monoclinic'
loop_
_space_group_symop_operation_xyz
x,y,z
-x,y,-z
-x,-y,-z
x,-y,z
loop_
_atom_site_type_symbol
_atom_site_label
_atom_site_fract_x
_atom_site_fract_y
_atom_site_fract_z
Si Si1 0.147442 0.831042 0.826770
Si Si2 0.107527 0.664885 0.627139
Si Si3 0.612590 0.661240 0.661572
Si Si4 0.837931 0.844123 0.520337
Si Si5 0.330769 0.340147 0.670899
Si Si6 0.098667 0.171563 0.204124
Si Si7 0.370687 0.670891 0.849220
Si Si8 0.452266 0.168866 0.089775
O O1 0.261980 0.794834 0.732134
O O2 0.206126 0.739628 0.874301
O O3 0.978950 0.790521 0.845736
O O4 0.156000 0.000000 0.843837
O O5 0.049183 0.500000 0.634151
O O6 0.140938 0.735044 0.546555
O O7 0.274590 0.669571 0.611924
O O8 0.981507 0.745954 0.710244
O O9 0.680693 0.500000 0.653642
O O10 0.748992 0.773834 0.610145
O O11 0.514790 0.667081 0.621318
O O12 0.501609 0.706377 0.755456
O O13 0.000000 0.884005 0.500000
O O14 0.761522 0.000000 0.521898
O O15 0.279320 0.500000 0.717028
O O16 0.276010 0.220459 0.150953
O O17 0.080486 0.000000 0.222593
O O18 0.345650 0.500000 0.867317
O O19 0.429278 0.740929 0.900373
O O20 0.468815 0.000000 0.104083
O O21 0.500000 0.198820 0.000000
#
# Coordination Sequence:
#
# PCOD8064304 Si02
#       8
#     4   4   4   4   4   4   4   4
#     4   9  16  30  55  85 113 146 185 228 277 331
#     4  10  20  35  57  81 107 143 182 223 276 332
#     4   9  19  36  56  78 105 139 179 223 272 326
#     4  11  25  39  49  69 106 146 187 233 274 315
#     4   8  16  32  53  79 108 136 174 225 275 326
#     4   9  19  36  59  86 116 147 187 234 279 334
#     4  10  21  37  59  86 116 149 188 233 280 335
#     4  10  22  40  61  86 116 150 187 229 279 336
#
# _framework density 20.033138999999998
#
# number of rings (size 3 to 8) (size 9 to 14) (size 15 to 20)
#    0.000    2.500    0.000    2.250    1.750    5.750 
#    0.000    3.125    0.000    3.750    0.000    0.000 
#    0.000    0.000    0.000    0.000    0.000    0.000 
#
# Total GULP energy -396455.086522 kJ/mol
# GULP energy per Si atom -12389.221454 kJ/mol
# Density = 1.998754 g / cm^3
# Si number density = 20.033139 Si / 1000 Ang^3
#
#
#
# Elastic Constant Matrix: (Units=GPa)
#
#
# Indices 1 2 3 4 5 6 
#
# 1 64.6861 23.5727 -2.8221 0.0000 22.3428 0.0000
# 2 23.5727 86.6159 18.2102 0.0000 12.9543 0.0000
# 3 -2.8221 18.2102 38.7584 0.0000 10.9751 0.0000
# 4 0.0000 0.0000 0.0000 -13.8419 0.0000 5.9575
# 5 22.3428 12.9543 10.9751 0.0000 22.0437 0.0000
# 6 0.0000 0.0000 0.0000 5.9575 0.0000 15.7817
#
#
#
# Elastic Compliance Matrix: (Units=1/GPa)
#
#
# Indices 1 2 3 4 5 6 
#
# 1 0.030264 -0.006214 0.014872 0.000000 -0.034427 0.000000
# 2 -0.006214 0.014636 -0.007773 0.000000 0.001567 0.000000
# 3 0.014872 -0.007773 0.039010 0.000000 -0.029928 0.000000
# 4 0.000000 0.000000 0.000000 -0.062147 0.000000 0.023460
# 5 -0.034427 0.001567 -0.029928 0.000000 0.094238 0.000000
# 6 0.000000 0.000000 0.000000 0.023460 0.000000 0.054508
#
#
# Mechanical properties :
#
#
# Convention : Reuss Voigt Hill
#
# Bulk Modulus (GPa) = 11.67134 29.77577 20.72356
# Shear Modulus (GPa) = 25.34207 14.87000 20.10604
#
# Velocity S-wave (km/s) = 3.56055 2.72742 3.17146
# Velocity P-wave (km/s) = 4.76886 4.98136 4.87627
#
# Compressibility (1/GPa) = 0.08567999
#
# Stress axis : x y z
#
# Youngs Moduli (GPa) = 33.04276 68.32373 25.63415
#
# Poissons Ratio (x) = 0.42457 -0.38123
# Poissons Ratio (y) = 0.20533 0.19925
# Poissons Ratio (z) = -0.49141 0.53108
#
# Static dielectric constant tensor:
#      x y z
#    x 4.033140 0.000000 -0.019610 
#    y 0.000000 3.740680 0.000000 
#    z -0.019610 0.000000 3.208040 
# 
# 
# High freq. dielectric constant tensor:
#      x y z
#    x 1.794910 0.000000 0.006230 
#    y 0.000000 1.789270 0.000000 
#    z 0.006230 0.000000 1.741670 
# 
# From -- ./inp_files/83538.got.cif
#   From: 2010.06.25/outbox.cif.g09.slc.cpg/sg10_42_cif.got.tgz:83538.got - 2010.06.27 22:07:45.
