data_PCOD8064949
_publ_section_title
;
Structure prediction by ZEFSAII (Michael W. Deem and Ramdas Pophale) SiO2 
 PCOD8064949
Probable space group: P 2/M
;
_chemical_formula_sum "Si O2"
_cell_formula_units_Z 30
_cell_length_a 8.116858
_cell_length_b 24.748695
_cell_length_c 13.800222
_cell_angle_alpha 90.000000
_cell_angle_beta 33.683319
_cell_angle_gamma 90.000000
_cell_volume 1537.474441
_symmetry_space_group_name_H-M "P 2/M"
_symmetry_group_IT_number 10
_symmetry_cell_setting 'monoclinic'
loop_
_space_group_symop_operation_xyz
x,y,z
-x,y,-z
-x,-y,-z
x,-y,z
loop_
_atom_site_type_symbol
_atom_site_label
_atom_site_fract_x
_atom_site_fract_y
_atom_site_fract_z
Si Si1 0.347189 0.726145 0.818874
Si Si2 0.655892 0.363814 0.321628
Si Si3 0.543799 0.061826 0.315927
Si Si4 0.360810 0.638020 0.966801
Si Si5 0.657203 0.436271 0.678001
Si Si6 0.965207 0.060939 0.280370
Si Si7 0.500000 0.133873 0.000000
Si Si8 0.336058 0.159195 0.870913
O O1 0.426197 0.695483 0.680397
O O2 0.453668 0.688292 0.854230
O O3 0.490633 0.786302 0.751095
O O4 0.000000 0.734867 0.000000
O O5 0.500000 0.369104 0.500000
O O6 0.530485 0.411725 0.317765
O O7 0.009794 0.371232 0.150144
O O8 0.844691 0.072110 0.230286
O O9 0.278826 0.072104 0.519447
O O10 0.510644 0.104268 0.244007
O O11 0.538483 0.000000 0.278214
O O12 0.517138 0.584500 0.847418
O O13 0.500000 0.652550 0.000000
O O14 0.622639 0.500000 0.691536
O O15 0.000000 0.418517 0.500000
O O16 0.237957 0.098490 0.172337
O O17 0.077567 0.000000 0.231720
O O18 0.627696 0.166624 0.030110
O O19 0.000000 0.155975 0.000000
#
# Coordination Sequence:
#
# PCOD8064949 Si02
#       8
#     4   4   4   4   4   4   2   4
#     4   8  19  38  57  80 113 150 190 241 297 341
#     4  10  20  38  61  87 115 155 203 241 295 348
#     4   9  19  38  60  79 115 156 184 233 302 358
#     4  10  20  36  61  85 116 158 199 245 289 348
#     4  10  21  37  59  89 126 160 196 243 289 339
#     4   9  19  37  58  84 112 147 191 232 286 360
#     4  12  23  34  60  88 110 146 193 240 286 358
#     4  11  22  39  58  86 119 151 190 246 298 355
#
# _framework density 19.512519000000001
#
# number of rings (size 3 to 8) (size 9 to 14) (size 15 to 20)
#    0.000    2.267    1.333    3.000    0.933    3.467 
#    2.400    1.333   14.667    0.000    0.000    0.000 
#    0.000    0.000    0.000    0.000    0.000    0.000 
#
# Total GULP energy -371829.255401 kJ/mol
# GULP energy per Si atom -12394.308513 kJ/mol
# Density = 1.946811 g / cm^3
# Si number density = 19.512519 Si / 1000 Ang^3
#
#
#
# Elastic Constant Matrix: (Units=GPa)
#
#
# Indices 1 2 3 4 5 6 
#
# 1 103.0060 29.8906 22.6224 0.0000 -0.7005 0.0000
# 2 29.8906 109.4684 30.1439 0.0000 -2.9383 0.0000
# 3 22.6224 30.1439 67.9421 0.0000 -4.4555 0.0000
# 4 0.0000 0.0000 0.0000 20.8771 0.0000 0.3625
# 5 -0.7005 -2.9383 -4.4555 0.0000 30.2958 0.0000
# 6 0.0000 0.0000 0.0000 0.3625 0.0000 -12.9697
#
#
#
# Elastic Compliance Matrix: (Units=1/GPa)
#
#
# Indices 1 2 3 4 5 6 
#
# 1 0.010948 -0.002266 -0.002664 0.000000 -0.000358 0.000000
# 2 -0.002266 0.010879 -0.004045 0.000000 0.000408 0.000000
# 3 -0.002664 -0.004045 0.017540 0.000000 0.002126 0.000000
# 4 0.000000 0.000000 0.000000 0.047876 0.000000 0.001338
# 5 -0.000358 0.000408 0.002126 0.000000 0.033352 0.000000
# 6 0.000000 0.000000 0.000000 0.001338 0.000000 -0.077065
#
#
# Mechanical properties :
#
#
# Convention : Reuss Voigt Hill
#
# Bulk Modulus (GPa) = 46.69194 49.52558 48.10876
# Shear Modulus (GPa) = 72.86826 20.82462 46.84644
#
# Velocity S-wave (km/s) = 6.11763 3.27041 4.90515
# Velocity P-wave (km/s) = 8.59545 6.30058 7.53588
#
# Compressibility (1/GPa) = 0.02141697
#
# Stress axis : x y z
#
# Youngs Moduli (GPa) = 91.33954 91.92376 57.01400
#
# Poissons Ratio (x) = 0.20826 0.15187
# Poissons Ratio (y) = 0.20693 0.23065
# Poissons Ratio (z) = 0.24330 0.37187
#
# Static dielectric constant tensor:
#      x y z
#    x 4.422060 0.000000 0.005390 
#    y 0.000000 3.793080 0.000000 
#    z 0.005390 0.000000 3.525570 
# 
# 
# High freq. dielectric constant tensor:
#      x y z
#    x 1.763020 0.000000 0.001520 
#    y 0.000000 1.758880 0.000000 
#    z 0.001520 0.000000 1.749990 
# 
# From -- ./inp_files/62659.got.cif
#   From: 2010.06.25/outbox.cif.g09.slc.cpg/sg10_32_cif.got.tgz:62659.got - 2010.06.27 22:07:45.
