data_PCOD8064841
_publ_section_title
;
Structure prediction by ZEFSAII (Michael W. Deem and Ramdas Pophale) SiO2 
 PCOD8064841
Probable space group: P 2/M
;
_chemical_formula_sum "Si O2"
_cell_formula_units_Z 28
_cell_length_a 21.112597
_cell_length_b 9.402446
_cell_length_c 14.325676
_cell_angle_alpha 90.000000
_cell_angle_beta 29.591289
_cell_angle_gamma 90.000000
_cell_volume 1404.291340
_symmetry_space_group_name_H-M "P 2/M"
_symmetry_group_IT_number 10
_symmetry_cell_setting 'monoclinic'
loop_
_space_group_symop_operation_xyz
x,y,z
-x,y,-z
-x,-y,-z
x,-y,z
loop_
_atom_site_type_symbol
_atom_site_label
_atom_site_fract_x
_atom_site_fract_y
_atom_site_fract_z
Si Si1 0.535372 0.337856 0.697824
Si Si2 0.604931 0.840384 0.786055
Si Si3 0.380326 0.834826 0.583662
Si Si4 0.041257 0.339311 0.216662
Si Si5 0.243312 0.338827 0.093167
Si Si6 0.795636 0.339207 0.650888
Si Si7 0.078026 0.834616 0.993688
O O1 0.584809 0.500000 0.643652
O O2 0.556097 0.254346 0.765358
O O3 0.608429 0.262318 0.520991
O O4 0.385335 0.331282 0.871943
O O5 0.730856 0.766807 0.662193
O O6 0.636247 0.000000 0.711526
O O7 0.500000 0.842142 0.000000
O O8 0.500000 0.795091 0.500000
O O9 0.232319 0.802718 0.803623
O O10 0.393670 0.000000 0.539598
O O11 0.067472 0.500000 0.147471
O O12 0.162252 0.266330 0.114201
O O13 0.939152 0.341627 0.430873
O O14 0.007943 0.247128 0.168303
O O15 0.193518 0.500000 0.166824
O O16 0.220320 0.270866 0.225069
O O17 0.735912 0.500000 0.725606
O O18 0.053265 0.000000 0.040124
O O19 0.000000 0.786078 0.000000
#
# Coordination Sequence:
#
# PCOD8064841 Si02
#       7
#     4   4   4   4   4   4   4
#     4  11  22  36  61  90 118 153 194 243 297 347
#     4  11  23  38  56  82 118 158 198 241 288 343
#     4  10  22  41  63  87 117 157 201 247 301 358
#     4  10  21  37  61  89 115 150 195 239 287 343
#     4   9  18  35  58  87 122 154 184 229 289 350
#     4  10  20  36  59  86 119 155 192 233 285 348
#     4  10  23  42  60  81 115 158 197 244 303 353
#
# _framework density 19.938883000000001
#
# number of rings (size 3 to 8) (size 9 to 14) (size 15 to 20)
#    0.000    1.857    1.429    2.143    2.000    4.000 
#    0.000    1.429    0.000    1.714    0.000    0.000 
#    0.000    0.000    0.000    0.000    0.000    0.000 
#
# Total GULP energy -346962.823233 kJ/mol
# GULP energy per Si atom -12391.529401 kJ/mol
# Density = 1.989350 g / cm^3
# Si number density = 19.938883 Si / 1000 Ang^3
#
#
#
# Elastic Constant Matrix: (Units=GPa)
#
#
# Indices 1 2 3 4 5 6 
#
# 1 63.3670 22.8434 8.2699 0.0000 -13.8937 0.0000
# 2 22.8434 69.2484 18.9620 0.0000 5.5705 0.0000
# 3 8.2699 18.9620 59.5670 0.0000 2.7546 0.0000
# 4 0.0000 0.0000 0.0000 27.6266 0.0000 1.8415
# 5 -13.8937 5.5705 2.7546 0.0000 34.7117 0.0000
# 6 0.0000 0.0000 0.0000 1.8415 0.0000 41.5503
#
#
#
# Elastic Compliance Matrix: (Units=1/GPa)
#
#
# Indices 1 2 3 4 5 6 
#
# 1 0.020624 -0.007300 -0.000979 0.000000 0.009504 0.000000
# 2 -0.007300 0.018565 -0.004640 0.000000 -0.005533 0.000000
# 3 -0.000979 -0.004640 0.018452 0.000000 -0.001112 0.000000
# 4 0.000000 0.000000 0.000000 0.036304 0.000000 -0.001609
# 5 0.009504 -0.005533 -0.001112 0.000000 0.033589 0.000000
# 6 0.000000 0.000000 0.000000 -0.001609 0.000000 0.024139
#
#
# Mechanical properties :
#
#
# Convention : Reuss Voigt Hill
#
# Bulk Modulus (GPa) = 31.44402 32.48143 31.96273
# Shear Modulus (GPa) = 26.57985 30.25153 28.41569
#
# Velocity S-wave (km/s) = 3.65508 3.89937 3.77920
# Velocity P-wave (km/s) = 5.79804 6.04973 5.92522
#
# Compressibility (1/GPa) = 0.03180255
#
# Stress axis : x y z
#
# Youngs Moduli (GPa) = 48.48647 53.86612 54.19372
#
# Poissons Ratio (x) = 0.39322 0.05306
# Poissons Ratio (y) = 0.35395 0.25148
# Poissons Ratio (z) = 0.04747 0.24996
#
# Static dielectric constant tensor:
#      x y z
#    x 3.851330 0.000000 -0.111810 
#    y 0.000000 3.670190 0.000000 
#    z -0.111810 0.000000 3.598950 
# 
# 
# High freq. dielectric constant tensor:
#      x y z
#    x 1.788990 0.000000 -0.002350 
#    y 0.000000 1.761780 0.000000 
#    z -0.002350 0.000000 1.779880 
# 
# From -- ./inp_files/49349.got.cif
#   From: 2010.06.25/outbox.cif.g09.slc.cpg/sg10_25_cif.got.tgz:49349.got - 2010.06.27 22:07:45.
