data_PCOD8064051
_publ_section_title
;
Structure prediction by ZEFSAII (Michael W. Deem and Ramdas Pophale) SiO2 
 PCOD8064051
Probable space group: P 2/M
;
_chemical_formula_sum "Si O2"
_cell_formula_units_Z 32
_cell_length_a 16.227374
_cell_length_b 23.616682
_cell_length_c 9.515114
_cell_angle_alpha 90.000000
_cell_angle_beta 28.412507
_cell_angle_gamma 90.000000
_cell_volume 1735.083425
_symmetry_space_group_name_H-M "P 2/M"
_symmetry_group_IT_number 10
_symmetry_cell_setting 'monoclinic'
loop_
_space_group_symop_operation_xyz
x,y,z
-x,y,-z
-x,-y,-z
x,-y,z
loop_
_atom_site_type_symbol
_atom_site_label
_atom_site_fract_x
_atom_site_fract_y
_atom_site_fract_z
Si Si1 0.693760 0.561693 0.375994
Si Si2 0.838509 0.678022 0.827911
Si Si3 0.500000 0.135585 0.165601
Si Si4 0.161492 0.321978 0.843436
Si Si5 0.693763 0.561693 0.042723
Si Si6 0.165227 0.065455 0.339069
Si Si7 0.500000 0.249643 0.662312
Si Si8 0.834774 0.934545 0.334751
O O1 0.771071 0.500000 0.304973
O O2 0.810126 0.613650 0.255655
O O3 0.681596 0.566226 0.227607
O O4 0.499998 0.567662 0.728549
O O5 0.000000 0.703833 0.500000
O O6 0.882654 0.679998 0.926019
O O7 0.810128 0.613650 0.813966
O O8 0.668504 0.713865 0.048199
O O9 0.500000 0.194859 0.242444
O O10 0.331407 0.100648 0.465380
O O11 0.500000 0.146138 0.000000
O O12 0.668592 0.100649 0.959603
O O13 0.331496 0.286135 0.553710
O O14 0.000000 0.296168 0.000000
O O15 0.771074 0.500000 0.881812
O O16 0.124159 0.075142 0.563761
O O17 0.000000 0.087252 0.500000
O O18 0.204717 0.000000 0.247306
O O19 0.500000 0.231360 0.500000
O O20 0.795282 0.000000 0.361461
O O21 0.000000 0.912748 0.000000
#
# Coordination Sequence:
#
# PCOD8064051 Si02
#       8
#     4   4   4   4   4   4   4   4
#     4   8  13  25  49  76  99 127 165 207 252 308
#     4  10  20  35  54  76 101 133 172 214 260 309
#     4  10  21  36  56  79 105 139 177 214 256 304
#     4  10  20  35  54  76 101 133 172 214 260 309
#     4   8  13  25  49  76  99 127 165 207 252 308
#     4   9  18  34  56  82 111 140 170 208 255 306
#     4  10  22  39  54  71 102 140 179 218 254 300
#     4   9  18  34  56  82 111 140 170 208 255 306
#
# _framework density 18.442917000000001
#
# number of rings (size 3 to 8) (size 9 to 14) (size 15 to 20)
#    0.000    2.750    1.250    1.125    0.000    5.000 
#    0.000    5.000    0.000    3.750    0.000    1.750 
#    0.000    0.000    0.000    0.000    0.000    0.000 
#
# Total GULP energy -396696.118583 kJ/mol
# GULP energy per Si atom -12396.753706 kJ/mol
# Density = 1.840094 g / cm^3
# Si number density = 18.442917 Si / 1000 Ang^3
#
#
#
# Elastic Constant Matrix: (Units=GPa)
#
#
# Indices 1 2 3 4 5 6 
#
# 1 76.7949 53.6527 53.7749 0.0000 -28.2839 0.0000
# 2 53.6527 113.6733 68.2542 0.0000 -10.8475 0.0000
# 3 53.7749 68.2542 140.2674 0.0000 -18.8663 0.0000
# 4 0.0000 0.0000 0.0000 32.8503 0.0000 -3.3759
# 5 -28.2839 -10.8475 -18.8663 0.0000 23.5519 0.0000
# 6 0.0000 0.0000 0.0000 -3.3759 0.0000 28.3043
#
#
#
# Elastic Compliance Matrix: (Units=1/GPa)
#
#
# Indices 1 2 3 4 5 6 
#
# 1 0.037321 -0.011994 -0.003571 0.000000 0.036435 0.000000
# 2 -0.011994 0.016304 -0.004777 0.000000 -0.010722 0.000000
# 3 -0.003571 -0.004777 0.011152 0.000000 0.002444 0.000000
# 4 0.000000 0.000000 0.000000 0.030819 0.000000 0.003676
# 5 0.036435 -0.010722 0.002444 0.000000 0.083234 0.000000
# 6 0.000000 0.000000 0.000000 0.003676 0.000000 0.035769
#
#
# Mechanical properties :
#
#
# Convention : Reuss Voigt Hill
#
# Bulk Modulus (GPa) = 41.50837 75.78882 58.64860
# Shear Modulus (GPa) = 18.98880 27.27823 23.13351
#
# Velocity S-wave (km/s) = 3.21222 3.85003 3.54550
# Velocity P-wave (km/s) = 6.02603 7.80683 6.97351
#
# Compressibility (1/GPa) = 0.02409152
#
# Stress axis : x y z
#
# Youngs Moduli (GPa) = 26.79455 61.33647 89.67328
#
# Poissons Ratio (x) = 0.73568 0.32023
# Poissons Ratio (y) = 0.32138 0.42838
# Poissons Ratio (z) = 0.09568 0.29301
#
# Static dielectric constant tensor:
#      x y z
#    x 3.123800 0.000000 -0.162470 
#    y 0.000000 3.509370 0.000000 
#    z -0.162470 0.000000 3.342470 
# 
# 
# High freq. dielectric constant tensor:
#      x y z
#    x 1.689170 0.000000 -0.016410 
#    y 0.000000 1.719150 0.000000 
#    z -0.016410 0.000000 1.711260 
# 
# From -- ./inp_files/30578.got.cif
#   From: 2010.06.25/outbox.cif.g09.slc.cpg/sg10_16_cif.got.tgz:30578.got - 2010.06.27 22:07:45.
