data_PCOD8064877
_publ_section_title
;
Structure prediction by ZEFSAII (Michael W. Deem and Ramdas Pophale) SiO2 
 PCOD8064877
Probable space group: P 2/M
;
_chemical_formula_sum "Si O2"
_cell_formula_units_Z 24
_cell_length_a 23.547877
_cell_length_b 9.309181
_cell_length_c 7.763328
_cell_angle_alpha 90.000000
_cell_angle_beta 131.036725
_cell_angle_gamma 90.000000
_cell_volume 1283.656697
_symmetry_space_group_name_H-M "P 2/M"
_symmetry_group_IT_number 10
_symmetry_cell_setting 'monoclinic'
loop_
_space_group_symop_operation_xyz
x,y,z
-x,y,-z
-x,-y,-z
x,-y,z
loop_
_atom_site_type_symbol
_atom_site_label
_atom_site_fract_x
_atom_site_fract_y
_atom_site_fract_z
Si Si1 0.335962 0.333360 0.832961
Si Si2 0.918883 0.667838 0.913664
Si Si3 0.579947 0.837819 0.256412
Si Si4 0.491028 0.348237 0.290077
Si Si5 0.171498 0.668185 0.607652
Si Si6 0.083934 0.830414 0.731971
O O1 0.333019 0.500000 0.776026
O O2 0.348319 0.240320 0.684804
O O3 0.259582 0.291396 0.778079
O O4 0.406649 0.288702 0.092267
O O5 0.913801 0.500000 0.953265
O O6 0.861040 0.708311 0.645821
O O7 0.902110 0.759036 0.052865
O O8 0.000000 0.708269 0.000000
O O9 0.559554 0.761834 0.394145
O O10 0.603511 0.000000 0.333025
O O11 0.500000 0.817339 0.000000
O O12 0.500000 0.391201 0.500000
O O13 0.500391 0.500000 0.203218
O O14 0.156659 0.500000 0.616797
O O15 0.137755 0.761051 0.695511
O O16 0.000000 0.799617 0.500000
O O17 0.100501 0.000000 0.779662
#
# Coordination Sequence:
#
# PCOD8064877 Si02
#       6
#     4   4   4   4   4   4
#     4   9  18  34  54  76 102 134 173 219 268 313
#     4  10  20  36  60  84 106 142 190 233 272 322
#     4   9  17  30  50  73  98 133 171 206 251 311
#     4   9  17  31  52  76 102 134 173 216 260 312
#     4  10  21  38  59  82 110 145 187 235 279 322
#     4  11  23  37  57  84 114 148 183 225 277 334
#
# _framework density 18.696587000000001
#
# number of rings (size 3 to 8) (size 9 to 14) (size 15 to 20)
#    0.000    2.333    1.667    1.000    0.000    4.667 
#    3.000    0.000    0.000    0.000    0.000    0.000 
#    0.000    0.000    0.000    0.000    0.000    0.000 
#
# Total GULP energy -297337.719320 kJ/mol
# GULP energy per Si atom -12389.071638 kJ/mol
# Density = 1.865403 g / cm^3
# Si number density = 18.696587 Si / 1000 Ang^3
#
#
#
# Elastic Constant Matrix: (Units=GPa)
#
#
# Indices 1 2 3 4 5 6 
#
# 1 162.5476 92.1648 57.1228 0.0000 -0.7119 0.0000
# 2 92.1648 110.6925 37.4501 0.0000 -5.1692 0.0000
# 3 57.1228 37.4501 67.0661 0.0000 -9.5650 0.0000
# 4 0.0000 0.0000 0.0000 22.7236 0.0000 -12.7229
# 5 -0.7119 -5.1692 -9.5650 0.0000 30.9292 0.0000
# 6 0.0000 0.0000 0.0000 -12.7229 0.0000 53.4199
#
#
#
# Elastic Compliance Matrix: (Units=1/GPa)
#
#
# Indices 1 2 3 4 5 6 
#
# 1 0.013961 -0.009365 -0.007155 0.000000 -0.003457 0.000000
# 2 -0.009365 0.017421 -0.001430 0.000000 0.002254 0.000000
# 3 -0.007155 -0.001430 0.022749 0.000000 0.006632 0.000000
# 4 0.000000 0.000000 0.000000 0.050778 0.000000 0.012094
# 5 -0.003457 0.002254 0.006632 0.000000 0.034680 0.000000
# 6 0.000000 0.000000 0.000000 0.012094 0.000000 0.021600
#
#
# Mechanical properties :
#
#
# Convention : Reuss Voigt Hill
#
# Bulk Modulus (GPa) = 54.85015 79.30907 67.07961
# Shear Modulus (GPa) = 24.61048 31.65245 28.13147
#
# Velocity S-wave (km/s) = 3.63203 4.11902 3.88317
# Velocity P-wave (km/s) = 6.85489 8.07049 7.48740
#
# Compressibility (1/GPa) = 0.01823149
#
# Stress axis : x y z
#
# Youngs Moduli (GPa) = 71.62601 57.40302 43.95843
#
# Poissons Ratio (x) = 0.53760 0.31451
# Poissons Ratio (y) = 0.67080 0.06284
# Poissons Ratio (z) = 0.51247 0.08206
#
# Static dielectric constant tensor:
#      x y z
#    x 3.471310 0.000000 0.021220 
#    y 0.000000 3.407440 0.000000 
#    z 0.021220 0.000000 3.294010 
# 
# 
# High freq. dielectric constant tensor:
#      x y z
#    x 1.730380 0.000000 -0.001100 
#    y 0.000000 1.726030 0.000000 
#    z -0.001100 0.000000 1.705510 
# 
# From -- ./inp_files/33966.got.cif
#   From: 2010.06.25/outbox.cif.g09.slc.cpg/sg10_17_cif.got.tgz:33966.got - 2010.06.27 22:07:45.
