data_PCOD8064149
_publ_section_title
;
Structure prediction by ZEFSAII (Michael W. Deem and Ramdas Pophale) SiO2 
 PCOD8064149
Probable space group: P 2/M
;
_chemical_formula_sum "Si O2"
_cell_formula_units_Z 28
_cell_length_a 19.551978
_cell_length_b 9.275732
_cell_length_c 14.424282
_cell_angle_alpha 90.000000
_cell_angle_beta 147.404236
_cell_angle_gamma 90.000000
_cell_volume 1409.246367
_symmetry_space_group_name_H-M "P 2/M"
_symmetry_group_IT_number 10
_symmetry_cell_setting 'monoclinic'
loop_
_space_group_symop_operation_xyz
x,y,z
-x,y,-z
-x,-y,-z
x,-y,z
loop_
_atom_site_type_symbol
_atom_site_label
_atom_site_fract_x
_atom_site_fract_y
_atom_site_fract_z
Si Si1 0.819823 0.161740 0.034002
Si Si2 0.643661 0.165923 0.669352
Si Si3 0.226107 0.169074 0.620357
Si Si4 0.861278 0.334450 0.810857
Si Si5 0.057672 0.664309 0.297049
Si Si6 0.466141 0.660727 0.854354
Si Si7 0.701854 0.835572 0.091694
O O1 0.799064 0.187552 0.119374
O O2 0.918988 0.278453 0.109326
O O3 0.872775 0.000000 0.078140
O O4 0.689425 0.181984 0.828007
O O5 0.500000 0.229597 0.500000
O O6 0.742654 0.247296 0.715974
O O7 0.642240 0.000000 0.635192
O O8 0.101042 0.238233 0.433193
O O9 0.342823 0.241834 0.699428
O O10 0.228237 0.204827 0.732297
O O11 0.228319 0.000000 0.603710
O O12 0.850175 0.500000 0.831343
O O13 0.850952 0.322179 0.687531
O O14 0.000000 0.273333 0.000000
O O15 0.047693 0.500000 0.319356
O O16 0.441583 0.500000 0.786764
O O17 0.500000 0.653791 0.000000
O O18 0.582547 0.733718 0.933845
O O19 0.652406 0.000000 0.040757
#
# Coordination Sequence:
#
# PCOD8064149 Si02
#       7
#     4   4   4   4   4   4   4
#     4  10  21  38  58  81 113 153 195 235 288 350
#     4  10  22  39  61  92 124 151 190 245 297 350
#     4  10  20  35  55  80 112 150 195 240 285 339
#     4  10  21  40  63  86 115 153 194 237 293 357
#     4  11  23  38  58  84 114 147 193 243 291 350
#     4   9  17  31  52  78 109 145 188 237 286 336
#     4   9  19  35  55  79 112 156 196 234 282 343
#
# _framework density 19.868777000000001
#
# number of rings (size 3 to 8) (size 9 to 14) (size 15 to 20)
#    0.000    2.143    1.429    1.286    0.000    6.286 
#    0.000    4.286    0.000    0.000    0.000    0.000 
#    0.000    0.000    0.000    0.000    0.000    0.000 
#
# Total GULP energy -347187.994569 kJ/mol
# GULP energy per Si atom -12399.571235 kJ/mol
# Density = 1.982355 g / cm^3
# Si number density = 19.868777 Si / 1000 Ang^3
#
#
#
# Elastic Constant Matrix: (Units=GPa)
#
#
# Indices 1 2 3 4 5 6 
#
# 1 92.6811 50.9243 42.9886 0.0000 8.3912 0.0000
# 2 50.9243 113.1834 51.6832 0.0000 8.6355 0.0000
# 3 42.9886 51.6832 107.1608 0.0000 11.7311 0.0000
# 4 0.0000 0.0000 0.0000 21.9754 0.0000 1.3158
# 5 8.3912 8.6355 11.7311 0.0000 31.0371 0.0000
# 6 0.0000 0.0000 0.0000 1.3158 0.0000 28.2445
#
#
#
# Elastic Compliance Matrix: (Units=1/GPa)
#
#
# Indices 1 2 3 4 5 6 
#
# 1 0.015416 -0.005227 -0.003512 0.000000 -0.001386 0.000000
# 2 -0.005227 0.013141 -0.004168 0.000000 -0.000668 0.000000
# 3 -0.003512 -0.004168 0.013060 0.000000 -0.002827 0.000000
# 4 0.000000 0.000000 0.000000 0.045633 0.000000 -0.002126
# 5 -0.001386 -0.000668 -0.002827 0.000000 0.033849 0.000000
# 6 0.000000 0.000000 0.000000 -0.002126 0.000000 0.035504
#
#
# Mechanical properties :
#
#
# Convention : Reuss Voigt Hill
#
# Bulk Modulus (GPa) = 63.27354 67.13528 65.20441
# Shear Modulus (GPa) = 26.64056 27.41335 27.02695
#
# Velocity S-wave (km/s) = 3.66570 3.71849 3.69219
# Velocity P-wave (km/s) = 7.05913 7.23180 7.14599
#
# Compressibility (1/GPa) = 0.01580440
#
# Stress axis : x y z
#
# Youngs Moduli (GPa) = 64.86819 76.09729 76.56827
#
# Poissons Ratio (x) = 0.39774 0.26888
# Poissons Ratio (y) = 0.33905 0.31914
# Poissons Ratio (z) = 0.22779 0.31718
#
# Static dielectric constant tensor:
#      x y z
#    x 3.414550 0.000000 -0.033770 
#    y 0.000000 3.680810 0.000000 
#    z -0.033770 0.000000 3.618890 
# 
# 
# High freq. dielectric constant tensor:
#      x y z
#    x 1.762010 0.000000 -0.002890 
#    y 0.000000 1.775720 0.000000 
#    z -0.002890 0.000000 1.772620 
# 
# From -- ./inp_files/70274.got.cif
#   From: 2010.06.25/outbox.cif.g09.slc.cpg/sg10_36_cif.got.tgz:70274.got - 2010.06.27 22:07:45.
