data_PCOD8064356
_publ_section_title
;
Structure prediction by ZEFSAII (Michael W. Deem and Ramdas Pophale) SiO2 
 PCOD8064356
Probable space group: P 2/M
;
_chemical_formula_sum "Si O2"
_cell_formula_units_Z 32
_cell_length_a 15.292314
_cell_length_b 8.904921
_cell_length_c 22.713700
_cell_angle_alpha 90.000000
_cell_angle_beta 148.028998
_cell_angle_gamma 90.000000
_cell_volume 1637.754938
_symmetry_space_group_name_H-M "P 2/M"
_symmetry_group_IT_number 10
_symmetry_cell_setting 'monoclinic'
loop_
_space_group_symop_operation_xyz
x,y,z
-x,y,-z
-x,-y,-z
x,-y,z
loop_
_atom_site_type_symbol
_atom_site_label
_atom_site_fract_x
_atom_site_fract_y
_atom_site_fract_z
Si Si1 0.021962 0.678455 0.204184
Si Si2 0.708715 0.327546 0.962239
Si Si3 0.192469 0.834675 0.691829
Si Si4 0.400262 0.678648 0.715585
Si Si5 0.037422 0.175192 0.336860
Si Si6 0.474642 0.164944 0.050014
Si Si7 0.611808 0.676259 0.619180
Si Si8 0.607483 0.825537 0.413931
O O1 0.011425 0.500000 0.205395
O O2 0.975545 0.747020 0.241429
O O3 0.202823 0.730617 0.287684
O O4 0.896727 0.733306 0.079658
O O5 0.719393 0.500000 0.952535
O O6 0.580502 0.255116 0.841274
O O7 0.629396 0.297020 0.980171
O O8 0.243035 0.732795 0.664685
O O9 0.349590 0.854989 0.821371
O O10 0.052359 0.762188 0.654834
O O11 0.134645 0.000000 0.635863
O O12 0.402606 0.500000 0.719598
O O13 0.373123 0.734650 0.634806
O O14 0.232179 0.205250 0.454668
O O15 0.995353 0.000000 0.307535
O O16 0.385603 0.000000 0.000771
O O17 0.500000 0.226001 0.000000
O O18 0.500000 0.720505 0.500000
O O19 0.601988 0.500000 0.627182
O O20 0.551124 0.765766 0.641645
O O21 0.584889 0.000000 0.386142
#
# Coordination Sequence:
#
# PCOD8064356 Si02
#       8
#     4   4   4   4   4   4   4   4
#     4  10  20  35  57  84 113 141 175 222 274 326
#     4   9  19  34  52  76 105 140 179 220 265 314
#     4   9  18  33  51  74 107 145 183 223 267 315
#     4  10  21  38  57  77 107 147 189 226 264 314
#     4  10  21  35  54  82 113 144 180 223 272 324
#     4   9  16  27  46  71 101 139 180 219 262 313
#     4  10  20  37  60  85 111 140 174 217 273 330
#     4  11  23  38  58  82 109 143 182 225 272 323
#
# _framework density 19.538943
#
# number of rings (size 3 to 8) (size 9 to 14) (size 15 to 20)
#    0.000    2.250    1.250    1.500    0.000    4.500 
#    0.000    5.625    0.000    3.750    0.000    0.000 
#    0.000    0.000    0.000    0.000    0.000    0.000 
#
# Total GULP energy -396468.906002 kJ/mol
# GULP energy per Si atom -12389.653313 kJ/mol
# Density = 1.949447 g / cm^3
# Si number density = 19.538943 Si / 1000 Ang^3
#
#
#
# Elastic Constant Matrix: (Units=GPa)
#
#
# Indices 1 2 3 4 5 6 
#
# 1 96.6602 27.5991 9.3835 0.0000 8.4031 0.0000
# 2 27.5991 37.5966 14.8530 0.0000 -1.1537 0.0000
# 3 9.3835 14.8530 48.3695 0.0000 15.5960 0.0000
# 4 0.0000 0.0000 0.0000 21.2266 0.0000 -1.8968
# 5 8.4031 -1.1537 15.5960 0.0000 29.4992 0.0000
# 6 0.0000 0.0000 0.0000 -1.8968 0.0000 37.1821
#
#
#
# Elastic Compliance Matrix: (Units=1/GPa)
#
#
# Indices 1 2 3 4 5 6 
#
# 1 0.013846 -0.011406 0.002691 0.000000 -0.005813 0.000000
# 2 -0.011406 0.041049 -0.014415 0.000000 0.012475 0.000000
# 3 0.002691 -0.014415 0.030147 0.000000 -0.017268 0.000000
# 4 0.000000 0.000000 0.000000 0.047326 0.000000 0.002414
# 5 -0.005813 0.012475 -0.017268 0.000000 0.045173 0.000000
# 6 0.000000 0.000000 0.000000 0.002414 0.000000 0.027018
#
#
# Mechanical properties :
#
#
# Convention : Reuss Voigt Hill
#
# Bulk Modulus (GPa) = 25.78550 31.81083 28.79817
# Shear Modulus (GPa) = 18.95767 26.30096 22.62932
#
# Velocity S-wave (km/s) = 3.11826 3.67288 3.40687
# Velocity P-wave (km/s) = 5.11765 5.85686 5.49969
#
# Compressibility (1/GPa) = 0.03878148
#
# Stress axis : x y z
#
# Youngs Moduli (GPa) = 72.22153 24.36141 33.17122
#
# Poissons Ratio (x) = 0.27786 -0.08925
# Poissons Ratio (y) = 0.82373 0.47816
# Poissons Ratio (z) = -0.19431 0.35117
#
# Static dielectric constant tensor:
#      x y z
#    x 3.377890 0.000000 0.104420 
#    y 0.000000 3.464430 0.000000 
#    z 0.104420 0.000000 3.840490 
# 
# 
# High freq. dielectric constant tensor:
#      x y z
#    x 1.748950 0.000000 0.002470 
#    y 0.000000 1.744640 0.000000 
#    z 0.002470 0.000000 1.769080 
# 
# From -- ./inp_files/71698.got.cif
#   From: 2010.06.25/outbox.cif.g09.slc.cpg/sg10_36_cif.got.tgz:71698.got - 2010.06.27 22:07:45.
