data_PCOD8064099
_publ_section_title
;
Structure prediction by ZEFSAII (Michael W. Deem and Ramdas Pophale) SiO2 
 PCOD8064099
Probable space group: P 2/M
;
_chemical_formula_sum "Si O2"
_cell_formula_units_Z 32
_cell_length_a 21.263591
_cell_length_b 13.655450
_cell_length_c 9.789600
_cell_angle_alpha 90.000000
_cell_angle_beta 37.986818
_cell_angle_gamma 90.000000
_cell_volume 1749.530963
_symmetry_space_group_name_H-M "P 2/M"
_symmetry_group_IT_number 10
_symmetry_cell_setting 'monoclinic'
loop_
_space_group_symop_operation_xyz
x,y,z
-x,y,-z
-x,-y,-z
x,-y,z
loop_
_atom_site_type_symbol
_atom_site_label
_atom_site_fract_x
_atom_site_fract_y
_atom_site_fract_z
Si Si1 0.513958 0.885623 0.319541
Si Si2 0.257184 0.106739 0.097748
Si Si3 0.739515 0.610806 0.442058
Si Si4 0.790972 0.892518 0.510390
Si Si5 0.104783 0.699962 0.631876
Si Si6 0.108508 0.613419 0.051420
Si Si7 0.115059 0.729287 0.304495
Si Si8 0.595691 0.212233 0.734454
O O1 0.500000 0.856113 0.500000
O O2 0.436987 0.823649 0.359157
O O3 0.493166 0.000000 0.329222
O O4 0.628031 0.854823 0.083503
O O5 0.208798 0.096777 0.328391
O O6 0.189612 0.183311 0.127427
O O7 0.255878 0.000000 0.025909
O O8 0.698302 0.500000 0.514056
O O9 0.827606 0.620364 0.405223
O O10 0.643499 0.680033 0.636824
O O11 0.790043 0.636457 0.208913
O O12 0.873700 0.807313 0.336625
O O13 0.679144 0.863319 0.648366
O O14 0.820665 0.000000 0.397493
O O15 0.142426 0.693146 0.409898
O O16 0.985059 0.676318 0.850935
O O17 0.078160 0.500000 0.095565
O O18 0.128366 0.640567 0.175297
O O19 0.000000 0.770651 0.500000
O O20 0.500000 0.216003 0.000000
#
# Coordination Sequence:
#
# PCOD8064099 Si02
#       8
#     4   4   4   4   4   4   4   4
#     4  10  21  34  53  81 107 136 174 214 258 308
#     4   9  17  31  51  74 106 140 171 208 252 305
#     4  10  22  37  55  78 103 136 175 220 271 318
#     4   9  17  31  53  81 108 136 174 212 249 305
#     4   9  18  33  55  81 105 136 175 215 257 307
#     4  10  20  35  55  76 103 138 176 218 265 316
#     4   9  19  32  51  80 108 134 173 214 256 305
#     4  11  21  35  57  79 103 138 179 222 263 306
#
# _framework density 18.290617999999998
#
# number of rings (size 3 to 8) (size 9 to 14) (size 15 to 20)
#    0.000    2.375    1.250    1.125    1.750    4.750 
#    0.000    1.875    0.000    7.125    0.000    0.000 
#    0.000    0.000    0.000    0.000    0.000    0.000 
#
# Total GULP energy -396718.226453 kJ/mol
# GULP energy per Si atom -12397.444577 kJ/mol
# Density = 1.824899 g / cm^3
# Si number density = 18.290618 Si / 1000 Ang^3
#
#
#
# Elastic Constant Matrix: (Units=GPa)
#
#
# Indices 1 2 3 4 5 6 
#
# 1 79.5572 42.4029 25.3298 0.0000 4.5187 0.0000
# 2 42.4029 108.5169 36.6021 0.0000 -7.5672 0.0000
# 3 25.3298 36.6021 39.5675 0.0000 0.7301 0.0000
# 4 0.0000 0.0000 0.0000 118.4746 0.0000 17.0865
# 5 4.5187 -7.5672 0.7301 0.0000 20.4053 0.0000
# 6 0.0000 0.0000 0.0000 17.0865 0.0000 29.9171
#
#
#
# Elastic Compliance Matrix: (Units=1/GPa)
#
#
# Indices 1 2 3 4 5 6 
#
# 1 0.017673 -0.005107 -0.006487 0.000000 -0.005575 0.000000
# 2 -0.005107 0.015496 -0.011200 0.000000 0.007278 0.000000
# 3 -0.006487 -0.011200 0.039863 0.000000 -0.004143 0.000000
# 4 0.000000 0.000000 0.000000 0.009198 0.000000 -0.005253
# 5 -0.005575 0.007278 -0.004143 0.000000 0.053089 0.000000
# 6 0.000000 0.000000 0.000000 -0.005253 0.000000 0.036426
#
#
# Mechanical properties :
#
#
# Convention : Reuss Voigt Hill
#
# Bulk Modulus (GPa) = 36.43625 48.47903 42.45764
# Shear Modulus (GPa) = 22.07702 41.97986 32.02844
#
# Velocity S-wave (km/s) = 3.47798 4.79598 4.18914
# Velocity P-wave (km/s) = 6.00770 7.56511 6.83094
#
# Compressibility (1/GPa) = 0.02744519
#
# Stress axis : x y z
#
# Youngs Moduli (GPa) = 56.58229 64.53443 25.08607
#
# Poissons Ratio (x) = 0.32955 0.16274
# Poissons Ratio (y) = 0.28894 0.28095
# Poissons Ratio (z) = 0.36706 0.72276
#
# Static dielectric constant tensor:
#      x y z
#    x 3.352830 0.000000 0.026060 
#    y 0.000000 3.603510 0.000000 
#    z 0.026060 0.000000 3.286440 
# 
# 
# High freq. dielectric constant tensor:
#      x y z
#    x 1.706680 0.000000 0.001680 
#    y 0.000000 1.705460 0.000000 
#    z 0.001680 0.000000 1.696190 
# 
# From -- ./inp_files/35116.got.cif
#   From: 2010.06.25/outbox.cif.g09.slc.cpg/sg10_18_cif.got.tgz:35116.got - 2010.06.27 22:07:45.
