data_PCOD8064090
_publ_section_title
;
Structure prediction by ZEFSAII (Michael W. Deem and Ramdas Pophale) SiO2 
 PCOD8064090
Probable space group: P 2/M
;
_chemical_formula_sum "Si O2"
_cell_formula_units_Z 24
_cell_length_a 13.477596
_cell_length_b 10.544113
_cell_length_c 19.404194
_cell_angle_alpha 90.000000
_cell_angle_beta 153.876977
_cell_angle_gamma 90.000000
_cell_volume 1214.134403
_symmetry_space_group_name_H-M "P 2/M"
_symmetry_group_IT_number 10
_symmetry_cell_setting 'monoclinic'
loop_
_space_group_symop_operation_xyz
x,y,z
-x,y,-z
-x,-y,-z
x,-y,z
loop_
_atom_site_type_symbol
_atom_site_label
_atom_site_fract_x
_atom_site_fract_y
_atom_site_fract_z
Si Si1 0.182518 0.764788 0.911459
Si Si2 0.986435 0.000000 0.411188
Si Si3 0.519897 0.000000 0.932965
Si Si4 0.575138 0.354448 0.314728
Si Si5 0.373831 0.639812 0.808297
Si Si6 0.191107 0.149240 0.062561
Si Si7 0.025177 0.247496 0.360902
O O1 0.991745 0.761283 0.733252
O O2 0.353628 0.878878 0.014046
O O3 0.353779 0.646097 0.011438
O O4 0.080198 0.786732 0.924183
O O5 0.102072 0.116455 0.443403
O O6 0.000000 0.000000 0.500000
O O7 0.722893 0.000000 0.247603
O O8 0.500000 0.000000 0.000000
O O9 0.477007 0.500000 0.258219
O O10 0.683373 0.330200 0.307018
O O11 0.391438 0.243356 0.213145
O O12 0.779626 0.346775 0.497622
O O13 0.296260 0.500000 0.779648
O O14 0.225972 0.726792 0.766562
O O15 0.268585 0.000000 0.100616
O O16 0.000000 0.153321 0.000000
#
# Coordination Sequence:
#
# PCOD8064090 Si02
#       7
#     4   2   2   4   4   4   4
#     4  11  21  35  57  84 118 156 196 244 292 347
#     4  12  24  30  50  83 120 166 201 223 279 341
#     4  12  18  36  51  81 124 157 191 235 280 346
#     4  10  23  40  61  89 121 159 200 245 296 354
#     4  10  20  35  54  81 122 168 203 230 274 350
#     4  10  23  44  69  89 109 147 201 259 312 361
#     4  12  22  33  53  86 126 160 191 237 289 350
#
# _framework density 19.767168999999999
#
# number of rings (size 3 to 8) (size 9 to 14) (size 15 to 20)
#    0.000    1.167    4.167    2.500    3.500    3.667 
#    0.000    0.833    0.000    3.000    0.000    0.000 
#    0.000    0.000    0.000    0.000    0.000    0.000 
#
# Total GULP energy -297321.291738 kJ/mol
# GULP energy per Si atom -12388.387156 kJ/mol
# Density = 1.972218 g / cm^3
# Si number density = 19.767169 Si / 1000 Ang^3
#
#
#
# Elastic Constant Matrix: (Units=GPa)
#
#
# Indices 1 2 3 4 5 6 
#
# 1 92.8763 26.8196 42.2331 0.0000 -15.8323 0.0000
# 2 26.8196 99.3248 28.4327 0.0000 1.7578 0.0000
# 3 42.2331 28.4327 104.1084 0.0000 -33.6466 0.0000
# 4 0.0000 0.0000 0.0000 26.5092 0.0000 2.6997
# 5 -15.8323 1.7578 -33.6466 0.0000 31.3165 0.0000
# 6 0.0000 0.0000 0.0000 2.6997 0.0000 18.1052
#
#
#
# Elastic Compliance Matrix: (Units=1/GPa)
#
#
# Indices 1 2 3 4 5 6 
#
# 1 0.013821 -0.002654 -0.003946 0.000000 0.002897 0.000000
# 2 -0.002654 0.012178 -0.004449 0.000000 -0.006805 0.000000
# 3 -0.003946 -0.004449 0.018164 0.000000 0.017771 0.000000
# 4 0.000000 0.000000 0.000000 0.038304 0.000000 -0.005712
# 5 0.002897 -0.006805 0.017771 0.000000 0.052872 0.000000
# 6 0.000000 0.000000 0.000000 -0.005712 0.000000 0.056084
#
#
# Mechanical properties :
#
#
# Convention : Reuss Voigt Hill
#
# Bulk Modulus (GPa) = 45.31545 54.58670 49.95108
# Shear Modulus (GPa) = 22.63702 28.44112 25.53907
#
# Velocity S-wave (km/s) = 3.38773 3.79727 3.59833
# Velocity P-wave (km/s) = 6.18681 6.84839 6.52599
#
# Compressibility (1/GPa) = 0.02206753
#
# Stress axis : x y z
#
# Youngs Moduli (GPa) = 72.35134 82.11202 55.05307
#
# Poissons Ratio (x) = 0.21791 0.21723
# Poissons Ratio (y) = 0.19201 0.24492
# Poissons Ratio (z) = 0.28548 0.36530
#
# Static dielectric constant tensor:
#      x y z
#    x 3.364890 0.000000 -0.203650 
#    y 0.000000 3.831580 0.000000 
#    z -0.203650 0.000000 3.297410 
# 
# 
# High freq. dielectric constant tensor:
#      x y z
#    x 1.745310 0.000000 -0.029290 
#    y 0.000000 1.789080 0.000000 
#    z -0.029290 0.000000 1.753280 
# 
# From -- ./inp_files/24089.got.cif
#   From: 2010.06.25/outbox.cif.g09.slc.cpg/sg10_13_cif.got.tgz:24089.got - 2010.06.27 22:07:45.
