data_PCOD8064717
_publ_section_title
;
Structure prediction by ZEFSAII (Michael W. Deem and Ramdas Pophale) SiO2 
 PCOD8064717
Probable space group: P 2/M
;
_chemical_formula_sum "Si O2"
_cell_formula_units_Z 28
_cell_length_a 9.934486
_cell_length_b 8.664712
_cell_length_c 29.770376
_cell_angle_alpha 90.000000
_cell_angle_beta 33.461217
_cell_angle_gamma 90.000000
_cell_volume 1412.956801
_symmetry_space_group_name_H-M "P 2/M"
_symmetry_group_IT_number 10
_symmetry_cell_setting 'monoclinic'
loop_
_space_group_symop_operation_xyz
x,y,z
-x,y,-z
-x,-y,-z
x,-y,z
loop_
_atom_site_type_symbol
_atom_site_label
_atom_site_fract_x
_atom_site_fract_y
_atom_site_fract_z
Si Si1 0.493114 0.316501 0.313199
Si Si2 0.414067 0.316033 0.434373
Si Si3 0.155263 0.817613 1.000000
Si Si4 0.940888 0.316500 0.313199
Si Si5 0.988064 0.682579 0.865719
Si Si6 0.683341 0.682578 0.865719
Si Si7 0.042980 0.315889 0.382808
O O1 0.502014 0.500000 0.311727
O O2 0.406524 0.254482 0.385575
O O3 0.295777 0.254269 0.332745
O O4 0.760519 0.254881 0.225816
O O5 0.404432 0.500000 0.438227
O O6 0.665598 0.254480 0.385574
O O7 0.186149 0.247712 0.525540
O O8 0.432009 0.759630 0.920981
O O9 0.155300 0.000000 0.999999
O O10 0.036917 0.759630 0.079018
O O11 0.000000 0.756312 0.000000
O O12 0.939345 0.500000 0.311728
O O13 0.110398 0.254882 0.225816
O O14 0.040489 0.254269 0.332747
O O15 0.994300 0.500000 0.871136
O O16 0.766829 0.726858 0.893268
O O17 0.650021 0.500000 0.871136
O O18 0.030796 0.500000 0.387681
#
# Coordination Sequence:
#
# PCOD8064717 Si02
#       7
#     4   4   4   4   4   4   4
#     4   9  16  26  41  67 102 139 177 214 253 305
#     4   9  14  24  38  59  99 144 178 211 253 301
#     4  11  26  43  58  80 108 135 172 223 276 328
#     4   9  16  26  41  67 102 139 177 214 253 305
#     4  10  20  36  58  83 111 143 180 219 264 319
#     4  10  20  36  58  83 111 143 180 219 264 319
#     4   9  16  22  36  63  99 144 182 209 251 305
#
# _framework density 19.816600999999999
#
# number of rings (size 3 to 8) (size 9 to 14) (size 15 to 20)
#    0.000    2.429    1.429    1.714    2.000    6.857 
#    0.000    0.000    0.000    0.000    0.000    0.000 
#    0.000    6.857    0.000    0.000    0.000    0.000 
#
# Total GULP energy -347094.132911 kJ/mol
# GULP energy per Si atom -12396.219033 kJ/mol
# Density = 1.977150 g / cm^3
# Si number density = 19.816601 Si / 1000 Ang^3
#
#
#
# Elastic Constant Matrix: (Units=GPa)
#
#
# Indices 1 2 3 4 5 6 
#
# 1 190.0247 25.7125 67.0133 0.0000 2.3797 0.0000
# 2 25.7125 21.0026 19.4206 0.0000 0.3557 0.0000
# 3 67.0133 19.4206 122.9670 0.0000 1.4124 0.0000
# 4 0.0000 0.0000 0.0000 -5.4960 0.0000 1.1250
# 5 2.3797 0.3557 1.4124 0.0000 40.5201 0.0000
# 6 0.0000 0.0000 0.0000 1.1250 0.0000 14.3958
#
#
#
# Elastic Compliance Matrix: (Units=1/GPa)
#
#
# Indices 1 2 3 4 5 6 
#
# 1 0.007108 -0.005994 -0.002924 0.000000 -0.000263 0.000000
# 2 -0.005994 0.060811 -0.006338 0.000000 0.000039 0.000000
# 3 -0.002924 -0.006338 0.010728 0.000000 -0.000147 0.000000
# 4 0.000000 0.000000 0.000000 -0.179084 0.000000 0.013995
# 5 -0.000263 0.000039 -0.000147 0.000000 0.024699 0.000000
# 6 0.000000 0.000000 0.000000 0.013995 0.000000 0.068371
#
#
# Mechanical properties :
#
#
# Convention : Reuss Voigt Hill
#
# Bulk Modulus (GPa) = 20.77464 62.03190 41.40327
# Shear Modulus (GPa) = 127.58294 24.67383 76.12839
#
# Velocity S-wave (km/s) = 8.03253 3.53244 6.20483
# Velocity P-wave (km/s) = 9.82522 6.92881 8.50128
#
# Compressibility (1/GPa) = 0.04813560
#
# Stress axis : x y z
#
# Youngs Moduli (GPa) = 140.68772 16.44444 93.21031
#
# Poissons Ratio (x) = 0.09856 0.27255
# Poissons Ratio (y) = 0.84324 0.59078
# Poissons Ratio (z) = 0.41137 0.10423
#
# Static dielectric constant tensor:
#      x y z
#    x 3.944670 0.000000 0.004790 
#    y 0.000000 2.881490 0.000000 
#    z 0.004790 0.000000 3.859880 
# 
# 
# High freq. dielectric constant tensor:
#      x y z
#    x 1.792530 0.000000 0.000230 
#    y 0.000000 1.694410 0.000000 
#    z 0.000230 0.000000 1.788450 
# 
# From -- ./inp_files/91961.got.cif
#   From: 2010.06.25/outbox.cif.g09.slc.cpg/sg10_46_cif.got.tgz:91961.got - 2010.06.27 22:07:45.
