data_PCOD8064091
_publ_section_title
;
Structure prediction by ZEFSAII (Michael W. Deem and Ramdas Pophale) SiO2 
 PCOD8064091
Probable space group: P 2/M
;
_chemical_formula_sum "Si O2"
_cell_formula_units_Z 32
_cell_length_a 14.914690
_cell_length_b 9.195532
_cell_length_c 11.891142
_cell_angle_alpha 90.000000
_cell_angle_beta 94.023288
_cell_angle_gamma 90.000000
_cell_volume 1626.833350
_symmetry_space_group_name_H-M "P 2/M"
_symmetry_group_IT_number 10
_symmetry_cell_setting 'monoclinic'
loop_
_space_group_symop_operation_xyz
x,y,z
-x,y,-z
-x,-y,-z
x,-y,z
loop_
_atom_site_type_symbol
_atom_site_label
_atom_site_fract_x
_atom_site_fract_y
_atom_site_fract_z
Si Si1 0.667904 0.829801 0.750791
Si Si2 0.088010 0.331520 0.444644
Si Si3 0.269032 0.167706 0.479886
Si Si4 0.678586 0.167617 0.271932
Si Si5 0.499445 0.826917 0.872076
Si Si6 0.170509 0.829958 0.073067
Si Si7 0.971458 0.666005 0.810314
Si Si8 0.177630 0.329566 0.849264
O O1 0.678230 0.767892 0.624432
O O2 0.583635 0.759702 0.810035
O O3 0.759347 0.793087 0.823184
O O4 0.649716 0.000000 0.743600
O O5 0.100482 0.500000 0.477080
O O6 0.175551 0.248296 0.494797
O O7 0.077011 0.306425 0.311545
O O8 0.000000 0.269577 0.500000
O O9 0.333084 0.184915 0.594374
O O10 0.244850 0.000000 0.454635
O O11 0.589938 0.224004 0.200552
O O12 0.761934 0.267238 0.244907
O O13 0.698303 0.000000 0.241979
O O14 0.505895 0.000000 0.876454
O O15 0.500000 0.765658 0.000000
O O16 0.073537 0.767463 0.099561
O O17 0.162132 0.000000 0.048282
O O18 0.206367 0.751250 0.965387
O O19 0.959889 0.500000 0.849329
O O20 0.075428 0.707026 0.808211
O O21 0.194376 0.500000 0.864515
#
# Coordination Sequence:
#
# PCOD8064091 Si02
#       8
#     4   4   4   4   4   4   4   4
#     4   9  18  33  55  83 115 148 182 228 285 337
#     4  10  20  35  55  77 106 150 198 233 270 329
#     4  10  20  35  54  82 115 144 184 235 283 331
#     4  10  21  36  57  84 111 143 187 234 280 331
#     4   9  17  32  56  84 113 146 185 229 280 337
#     4  11  21  35  57  83 113 146 185 231 281 335
#     4  10  21  36  53  77 109 147 191 232 276 333
#     4  11  23  38  56  78 111 150 187 231 283 335
#
# _framework density 19.670114999999999
#
# number of rings (size 3 to 8) (size 9 to 14) (size 15 to 20)
#    0.000    2.000    1.250    2.625    0.000    6.750 
#    0.000    2.500    0.000    4.875    0.000    1.750 
#    0.000    0.000    0.000    0.000    0.000    0.000 
#
# Total GULP energy -396859.628103 kJ/mol
# GULP energy per Si atom -12401.863378 kJ/mol
# Density = 1.962534 g / cm^3
# Si number density = 19.670115 Si / 1000 Ang^3
#
#
#
# Elastic Constant Matrix: (Units=GPa)
#
#
# Indices 1 2 3 4 5 6 
#
# 1 122.4958 37.7886 58.0203 0.0000 -10.5525 0.0000
# 2 37.7886 54.4317 34.8878 0.0000 0.3821 0.0000
# 3 58.0203 34.8878 123.7924 0.0000 -2.7583 0.0000
# 4 0.0000 0.0000 0.0000 22.4744 0.0000 1.6900
# 5 -10.5525 0.3821 -2.7583 0.0000 34.9350 0.0000
# 6 0.0000 0.0000 0.0000 1.6900 0.0000 6.8177
#
#
#
# Elastic Compliance Matrix: (Units=1/GPa)
#
#
# Indices 1 2 3 4 5 6 
#
# 1 0.012161 -0.005934 -0.003951 0.000000 0.003426 0.000000
# 2 -0.005934 0.025337 -0.004413 0.000000 -0.002418 0.000000
# 3 -0.003951 -0.004413 0.011168 0.000000 -0.000263 0.000000
# 4 0.000000 0.000000 0.000000 0.045340 0.000000 -0.011239
# 5 0.003426 -0.002418 -0.000263 0.000000 0.029665 0.000000
# 6 0.000000 0.000000 0.000000 -0.011239 0.000000 0.149462
#
#
# Mechanical properties :
#
#
# Convention : Reuss Voigt Hill
#
# Bulk Modulus (GPa) = 49.82843 62.45702 56.14272
# Shear Modulus (GPa) = 16.21173 24.18031 20.19602
#
# Velocity S-wave (km/s) = 2.87397 3.50993 3.20775
# Velocity P-wave (km/s) = 6.03324 6.94603 6.50566
#
# Compressibility (1/GPa) = 0.02006887
#
# Stress axis : x y z
#
# Youngs Moduli (GPa) = 82.23247 39.46807 89.54447
#
# Poissons Ratio (x) = 0.23421 0.35378
# Poissons Ratio (y) = 0.48798 0.39518
# Poissons Ratio (z) = 0.32489 0.17418
#
# Static dielectric constant tensor:
#      x y z
#    x 3.571810 0.000000 -0.084610 
#    y 0.000000 3.268370 0.000000 
#    z -0.084610 0.000000 3.809450 
# 
# 
# High freq. dielectric constant tensor:
#      x y z
#    x 1.764700 0.000000 -0.002390 
#    y 0.000000 1.730780 0.000000 
#    z -0.002390 0.000000 1.784870 
# 
# From -- ./inp_files/49801.got.cif
#   From: 2010.06.25/outbox.cif.g09.slc.cpg/sg10_25_cif.got.tgz:49801.got - 2010.06.27 22:07:45.
