data_PCOD8064925
_publ_section_title
;
Structure prediction by ZEFSAII (Michael W. Deem and Ramdas Pophale) SiO2 
 PCOD8064925
Probable space group: P 2/M
;
_chemical_formula_sum "Si O2"
_cell_formula_units_Z 28
_cell_length_a 27.279711
_cell_length_b 8.699639
_cell_length_c 9.309432
_cell_angle_alpha 90.000000
_cell_angle_beta 38.300432
_cell_angle_gamma 90.000000
_cell_volume 1369.320803
_symmetry_space_group_name_H-M "P 2/M"
_symmetry_group_IT_number 10
_symmetry_cell_setting 'monoclinic'
loop_
_space_group_symop_operation_xyz
x,y,z
-x,y,-z
-x,-y,-z
x,-y,z
loop_
_atom_site_type_symbol
_atom_site_label
_atom_site_fract_x
_atom_site_fract_y
_atom_site_fract_z
Si Si1 0.800131 0.681315 0.149654
Si Si2 0.511290 0.817167 0.812608
Si Si3 0.028619 0.828123 0.273574
Si Si4 0.223803 0.820034 0.496057
Si Si5 0.364186 0.817586 0.969916
Si Si6 0.071093 0.673083 0.726390
Si Si7 0.663438 0.182588 0.288566
O O1 0.806363 0.500000 0.128646
O O2 0.761912 0.731840 0.388163
O O3 0.745968 0.741956 0.144807
O O4 0.887300 0.748129 0.934135
O O5 0.442675 0.751739 0.866392
O O6 0.595193 0.763541 0.555614
O O7 0.506555 0.000000 0.827237
O O8 0.500000 0.751379 0.000000
O O9 0.000000 0.836126 0.500000
O O10 0.960518 0.731852 0.352317
O O11 0.035508 0.000000 0.192529
O O12 0.138439 0.785925 0.627174
O O13 0.232772 0.000000 0.506437
O O14 0.288712 0.761233 0.233690
O O15 0.358160 0.756010 0.820865
O O16 0.368110 0.000000 0.956803
O O17 0.104366 0.500000 0.634249
O O18 0.000000 0.678498 0.000000
O O19 0.673768 0.000000 0.265668
#
# Coordination Sequence:
#
# PCOD8064925 Si02
#       7
#     4   4   4   4   4   4   4
#     4  12  25  41  59  85 120 159 200 245 302 362
#     4   9  16  30  57  91 123 154 194 243 297 351
#     4  11  25  43  65  90 117 153 202 252 299 352
#     4  11  22  38  62  88 117 156 204 254 299 351
#     4   9  19  34  57  92 123 151 194 248 300 350
#     4  11  23  40  62  90 122 158 198 244 301 360
#     4  10  20  36  60  88 121 158 197 245 297 353
#
# _framework density 20.448094999999999
#
# number of rings (size 3 to 8) (size 9 to 14) (size 15 to 20)
#    0.000    1.571    1.429    3.857    2.000    5.714 
#    0.000    0.714    0.000    6.429    0.000    0.000 
#    0.000    0.000    0.000    0.000    0.000    0.000 
#
# Total GULP energy -347288.088315 kJ/mol
# GULP energy per Si atom -12403.146011 kJ/mol
# Density = 2.040155 g / cm^3
# Si number density = 20.448095 Si / 1000 Ang^3
#
#
#
# Elastic Constant Matrix: (Units=GPa)
#
#
# Indices 1 2 3 4 5 6 
#
# 1 131.1086 7.0596 32.4810 0.0000 6.1947 0.0000
# 2 7.0596 50.7334 26.6614 0.0000 0.4407 0.0000
# 3 32.4810 26.6614 85.2709 0.0000 12.7217 0.0000
# 4 0.0000 0.0000 0.0000 -11.7696 0.0000 1.3651
# 5 6.1947 0.4407 12.7217 0.0000 36.1679 0.0000
# 6 0.0000 0.0000 0.0000 1.3651 0.0000 16.6329
#
#
#
# Elastic Compliance Matrix: (Units=1/GPa)
#
#
# Indices 1 2 3 4 5 6 
#
# 1 0.008441 0.000594 -0.003360 0.000000 -0.000271 0.000000
# 2 0.000594 0.023833 -0.008041 0.000000 0.002436 0.000000
# 3 -0.003360 -0.008041 0.016275 0.000000 -0.005051 0.000000
# 4 0.000000 0.000000 0.000000 -0.084163 0.000000 0.006908
# 5 -0.000271 0.002436 -0.005051 0.000000 0.029442 0.000000
# 6 0.000000 0.000000 0.000000 0.006908 0.000000 0.059555
#
#
# Mechanical properties :
#
#
# Convention : Reuss Voigt Hill
#
# Bulk Modulus (GPa) = 37.12956 44.39076 40.76016
# Shear Modulus (GPa) = 59.54056 21.60030 40.57043
#
# Velocity S-wave (km/s) = 5.40195 3.25368 4.45912
# Velocity P-wave (km/s) = 7.55682 5.98927 6.81824
#
# Compressibility (1/GPa) = 0.02693272
#
# Stress axis : x y z
#
# Youngs Moduli (GPa) = 118.47497 41.95858 61.44300
#
# Poissons Ratio (x) = -0.02491 0.20647
# Poissons Ratio (y) = -0.07035 0.49409
# Poissons Ratio (z) = 0.39812 0.33741
#
# Static dielectric constant tensor:
#      x y z
#    x 3.946710 0.000000 0.114280 
#    y 0.000000 3.501070 0.000000 
#    z 0.114280 0.000000 3.784030 
# 
# 
# High freq. dielectric constant tensor:
#      x y z
#    x 1.816770 0.000000 0.001380 
#    y 0.000000 1.768650 0.000000 
#    z 0.001380 0.000000 1.807550 
# 
# From -- ./inp_files/36912.got.cif
#   From: 2010.06.25/outbox.cif.g09.slc.cpg/sg10_19_cif.got.tgz:36912.got - 2010.06.27 22:07:45.
