data_PCOD8064335
_publ_section_title
;
Structure prediction by ZEFSAII (Michael W. Deem and Ramdas Pophale) SiO2 
 PCOD8064335
Probable space group: P 2/M
;
_chemical_formula_sum "Si O2"
_cell_formula_units_Z 28
_cell_length_a 9.591362
_cell_length_b 8.736217
_cell_length_c 26.751115
_cell_angle_alpha 90.000000
_cell_angle_beta 39.452955
_cell_angle_gamma 90.000000
_cell_volume 1424.371131
_symmetry_space_group_name_H-M "P 2/M"
_symmetry_group_IT_number 10
_symmetry_cell_setting 'monoclinic'
loop_
_space_group_symop_operation_xyz
x,y,z
-x,y,-z
-x,-y,-z
x,-y,z
loop_
_atom_site_type_symbol
_atom_site_label
_atom_site_fract_x
_atom_site_fract_y
_atom_site_fract_z
Si Si1 0.692407 0.680834 0.725299
Si Si2 0.744015 0.822963 0.180721
Si Si3 0.467083 0.821608 0.066517
Si Si4 0.314341 0.321729 0.699043
Si Si5 0.889222 0.671728 0.977622
Si Si6 0.795803 0.678472 0.585859
Si Si7 0.929582 0.179079 0.753839
O O1 0.720043 0.500000 0.724579
O O2 0.435012 0.722628 0.799762
O O3 0.777333 0.741405 0.647673
O O4 0.824838 0.768178 0.731035
O O5 0.752861 0.783165 0.236227
O O6 0.985577 0.786355 0.093896
O O7 0.688323 0.000000 0.188487
O O8 0.227871 0.781872 0.155249
O O9 0.516408 0.000000 0.058957
O O10 0.500000 0.769241 0.000000
O O11 0.639814 0.728044 0.051972
O O12 0.278145 0.500000 0.721824
O O13 0.572163 0.291185 0.616360
O O14 0.159845 0.269533 0.696116
O O15 0.895867 0.500000 0.954091
O O16 0.000000 0.679916 0.000000
O O17 0.841612 0.500000 0.578228
O O18 0.000000 0.756885 0.500000
O O19 0.978426 0.000000 0.737301
#
# Coordination Sequence:
#
# PCOD8064335 Si02
#       7
#     4   4   4   4   4   4   4
#     4  10  20  35  57  83 111 144 184 229 273 323
#     4  11  21  35  55  77 106 143 183 226 274 332
#     4  10  22  38  54  74 102 141 186 229 277 329
#     4  10  20  35  58  84 109 140 180 224 268 320
#     4  11  23  36  52  76 104 136 180 233 281 323
#     4   8  16  34  60  87 111 138 178 225 270 320
#     4  11  22  36  55  80 113 149 184 225 276 333
#
# _framework density 19.657799000000001
#
# number of rings (size 3 to 8) (size 9 to 14) (size 15 to 20)
#    0.000    1.857    0.000    5.571    0.000    6.000 
#    0.000    0.714    0.000   19.714    0.000    0.000 
#    0.000    0.000    0.000    0.000    0.000    0.000 
#
# Total GULP energy -347212.500603 kJ/mol
# GULP energy per Si atom -12400.446450 kJ/mol
# Density = 1.961306 g / cm^3
# Si number density = 19.657799 Si / 1000 Ang^3
#
#
#
# Elastic Constant Matrix: (Units=GPa)
#
#
# Indices 1 2 3 4 5 6 
#
# 1 110.3251 24.2053 33.5015 0.0000 -16.3711 0.0000
# 2 24.2053 70.4549 33.5146 0.0000 -6.1117 0.0000
# 3 33.5015 33.5146 91.3628 0.0000 -13.4345 0.0000
# 4 0.0000 0.0000 0.0000 -31.9341 0.0000 -29.5000
# 5 -16.3711 -6.1117 -13.4345 0.0000 24.8095 0.0000
# 6 0.0000 0.0000 0.0000 -29.5000 0.0000 16.4437
#
#
#
# Elastic Compliance Matrix: (Units=1/GPa)
#
#
# Indices 1 2 3 4 5 6 
#
# 1 0.011099 -0.002163 -0.002475 0.000000 0.005451 0.000000
# 2 -0.002163 0.017633 -0.005700 0.000000 -0.000170 0.000000
# 3 -0.002475 -0.005700 0.014665 0.000000 0.004904 0.000000
# 4 0.000000 0.000000 0.000000 -0.011784 0.000000 -0.021141
# 5 0.005451 -0.000170 0.004904 0.000000 0.046518 0.000000
# 6 0.000000 0.000000 0.000000 -0.021141 0.000000 0.022886
#
#
# Mechanical properties :
#
#
# Convention : Reuss Voigt Hill
#
# Bulk Modulus (GPa) = 44.01213 50.50950 47.26081
# Shear Modulus (GPa) = 38.67976 13.92526 26.30251
#
# Velocity S-wave (km/s) = 4.44064 2.66444 3.66186
# Velocity P-wave (km/s) = 6.98069 5.93429 6.47865
#
# Compressibility (1/GPa) = 0.02272101
#
# Stress axis : x y z
#
# Youngs Moduli (GPa) = 90.09760 56.71048 68.18947
#
# Poissons Ratio (x) = 0.12267 0.16876
# Poissons Ratio (y) = 0.19489 0.38870
# Poissons Ratio (z) = 0.22298 0.32327
#
# Static dielectric constant tensor:
#      x y z
#    x 3.580120 0.000000 -0.116810 
#    y 0.000000 3.474540 0.000000 
#    z -0.116810 0.000000 3.813300 
# 
# 
# High freq. dielectric constant tensor:
#      x y z
#    x 1.770750 0.000000 -0.011600 
#    y 0.000000 1.760580 0.000000 
#    z -0.011600 0.000000 1.750960 
# 
# From -- ./inp_files/36911.got.cif
#   From: 2010.06.25/outbox.cif.g09.slc.cpg/sg10_19_cif.got.tgz:36911.got - 2010.06.27 22:07:45.
