data_PCOD8064668
_publ_section_title
;
Structure prediction by ZEFSAII (Michael W. Deem and Ramdas Pophale) SiO2 
 PCOD8064668
Probable space group: P 2/M
;
_chemical_formula_sum "Si O2"
_cell_formula_units_Z 28
_cell_length_a 11.723518
_cell_length_b 8.889824
_cell_length_c 15.490056
_cell_angle_alpha 90.000000
_cell_angle_beta 123.528241
_cell_angle_gamma 90.000000
_cell_volume 1345.764086
_symmetry_space_group_name_H-M "P 2/M"
_symmetry_group_IT_number 10
_symmetry_cell_setting 'monoclinic'
loop_
_space_group_symop_operation_xyz
x,y,z
-x,y,-z
-x,-y,-z
x,-y,z
loop_
_atom_site_type_symbol
_atom_site_label
_atom_site_fract_x
_atom_site_fract_y
_atom_site_fract_z
Si Si1 0.909888 0.822819 0.705445
Si Si2 0.841785 0.325614 0.264178
Si Si3 0.904512 0.677217 0.881154
Si Si4 0.655079 0.827892 0.050311
Si Si5 0.625428 0.674461 0.315288
Si Si6 0.649881 0.172509 0.849831
Si Si7 0.646350 0.675004 0.522800
O O1 0.958841 0.756408 0.817577
O O2 0.757454 0.770960 0.620137
O O3 0.015816 0.765345 0.676903
O O4 0.915444 0.000000 0.712914
O O5 0.878041 0.500000 0.272664
O O6 0.763102 0.288497 0.320022
O O7 0.750220 0.281576 0.144211
O O8 0.909448 0.500000 0.869482
O O9 0.748517 0.726793 0.832407
O O10 0.000000 0.729868 0.000000
O O11 0.694802 0.808816 0.967401
O O12 0.675538 0.000000 0.089915
O O13 0.500000 0.776305 0.000000
O O14 0.584060 0.500000 0.288599
O O15 0.505195 0.774748 0.226309
O O16 0.652256 0.718307 0.425067
O O17 0.661772 0.000000 0.824966
O O18 0.500000 0.719947 0.500000
O O19 0.677927 0.500000 0.551233
#
# Coordination Sequence:
#
# PCOD8064668 Si02
#       7
#     4   4   4   4   4   4   4
#     4  12  26  43  65  92 125 163 204 255 314 373
#     4  11  23  39  61  90 126 167 212 259 307 367
#     4  11  24  42  64  90 122 161 206 253 304 367
#     4  10  20  36  57  87 128 170 207 249 306 364
#     4  10  22  39  62  92 123 161 209 258 307 363
#     4  11  22  36  60  91 126 164 204 256 309 364
#     4  10  22  43  69  93 121 159 203 256 313 369
#
# _framework density 20.806024000000001
#
# number of rings (size 3 to 8) (size 9 to 14) (size 15 to 20)
#    0.000    1.286    1.429    4.286    0.000    8.000 
#    0.000    2.857    0.000    0.000    0.000    0.000 
#    0.000    0.000    0.000    0.000    0.000    0.000 
#
# Total GULP energy -347411.593294 kJ/mol
# GULP energy per Si atom -12407.556903 kJ/mol
# Density = 2.075867 g / cm^3
# Si number density = 20.806024 Si / 1000 Ang^3
#
#
#
# Elastic Constant Matrix: (Units=GPa)
#
#
# Indices 1 2 3 4 5 6 
#
# 1 136.3637 56.9884 50.0349 0.0000 -3.6410 0.0000
# 2 56.9884 108.9674 54.1777 0.0000 0.3824 0.0000
# 3 50.0349 54.1777 106.7957 0.0000 -5.7768 0.0000
# 4 0.0000 0.0000 0.0000 23.1906 0.0000 -1.9150
# 5 -3.6410 0.3824 -5.7768 0.0000 32.3253 0.0000
# 6 0.0000 0.0000 0.0000 -1.9150 0.0000 22.7404
#
#
#
# Elastic Compliance Matrix: (Units=1/GPa)
#
#
# Indices 1 2 3 4 5 6 
#
# 1 0.009949 -0.003887 -0.002652 0.000000 0.000693 0.000000
# 2 -0.003887 0.013843 -0.005285 0.000000 -0.001546 0.000000
# 3 -0.002652 -0.005285 0.013404 0.000000 0.002159 0.000000
# 4 0.000000 0.000000 0.000000 0.043423 0.000000 0.003657
# 5 0.000693 -0.001546 0.002159 0.000000 0.031418 0.000000
# 6 0.000000 0.000000 0.000000 0.003657 0.000000 0.044282
#
#
# Mechanical properties :
#
#
# Convention : Reuss Voigt Hill
#
# Bulk Modulus (GPa) = 73.81116 74.94766 74.37941
# Shear Modulus (GPa) = 27.10256 28.37964 27.74110
#
# Velocity S-wave (km/s) = 3.61311 3.69726 3.65543
# Velocity P-wave (km/s) = 7.27729 7.37066 7.32412
#
# Compressibility (1/GPa) = 0.01354809
#
# Stress axis : x y z
#
# Youngs Moduli (GPa) = 100.50811 72.23765 74.60443
#
# Poissons Ratio (x) = 0.28081 0.19784
# Poissons Ratio (y) = 0.39071 0.39429
# Poissons Ratio (z) = 0.26654 0.38178
#
# Static dielectric constant tensor:
#      x y z
#    x 3.988330 0.000000 -0.119170 
#    y 0.000000 3.683270 0.000000 
#    z -0.119170 0.000000 3.673770 
# 
# 
# High freq. dielectric constant tensor:
#      x y z
#    x 1.832600 0.000000 -0.004660 
#    y 0.000000 1.812670 0.000000 
#    z -0.004660 0.000000 1.809370 
# 
# From -- ./inp_files/63511.got.cif
#   From: 2010.06.25/outbox.cif.g09.slc.cpg/sg10_32_cif.got.tgz:63511.got - 2010.06.27 22:07:45.
