data_PCOD8064405
_publ_section_title
;
Structure prediction by ZEFSAII (Michael W. Deem and Ramdas Pophale) SiO2 
 PCOD8064405
Probable space group: P 2/M
;
_chemical_formula_sum "Si O2"
_cell_formula_units_Z 32
_cell_length_a 22.543582
_cell_length_b 9.353910
_cell_length_c 13.925665
_cell_angle_alpha 90.000000
_cell_angle_beta 149.356713
_cell_angle_gamma 90.000000
_cell_volume 1496.716330
_symmetry_space_group_name_H-M "P 2/M"
_symmetry_group_IT_number 10
_symmetry_cell_setting 'monoclinic'
loop_
_space_group_symop_operation_xyz
x,y,z
-x,y,-z
-x,-y,-z
x,-y,z
loop_
_atom_site_type_symbol
_atom_site_label
_atom_site_fract_x
_atom_site_fract_y
_atom_site_fract_z
Si Si1 0.085143 0.167782 0.207508
Si Si2 0.737869 0.659154 0.229065
Si Si3 0.373709 0.333464 0.356820
Si Si4 0.457060 0.169496 0.132912
Si Si5 0.059018 0.339684 0.350904
Si Si6 0.098235 0.754702 0.702824
Si Si7 0.695893 0.846374 0.902673
Si Si8 0.676986 0.329308 0.496534
O O1 0.024890 0.224678 0.221267
O O2 0.199596 0.263615 0.357595
O O3 0.115146 0.000000 0.257477
O O4 0.000000 0.197089 0.000000
O O5 0.685488 0.500000 0.167112
O O6 0.813746 0.700494 0.428504
O O7 0.821846 0.654889 0.252957
O O8 0.631765 0.771493 0.071782
O O9 0.500000 0.278540 0.500000
O O10 0.359771 0.500000 0.323126
O O11 0.284246 0.260642 0.158250
O O12 0.346839 0.286682 0.426762
O O13 0.403947 0.207218 0.163352
O O14 0.578972 0.253696 0.294384
O O15 0.474162 0.000000 0.141520
O O16 0.061952 0.500000 0.311604
O O17 0.963465 0.339690 0.301726
O O18 0.000000 0.832941 0.500000
O O19 0.182859 0.867986 0.871442
O O20 0.660170 0.000000 0.810805
O O21 0.675424 0.500000 0.477788
#
# Coordination Sequence:
#
# PCOD8064405 Si02
#       8
#     4   4   4   4   4   4   4   4
#     4  11  27  48  65  85 118 160 205 255 307 357
#     4   9  18  35  61  94 130 162 196 244 300 361
#     4  10  21  37  57  87 120 153 194 243 302 362
#     4  10  20  35  57  89 126 161 193 234 294 362
#     4  10  21  39  64  91 119 159 210 257 301 352
#     4   9  19  35  57  91 129 163 199 245 301 358
#     4  10  21  33  52  85 122 162 199 237 291 357
#     4  11  23  41  65  88 115 155 202 254 304 354
#
# _framework density 21.380137999999999
#
# number of rings (size 3 to 8) (size 9 to 14) (size 15 to 20)
#    0.000    2.000    1.250    1.500    1.750    7.500 
#    0.000    3.125    0.000    3.750    0.000    0.000 
#    0.000    0.000    0.000    0.000    0.000    0.000 
#
# Total GULP energy -396663.191559 kJ/mol
# GULP energy per Si atom -12395.724736 kJ/mol
# Density = 2.133148 g / cm^3
# Si number density = 21.380138 Si / 1000 Ang^3
#
#
#
# Elastic Constant Matrix: (Units=GPa)
#
#
# Indices 1 2 3 4 5 6 
#
# 1 52.9914 24.4571 26.9250 0.0000 -5.4442 0.0000
# 2 24.4571 97.3526 50.8969 0.0000 -7.9067 0.0000
# 3 26.9250 50.8969 118.1050 0.0000 -0.9115 0.0000
# 4 0.0000 0.0000 0.0000 29.8913 0.0000 -2.3043
# 5 -5.4442 -7.9067 -0.9115 0.0000 33.1473 0.0000
# 6 0.0000 0.0000 0.0000 -2.3043 0.0000 17.7539
#
#
#
# Elastic Compliance Matrix: (Units=1/GPa)
#
#
# Indices 1 2 3 4 5 6 
#
# 1 0.022635 -0.003582 -0.003595 0.000000 0.002764 0.000000
# 2 -0.003582 0.014133 -0.005253 0.000000 0.002638 0.000000
# 3 -0.003595 -0.005253 0.011539 0.000000 -0.001526 0.000000
# 4 0.000000 0.000000 0.000000 0.033793 0.000000 0.004386
# 5 0.002764 0.002638 -0.001526 0.000000 0.031210 0.000000
# 6 0.000000 0.000000 0.000000 0.004386 0.000000 0.056895
#
#
# Mechanical properties :
#
#
# Convention : Reuss Voigt Hill
#
# Bulk Modulus (GPa) = 42.65328 52.55632 47.60480
# Shear Modulus (GPa) = 24.64507 27.23650 25.94079
#
# Velocity S-wave (km/s) = 3.39884 3.57307 3.48704
# Velocity P-wave (km/s) = 5.94946 6.45427 6.20700
#
# Compressibility (1/GPa) = 0.02344485
#
# Stress axis : x y z
#
# Youngs Moduli (GPa) = 44.17932 70.75790 86.66428
#
# Poissons Ratio (x) = 0.25348 0.31156
# Poissons Ratio (y) = 0.15827 0.45528
# Poissons Ratio (z) = 0.15883 0.37172
#
# Static dielectric constant tensor:
#      x y z
#    x 3.724640 0.000000 -0.072750 
#    y 0.000000 3.627320 0.000000 
#    z -0.072750 0.000000 3.986270 
# 
# 
# High freq. dielectric constant tensor:
#      x y z
#    x 1.822690 0.000000 -0.003450 
#    y 0.000000 1.830720 0.000000 
#    z -0.003450 0.000000 1.846610 
# 
# From -- ./inp_files/71575.got.cif
#   From: 2010.06.25/outbox.cif.g09.slc.cpg/sg10_36_cif.got.tgz:71575.got - 2010.06.27 22:07:45.
