data_PCOD8064410
_publ_section_title
;
Structure prediction by ZEFSAII (Michael W. Deem and Ramdas Pophale) SiO2 
 PCOD8064410
Probable space group: P 2/M
;
_chemical_formula_sum "Si O2"
_cell_formula_units_Z 32
_cell_length_a 15.600725
_cell_length_b 13.919162
_cell_length_c 8.772353
_cell_angle_alpha 90.000000
_cell_angle_beta 73.596157
_cell_angle_gamma 90.000000
_cell_volume 1827.368637
_symmetry_space_group_name_H-M "P 2/M"
_symmetry_group_IT_number 10
_symmetry_cell_setting 'monoclinic'
loop_
_space_group_symop_operation_xyz
x,y,z
-x,y,-z
-x,-y,-z
x,-y,z
loop_
_atom_site_type_symbol
_atom_site_label
_atom_site_fract_x
_atom_site_fract_y
_atom_site_fract_z
Si Si1 0.605519 0.389861 0.773880
Si Si2 0.793666 0.891607 0.328600
Si Si3 0.924208 0.727088 0.662528
Si Si4 0.999931 0.891171 0.824324
Si Si5 0.399993 0.609420 0.869666
Si Si6 0.242988 0.290422 0.795501
Si Si7 0.914105 0.611513 0.952044
Si Si8 0.754509 0.729178 0.542333
O O1 0.634493 0.500000 0.724167
O O2 0.503229 0.373999 0.777255
O O3 0.662372 0.313713 0.649782
O O4 0.618679 0.367663 0.944862
O O5 0.764580 0.826718 0.196783
O O6 0.748675 0.843540 0.502787
O O7 0.900682 0.886239 0.294618
O O8 0.759431 0.000000 0.324076
O O9 0.934731 0.823961 0.757686
O O10 0.931691 0.634602 0.767055
O O11 0.828572 0.717243 0.633093
O O12 0.000000 0.720657 0.500000
O O13 0.962670 0.000000 0.832836
O O14 0.000000 0.856626 0.000000
O O15 0.372573 0.500000 0.847605
O O16 0.342505 0.679697 0.793001
O O17 0.221851 0.324283 0.631006
O O18 0.173366 0.334240 0.947388
O O19 0.897147 0.500000 0.984082
O O20 0.000000 0.648370 0.000000
#
# Coordination Sequence:
#
# PCOD8064410 Si02
#       8
#     4   4   4   4   4   4   4   4
#     4   9  19  36  57  84 112 138 176 225 277 330
#     4   9  19  36  53  77 110 140 177 226 274 325
#     4  12  21  35  53  77 110 145 187 229 267 320
#     4  10  20  35  58  81 105 142 189 239 284 323
#     4   9  18  35  60  84 109 141 177 224 278 327
#     4  10  20  36  55  80 106 144 183 224 271 329
#     4  11  23  37  53  73 108 152 188 220 266 329
#     4  10  22  33  52  82 108 143 176 226 272 332
#
# _framework density 17.511519
#
# number of rings (size 3 to 8) (size 9 to 14) (size 15 to 20)
#    0.750    1.250    1.250    4.500    0.000    4.000 
#    0.000    1.250    0.000    3.750    0.000    1.750 
#    0.000    0.000    0.000    0.000    0.000    0.000 
#
# Total GULP energy -396604.644176 kJ/mol
# GULP energy per Si atom -12393.895131 kJ/mol
# Density = 1.747166 g / cm^3
# Si number density = 17.511519 Si / 1000 Ang^3
#
#
#
# Elastic Constant Matrix: (Units=GPa)
#
#
# Indices 1 2 3 4 5 6 
#
# 1 89.2014 47.6560 36.9418 0.0000 11.3913 0.0000
# 2 47.6560 85.7553 35.5621 0.0000 -1.0985 0.0000
# 3 36.9418 35.5621 94.1501 0.0000 -1.4442 0.0000
# 4 0.0000 0.0000 0.0000 29.5947 0.0000 -3.3162
# 5 11.3913 -1.0985 -1.4442 0.0000 33.6222 0.0000
# 6 0.0000 0.0000 0.0000 -3.3162 0.0000 20.3119
#
#
#
# Elastic Compliance Matrix: (Units=1/GPa)
#
#
# Indices 1 2 3 4 5 6 
#
# 1 0.018329 -0.008592 -0.004048 0.000000 -0.006664 0.000000
# 2 -0.008592 0.017856 -0.003322 0.000000 0.003352 0.000000
# 3 -0.004048 -0.003322 0.013493 0.000000 0.001843 0.000000
# 4 0.000000 0.000000 0.000000 0.034420 0.000000 0.005619
# 5 -0.006664 0.003352 0.001843 0.000000 0.032189 0.000000
# 6 0.000000 0.000000 0.000000 0.005619 0.000000 0.050150
#
#
# Mechanical properties :
#
#
# Convention : Reuss Voigt Hill
#
# Bulk Modulus (GPa) = 56.32902 56.60298 56.46600
# Shear Modulus (GPa) = 24.47636 26.63555 25.55595
#
# Velocity S-wave (km/s) = 3.74268 3.90427 3.82433
# Velocity P-wave (km/s) = 7.13537 7.26071 7.19831
#
# Compressibility (1/GPa) = 0.01775284
#
# Stress axis : x y z
#
# Youngs Moduli (GPa) = 54.55939 56.00222 74.11317
#
# Poissons Ratio (x) = 0.48118 0.30005
# Poissons Ratio (y) = 0.46878 0.24620
# Poissons Ratio (z) = 0.22088 0.18604
#
# Static dielectric constant tensor:
#      x y z
#    x 3.162530 0.000000 0.056680 
#    y 0.000000 3.256040 0.000000 
#    z 0.056680 0.000000 3.240390 
# 
# 
# High freq. dielectric constant tensor:
#      x y z
#    x 1.664670 0.000000 0.002840 
#    y 0.000000 1.666820 0.000000 
#    z 0.002840 0.000000 1.678760 
# 
# From -- ./inp_files/29072.got.cif
#   From: 2010.06.25/outbox.cif.g09.slc.cpg/sg10_15_cif.got.tgz:29072.got - 2010.06.27 22:07:45.
