data_PCOD8064520
_publ_section_title
;
Structure prediction by ZEFSAII (Michael W. Deem and Ramdas Pophale) SiO2 
 PCOD8064520
Probable space group: P 2/M
;
_chemical_formula_sum "Si O2"
_cell_formula_units_Z 28
_cell_length_a 12.455565
_cell_length_b 15.794779
_cell_length_c 9.330024
_cell_angle_alpha 90.000000
_cell_angle_beta 129.083409
_cell_angle_gamma 90.000000
_cell_volume 1424.785904
_symmetry_space_group_name_H-M "P 2/M"
_symmetry_group_IT_number 10
_symmetry_cell_setting 'monoclinic'
loop_
_space_group_symop_operation_xyz
x,y,z
-x,y,-z
-x,-y,-z
x,-y,z
loop_
_atom_site_type_symbol
_atom_site_label
_atom_site_fract_x
_atom_site_fract_y
_atom_site_fract_z
Si Si1 0.908905 0.500000 0.057773
Si Si2 0.719414 0.740978 0.409621
Si Si3 0.876706 0.097877 0.998450
Si Si4 0.414345 0.314688 0.179137
Si Si5 0.181590 0.773625 0.806564
Si Si6 0.972083 0.633377 0.628893
Si Si7 0.348785 0.183872 0.358464
Si Si8 0.408027 0.500000 0.275755
O O1 0.950800 0.582364 0.182674
O O2 0.758587 0.500000 0.857917
O O3 0.000000 0.500000 0.000000
O O4 0.559685 0.720692 0.247605
O O5 0.772688 0.795173 0.317637
O O6 0.807900 0.653401 0.509309
O O7 0.729924 0.799104 0.559105
O O8 0.735309 0.112594 0.795134
O O9 0.902169 0.000000 0.053280
O O10 0.854119 0.143557 0.131671
O O11 0.000000 0.133924 0.000000
O O12 0.365667 0.273717 0.289128
O O13 0.440232 0.415106 0.214599
O O14 0.298473 0.289736 0.966741
O O15 0.037146 0.725981 0.680569
O O16 0.000000 0.586739 0.500000
O O17 0.500000 0.142951 0.500000
O O18 0.500000 0.500000 0.500000
#
# Coordination Sequence:
#
# PCOD8064520 Si02
#       8
#     2   4   4   4   4   4   4   2
#     4  12  27  37  57  86 116 156 206 253 294 349
#     4  10  20  35  61  86 111 153 201 240 294 344
#     4  10  21  37  60  88 119 151 188 235 295 357
#     4  10  21  37  59  81 119 155 200 247 294 348
#     4  10  20  39  60  84 114 154 196 241 291 358
#     4  10  22  39  58  80 117 155 194 245 299 353
#     4   9  19  36  59  83 113 153 192 243 288 352
#     4  12  24  39  56  85 125 155 205 256 300 343
#
# _framework density 19.652075
#
# number of rings (size 3 to 8) (size 9 to 14) (size 15 to 20)
#    0.000    1.857    1.429    2.786    4.000    0.857 
#    0.000    2.857    0.000   16.714    0.000    0.000 
#    0.000    0.000    0.000    0.000    0.000    0.000 
#
# Total GULP energy -346910.872419 kJ/mol
# GULP energy per Si atom -12389.674015 kJ/mol
# Density = 1.960735 g / cm^3
# Si number density = 19.652075 Si / 1000 Ang^3
#
#
#
# Elastic Constant Matrix: (Units=GPa)
#
#
# Indices 1 2 3 4 5 6 
#
# 1 122.7625 36.0671 50.3540 0.0000 -18.2725 0.0000
# 2 36.0671 74.5532 27.2943 0.0000 -12.9622 0.0000
# 3 50.3540 27.2943 109.2520 0.0000 -6.4155 0.0000
# 4 0.0000 0.0000 0.0000 16.6759 0.0000 5.3448
# 5 -18.2725 -12.9622 -6.4155 0.0000 42.4537 0.0000
# 6 0.0000 0.0000 0.0000 5.3448 0.0000 12.7477
#
#
#
# Elastic Compliance Matrix: (Units=1/GPa)
#
#
# Indices 1 2 3 4 5 6 
#
# 1 0.011339 -0.003393 -0.004190 0.000000 0.003211 0.000000
# 2 -0.003393 0.016479 -0.002364 0.000000 0.003214 0.000000
# 3 -0.004190 -0.002364 0.011630 0.000000 -0.000768 0.000000
# 4 0.000000 0.000000 0.000000 0.069276 0.000000 -0.029045
# 5 0.003211 0.003214 -0.000768 0.000000 0.025802 0.000000
# 6 0.000000 0.000000 0.000000 -0.029045 0.000000 0.090623
#
#
# Mechanical properties :
#
#
# Convention : Reuss Voigt Hill
#
# Bulk Modulus (GPa) = 51.14249 59.33317 55.23783
# Shear Modulus (GPa) = 19.87572 27.23228 23.55400
#
# Velocity S-wave (km/s) = 3.18367 3.72656 3.46576
# Velocity P-wave (km/s) = 6.29244 6.98382 6.64712
#
# Compressibility (1/GPa) = 0.01955321
#
# Stress axis : x y z
#
# Youngs Moduli (GPa) = 88.18835 60.68253 85.98552
#
# Poissons Ratio (x) = 0.20592 0.36027
# Poissons Ratio (y) = 0.29926 0.20329
# Poissons Ratio (z) = 0.36950 0.14347
#
# Static dielectric constant tensor:
#      x y z
#    x 3.748790 0.000000 0.092430 
#    y 0.000000 3.176980 0.000000 
#    z 0.092430 0.000000 3.700200 
# 
# 
# High freq. dielectric constant tensor:
#      x y z
#    x 1.777670 0.000000 0.010180 
#    y 0.000000 1.727580 0.000000 
#    z 0.010180 0.000000 1.786820 
# 
# From -- ./inp_files/25456.got.cif
#   From: 2010.06.25/outbox.cif.g09.slc.cpg/sg10_13_cif.got.tgz:25456.got - 2010.06.27 22:07:45.
