data_PCOD8064774
_publ_section_title
;
Structure prediction by ZEFSAII (Michael W. Deem and Ramdas Pophale) SiO2 
 PCOD8064774
Probable space group: P 2/M
;
_chemical_formula_sum "Si O2"
_cell_formula_units_Z 28
_cell_length_a 15.203165
_cell_length_b 9.314890
_cell_length_c 11.613634
_cell_angle_alpha 90.000000
_cell_angle_beta 118.193517
_cell_angle_gamma 90.000000
_cell_volume 1449.544964
_symmetry_space_group_name_H-M "P 2/M"
_symmetry_group_IT_number 10
_symmetry_cell_setting 'monoclinic'
loop_
_space_group_symop_operation_xyz
x,y,z
-x,y,-z
-x,-y,-z
x,-y,z
loop_
_atom_site_type_symbol
_atom_site_label
_atom_site_fract_x
_atom_site_fract_y
_atom_site_fract_z
Si Si1 0.119455 0.661997 0.381755
Si Si2 0.622866 0.167811 0.828962
Si Si3 0.590955 0.837916 0.366950
Si Si4 0.724486 0.167492 0.652285
Si Si5 0.232165 0.255017 0.670273
Si Si6 0.078025 0.160761 0.739412
Si Si7 0.755676 0.339853 0.077436
O O1 0.092863 0.500000 0.327520
O O2 0.176010 0.741955 0.312306
O O3 0.187656 0.652831 0.537909
O O4 0.020211 0.749496 0.348986
O O5 0.513632 0.235200 0.733636
O O6 0.694911 0.192382 0.765072
O O7 0.618599 0.000000 0.861202
O O8 0.664701 0.258119 0.961023
O O9 0.636318 0.774054 0.513544
O O10 0.671610 0.831645 0.314398
O O11 0.560711 0.000000 0.374716
O O12 0.745656 0.000000 0.637933
O O13 0.145065 0.149150 0.664191
O O14 0.266974 0.353944 0.799200
O O15 0.142535 0.246128 0.876908
O O16 0.052116 0.000000 0.766139
O O17 0.768493 0.500000 0.034166
#
# Coordination Sequence:
#
# PCOD8064774 Si02
#       7
#     4   4   4   4   4   4   4
#     4  11  21  35  58  84 113 147 181 222 278 332
#     4  10  20  36  59  82 109 146 187 232 276 319
#     4   9  17  33  58  87 111 140 182 230 278 322
#     4   9  19  36  57  84 113 141 183 233 276 322
#     4   9  21  34  56  81 116 145 180 221 269 325
#     4  10  21  36  57  84 112 143 183 228 275 325
#     4  10  22  38  54  76 114 153 186 222 269 330
#
# _framework density 19.316407999999999
#
# number of rings (size 3 to 8) (size 9 to 14) (size 15 to 20)
#    0.857    1.429    0.000    3.000    0.000    5.714 
#    0.000    6.429    0.000    8.571    0.000    0.000 
#    0.000    0.000    0.000    0.000    0.000    0.000 
#
# Total GULP energy -346964.922018 kJ/mol
# GULP energy per Si atom -12391.604358 kJ/mol
# Density = 1.927244 g / cm^3
# Si number density = 19.316408 Si / 1000 Ang^3
#
#
#
# Elastic Constant Matrix: (Units=GPa)
#
#
# Indices 1 2 3 4 5 6 
#
# 1 88.9379 29.8373 23.8755 0.0000 2.4581 0.0000
# 2 29.8373 109.1157 22.6948 0.0000 7.9179 0.0000
# 3 23.8755 22.6948 57.6064 0.0000 10.9287 0.0000
# 4 0.0000 0.0000 0.0000 16.1670 0.0000 3.4365
# 5 2.4581 7.9179 10.9287 0.0000 17.8999 0.0000
# 6 0.0000 0.0000 0.0000 3.4365 0.0000 10.9393
#
#
#
# Elastic Compliance Matrix: (Units=1/GPa)
#
#
# Indices 1 2 3 4 5 6 
#
# 1 0.013446 -0.002829 -0.004915 0.000000 0.002406 0.000000
# 2 -0.002829 0.010661 -0.002495 0.000000 -0.002804 0.000000
# 3 -0.004915 -0.002495 0.022667 0.000000 -0.012061 0.000000
# 4 0.000000 0.000000 0.000000 0.066280 0.000000 -0.020822
# 5 0.002406 -0.002804 -0.012061 0.000000 0.064140 0.000000
# 6 0.000000 0.000000 0.000000 -0.020822 0.000000 0.097955
#
#
# Mechanical properties :
#
#
# Convention : Reuss Voigt Hill
#
# Bulk Modulus (GPa) = 38.02937 45.38612 41.70775
# Shear Modulus (GPa) = 16.42622 20.95141 18.68882
#
# Velocity S-wave (km/s) = 2.91929 3.29697 3.11386
# Velocity P-wave (km/s) = 5.57614 6.16770 5.87936
#
# Compressibility (1/GPa) = 0.02629546
#
# Stress axis : x y z
#
# Youngs Moduli (GPa) = 74.37301 93.80291 44.11644
#
# Poissons Ratio (x) = 0.26538 0.21681
# Poissons Ratio (y) = 0.21041 0.11009
# Poissons Ratio (z) = 0.36551 0.23408
#
# Static dielectric constant tensor:
#      x y z
#    x 3.467730 0.000000 0.157910 
#    y 0.000000 3.262060 0.000000 
#    z 0.157910 0.000000 3.364430 
# 
# 
# High freq. dielectric constant tensor:
#      x y z
#    x 1.745260 0.000000 0.012500 
#    y 0.000000 1.732950 0.000000 
#    z 0.012500 0.000000 1.738820 
# 
# From -- ./inp_files/49355.got.cif
#   From: 2010.06.25/outbox.cif.g09.slc.cpg/sg10_25_cif.got.tgz:49355.got - 2010.06.27 22:07:45.
