data_PCOD8064588
_publ_section_title
;
Structure prediction by ZEFSAII (Michael W. Deem and Ramdas Pophale) SiO2 
 PCOD8064588
Probable space group: P 2/M
;
_chemical_formula_sum "Si O2"
_cell_formula_units_Z 24
_cell_length_a 18.396934
_cell_length_b 9.571928
_cell_length_c 14.776268
_cell_angle_alpha 90.000000
_cell_angle_beta 29.591755
_cell_angle_gamma 90.000000
_cell_volume 1284.918080
_symmetry_space_group_name_H-M "P 2/M"
_symmetry_group_IT_number 10
_symmetry_cell_setting 'monoclinic'
loop_
_space_group_symop_operation_xyz
x,y,z
-x,y,-z
-x,-y,-z
x,-y,z
loop_
_atom_site_type_symbol
_atom_site_label
_atom_site_fract_x
_atom_site_fract_y
_atom_site_fract_z
Si Si1 0.554135 0.337165 0.691252
Si Si2 0.377061 0.338208 0.703335
Si Si3 0.383685 0.346840 0.048224
Si Si4 0.850855 0.844144 0.606802
Si Si5 0.082218 0.162807 0.003303
Si Si6 0.161457 0.163650 0.587078
O O1 0.597424 0.500000 0.654612
O O2 0.443891 0.311171 0.728939
O O3 0.702646 0.249244 0.518744
O O4 0.466493 0.279969 0.873073
O O5 0.500000 0.287251 0.500000
O O6 0.336787 0.500000 0.730853
O O7 0.231027 0.249287 0.848912
O O8 0.319206 0.500000 0.092663
O O9 0.254114 0.249909 0.220465
O O10 0.500000 0.363954 0.000000
O O11 0.870128 0.790290 0.482677
O O12 0.000000 0.841812 0.500000
O O13 0.784853 0.000000 0.674885
O O14 0.981197 0.200823 0.198896
O O15 0.123543 0.000000 0.958093
O O16 0.000000 0.204875 0.000000
O O17 0.198216 0.000000 0.555055
#
# Coordination Sequence:
#
# PCOD8064588 Si02
#       6
#     4   4   4   4   4   4
#     4  10  21  37  57  82 112 144 183 229 273 323
#     4  10  22  39  59  85 113 142 181 227 273 326
#     4  10  20  36  56  80 110 145 185 227 271 321
#     4  10  22  37  54  79 112 147 185 228 272 323
#     4  10  22  39  59  84 114 145 181 225 272 326
#     4  10  21  37  56  81 111 145 185 226 272 326
#
# _framework density 18.678232999999999
#
# number of rings (size 3 to 8) (size 9 to 14) (size 15 to 20)
#    0.000    2.000    1.667    1.000    2.333    3.333 
#    0.000    0.000    0.000    0.000    0.000    0.000 
#    0.000    0.000    0.000    0.000    0.000    0.000 
#
# Total GULP energy -297620.193980 kJ/mol
# GULP energy per Si atom -12400.841416 kJ/mol
# Density = 1.863572 g / cm^3
# Si number density = 18.678233 Si / 1000 Ang^3
#
#
#
# Elastic Constant Matrix: (Units=GPa)
#
#
# Indices 1 2 3 4 5 6 
#
# 1 97.6501 38.1355 61.5189 0.0000 2.5142 0.0000
# 2 38.1355 74.1159 74.1918 0.0000 -11.6690 0.0000
# 3 61.5189 74.1918 160.2223 0.0000 2.8075 0.0000
# 4 0.0000 0.0000 0.0000 29.9729 0.0000 5.8823
# 5 2.5142 -11.6690 2.8075 0.0000 32.5881 0.0000
# 6 0.0000 0.0000 0.0000 5.8823 0.0000 18.2349
#
#
#
# Elastic Compliance Matrix: (Units=1/GPa)
#
#
# Indices 1 2 3 4 5 6 
#
# 1 0.014095 -0.004165 -0.003443 0.000000 -0.002282 0.000000
# 2 -0.004165 0.030139 -0.012571 0.000000 0.012196 0.000000
# 3 -0.003443 -0.012571 0.013479 0.000000 -0.005397 0.000000
# 4 0.000000 0.000000 0.000000 0.035618 0.000000 -0.011490
# 5 -0.002282 0.012196 -0.005397 0.000000 0.035694 0.000000
# 6 0.000000 0.000000 0.000000 -0.011490 0.000000 0.058546
#
#
# Mechanical properties :
#
#
# Convention : Reuss Voigt Hill
#
# Bulk Modulus (GPa) = 57.61909 75.52008 66.56958
# Shear Modulus (GPa) = 21.39356 26.70200 24.04778
#
# Velocity S-wave (km/s) = 3.38801 3.78508 3.59203
# Velocity P-wave (km/s) = 6.79853 7.72155 7.27469
#
# Compressibility (1/GPa) = 0.01735536
#
# Stress axis : x y z
#
# Youngs Moduli (GPa) = 70.94570 33.17955 74.18985
#
# Poissons Ratio (x) = 0.13819 0.25547
# Poissons Ratio (y) = 0.29548 0.93261
# Poissons Ratio (z) = 0.24430 0.41709
#
# Static dielectric constant tensor:
#      x y z
#    x 2.760710 0.000000 1.276030 
#    y 0.000000 3.598300 0.000000 
#    z 1.276030 0.000000 2.012280 
# 
# 
# High freq. dielectric constant tensor:
#      x y z
#    x 1.737420 0.000000 0.012720 
#    y 0.000000 1.720160 0.000000 
#    z 0.012720 0.000000 1.731300 
# 
# From -- ./inp_files/27210.got.cif
#   From: 2010.06.25/outbox.cif.g09.slc.cpg/sg10_14_cif.got.tgz:27210.got - 2010.06.27 22:07:45.
