data_PCOD8064910
_publ_section_title
;
Structure prediction by ZEFSAII (Michael W. Deem and Ramdas Pophale) SiO2 
 PCOD8064910
Probable space group: P 2/M
;
_chemical_formula_sum "Si O2"
_cell_formula_units_Z 32
_cell_length_a 24.670629
_cell_length_b 8.729799
_cell_length_c 16.159685
_cell_angle_alpha 90.000000
_cell_angle_beta 26.697569
_cell_angle_gamma 90.000000
_cell_volume 1563.635423
_symmetry_space_group_name_H-M "P 2/M"
_symmetry_group_IT_number 10
_symmetry_cell_setting 'monoclinic'
loop_
_space_group_symop_operation_xyz
x,y,z
-x,y,-z
-x,-y,-z
x,-y,z
loop_
_atom_site_type_symbol
_atom_site_label
_atom_site_fract_x
_atom_site_fract_y
_atom_site_fract_z
Si Si1 0.023399 0.174977 0.375776
Si Si2 0.484560 0.818498 0.770902
Si Si3 0.838589 0.678474 0.059027
Si Si4 0.181931 0.678060 0.439448
Si Si5 0.099901 0.822621 0.709603
Si Si6 0.588577 0.181824 0.950196
Si Si7 0.268431 0.824059 0.953538
Si Si8 0.741124 0.178259 0.352712
O O1 0.951666 0.283071 0.410689
O O2 0.000000 0.234269 0.500000
O O3 0.164129 0.190368 0.164270
O O4 0.978678 0.000000 0.426327
O O5 0.617698 0.765319 0.563523
O O6 0.476075 0.000000 0.788201
O O7 0.453249 0.750397 0.904176
O O8 0.389511 0.760417 0.831750
O O9 0.869981 0.500000 0.015158
O O10 0.760982 0.719531 0.245232
O O11 0.758459 0.720765 0.089155
O O12 0.962069 0.772415 0.891164
O O13 0.208589 0.500000 0.398637
O O14 0.187135 0.732793 0.527445
O O15 0.276580 0.764886 0.252687
O O16 0.148125 0.792896 0.735964
O O17 0.107881 0.000000 0.674753
O O18 0.585854 0.000000 0.955179
O O19 0.500000 0.246584 0.000000
O O20 0.282938 0.000000 0.904637
O O21 0.733560 0.000000 0.337740
#
# Coordination Sequence:
#
# PCOD8064910 Si02
#       8
#     4   4   4   4   4   4   4   4
#     4  10  20  36  60  87 115 155 206 252 295 350
#     4   9  19  38  64  93 119 154 207 258 302 352
#     4  12  25  40  60  89 125 160 199 251 313 371
#     4  12  24  36  56  89 127 163 196 242 308 370
#     4  11  22  40  65  91 120 158 206 256 306 363
#     4  10  20  38  64  91 121 161 210 258 302 357
#     4  10  20  37  62  87 119 160 203 252 299 355
#     4  10  22  41  66  92 118 153 203 257 307 365
#
# _framework density 20.465129000000001
#
# number of rings (size 3 to 8) (size 9 to 14) (size 15 to 20)
#    0.000    1.500    1.250    4.500    0.000    7.500 
#    0.000    5.625    0.000    0.000    0.000    0.000 
#    0.000    0.000    0.000    0.000    0.000    0.000 
#
# Total GULP energy -396973.737361 kJ/mol
# GULP energy per Si atom -12405.429293 kJ/mol
# Density = 2.041855 g / cm^3
# Si number density = 20.465129 Si / 1000 Ang^3
#
#
#
# Elastic Constant Matrix: (Units=GPa)
#
#
# Indices 1 2 3 4 5 6 
#
# 1 127.9639 28.1342 44.4569 0.0000 3.4298 0.0000
# 2 28.1342 32.7311 5.6460 0.0000 3.1007 0.0000
# 3 44.4569 5.6460 99.8640 0.0000 8.2327 0.0000
# 4 0.0000 0.0000 0.0000 11.2473 0.0000 3.8556
# 5 3.4298 3.1007 8.2327 0.0000 40.4232 0.0000
# 6 0.0000 0.0000 0.0000 3.8556 0.0000 5.7866
#
#
#
# Elastic Compliance Matrix: (Units=1/GPa)
#
#
# Indices 1 2 3 4 5 6 
#
# 1 0.011392 -0.009059 -0.004614 0.000000 0.000668 0.000000
# 2 -0.009059 0.038224 0.002085 0.000000 -0.002588 0.000000
# 3 -0.004614 0.002085 0.012134 0.000000 -0.002240 0.000000
# 4 0.000000 0.000000 0.000000 0.115229 0.000000 -0.076778
# 5 0.000668 -0.002588 -0.002240 0.000000 0.025336 0.000000
# 6 0.000000 0.000000 0.000000 -0.076778 0.000000 0.223970
#
#
# Mechanical properties :
#
#
# Convention : Reuss Voigt Hill
#
# Bulk Modulus (GPa) = 25.92406 46.33702 36.13054
# Shear Modulus (GPa) = 10.81502 23.64622 17.23062
#
# Velocity S-wave (km/s) = 2.30132 3.40286 2.90479
# Velocity P-wave (km/s) = 4.44481 6.17498 5.37991
#
# Compressibility (1/GPa) = 0.03857420
#
# Stress axis : x y z
#
# Youngs Moduli (GPa) = 87.78436 26.16139 82.40981
#
# Poissons Ratio (x) = 0.23700 0.38025
# Poissons Ratio (y) = 0.79524 -0.17184
# Poissons Ratio (z) = 0.40505 -0.05455
#
# Static dielectric constant tensor:
#      x y z
#    x 3.864650 0.000000 0.075890 
#    y 0.000000 3.411690 0.000000 
#    z 0.075890 0.000000 3.763270 
# 
# 
# High freq. dielectric constant tensor:
#      x y z
#    x 1.810720 0.000000 0.004880 
#    y 0.000000 1.770190 0.000000 
#    z 0.004880 0.000000 1.808220 
# 
# From -- ./inp_files/71539.got.cif
#   From: 2010.06.25/outbox.cif.g09.slc.cpg/sg10_36_cif.got.tgz:71539.got - 2010.06.27 22:07:45.
