data_PCOD8064116
_publ_section_title
;
Structure prediction by ZEFSAII (Michael W. Deem and Ramdas Pophale) SiO2 
 PCOD8064116
Probable space group: P 2/M
;
_chemical_formula_sum "Si O2"
_cell_formula_units_Z 32
_cell_length_a 22.370449
_cell_length_b 9.153104
_cell_length_c 27.520166
_cell_angle_alpha 90.000000
_cell_angle_beta 162.214015
_cell_angle_gamma 90.000000
_cell_volume 1721.281508
_symmetry_space_group_name_H-M "P 2/M"
_symmetry_group_IT_number 10
_symmetry_cell_setting 'monoclinic'
loop_
_space_group_symop_operation_xyz
x,y,z
-x,y,-z
-x,-y,-z
x,-y,z
loop_
_atom_site_type_symbol
_atom_site_label
_atom_site_fract_x
_atom_site_fract_y
_atom_site_fract_z
Si Si1 0.442978 0.830355 0.765154
Si Si2 0.486605 0.329594 0.543331
Si Si3 0.213160 0.826329 0.896797
Si Si4 0.218225 0.832034 0.163026
Si Si5 0.716817 0.330490 0.149401
Si Si6 0.182870 0.671832 0.387925
Si Si7 0.485848 0.832823 0.688342
Si Si8 0.046467 0.671606 0.482085
O O1 0.523728 0.796424 0.773871
O O2 0.242796 0.744777 0.615745
O O3 0.397675 0.000000 0.737452
O O4 0.602641 0.777061 0.927860
O O5 0.500000 0.261623 0.500000
O O6 0.523953 0.500000 0.570540
O O7 0.664581 0.261382 0.708682
O O8 0.283524 0.294252 0.413811
O O9 0.241818 0.769846 0.864618
O O10 0.022152 0.754257 0.772195
O O11 0.187985 0.000000 0.876894
O O12 0.305880 0.806749 0.176935
O O13 0.231981 0.000000 0.189045
O O14 0.000000 0.773119 0.000000
O O15 0.741037 0.500000 0.153463
O O16 0.867558 0.285980 0.308399
O O17 0.500000 0.297088 0.000000
O O18 0.150307 0.500000 0.371197
O O19 0.317240 0.729837 0.535978
O O20 0.415208 0.000000 0.626601
O O21 0.082434 0.500000 0.510643
O O22 0.000000 0.730116 0.500000
#
# Coordination Sequence:
#
# PCOD8064116 Si02
#       8
#     4   4   4   4   4   4   4   4
#     4  10  22  37  53  76 106 140 175 213 258 308
#     4   9  19  35  53  75 105 139 175 217 265 317
#     4  11  23  37  54  79 110 142 177 217 263 314
#     4   9  18  32  52  78 105 136 175 217 261 311
#     4  10  21  38  60  84 110 141 177 217 261 310
#     4  10  20  35  55  78 104 137 178 220 264 316
#     4   9  18  35  55  75 104 139 175 217 263 310
#     4  10  21  37  58  82 106 135 172 214 259 306
#
# _framework density 18.590799000000001
#
# number of rings (size 3 to 8) (size 9 to 14) (size 15 to 20)
#    0.000    2.250    0.000    2.250    0.000    7.500 
#    0.000    1.250    0.000    0.000    0.000    0.000 
#    0.000    0.000    0.000    0.000    0.000    0.000 
#
# Total GULP energy -396824.305844 kJ/mol
# GULP energy per Si atom -12400.759558 kJ/mol
# Density = 1.854849 g / cm^3
# Si number density = 18.590799 Si / 1000 Ang^3
#
#
#
# Elastic Constant Matrix: (Units=GPa)
#
#
# Indices 1 2 3 4 5 6 
#
# 1 153.6783 54.2527 82.5206 0.0000 -5.6706 0.0000
# 2 54.2527 70.2933 63.2048 0.0000 3.9732 0.0000
# 3 82.5206 63.2048 159.3229 0.0000 11.3143 0.0000
# 4 0.0000 0.0000 0.0000 30.2954 0.0000 -1.0739
# 5 -5.6706 3.9732 11.3143 0.0000 30.7222 0.0000
# 6 0.0000 0.0000 0.0000 -1.0739 0.0000 25.3805
#
#
#
# Elastic Compliance Matrix: (Units=1/GPa)
#
#
# Indices 1 2 3 4 5 6 
#
# 1 0.010369 -0.004889 -0.003709 0.000000 0.003912 0.000000
# 2 -0.004889 0.024424 -0.007053 0.000000 -0.001464 0.000000
# 3 -0.003709 -0.007053 0.011274 0.000000 -0.003924 0.000000
# 4 0.000000 0.000000 0.000000 0.033058 0.000000 0.001399
# 5 0.003912 -0.001464 -0.003924 0.000000 0.034906 0.000000
# 6 0.000000 0.000000 0.000000 0.001399 0.000000 0.039459
#
#
# Mechanical properties :
#
#
# Convention : Reuss Voigt Hill
#
# Bulk Modulus (GPa) = 67.72612 87.02785 77.37699
# Shear Modulus (GPa) = 26.35535 29.50071 27.92803
#
# Velocity S-wave (km/s) = 3.76926 3.98784 3.88009
# Velocity P-wave (km/s) = 7.44662 8.25335 7.86034
#
# Compressibility (1/GPa) = 0.01476535
#
# Stress axis : x y z
#
# Youngs Moduli (GPa) = 96.44149 40.94322 88.69800
#
# Poissons Ratio (x) = 0.20018 0.32896
# Poissons Ratio (y) = 0.47152 0.62559
# Poissons Ratio (z) = 0.35768 0.28877
#
# Static dielectric constant tensor:
#      x y z
#    x 3.749960 0.000000 0.032320 
#    y 0.000000 3.398100 0.000000 
#    z 0.032320 0.000000 3.588520 
# 
# 
# High freq. dielectric constant tensor:
#      x y z
#    x 1.734990 0.000000 0.006270 
#    y 0.000000 1.719550 0.000000 
#    z 0.006270 0.000000 1.723600 
# 
# From -- ./inp_files/91870.got.cif
#   From: 2010.06.25/outbox.cif.g09.slc.cpg/sg10_46_cif.got.tgz:91870.got - 2010.06.27 22:07:45.
