data_PCOD8064409
_publ_section_title
;
Structure prediction by ZEFSAII (Michael W. Deem and Ramdas Pophale) SiO2 
 PCOD8064409
Probable space group: P 2/M
;
_chemical_formula_sum "Si O2"
_cell_formula_units_Z 28
_cell_length_a 31.634361
_cell_length_b 10.327009
_cell_length_c 25.701389
_cell_angle_alpha 90.000000
_cell_angle_beta 8.983807
_cell_angle_gamma 90.000000
_cell_volume 1311.133740
_symmetry_space_group_name_H-M "P 2/M"
_symmetry_group_IT_number 10
_symmetry_cell_setting 'monoclinic'
loop_
_space_group_symop_operation_xyz
x,y,z
-x,y,-z
-x,-y,-z
x,-y,z
loop_
_atom_site_type_symbol
_atom_site_label
_atom_site_fract_x
_atom_site_fract_y
_atom_site_fract_z
Si Si1 0.061034 0.144000 0.210063
Si Si2 0.834092 0.357550 0.347048
Si Si3 0.320080 0.355246 0.830337
Si Si4 0.538394 0.217743 0.788245
Si Si5 0.276611 0.640490 0.193822
Si Si6 0.030613 0.144506 0.559211
Si Si7 0.835304 0.354112 0.148057
O O1 0.793846 0.134646 0.497926
O O2 0.992936 0.182029 0.351830
O O3 0.192188 0.000000 0.048886
O O4 0.284142 0.250126 0.919929
O O5 0.727611 0.500000 0.459137
O O6 0.588668 0.274446 0.668798
O O7 0.032850 0.372777 0.153776
O O8 0.990856 0.283834 0.108856
O O9 0.417178 0.500000 0.732371
O O10 0.535944 0.299582 0.525132
O O11 0.505738 0.326532 0.872656
O O12 0.255906 0.141858 0.123903
O O13 0.348266 0.500000 0.132117
O O14 0.246083 0.753161 0.274096
O O15 0.000000 0.627031 0.500000
O O16 0.152461 0.000000 0.404858
O O17 0.798153 0.500000 0.172344
O O18 0.000000 0.344716 0.000000
#
# Coordination Sequence:
#
# PCOD8064409 Si02
#       7
#     4   4   4   4   4   4   4
#     4  10  22  38  56  81 111 144 184 226 269 319
#     4   9  17  30  50  77 108 141 175 220 272 320
#     4   9  18  33  53  77 107 141 180 222 268 319
#     4  10  20  35  58  80 107 144 183 223 269 323
#     4   9  19  36  57  84 114 144 180 225 274 321
#     4  10  22  38  57  80 108 146 185 223 270 323
#     4   9  17  28  47  78 109 138 175 217 266 322
#
# _framework density 21.355563
#
# number of rings (size 3 to 8) (size 9 to 14) (size 15 to 20)
#    0.000    2.571    0.000    1.286    2.000    7.143 
#    0.000    2.143    0.000    8.143    0.000    0.000 
#    0.000    0.000    0.000    0.000    0.000    0.000 
#
# Total GULP energy -346869.174034 kJ/mol
# GULP energy per Si atom -12388.184787 kJ/mol
# Density = 2.130696 g / cm^3
# Si number density = 21.355563 Si / 1000 Ang^3
#
#
#
# Elastic Constant Matrix: (Units=GPa)
#
#
# Indices 1 2 3 4 5 6 
#
# 1 90.7391 42.1110 20.5508 0.0000 36.7260 0.0000
# 2 42.1110 121.1834 34.9513 0.0000 41.5932 0.0000
# 3 20.5508 34.9513 73.6203 0.0000 37.2138 0.0000
# 4 0.0000 0.0000 0.0000 2.1342 0.0000 12.0557
# 5 36.7260 41.5932 37.2138 0.0000 48.4200 0.0000
# 6 0.0000 0.0000 0.0000 12.0557 0.0000 16.9982
#
#
#
# Elastic Compliance Matrix: (Units=1/GPa)
#
#
# Indices 1 2 3 4 5 6 
#
# 1 0.016629 -0.002160 0.002978 0.000000 -0.013047 0.000000
# 2 -0.002160 0.012010 -0.001164 0.000000 -0.007784 0.000000
# 3 0.002978 -0.001164 0.022798 0.000000 -0.018780 0.000000
# 4 0.000000 0.000000 0.000000 -0.155856 0.000000 0.110538
# 5 -0.013047 -0.007784 -0.018780 0.000000 0.051668 0.000000
# 6 0.000000 0.000000 0.000000 0.110538 0.000000 -0.019568
#
#
# Mechanical properties :
#
#
# Convention : Reuss Voigt Hill
#
# Bulk Modulus (GPa) = 19.70628 53.41877 36.56253
# Shear Modulus (GPa) = -91.38544 26.03913 -32.67315
#
# Velocity S-wave (km/s) = -6.54868 3.49566 -3.91571
# Velocity P-wave (km/s) = 6.92334 6.43126 1.81266
#
# Compressibility (1/GPa) = 0.05074523
#
# Stress axis : x y z
#
# Youngs Moduli (GPa) = 60.13633 83.26576 43.86404
#
# Poissons Ratio (x) = 0.17981 -0.13064
# Poissons Ratio (y) = 0.12987 0.05107
# Poissons Ratio (z) = -0.17910 0.09695
#
# Static dielectric constant tensor:
#      x y z
#    x 3.744440 0.000000 0.251410 
#    y 0.000000 3.853220 0.000000 
#    z 0.251410 0.000000 4.019090 
# 
# 
# High freq. dielectric constant tensor:
#      x y z
#    x 1.837010 0.000000 0.012670 
#    y 0.000000 1.800610 0.000000 
#    z 0.012670 0.000000 1.837600 
# 
# From -- ./inp_files/91438.got.cif
#   From: 2010.06.25/outbox.cif.g09.slc.cpg/sg10_46_cif.got.tgz:91438.got - 2010.06.27 22:07:45.
