data_PCOD8064206
_publ_section_title
;
Structure prediction by ZEFSAII (Michael W. Deem and Ramdas Pophale) SiO2 
 PCOD8064206
Probable space group: P 2/M
;
_chemical_formula_sum "Si O2"
_cell_formula_units_Z 28
_cell_length_a 13.685390
_cell_length_b 8.889849
_cell_length_c 13.717875
_cell_angle_alpha 90.000000
_cell_angle_beta 60.105563
_cell_angle_gamma 90.000000
_cell_volume 1446.871700
_symmetry_space_group_name_H-M "P 2/M"
_symmetry_group_IT_number 10
_symmetry_cell_setting 'monoclinic'
loop_
_space_group_symop_operation_xyz
x,y,z
-x,y,-z
-x,-y,-z
x,-y,z
loop_
_atom_site_type_symbol
_atom_site_label
_atom_site_fract_x
_atom_site_fract_y
_atom_site_fract_z
Si Si1 0.808594 0.822751 0.454807
Si Si2 0.765792 0.674612 0.680367
Si Si3 0.903903 0.321116 0.976209
Si Si4 0.334666 0.320792 0.831058
Si Si5 0.373821 0.323291 0.592624
Si Si6 0.033830 0.325402 0.269689
Si Si7 0.526455 0.321029 0.879590
O O1 0.793558 0.770216 0.572317
O O2 0.709403 0.758830 0.438540
O O3 0.928403 0.769692 0.356372
O O4 0.803830 0.000000 0.453381
O O5 0.757200 0.500000 0.654702
O O6 0.862803 0.702231 0.710144
O O7 0.649375 0.733074 0.784682
O O8 0.900693 0.500000 0.982219
O O9 0.929321 0.266375 0.854594
O O10 0.783603 0.256509 0.070426
O O11 0.000000 0.257154 0.000000
O O12 0.336042 0.500000 0.832874
O O13 0.352909 0.263424 0.712180
O O14 0.434384 0.257181 0.849593
O O15 0.500000 0.282004 0.500000
O O16 0.350680 0.500000 0.596129
O O17 0.998597 0.500000 0.284050
O O18 0.521687 0.500000 0.885237
O O19 0.500000 0.255483 0.000000
#
# Coordination Sequence:
#
# PCOD8064206 Si02
#       7
#     4   4   4   4   4   4   4
#     4  12  25  38  54  77 108 145 183 225 273 322
#     4  10  20  35  56  81 109 142 181 225 271 320
#     4   9  16  27  47  77 109 138 172 219 272 322
#     4   9  16  27  48  79 111 141 173 214 266 320
#     4  10  20  36  59  84 110 142 180 221 265 316
#     4  10  20  35  56  80 106 139 181 226 271 321
#     4   9  16  28  50  83 117 140 166 213 270 322
#
# _framework density 19.352096
#
# number of rings (size 3 to 8) (size 9 to 14) (size 15 to 20)
#    0.000    2.143    0.000    4.286    0.000   10.571 
#    0.000    0.000    0.000    4.286    0.000    2.000 
#    0.000    0.000    0.000    0.000    0.000    0.000 
#
# Total GULP energy -347265.039995 kJ/mol
# GULP energy per Si atom -12402.322857 kJ/mol
# Density = 1.930805 g / cm^3
# Si number density = 19.352096 Si / 1000 Ang^3
#
#
#
# Elastic Constant Matrix: (Units=GPa)
#
#
# Indices 1 2 3 4 5 6 
#
# 1 390.5781 652.9129 528.2081 0.0000 187.5059 0.0000
# 2 652.9129 1635.4289 1199.3069 0.0000 497.0157 0.0000
# 3 528.2081 1199.3069 1032.2329 0.0000 361.0556 0.0000
# 4 0.0000 0.0000 0.0000 -0.0966 0.0000 2.1778
# 5 187.5059 497.0157 361.0556 0.0000 201.9502 0.0000
# 6 0.0000 0.0000 0.0000 2.1778 0.0000 5.6635
#
#
#
# Elastic Compliance Matrix: (Units=1/GPa)
#
#
# Indices 1 2 3 4 5 6 
#
# 1 0.008925 -0.001998 -0.002848 0.000000 0.001723 0.000000
# 2 -0.001998 0.006598 -0.004304 0.000000 -0.006688 0.000000
# 3 -0.002848 -0.004304 0.007466 0.000000 -0.000109 0.000000
# 4 0.000000 0.000000 0.000000 -1.070563 0.000000 0.411675
# 5 0.001723 -0.006688 -0.000109 0.000000 0.020007 0.000000
# 6 0.000000 0.000000 0.000000 0.411675 0.000000 0.018264
#
#
# Mechanical properties :
#
#
# Convention : Reuss Voigt Hill
#
# Bulk Modulus (GPa) = 213.33490 868.78838 541.06164
# Shear Modulus (GPa) = -5.05337 86.69088 40.81876
#
# Velocity S-wave (km/s) = -1.61770 6.70029 4.59766
# Velocity P-wave (km/s) = 10.34353 22.57810 17.56074
#
# Compressibility (1/GPa) = 0.00468747
#
# Stress axis : x y z
#
# Youngs Moduli (GPa) = 112.03955 151.55751 133.94549
#
# Poissons Ratio (x) = 0.30281 0.38154
# Poissons Ratio (y) = 0.22386 0.57656
# Poissons Ratio (z) = 0.31914 0.65237
#
# Static dielectric constant tensor:
#      x y z
#    x 3.759760 0.000000 0.000860 
#    y 0.000000 2.955800 0.000000 
#    z 0.000860 0.000000 3.825010 
# 
# 
# High freq. dielectric constant tensor:
#      x y z
#    x 1.775950 0.000000 0.000020 
#    y 0.000000 1.689260 0.000000 
#    z 0.000020 0.000000 1.776090 
# 
# From -- ./inp_files/63615.got.cif
#   From: 2010.06.25/outbox.cif.g09.slc.cpg/sg10_32_cif.got.tgz:63615.got - 2010.06.27 22:07:45.
