data_PCOD8064128
_publ_section_title
;
Structure prediction by ZEFSAII (Michael W. Deem and Ramdas Pophale) SiO2 
 PCOD8064128
Probable space group: P 2/M
;
_chemical_formula_sum "Si O2"
_cell_formula_units_Z 24
_cell_length_a 15.371710
_cell_length_b 9.082114
_cell_length_c 22.363713
_cell_angle_alpha 90.000000
_cell_angle_beta 23.430319
_cell_angle_gamma 90.000000
_cell_volume 1241.469303
_symmetry_space_group_name_H-M "P 2/M"
_symmetry_group_IT_number 10
_symmetry_cell_setting 'monoclinic'
loop_
_space_group_symop_operation_xyz
x,y,z
-x,y,-z
-x,-y,-z
x,-y,z
loop_
_atom_site_type_symbol
_atom_site_label
_atom_site_fract_x
_atom_site_fract_y
_atom_site_fract_z
Si Si1 0.079992 0.671959 0.682321
Si Si2 0.980444 0.329771 0.143733
Si Si3 0.624628 0.825234 0.169011
Si Si4 0.721984 0.825503 0.829968
Si Si5 0.444623 0.669052 0.663704
Si Si6 0.234017 0.175003 0.332346
O O1 0.035865 0.500000 0.702052
O O2 0.024343 0.722382 0.784602
O O3 0.329514 0.712295 0.510423
O O4 0.930499 0.759689 0.730955
O O5 0.048542 0.500000 0.095255
O O6 0.741356 0.302638 0.267797
O O7 0.151190 0.233002 0.999728
O O8 0.597076 0.771885 0.253631
O O9 0.421622 0.764474 0.257946
O O10 0.632519 0.000000 0.163489
O O11 0.716609 0.768949 0.765398
O O12 0.741341 0.000000 0.821617
O O13 0.500000 0.767653 0.000000
O O14 0.444718 0.500000 0.685348
O O15 0.000000 0.239839 0.500000
O O16 0.229383 0.000000 0.337506
#
# Coordination Sequence:
#
# PCOD8064128 Si02
#       6
#     4   4   4   4   4   4
#     4  10  21  37  58  83 109 141 185 231 270 315
#     4  10  21  38  58  79 109 148 183 219 271 331
#     4  11  22  36  57  84 111 141 182 229 271 318
#     4  10  20  35  55  78 107 144 181 218 268 327
#     4  10  21  38  58  80 109 146 184 222 271 329
#     4   9  18  33  52  74 103 140 177 213 261 320
#
# _framework density 19.331931000000001
#
# number of rings (size 3 to 8) (size 9 to 14) (size 15 to 20)
#    0.000    2.000    0.000    3.500    0.000    9.000 
#    0.000    1.667    0.000    7.500    0.000    0.000 
#    0.000    0.000    0.000    0.000    0.000    0.000 
#
# Total GULP energy -297699.124695 kJ/mol
# GULP energy per Si atom -12404.130196 kJ/mol
# Density = 1.928793 g / cm^3
# Si number density = 19.331931 Si / 1000 Ang^3
#
#
#
# Elastic Constant Matrix: (Units=GPa)
#
#
# Indices 1 2 3 4 5 6 
#
# 1 111.1139 22.6903 6.0617 0.0000 -0.6684 0.0000
# 2 22.6903 40.0616 23.0423 0.0000 0.4092 0.0000
# 3 6.0617 23.0423 102.1727 0.0000 1.9694 0.0000
# 4 0.0000 0.0000 0.0000 0.2013 0.0000 -11.9656
# 5 -0.6684 0.4092 1.9694 0.0000 44.8368 0.0000
# 6 0.0000 0.0000 0.0000 -11.9656 0.0000 27.0909
#
#
#
# Elastic Compliance Matrix: (Units=1/GPa)
#
#
# Indices 1 2 3 4 5 6 
#
# 1 0.010235 -0.006260 0.000801 0.000000 0.000175 0.000000
# 2 -0.006260 0.032510 -0.006959 0.000000 -0.000084 0.000000
# 3 0.000801 -0.006959 0.011317 0.000000 -0.000422 0.000000
# 4 0.000000 0.000000 0.000000 -0.196706 0.000000 -0.086882
# 5 0.000175 -0.000084 -0.000422 0.000000 0.022325 0.000000
# 6 0.000000 0.000000 0.000000 -0.086882 0.000000 -0.001461
#
#
# Mechanical properties :
#
#
# Convention : Reuss Voigt Hill
#
# Bulk Modulus (GPa) = 34.21359 39.65966 36.93662
# Shear Modulus (GPa) = -57.33853 27.86271 -14.73791
#
# Velocity S-wave (km/s) = -5.45201 3.80054 -2.76408
# Velocity P-wave (km/s) = 4.67933 6.31018 2.99352
#
# Compressibility (1/GPa) = 0.02922815
#
# Stress axis : x y z
#
# Youngs Moduli (GPa) = 97.70009 30.75946 88.36013
#
# Poissons Ratio (x) = 0.19255 -0.07079
# Poissons Ratio (y) = 0.61158 0.61488
# Poissons Ratio (z) = -0.07827 0.21405
#
# Static dielectric constant tensor:
#      x y z
#    x 3.725210 0.000000 0.041530 
#    y 0.000000 3.296610 0.000000 
#    z 0.041530 0.000000 3.762460 
# 
# 
# High freq. dielectric constant tensor:
#      x y z
#    x 1.769320 0.000000 -0.000060 
#    y 0.000000 1.727020 0.000000 
#    z -0.000060 0.000000 1.771100 
# 
# From -- ./inp_files/66320.got.cif
#   From: 2010.06.25/outbox.cif.g09.slc.cpg/sg10_34_cif.got.tgz:66320.got - 2010.06.27 22:07:45.
