data_PCOD8064023
_publ_section_title
;
Structure prediction by ZEFSAII (Michael W. Deem and Ramdas Pophale) SiO2 
 PCOD8064023
Probable space group: P 2/M
;
_chemical_formula_sum "Si O2"
_cell_formula_units_Z 28
_cell_length_a 29.170619
_cell_length_b 11.636884
_cell_length_c 23.519241
_cell_angle_alpha 90.000000
_cell_angle_beta 168.485371
_cell_angle_gamma 90.000000
_cell_volume 1593.696532
_symmetry_space_group_name_H-M "P 2/M"
_symmetry_group_IT_number 10
_symmetry_cell_setting 'monoclinic'
loop_
_space_group_symop_operation_xyz
x,y,z
-x,y,-z
-x,-y,-z
x,-y,z
loop_
_atom_site_type_symbol
_atom_site_label
_atom_site_fract_x
_atom_site_fract_y
_atom_site_fract_z
Si Si1 0.082263 0.632911 0.275027
Si Si2 0.873067 0.000000 0.458447
Si Si3 0.391985 0.239692 0.738411
Si Si4 0.172585 0.378088 0.758844
Si Si5 0.166576 0.364771 0.249866
Si Si6 0.006420 0.760316 0.660011
Si Si7 0.531471 0.000000 0.946091
Si Si8 0.311211 0.632906 0.118456
O O1 0.168135 0.500000 0.385846
O O2 0.249692 0.722570 0.509996
O O3 0.080910 0.673190 0.208089
O O4 0.825696 0.644158 0.988539
O O5 0.029692 0.108767 0.666283
O O6 0.786465 0.000000 0.286457
O O7 0.645424 0.000000 0.218117
O O8 0.240106 0.261664 0.610188
O O9 0.617280 0.314377 0.014708
O O10 0.483213 0.108766 0.846616
O O11 0.260969 0.500000 0.891399
O O12 0.000000 0.403942 0.500000
O O13 0.027820 0.314411 0.630451
O O14 0.148312 0.500000 0.222508
O O15 0.427798 0.326846 0.554956
O O16 0.000000 0.307556 0.000000
O O17 0.208543 0.722599 0.948266
O O18 0.297237 0.500000 0.079514
#
# Coordination Sequence:
#
# PCOD8064023 Si02
#       8
#     4   2   4   4   4   4   2   4
#     4   9  17  29  47  71  97 127 162 197 238 292
#     4   9  18  33  53  75  98 128 168 212 258 303
#     4  10  20  35  53  72  98 131 166 209 255 295
#     4  11  23  34  47  70  96 127 168 207 249 305
#     4   9  17  29  46  70 101 130 153 188 238 289
#     4  10  20  35  53  72  98 131 166 209 255 295
#     4   9  18  33  53  75  98 128 168 212 258 303
#     4   9  17  29  47  71  97 127 162 197 238 292
#
# _framework density 17.569215
#
# number of rings (size 3 to 8) (size 9 to 14) (size 15 to 20)
#    0.000    2.429    0.000    2.571    0.000    5.714 
#    0.000    5.714    0.000    0.000    0.000    2.000 
#    0.000    5.714    0.000    0.000    0.000    0.000 
#
# Total GULP energy -346958.980189 kJ/mol
# GULP energy per Si atom -12391.392150 kJ/mol
# Density = 1.752923 g / cm^3
# Si number density = 17.569215 Si / 1000 Ang^3
#
#
#
# Elastic Constant Matrix: (Units=GPa)
#
#
# Indices 1 2 3 4 5 6 
#
# 1 112.2703 54.5353 61.8358 0.0000 -3.7146 0.0000
# 2 54.5353 122.1294 57.0276 0.0000 -4.3325 0.0000
# 3 61.8358 57.0276 116.5288 0.0000 -3.6774 0.0000
# 4 0.0000 0.0000 0.0000 25.6925 0.0000 -2.9161
# 5 -3.7146 -4.3325 -3.6774 0.0000 26.2135 0.0000
# 6 0.0000 0.0000 0.0000 -2.9161 0.0000 24.0908
#
#
#
# Elastic Compliance Matrix: (Units=1/GPa)
#
#
# Indices 1 2 3 4 5 6 
#
# 1 0.013669 -0.003506 -0.005519 0.000000 0.000583 0.000000
# 2 -0.003506 0.011540 -0.003759 0.000000 0.000883 0.000000
# 3 -0.005519 -0.003759 0.013365 0.000000 0.000471 0.000000
# 4 0.000000 0.000000 0.000000 0.039464 0.000000 0.004777
# 5 0.000583 0.000883 0.000471 0.000000 0.038443 0.000000
# 6 0.000000 0.000000 0.000000 0.004777 0.000000 0.042088
#
#
# Mechanical properties :
#
#
# Convention : Reuss Voigt Hill
#
# Bulk Modulus (GPa) = 76.89191 77.52509 77.20850
# Shear Modulus (GPa) = 26.52882 27.03469 26.78175
#
# Velocity S-wave (km/s) = 3.89004 3.92695 3.90854
# Velocity P-wave (km/s) = 8.00229 8.04876 8.02556
#
# Compressibility (1/GPa) = 0.01300527
#
# Stress axis : x y z
#
# Youngs Moduli (GPa) = 73.15632 86.65285 74.82147
#
# Poissons Ratio (x) = 0.30380 0.41298
# Poissons Ratio (y) = 0.25648 0.28128
# Poissons Ratio (z) = 0.40378 0.32576
#
# Static dielectric constant tensor:
#      x y z
#    x 5.339840 0.000000 1.548150 
#    y 0.000000 3.366550 0.000000 
#    z 1.548150 0.000000 4.446790 
# 
# 
# High freq. dielectric constant tensor:
#      x y z
#    x 1.682020 0.000000 0.013760 
#    y 0.000000 1.657320 0.000000 
#    z 0.013760 0.000000 1.674180 
# 
# From -- ./inp_files/79543.got.cif
#   From: 2010.06.25/outbox.cif.g09.slc.cpg/sg10_40_cif.got.tgz:79543.got - 2010.06.27 22:07:45.
