data_PCOD8064175
_publ_section_title
;
Structure prediction by ZEFSAII (Michael W. Deem and Ramdas Pophale) SiO2 
 PCOD8064175
Probable space group: P 2/M
;
_chemical_formula_sum "Si O2"
_cell_formula_units_Z 24
_cell_length_a 16.256050
_cell_length_b 15.754145
_cell_length_c 9.135912
_cell_angle_alpha 90.000000
_cell_angle_beta 150.711308
_cell_angle_gamma 90.000000
_cell_volume 1144.609617
_symmetry_space_group_name_H-M "P 2/M"
_symmetry_group_IT_number 10
_symmetry_cell_setting 'monoclinic'
loop_
_space_group_symop_operation_xyz
x,y,z
-x,y,-z
-x,-y,-z
x,-y,z
loop_
_atom_site_type_symbol
_atom_site_label
_atom_site_fract_x
_atom_site_fract_y
_atom_site_fract_z
Si Si1 0.241791 0.500000 0.674150
Si Si2 0.149326 0.000000 0.620148
Si Si3 0.922870 0.336659 0.664410
Si Si4 0.511496 0.165871 0.347341
Si Si5 0.264251 0.332857 0.324195
Si Si6 0.572589 0.500000 0.348347
Si Si7 0.158924 0.818737 0.643059
Si Si8 0.485232 0.000000 0.799526
O O1 0.123619 0.417653 0.506487
O O2 0.335079 0.500000 0.663750
O O3 0.373173 0.500000 0.011385
O O4 0.142435 0.090912 0.526119
O O5 0.000000 0.000000 0.500000
O O6 0.327864 0.000000 0.981656
O O7 0.843987 0.347479 0.699976
O O8 0.832807 0.253736 0.462838
O O9 0.125736 0.326957 0.979770
O O10 0.500000 0.142547 0.500000
O O11 0.625021 0.248550 0.499805
O O12 0.598459 0.086636 0.393426
O O13 0.327013 0.185223 0.999562
O O14 0.380853 0.416077 0.485347
O O15 0.000000 0.804914 0.500000
O O16 0.500000 0.000000 0.000000
#
# Coordination Sequence:
#
# PCOD8064175 Si02
#       8
#     2   2   4   4   4   2   4   2
#     4   9  17  31  54  81 114 155 204 243 305 357
#     4   8  18  35  56  84 112 154 193 241 299 359
#     4  10  20  35  55  84 118 158 200 252 297 362
#     4  11  23  39  61  89 123 160 200 250 309 363
#     4  10  21  35  57  85 123 156 201 249 308 351
#     4   9  17  33  54  85 116 157 199 252 296 364
#     4  10  20  36  59  82 113 153 203 241 302 365
#     4  10  23  39  64  94 121 159 210 259 302 362
#
# _framework density 20.967848
#
# number of rings (size 3 to 8) (size 9 to 14) (size 15 to 20)
#    0.000    2.167    0.000    2.750    4.667    3.333 
#    0.000    3.333    0.000    2.000    0.000    0.000 
#    0.000    0.000    0.000    0.000    0.000    0.000 
#
# Total GULP energy -297348.688656 kJ/mol
# GULP energy per Si atom -12389.528694 kJ/mol
# Density = 2.092012 g / cm^3
# Si number density = 20.967848 Si / 1000 Ang^3
#
#
#
# Elastic Constant Matrix: (Units=GPa)
#
#
# Indices 1 2 3 4 5 6 
#
# 1 32.7655 26.4007 30.2454 0.0000 3.9533 0.0000
# 2 26.4007 224.7265 84.2693 0.0000 0.7430 0.0000
# 3 30.2454 84.2693 154.5990 0.0000 9.4805 0.0000
# 4 0.0000 0.0000 0.0000 30.2447 0.0000 7.8468
# 5 3.9533 0.7430 9.4805 0.0000 31.5666 0.0000
# 6 0.0000 0.0000 0.0000 7.8468 0.0000 23.0014
#
#
#
# Elastic Compliance Matrix: (Units=1/GPa)
#
#
# Indices 1 2 3 4 5 6 
#
# 1 0.038284 -0.002195 -0.006115 0.000000 -0.002906 0.000000
# 2 -0.002195 0.005739 -0.002758 0.000000 0.000968 0.000000
# 3 -0.006115 -0.002758 0.009288 0.000000 -0.001959 0.000000
# 4 0.000000 0.000000 0.000000 0.036274 0.000000 -0.012375
# 5 -0.002906 0.000968 -0.001959 0.000000 0.032608 0.000000
# 6 0.000000 0.000000 0.000000 -0.012375 0.000000 0.047697
#
#
# Mechanical properties :
#
#
# Convention : Reuss Voigt Hill
#
# Bulk Modulus (GPa) = 32.07732 77.10242 54.58987
# Shear Modulus (GPa) = 24.70130 35.04092 29.87111
#
# Velocity S-wave (km/s) = 3.43601 4.09243 3.77850
# Velocity P-wave (km/s) = 5.57432 7.69300 6.71771
#
# Compressibility (1/GPa) = 0.03117467
#
# Stress axis : x y z
#
# Youngs Moduli (GPa) = 26.12062 174.25437 107.66352
#
# Poissons Ratio (x) = 0.38246 0.65838
# Poissons Ratio (y) = 0.05733 0.29694
# Poissons Ratio (z) = 0.15973 0.48060
#
# Static dielectric constant tensor:
#      x y z
#    x 3.372340 0.000000 0.230550 
#    y 0.000000 4.320170 0.000000 
#    z 0.230550 0.000000 3.942700 
# 
# 
# High freq. dielectric constant tensor:
#      x y z
#    x 1.783960 0.000000 0.017960 
#    y 0.000000 1.850090 0.000000 
#    z 0.017960 0.000000 1.819170 
# 
# From -- ./inp_files/32909.got.cif
#   From: 2010.06.25/outbox.cif.g09.slc.cpg/sg10_17_cif.got.tgz:32909.got - 2010.06.27 22:07:45.
