data_PCOD8064341
_publ_section_title
;
Structure prediction by ZEFSAII (Michael W. Deem and Ramdas Pophale) SiO2 
 PCOD8064341
Probable space group: P 2/M
;
_chemical_formula_sum "Si O2"
_cell_formula_units_Z 28
_cell_length_a 12.602186
_cell_length_b 9.114768
_cell_length_c 14.343758
_cell_angle_alpha 90.000000
_cell_angle_beta 120.300743
_cell_angle_gamma 90.000000
_cell_volume 1422.528476
_symmetry_space_group_name_H-M "P 2/M"
_symmetry_group_IT_number 10
_symmetry_cell_setting 'monoclinic'
loop_
_space_group_symop_operation_xyz
x,y,z
-x,y,-z
-x,-y,-z
x,-y,z
loop_
_atom_site_type_symbol
_atom_site_label
_atom_site_fract_x
_atom_site_fract_y
_atom_site_fract_z
Si Si1 0.966820 0.830095 0.382420
Si Si2 0.860427 0.169207 0.705481
Si Si3 0.721033 0.670053 0.228133
Si Si4 0.955255 0.336632 0.084524
Si Si5 0.502440 0.825781 0.219094
Si Si6 0.589939 0.174598 0.619474
Si Si7 0.317981 0.330580 0.002235
O O1 0.858125 0.734047 0.290849
O O2 0.000000 0.774974 0.500000
O O3 0.090264 0.805702 0.377081
O O4 0.925739 0.000000 0.363947
O O5 0.954871 0.234982 0.819431
O O6 0.725419 0.239735 0.657905
O O7 0.851588 0.000000 0.727077
O O8 0.725789 0.500000 0.258175
O O9 0.637032 0.756626 0.264590
O O10 0.663665 0.690267 0.100006
O O11 0.956661 0.500000 0.129044
O O12 0.000000 0.339315 0.000000
O O13 0.817164 0.275230 0.028453
O O14 0.453322 0.772653 0.297815
O O15 0.413312 0.770620 0.098395
O O16 0.513226 0.000000 0.218626
O O17 0.500000 0.238314 0.500000
O O18 0.590856 0.000000 0.614743
O O19 0.339504 0.500000 0.040514
#
# Coordination Sequence:
#
# PCOD8064341 Si02
#       7
#     4   4   4   4   4   4   4
#     4  10  22  38  61  92 120 150 194 244 293 343
#     4  10  20  36  60  88 116 149 190 240 290 341
#     4  11  23  40  61  85 119 160 196 234 292 354
#     4  10  20  35  57  83 115 157 194 232 284 344
#     4  11  23  37  60  89 117 152 199 247 289 340
#     4   9  20  38  60  85 116 154 192 235 292 349
#     4  10  21  38  57  82 118 156 193 235 292 352
#
# _framework density 19.683263
#
# number of rings (size 3 to 8) (size 9 to 14) (size 15 to 20)
#    0.000    1.857    1.429    2.143    2.000    4.000 
#    0.000    0.714    0.000    2.143    0.000    0.000 
#    0.000    0.000    0.000    0.000    0.000    0.000 
#
# Total GULP energy -347288.871039 kJ/mol
# GULP energy per Si atom -12403.173966 kJ/mol
# Density = 1.963846 g / cm^3
# Si number density = 19.683263 Si / 1000 Ang^3
#
#
#
# Elastic Constant Matrix: (Units=GPa)
#
#
# Indices 1 2 3 4 5 6 
#
# 1 130.6996 40.9763 25.9755 0.0000 -0.4931 0.0000
# 2 40.9763 64.1732 34.0954 0.0000 -1.6465 0.0000
# 3 25.9755 34.0954 80.1704 0.0000 -7.8575 0.0000
# 4 0.0000 0.0000 0.0000 -10.9522 0.0000 -9.1403
# 5 -0.4931 -1.6465 -7.8575 0.0000 30.4819 0.0000
# 6 0.0000 0.0000 0.0000 -9.1403 0.0000 23.6176
#
#
#
# Elastic Compliance Matrix: (Units=1/GPa)
#
#
# Indices 1 2 3 4 5 6 
#
# 1 0.009596 -0.005770 -0.000688 0.000000 -0.000334 0.000000
# 2 -0.005770 0.023641 -0.008278 0.000000 -0.000950 0.000000
# 3 -0.000688 -0.008278 0.016591 0.000000 0.003818 0.000000
# 4 0.000000 0.000000 0.000000 -0.069015 0.000000 -0.026710
# 5 -0.000334 -0.000950 0.003818 0.000000 0.033734 0.000000
# 6 0.000000 0.000000 0.000000 -0.026710 0.000000 0.032004
#
#
# Mechanical properties :
#
#
# Convention : Reuss Voigt Hill
#
# Bulk Modulus (GPa) = 49.12536 53.01529 51.07032
# Shear Modulus (GPa) = 60.38144 20.22922 40.30533
#
# Velocity S-wave (km/s) = 5.54465 3.20931 4.53006
# Velocity P-wave (km/s) = 8.12422 6.38166 7.30509
#
# Compressibility (1/GPa) = 0.02035609
#
# Stress axis : x y z
#
# Youngs Moduli (GPa) = 104.21437 42.29973 60.27411
#
# Poissons Ratio (x) = 0.24408 0.04145
# Poissons Ratio (y) = 0.60134 0.49893
# Poissons Ratio (z) = 0.07167 0.35014
#
# Static dielectric constant tensor:
#      x y z
#    x 3.842930 0.000000 -0.011360 
#    y 0.000000 3.445880 0.000000 
#    z -0.011360 0.000000 3.512790 
# 
# 
# High freq. dielectric constant tensor:
#      x y z
#    x 1.789820 0.000000 -0.001350 
#    y 0.000000 1.746670 0.000000 
#    z -0.001350 0.000000 1.765890 
# 
# From -- ./inp_files/49549.got.cif
#   From: 2010.06.25/outbox.cif.g09.slc.cpg/sg10_25_cif.got.tgz:49549.got - 2010.06.27 22:07:45.
