data_PCOD8064842
_publ_section_title
;
Structure prediction by ZEFSAII (Michael W. Deem and Ramdas Pophale) SiO2 
 PCOD8064842
Probable space group: P 2/M
;
_chemical_formula_sum "Si O2"
_cell_formula_units_Z 32
_cell_length_a 11.728555
_cell_length_b 9.062140
_cell_length_c 15.116807
_cell_angle_alpha 90.000000
_cell_angle_beta 87.896200
_cell_angle_gamma 90.000000
_cell_volume 1605.619058
_symmetry_space_group_name_H-M "P 2/M"
_symmetry_group_IT_number 10
_symmetry_cell_setting 'monoclinic'
loop_
_space_group_symop_operation_xyz
x,y,z
-x,y,-z
-x,-y,-z
x,-y,z
loop_
_atom_site_type_symbol
_atom_site_label
_atom_site_fract_x
_atom_site_fract_y
_atom_site_fract_z
Si Si1 0.160696 0.670313 0.886489
Si Si2 0.917431 0.174059 0.581838
Si Si3 0.186788 0.672256 0.082657
Si Si4 0.320841 0.674639 0.448928
Si Si5 0.023020 0.173701 0.221153
Si Si6 0.594420 0.330742 0.185753
Si Si7 0.561496 0.329725 0.381552
Si Si8 0.418616 0.165781 0.085557
O O1 0.135782 0.500000 0.863615
O O2 0.294047 0.707676 0.873782
O O3 0.093831 0.770094 0.818832
O O4 0.125961 0.703364 0.989418
O O5 0.793215 0.245686 0.579546
O O6 0.971588 0.218366 0.675511
O O7 0.000000 0.230916 0.500000
O O8 0.901546 0.000000 0.575072
O O9 0.184283 0.500000 0.104165
O O10 0.126891 0.755681 0.164367
O O11 0.315570 0.724735 0.072092
O O12 0.296747 0.500000 0.445177
O O13 0.354829 0.735363 0.545813
O O14 0.429386 0.725697 0.385621
O O15 0.030321 0.000000 0.209206
O O16 0.556786 0.500000 0.171223
O O17 0.622505 0.299816 0.287184
O O18 0.490781 0.223509 0.166113
O O19 0.551202 0.500000 0.406209
O O20 0.374894 0.000000 0.105675
O O21 0.500000 0.171709 0.000000
#
# Coordination Sequence:
#
# PCOD8064842 Si02
#       8
#     4   4   4   4   4   4   4   4
#     4  10  22  39  61  89 120 155 202 249 293 350
#     4  10  24  44  60  81 119 159 194 239 295 355
#     4  11  23  41  64  88 119 157 199 249 300 353
#     4   9  18  36  61  88 116 147 190 241 292 344
#     4  11  25  42  62  87 117 156 201 248 301 355
#     4  10  20  36  59  86 119 159 198 240 292 349
#     4   8  17  34  58  89 120 147 184 239 294 343
#     4  11  23  38  57  86 123 159 197 238 286 347
#
# _framework density 19.930005999999999
#
# number of rings (size 3 to 8) (size 9 to 14) (size 15 to 20)
#    0.000    2.000    1.250    2.250    3.500    4.750 
#    0.000    1.875    0.000    0.000    0.000    0.000 
#    0.000    0.000    0.000    0.000    0.000    0.000 
#
# Total GULP energy -396700.391945 kJ/mol
# GULP energy per Si atom -12396.887248 kJ/mol
# Density = 1.988464 g / cm^3
# Si number density = 19.930006 Si / 1000 Ang^3
#
#
#
# Elastic Constant Matrix: (Units=GPa)
#
#
# Indices 1 2 3 4 5 6 
#
# 1 90.4930 44.0727 44.4133 0.0000 13.8572 0.0000
# 2 44.0727 57.1483 54.3018 0.0000 7.9089 0.0000
# 3 44.4133 54.3018 129.9419 0.0000 1.4761 0.0000
# 4 0.0000 0.0000 0.0000 24.6678 0.0000 -2.2626
# 5 13.8572 7.9089 1.4761 0.0000 31.7318 0.0000
# 6 0.0000 0.0000 0.0000 -2.2626 0.0000 -68.7248
#
#
#
# Elastic Compliance Matrix: (Units=1/GPa)
#
#
# Indices 1 2 3 4 5 6 
#
# 1 0.018408 -0.012603 -0.000970 0.000000 -0.004852 0.000000
# 2 -0.012603 0.039136 -0.012005 0.000000 -0.003692 0.000000
# 3 -0.000970 -0.012005 0.013012 0.000000 0.002810 0.000000
# 4 0.000000 0.000000 0.000000 0.040417 0.000000 -0.001331
# 5 -0.004852 -0.003692 0.002810 0.000000 0.034423 0.000000
# 6 0.000000 0.000000 0.000000 -0.001331 0.000000 -0.014507
#
#
# Mechanical properties :
#
#
# Convention : Reuss Voigt Hill
#
# Bulk Modulus (GPa) = 51.54644 62.57320 57.05982
# Shear Modulus (GPa) = 26.52386 6.52133 16.52259
#
# Velocity S-wave (km/s) = 3.65204 1.81086 2.88241
# Velocity P-wave (km/s) = 6.61083 5.98640 6.30635
#
# Compressibility (1/GPa) = 0.01939998
#
# Stress axis : x y z
#
# Youngs Moduli (GPa) = 54.32563 25.55211 76.85143
#
# Poissons Ratio (x) = 0.32203 0.07453
# Poissons Ratio (y) = 0.68466 0.92260
# Poissons Ratio (z) = 0.05269 0.30675
#
# Static dielectric constant tensor:
#      x y z
#    x 3.586990 0.000000 0.001360 
#    y 0.000000 3.502990 0.000000 
#    z 0.001360 0.000000 3.796130 
# 
# 
# High freq. dielectric constant tensor:
#      x y z
#    x 1.781630 0.000000 -0.000130 
#    y 0.000000 1.758790 0.000000 
#    z -0.000130 0.000000 1.788190 
# 
# From -- ./inp_files/63770.got.cif
#   From: 2010.06.25/outbox.cif.g09.slc.cpg/sg10_32_cif.got.tgz:63770.got - 2010.06.27 22:07:45.
