data_PCOD8064021
_publ_section_title
;
Structure prediction by ZEFSAII (Michael W. Deem and Ramdas Pophale) SiO2 
 PCOD8064021
Probable space group: P 2/M
;
_chemical_formula_sum "Si O2"
_cell_formula_units_Z 28
_cell_length_a 18.657319
_cell_length_b 9.064588
_cell_length_c 14.627464
_cell_angle_alpha 90.000000
_cell_angle_beta 37.262859
_cell_angle_gamma 90.000000
_cell_volume 1497.824238
_symmetry_space_group_name_H-M "P 2/M"
_symmetry_group_IT_number 10
_symmetry_cell_setting 'monoclinic'
loop_
_space_group_symop_operation_xyz
x,y,z
-x,y,-z
-x,-y,-z
x,-y,z
loop_
_atom_site_type_symbol
_atom_site_label
_atom_site_fract_x
_atom_site_fract_y
_atom_site_fract_z
Si Si1 0.286230 0.668594 0.985582
Si Si2 0.902334 0.166054 0.918456
Si Si3 0.853269 0.326960 0.307393
Si Si4 0.346910 0.831268 0.402070
Si Si5 0.445043 0.832838 0.686357
Si Si6 0.740241 0.163811 0.261339
Si Si7 0.489142 0.670451 0.907124
O O1 0.248551 0.500000 0.008887
O O2 0.167689 0.767006 0.097905
O O3 0.381735 0.710955 0.812072
O O4 0.351850 0.691785 0.016294
O O5 0.016673 0.261395 0.824228
O O6 0.941567 0.000000 0.855612
O O7 0.815904 0.172533 0.092129
O O8 0.861229 0.500000 0.311970
O O9 0.775233 0.258772 0.468693
O O10 0.788725 0.289425 0.277930
O O11 0.414074 0.816282 0.434135
O O12 0.425565 0.770235 0.240363
O O13 0.317492 0.000000 0.410188
O O14 0.398647 0.810892 0.628144
O O15 0.407275 0.000000 0.754705
O O16 0.755346 0.000000 0.290633
O O17 0.527466 0.500000 0.856799
O O18 0.500000 0.723875 0.000000
#
# Coordination Sequence:
#
# PCOD8064021 Si02
#       7
#     4   4   4   4   4   4   4
#     4   9  16  28  50  78 104 130 162 201 244 290
#     4  10  20  35  53  71  97 135 176 214 251 293
#     4  12  24  34  47  70 101 136 173 214 258 299
#     4  10  20  35  53  74 102 135 171 207 249 301
#     4   8  16  31  50  70  96 132 169 207 250 296
#     4   9  18  33  51  71  96 130 173 216 255 294
#     4   9  18  34  57  84 111 134 157 193 245 303
#
# _framework density 18.693783
#
# number of rings (size 3 to 8) (size 9 to 14) (size 15 to 20)
#    0.000    2.429    0.000    3.857    0.000    6.571 
#    0.000    2.857    0.000    0.857    0.000    6.000 
#    0.000    0.000    0.000    0.000    0.000    0.000 
#
# Total GULP energy -347062.470551 kJ/mol
# GULP energy per Si atom -12395.088234 kJ/mol
# Density = 1.865123 g / cm^3
# Si number density = 18.693783 Si / 1000 Ang^3
#
#
#
# Elastic Constant Matrix: (Units=GPa)
#
#
# Indices 1 2 3 4 5 6 
#
# 1 47.7776 27.1060 -15.7332 0.0000 -15.9646 0.0000
# 2 27.1060 120.7934 16.5620 0.0000 -13.5646 0.0000
# 3 -15.7332 16.5620 2.7486 0.0000 -28.1268 0.0000
# 4 0.0000 0.0000 0.0000 23.7670 0.0000 -5.3902
# 5 -15.9646 -13.5646 -28.1268 0.0000 26.7249 0.0000
# 6 0.0000 0.0000 0.0000 -5.3902 0.0000 27.4228
#
#
#
# Elastic Compliance Matrix: (Units=1/GPa)
#
#
# Indices 1 2 3 4 5 6 
#
# 1 0.013271 -0.001888 -0.016240 0.000000 -0.010122 0.000000
# 2 -0.001888 0.009033 0.003056 0.000000 0.006674 0.000000
# 3 -0.016240 0.003056 -0.017303 0.000000 -0.026360 0.000000
# 4 0.000000 0.000000 0.000000 0.044038 0.000000 0.008656
# 5 -0.010122 0.006674 -0.026360 0.000000 0.007016 0.000000
# 6 0.000000 0.000000 0.000000 0.008656 0.000000 0.038167
#
#
# Mechanical properties :
#
#
# Convention : Reuss Voigt Hill
#
# Bulk Modulus (GPa) = -39.77414 25.24324 -7.26545
# Shear Modulus (GPa) = 43.10885 25.14192 34.12538
#
# Velocity S-wave (km/s) = 4.80735 3.67131 4.27721
# Velocity P-wave (km/s) = 3.08079 5.61287 4.52745
#
# Compressibility (1/GPa) = -0.02514196
#
# Stress axis : x y z
#
# Youngs Moduli (GPa) = 75.35018 110.70969 -57.79443
#
# Poissons Ratio (x) = 0.20903 -0.93858
# Poissons Ratio (y) = 0.14227 0.17665
# Poissons Ratio (z) = 1.22368 -0.33838
#
# Static dielectric constant tensor:
#      x y z
#    x 3.638520 0.000000 -0.261330 
#    y 0.000000 3.490880 0.000000 
#    z -0.261330 0.000000 3.189360 
# 
# 
# High freq. dielectric constant tensor:
#      x y z
#    x 1.719300 0.000000 -0.024410 
#    y 0.000000 1.731210 0.000000 
#    z -0.024410 0.000000 1.701110 
# 
# From -- ./inp_files/52435.got.cif
#   From: 2010.06.25/outbox.cif.g09.slc.cpg/sg10_27_cif.got.tgz:52435.got - 2010.06.27 22:07:45.
