data_PCOD8064947
_publ_section_title
;
Structure prediction by ZEFSAII (Michael W. Deem and Ramdas Pophale) SiO2 
 PCOD8064947
Probable space group: P 2/M
;
_chemical_formula_sum "Si O2"
_cell_formula_units_Z 22
_cell_length_a 5.407437
_cell_length_b 24.550125
_cell_length_c 7.444624
_cell_angle_alpha 90.000000
_cell_angle_beta 104.681486
_cell_angle_gamma 90.000000
_cell_volume 956.029834
_symmetry_space_group_name_H-M "P 2/M"
_symmetry_group_IT_number 10
_symmetry_cell_setting 'monoclinic'
loop_
_space_group_symop_operation_xyz
x,y,z
-x,y,-z
-x,-y,-z
x,-y,z
loop_
_atom_site_type_symbol
_atom_site_label
_atom_site_fract_x
_atom_site_fract_y
_atom_site_fract_z
Si Si1 0.797129 0.224929 0.113315
Si Si2 0.911067 0.885337 0.286769
Si Si3 0.053233 0.439989 0.299496
Si Si4 0.718830 0.341596 0.186867
Si Si5 0.410269 0.062422 0.279602
Si Si6 0.500000 0.378675 0.500000
O O1 0.848595 0.179123 0.271961
O O2 0.875201 0.285336 0.197524
O O3 0.500000 0.223696 0.000000
O O4 0.000000 0.209449 0.000000
O O5 0.642333 0.916262 0.194136
O O6 0.000000 0.902235 0.500000
O O7 0.144703 0.903822 0.197514
O O8 0.022858 0.500000 0.205277
O O9 0.340168 0.417903 0.337467
O O10 0.000000 0.442869 0.500000
O O11 0.877024 0.395998 0.167166
O O12 0.648454 0.341001 0.385927
O O13 0.500000 0.340503 0.000000
O O14 0.500000 0.070335 0.500000
O O15 0.353316 0.000000 0.222620
#
# Coordination Sequence:
#
# PCOD8064947 Si02
#       6
#     4   4   4   4   4   2
#     4  11  25  44  64  86 127 169 206 263 321 377
#     4  10  20  36  60  93 118 159 212 258 305 373
#     4   9  19  37  62  93 127 162 208 263 324 387
#     4  10  24  41  63  91 125 168 216 264 324 387
#     4   9  17  32  57  91 127 158 199 258 313 363
#     4  10  21  40  64  92 124 168 205 266 324 392
#
# _framework density 23.011835000000001
#
# number of rings (size 3 to 8) (size 9 to 14) (size 15 to 20)
#    0.000    2.182    0.000    1.909    5.091    5.455 
#    4.909    0.909    0.000   10.909    0.000    0.000 
#    0.000    0.000    0.000    0.000    0.000    0.000 
#
# Total GULP energy -272594.854209 kJ/mol
# GULP energy per Si atom -12390.675191 kJ/mol
# Density = 2.295946 g / cm^3
# Si number density = 23.011835 Si / 1000 Ang^3
#
#
#
# Elastic Constant Matrix: (Units=GPa)
#
#
# Indices 1 2 3 4 5 6 
#
# 1 152.5878 52.1800 17.7723 0.0000 13.6434 0.0000
# 2 52.1800 193.2823 26.4903 0.0000 25.6937 0.0000
# 3 17.7723 26.4903 34.7200 0.0000 11.7332 0.0000
# 4 0.0000 0.0000 0.0000 31.8266 0.0000 24.0361
# 5 13.6434 25.6937 11.7332 0.0000 20.9331 0.0000
# 6 0.0000 0.0000 0.0000 24.0361 0.0000 -0.6646
#
#
#
# Elastic Compliance Matrix: (Units=1/GPa)
#
#
# Indices 1 2 3 4 5 6 
#
# 1 0.007469 -0.001483 -0.002050 0.000000 -0.001899 0.000000
# 2 -0.001483 0.006682 -0.002337 0.000000 -0.005925 0.000000
# 3 -0.002050 -0.002337 0.037274 0.000000 -0.016688 0.000000
# 4 0.000000 0.000000 0.000000 0.001110 0.000000 0.040135
# 5 -0.001899 -0.005925 -0.016688 0.000000 0.065635 0.000000
# 6 0.000000 0.000000 0.000000 0.040135 0.000000 -0.053143
#
#
# Mechanical properties :
#
#
# Convention : Reuss Voigt Hill
#
# Bulk Modulus (GPa) = 25.19836 63.71947 44.45891
# Shear Modulus (GPa) = 55.55843 29.36218 42.46031
#
# Velocity S-wave (km/s) = 4.91893 3.57593 4.30018
# Velocity P-wave (km/s) = 6.57534 6.69326 6.63456
#
# Compressibility (1/GPa) = 0.03968512
#
# Stress axis : x y z
#
# Youngs Moduli (GPa) = 133.88076 149.65350 26.82871
#
# Poissons Ratio (x) = 0.22195 0.05500
# Poissons Ratio (y) = 0.19856 0.06269
# Poissons Ratio (z) = 0.27448 0.34969
#
# Static dielectric constant tensor:
#      x y z
#    x 4.560130 0.000000 0.108190 
#    y 0.000000 4.416820 0.000000 
#    z 0.108190 0.000000 3.635290 
# 
# 
# High freq. dielectric constant tensor:
#      x y z
#    x 1.917330 0.000000 0.006290 
#    y 0.000000 1.918840 0.000000 
#    z 0.006290 0.000000 1.881960 
# 
# From -- ./inp_files/15591.got.cif
#   From: 2010.06.25/outbox.cif.g09.slc.cpg/sg10_8_cif.got.tgz:15591.got - 2010.06.27 22:07:45.
