data_PCOD8064201
_publ_section_title
;
Structure prediction by ZEFSAII (Michael W. Deem and Ramdas Pophale) SiO2 
 PCOD8064201
Probable space group: P 2/M
;
_chemical_formula_sum "Si O2"
_cell_formula_units_Z 32
_cell_length_a 19.205809
_cell_length_b 9.580386
_cell_length_c 24.840550
_cell_angle_alpha 90.000000
_cell_angle_beta 158.270488
_cell_angle_gamma 90.000000
_cell_volume 1692.165745
_symmetry_space_group_name_H-M "P 2/M"
_symmetry_group_IT_number 10
_symmetry_cell_setting 'monoclinic'
loop_
_space_group_symop_operation_xyz
x,y,z
-x,y,-z
-x,-y,-z
x,-y,z
loop_
_atom_site_type_symbol
_atom_site_label
_atom_site_fract_x
_atom_site_fract_y
_atom_site_fract_z
Si Si1 0.283241 0.837810 0.352830
Si Si2 0.920450 0.335537 0.702656
Si Si3 0.653075 0.657283 0.975598
Si Si4 0.645976 0.344499 0.846512
Si Si5 0.766082 0.338382 0.476098
Si Si6 0.017727 0.162960 0.951984
Si Si7 0.006326 0.839191 0.443235
Si Si8 0.418666 0.839516 0.885726
O O1 0.500000 0.798384 0.500000
O O2 0.207961 0.745948 0.347539
O O3 0.170559 0.802675 0.216930
O O4 0.259316 0.000000 0.350943
O O5 0.895008 0.500000 0.695120
O O6 0.860500 0.292162 0.599682
O O7 0.134928 0.287396 0.864476
O O8 0.638017 0.500000 0.987418
O O9 0.593367 0.664359 0.871077
O O10 0.505745 0.753431 0.899903
O O11 0.719763 0.500000 0.885325
O O12 0.456578 0.310389 0.677620
O O13 0.805509 0.234697 0.948345
O O14 0.807026 0.500000 0.492790
O O15 0.845395 0.249307 0.483870
O O16 0.061589 0.000000 0.983884
O O17 0.000000 0.220248 0.000000
O O18 0.000000 0.784880 0.500000
O O19 0.803585 0.818725 0.271072
O O20 0.071766 0.000000 0.488942
O O21 0.474210 0.000000 0.916291
O O22 0.500000 0.782077 0.000000
#
# Coordination Sequence:
#
# PCOD8064201 Si02
#       8
#     4   4   4   4   4   4   4   4
#     4  10  22  39  59  85 115 147 184 226 274 329
#     4  10  21  38  57  82 115 147 186 232 276 329
#     4  10  20  35  56  79 107 143 182 227 275 327
#     4  10  21  38  57  82 113 145 186 230 274 326
#     4  10  22  37  56  83 113 147 188 233 278 329
#     4  10  22  39  59  85 115 146 184 228 273 327
#     4  10  21  37  55  79 111 146 186 232 280 332
#     4  10  21  35  53  79 109 140 180 228 275 327
#
# _framework density 18.910677
#
# number of rings (size 3 to 8) (size 9 to 14) (size 15 to 20)
#    0.000    2.000    1.250    1.500    1.750    3.500 
#    0.000    0.000    0.000    0.000    0.000    0.000 
#    0.000    0.000    0.000    0.000    0.000    0.000 
#
# Total GULP energy -396934.038103 kJ/mol
# GULP energy per Si atom -12404.188691 kJ/mol
# Density = 1.886764 g / cm^3
# Si number density = 18.910677 Si / 1000 Ang^3
#
#
#
# Elastic Constant Matrix: (Units=GPa)
#
#
# Indices 1 2 3 4 5 6 
#
# 1 87.4227 44.2076 25.2653 0.0000 -1.0711 0.0000
# 2 44.2076 56.7855 23.7320 0.0000 8.2161 0.0000
# 3 25.2653 23.7320 82.2729 0.0000 -8.4639 0.0000
# 4 0.0000 0.0000 0.0000 20.3054 0.0000 4.0110
# 5 -1.0711 8.2161 -8.4639 0.0000 33.1852 0.0000
# 6 0.0000 0.0000 0.0000 4.0110 0.0000 37.5038
#
#
#
# Elastic Compliance Matrix: (Units=1/GPa)
#
#
# Indices 1 2 3 4 5 6 
#
# 1 0.019597 -0.015372 -0.001158 0.000000 0.004143 0.000000
# 2 -0.015372 0.033598 -0.006036 0.000000 -0.010354 0.000000
# 3 -0.001158 -0.006036 0.014789 0.000000 0.005229 0.000000
# 4 0.000000 0.000000 0.000000 0.050311 0.000000 -0.005381
# 5 0.004143 -0.010354 0.005229 0.000000 0.034165 0.000000
# 6 0.000000 0.000000 0.000000 -0.005381 0.000000 0.027239
#
#
# Mechanical properties :
#
#
# Convention : Reuss Voigt Hill
#
# Bulk Modulus (GPa) = 43.75840 45.87677 44.81759
# Shear Modulus (GPa) = 21.51006 27.08396 24.29701
#
# Velocity S-wave (km/s) = 3.37628 3.78855 3.58834
# Velocity P-wave (km/s) = 6.19587 6.59165 6.39682
#
# Compressibility (1/GPa) = 0.02285275
#
# Stress axis : x y z
#
# Youngs Moduli (GPa) = 51.02719 29.76362 67.61653
#
# Poissons Ratio (x) = 0.45753 0.07829
# Poissons Ratio (y) = 0.78440 0.40813
# Poissons Ratio (z) = 0.05908 0.17965
#
# Static dielectric constant tensor:
#      x y z
#    x 3.368350 0.000000 -0.234950 
#    y 0.000000 3.411700 0.000000 
#    z -0.234950 0.000000 3.702310 
# 
# 
# High freq. dielectric constant tensor:
#      x y z
#    x 1.732230 0.000000 -0.010010 
#    y 0.000000 1.729100 0.000000 
#    z -0.010010 0.000000 1.752710 
# 
# From -- ./inp_files/80276.got.cif
#   From: 2010.06.25/outbox.cif.g09.slc.cpg/sg10_41_cif.got.tgz:80276.got - 2010.06.27 22:07:45.
