data_PCOD8064700
_publ_section_title
;
Structure prediction by ZEFSAII (Michael W. Deem and Ramdas Pophale) SiO2 
 PCOD8064700
Probable space group: P 2/M
;
_chemical_formula_sum "Si O2"
_cell_formula_units_Z 32
_cell_length_a 19.600120
_cell_length_b 9.613335
_cell_length_c 24.998327
_cell_angle_alpha 90.000000
_cell_angle_beta 158.560780
_cell_angle_gamma 90.000000
_cell_volume 1721.661610
_symmetry_space_group_name_H-M "P 2/M"
_symmetry_group_IT_number 10
_symmetry_cell_setting 'monoclinic'
loop_
_space_group_symop_operation_xyz
x,y,z
-x,y,-z
-x,-y,-z
x,-y,z
loop_
_atom_site_type_symbol
_atom_site_label
_atom_site_fract_x
_atom_site_fract_y
_atom_site_fract_z
Si Si1 0.281246 0.837417 0.342679
Si Si2 0.880188 0.160570 0.660313
Si Si3 0.701815 0.839630 0.009268
Si Si4 0.655317 0.343311 0.873042
Si Si5 0.740808 0.338304 0.460406
Si Si6 0.971277 0.340839 0.919031
Si Si7 0.959570 0.662510 0.410022
Si Si8 0.393825 0.842193 0.867346
O O1 0.500000 0.802754 0.500000
O O2 0.199735 0.790895 0.340623
O O3 0.178937 0.752671 0.221376
O O4 0.242523 0.000000 0.304484
O O5 0.790913 0.251614 0.548990
O O6 0.828605 0.000000 0.612556
O O7 0.101304 0.185630 0.818158
O O8 0.695453 0.755495 0.950950
O O9 0.535414 0.787728 0.925571
O O10 0.678400 0.000000 0.977183
O O11 0.631505 0.500000 0.877432
O O12 0.469666 0.296609 0.706995
O O13 0.825521 0.329221 0.957473
O O14 0.762572 0.500000 0.490763
O O15 0.866278 0.299485 0.500569
O O16 0.898204 0.500000 0.865050
O O17 0.000000 0.285298 0.000000
O O18 0.912406 0.500000 0.374110
O O19 0.783283 0.743825 0.258891
O O20 0.000000 0.711675 0.500000
O O21 0.328771 0.000000 0.808277
O O22 0.500000 0.833562 0.000000
#
# Coordination Sequence:
#
# PCOD8064700 Si02
#       8
#     4   4   4   4   4   4   4   4
#     4  10  22  40  61  87 117 151 190 230 277 332
#     4  10  21  38  58  82 115 149 186 233 280 333
#     4  10  20  36  58  82 109 145 188 233 280 334
#     4  10  21  38  58  82 113 148 188 232 277 329
#     4  10  22  37  56  83 113 148 190 234 280 335
#     4  10  22  39  60  88 118 150 189 232 278 330
#     4  10  21  38  57  80 112 148 188 234 284 336
#     4  10  21  36  56  82 111 144 185 232 283 336
#
# _framework density 18.586696
#
# number of rings (size 3 to 8) (size 9 to 14) (size 15 to 20)
#    0.000    2.000    1.250    1.500    1.750    5.500 
#    0.000    0.000    0.000    0.000    0.000    0.000 
#    0.000    0.000    0.000    0.000    0.000    0.000 
#
# Total GULP energy -396904.355963 kJ/mol
# GULP energy per Si atom -12403.261124 kJ/mol
# Density = 1.854439 g / cm^3
# Si number density = 18.586696 Si / 1000 Ang^3
#
#
#
# Elastic Constant Matrix: (Units=GPa)
#
#
# Indices 1 2 3 4 5 6 
#
# 1 106.4486 47.7811 50.4090 0.0000 -15.8728 0.0000
# 2 47.7811 66.0994 64.8990 0.0000 -13.1321 0.0000
# 3 50.4090 64.8990 130.4938 0.0000 -7.1461 0.0000
# 4 0.0000 0.0000 0.0000 51.9427 0.0000 -13.4379
# 5 -15.8728 -13.1321 -7.1461 0.0000 34.3676 0.0000
# 6 0.0000 0.0000 0.0000 -13.4379 0.0000 31.8455
#
#
#
# Elastic Compliance Matrix: (Units=1/GPa)
#
#
# Indices 1 2 3 4 5 6 
#
# 1 0.014225 -0.008691 -0.001006 0.000000 0.003040 0.000000
# 2 -0.008691 0.037440 -0.014869 0.000000 0.007201 0.000000
# 3 -0.001006 -0.014869 0.015284 0.000000 -0.002968 0.000000
# 4 0.000000 0.000000 0.000000 0.021611 0.000000 0.009119
# 5 0.003040 0.007201 -0.002968 0.000000 0.032635 0.000000
# 6 0.000000 0.000000 0.000000 0.009119 0.000000 0.035250
#
#
# Mechanical properties :
#
#
# Convention : Reuss Voigt Hill
#
# Bulk Modulus (GPa) = 56.12424 69.91334 63.01879
# Shear Modulus (GPa) = 23.63874 32.96133 28.30003
#
# Velocity S-wave (km/s) = 3.57011 4.21572 3.90628
# Velocity P-wave (km/s) = 6.87428 7.83536 7.37050
#
# Compressibility (1/GPa) = 0.01781761
#
# Stress axis : x y z
#
# Youngs Moduli (GPa) = 70.29849 26.70911 65.42715
#
# Poissons Ratio (x) = 0.23212 0.06584
# Poissons Ratio (y) = 0.61095 0.97283
# Poissons Ratio (z) = 0.07074 0.39713
#
# Static dielectric constant tensor:
#      x y z
#    x 3.592150 0.000000 0.146750 
#    y 0.000000 3.407090 0.000000 
#    z 0.146750 0.000000 3.437060 
# 
# 
# High freq. dielectric constant tensor:
#      x y z
#    x 1.734940 0.000000 0.006630 
#    y 0.000000 1.716740 0.000000 
#    z 0.006630 0.000000 1.729950 
# 
# From -- ./inp_files/93763.got.cif
#   From: 2010.06.25/outbox.cif.g09.slc.cpg/sg10_47_cif.got.tgz:93763.got - 2010.06.27 22:07:45.
