data_PCOD8064873
_publ_section_title
;
Structure prediction by ZEFSAII (Michael W. Deem and Ramdas Pophale) SiO2 
 PCOD8064873
Probable space group: P 2/M
;
_chemical_formula_sum "Si O2"
_cell_formula_units_Z 28
_cell_length_a 9.835398
_cell_length_b 11.188456
_cell_length_c 14.611578
_cell_angle_alpha 90.000000
_cell_angle_beta 120.842393
_cell_angle_gamma 90.000000
_cell_volume 1380.512653
_symmetry_space_group_name_H-M "P 2/M"
_symmetry_group_IT_number 10
_symmetry_cell_setting 'monoclinic'
loop_
_space_group_symop_operation_xyz
x,y,z
-x,y,-z
-x,-y,-z
x,-y,z
loop_
_atom_site_type_symbol
_atom_site_label
_atom_site_fract_x
_atom_site_fract_y
_atom_site_fract_z
Si Si1 0.528066 0.235309 0.255361
Si Si2 0.821450 0.133987 0.260261
Si Si3 0.606282 0.637183 0.958309
Si Si4 0.870747 0.804842 0.075713
Si Si5 0.801063 0.870309 0.854775
Si Si6 0.375645 0.363067 0.531220
Si Si7 0.983659 0.635692 0.602346
O O1 0.647948 0.146624 0.244847
O O2 0.467537 0.337678 0.166149
O O3 0.372931 0.166980 0.237824
O O4 0.616950 0.291307 0.371948
O O5 0.811965 0.131383 0.147428
O O6 0.923827 0.251995 0.321991
O O7 0.885451 0.000000 0.312462
O O8 0.608882 0.500000 0.977594
O O9 0.500000 0.700752 0.000000
O O10 0.787551 0.677314 0.033127
O O11 0.061327 0.784778 0.138911
O O12 0.812276 0.882245 0.968731
O O13 0.835496 0.000000 0.824047
O O14 0.500000 0.311441 0.500000
O O15 0.417751 0.500000 0.567640
O O16 0.198861 0.350116 0.430435
O O17 0.043060 0.500000 0.652551
O O18 0.000000 0.645891 0.500000
#
# Coordination Sequence:
#
# PCOD8064873 Si02
#       7
#     4   4   4   4   4   4   4
#     4  11  22  38  60  90 121 158 200 251 308 365
#     4  12  24  38  62  95 126 158 205 256 304 361
#     4  10  20  36  59  90 123 158 199 248 302 357
#     4  10  21  39  59  86 118 162 203 242 296 359
#     4  10  21  39  60  81 119 164 199 239 298 368
#     4  10  22  42  64  87 117 158 207 257 307 369
#     4  10  22  42  66  89 117 158 204 250 309 370
#
# _framework density 20.282321
#
# number of rings (size 3 to 8) (size 9 to 14) (size 15 to 20)
#    0.000    1.571    2.857    2.571    2.000    1.429 
#    0.000    8.571    0.000    2.143    0.000    0.000 
#    0.000    0.000    0.000    0.000    0.000    0.000 
#
# Total GULP energy -346945.338452 kJ/mol
# GULP energy per Si atom -12390.904945 kJ/mol
# Density = 2.023616 g / cm^3
# Si number density = 20.282321 Si / 1000 Ang^3
#
#
#
# Elastic Constant Matrix: (Units=GPa)
#
#
# Indices 1 2 3 4 5 6 
#
# 1 128.2505 43.8392 29.5776 0.0000 10.4933 0.0000
# 2 43.8392 124.2218 42.4819 0.0000 10.5044 0.0000
# 3 29.5776 42.4819 60.4603 0.0000 4.6882 0.0000
# 4 0.0000 0.0000 0.0000 -2.2858 0.0000 -4.0614
# 5 10.4933 10.5044 4.6882 0.0000 36.1992 0.0000
# 6 0.0000 0.0000 0.0000 -4.0614 0.0000 11.9014
#
#
#
# Elastic Compliance Matrix: (Units=1/GPa)
#
#
# Indices 1 2 3 4 5 6 
#
# 1 0.009348 -0.002154 -0.002928 0.000000 -0.001706 0.000000
# 2 -0.002154 0.011258 -0.006719 0.000000 -0.001772 0.000000
# 3 -0.002928 -0.006719 0.022704 0.000000 -0.000142 0.000000
# 4 0.000000 0.000000 0.000000 -0.272350 0.000000 -0.092941
# 5 -0.001706 -0.001772 -0.000142 0.000000 0.028652 0.000000
# 6 0.000000 0.000000 0.000000 -0.092941 0.000000 0.052308
#
#
# Mechanical properties :
#
#
# Convention : Reuss Voigt Hill
#
# Bulk Modulus (GPa) = 50.73781 60.52554 55.63168
# Shear Modulus (GPa) = -42.40547 22.29856 -10.05346
#
# Velocity S-wave (km/s) = -4.57744 3.31933 -2.22879
# Velocity P-wave (km/s) = 1.69329 6.67809 4.56780
#
# Compressibility (1/GPa) = 0.01970917
#
# Stress axis : x y z
#
# Youngs Moduli (GPa) = 106.97307 88.82652 44.04454
#
# Poissons Ratio (x) = 0.19130 0.12895
# Poissons Ratio (y) = 0.23038 0.29595
# Poissons Ratio (z) = 0.31319 0.59685
#
# Static dielectric constant tensor:
#      x y z
#    x 4.060020 0.000000 0.020640 
#    y 0.000000 3.627000 0.000000 
#    z 0.020640 0.000000 3.458290 
# 
# 
# High freq. dielectric constant tensor:
#      x y z
#    x 1.813010 0.000000 0.000230 
#    y 0.000000 1.781460 0.000000 
#    z 0.000230 0.000000 1.769230 
# 
# From -- ./inp_files/61273.got.cif
#   From: 2010.06.25/outbox.cif.g09.slc.cpg/sg10_31_cif.got.tgz:61273.got - 2010.06.27 22:07:45.
