data_PCOD8064372
_publ_section_title
;
Structure prediction by ZEFSAII (Michael W. Deem and Ramdas Pophale) SiO2 
 PCOD8064372
Probable space group: P 2/M
;
_chemical_formula_sum "Si O2"
_cell_formula_units_Z 28
_cell_length_a 9.412301
_cell_length_b 8.729472
_cell_length_c 27.704471
_cell_angle_alpha 90.000000
_cell_angle_beta 141.470039
_cell_angle_gamma 90.000000
_cell_volume 1417.974967
_symmetry_space_group_name_H-M "P 2/M"
_symmetry_group_IT_number 10
_symmetry_cell_setting 'monoclinic'
loop_
_space_group_symop_operation_xyz
x,y,z
-x,y,-z
-x,-y,-z
x,-y,z
loop_
_atom_site_type_symbol
_atom_site_label
_atom_site_fract_x
_atom_site_fract_y
_atom_site_fract_z
Si Si1 0.823127 0.181410 0.492829
Si Si2 0.002474 0.818650 0.355674
Si Si3 0.743592 0.676373 0.041942
Si Si4 0.734977 0.668867 0.936096
Si Si5 0.492104 0.681763 0.778367
Si Si6 0.687512 0.181271 0.650565
Si Si7 0.171010 0.819454 0.206857
O O1 0.569472 0.249381 0.417113
O O2 0.000000 0.249659 0.500000
O O3 0.895755 0.229257 0.565803
O O4 0.818592 0.000000 0.486052
O O5 0.767446 0.730466 0.287536
O O6 0.171677 0.759290 0.358467
O O7 0.960293 0.000000 0.340971
O O8 0.826957 0.500000 0.058998
O O9 0.929998 0.765070 0.122384
O O10 0.500000 0.689580 0.000000
O O11 0.705881 0.755274 0.979446
O O12 0.622394 0.500000 0.910390
O O13 0.616701 0.751997 0.859211
O O14 0.000000 0.654351 0.000000
O O15 0.517852 0.500000 0.783024
O O16 0.613402 0.749815 0.763647
O O17 0.814191 0.232503 0.733304
O O18 0.670435 0.000000 0.642275
O O19 0.188778 0.000000 0.206767
#
# Coordination Sequence:
#
# PCOD8064372 Si02
#       7
#     4   4   4   4   4   4   4
#     4   9  16  30  56  85 111 145 185 222 266 326
#     4  10  20  35  57  85 114 143 181 228 276 325
#     4  10  21  37  58  80 107 145 189 229 273 330
#     4   9  17  34  56  77 102 138 184 229 267 319
#     4  11  22  37  58  81 110 146 187 229 276 332
#     4   9  19  34  54  83 117 148 180 224 275 328
#     4  11  22  37  56  81 114 147 184 231 279 325
#
# _framework density 19.746469999999999
#
# number of rings (size 3 to 8) (size 9 to 14) (size 15 to 20)
#    0.000    2.143    1.429    2.143    2.000    4.286 
#    0.000    2.857    0.000    6.429    0.000    0.000 
#    0.000    0.000    0.000    0.000    0.000    0.000 
#
# Total GULP energy -347085.289146 kJ/mol
# GULP energy per Si atom -12395.903184 kJ/mol
# Density = 1.970153 g / cm^3
# Si number density = 19.746470 Si / 1000 Ang^3
#
#
#
# Elastic Constant Matrix: (Units=GPa)
#
#
# Indices 1 2 3 4 5 6 
#
# 1 171.3828 28.9610 83.0168 0.0000 -17.8054 0.0000
# 2 28.9610 37.6179 34.2698 0.0000 -3.4719 0.0000
# 3 83.0168 34.2698 137.5339 0.0000 -12.0756 0.0000
# 4 0.0000 0.0000 0.0000 21.0549 0.0000 8.2727
# 5 -17.8054 -3.4719 -12.0756 0.0000 42.3532 0.0000
# 6 0.0000 0.0000 0.0000 8.2727 0.0000 22.1651
#
#
#
# Elastic Compliance Matrix: (Units=1/GPa)
#
#
# Indices 1 2 3 4 5 6 
#
# 1 0.008598 -0.002412 -0.004399 0.000000 0.002163 0.000000
# 2 -0.002412 0.035072 -0.007302 0.000000 -0.000221 0.000000
# 3 -0.004399 -0.007302 0.011827 0.000000 0.000924 0.000000
# 4 0.000000 0.000000 0.000000 0.055657 0.000000 -0.020773
# 5 0.002163 -0.000221 0.000924 0.000000 0.024766 0.000000
# 6 0.000000 0.000000 0.000000 -0.020773 0.000000 0.052869
#
#
# Mechanical properties :
#
#
# Convention : Reuss Voigt Hill
#
# Bulk Modulus (GPa) = 36.67046 71.00331 53.83688
# Shear Modulus (GPa) = 22.11357 30.46712 26.29034
#
# Velocity S-wave (km/s) = 3.35008 3.93226 3.65279
# Velocity P-wave (km/s) = 5.79440 7.52678 6.71667
#
# Compressibility (1/GPa) = 0.02726990
#
# Stress axis : x y z
#
# Youngs Moduli (GPa) = 116.30596 28.51252 84.55371
#
# Poissons Ratio (x) = 0.06878 0.37194
# Poissons Ratio (y) = 0.28058 0.61744
# Poissons Ratio (z) = 0.51161 0.20821
#
# Static dielectric constant tensor:
#      x y z
#    x 3.911680 0.000000 -0.181570 
#    y 0.000000 3.187330 0.000000 
#    z -0.181570 0.000000 3.792850 
# 
# 
# High freq. dielectric constant tensor:
#      x y z
#    x 1.789230 0.000000 -0.006650 
#    y 0.000000 1.716790 0.000000 
#    z -0.006650 0.000000 1.786310 
# 
# From -- ./inp_files/36947.got.cif
#   From: 2010.06.25/outbox.cif.g09.slc.cpg/sg10_19_cif.got.tgz:36947.got - 2010.06.27 22:07:45.
