data_PCOD8064477
_publ_section_title
;
Structure prediction by ZEFSAII (Michael W. Deem and Ramdas Pophale) SiO2 
 PCOD8064477
Probable space group: P 2/M
;
_chemical_formula_sum "Si O2"
_cell_formula_units_Z 32
_cell_length_a 12.735891
_cell_length_b 9.190231
_cell_length_c 31.174929
_cell_angle_alpha 90.000000
_cell_angle_beta 27.447842
_cell_angle_gamma 90.000000
_cell_volume 1681.924618
_symmetry_space_group_name_H-M "P 2/M"
_symmetry_group_IT_number 10
_symmetry_cell_setting 'monoclinic'
loop_
_space_group_symop_operation_xyz
x,y,z
-x,y,-z
-x,-y,-z
x,-y,z
loop_
_atom_site_type_symbol
_atom_site_label
_atom_site_fract_x
_atom_site_fract_y
_atom_site_fract_z
Si Si1 0.050484 0.832743 0.078335
Si Si2 0.091114 0.661391 0.145853
Si Si3 0.253064 0.670626 0.397319
Si Si4 0.687485 0.831093 0.396634
Si Si5 0.566070 0.172017 0.219952
Si Si6 0.535008 0.167518 0.132344
Si Si7 0.421246 0.662145 0.645022
Si Si8 0.851146 0.673506 0.779377
O O1 0.803569 0.769387 0.154166
O O2 0.163928 0.757980 0.078954
O O3 0.024043 0.000000 0.100183
O O4 0.217103 0.809591 0.977897
O O5 0.190236 0.500000 0.102324
O O6 0.182712 0.722038 0.158436
O O7 0.819786 0.659538 0.244294
O O8 0.263781 0.500000 0.383123
O O9 0.350147 0.754794 0.321046
O O10 0.396135 0.714028 0.386938
O O11 0.000000 0.723328 0.500000
O O12 0.500000 0.798518 0.500000
O O13 0.571871 0.780609 0.394607
O O14 0.915743 0.740560 0.323778
O O15 0.752882 0.000000 0.370215
O O16 0.554299 0.216221 0.174490
O O17 0.549959 0.000000 0.231279
O O18 0.356746 0.270699 0.173251
O O19 0.455528 0.000000 0.156745
O O20 0.476757 0.500000 0.606987
O O21 0.872497 0.500000 0.768956
#
# Coordination Sequence:
#
# PCOD8064477 Si02
#       8
#     4   4   4   4   4   4   4   4
#     4  10  20  35  59  86 111 149 194 233 284 343
#     4   9  18  34  56  80 109 144 184 236 282 327
#     4  10  21  37  57  83 114 148 188 234 285 337
#     4  10  21  36  57  84 111 144 187 233 283 339
#     4  10  21  38  59  83 114 151 193 238 284 337
#     4  10  22  39  57  82 119 154 188 237 288 340
#     4   9  18  34  54  78 110 147 185 230 282 332
#     4  10  22  39  57  81 114 151 190 233 287 341
#
# _framework density 19.025822000000002
#
# number of rings (size 3 to 8) (size 9 to 14) (size 15 to 20)
#    0.000    2.250    1.250    1.875    0.000    8.250 
#    0.000    5.000    0.000    2.250    0.000    0.000 
#    0.000    0.000    0.000    0.000    0.000    0.000 
#
# Total GULP energy -396809.576238 kJ/mol
# GULP energy per Si atom -12400.299257 kJ/mol
# Density = 1.898252 g / cm^3
# Si number density = 19.025822 Si / 1000 Ang^3
#
#
#
# Elastic Constant Matrix: (Units=GPa)
#
#
# Indices 1 2 3 4 5 6 
#
# 1 106.0145 43.6774 53.2693 0.0000 1.9134 0.0000
# 2 43.6774 59.5458 42.8359 0.0000 7.3240 0.0000
# 3 53.2693 42.8359 95.0002 0.0000 14.6470 0.0000
# 4 0.0000 0.0000 0.0000 148.7480 0.0000 28.2521
# 5 1.9134 7.3240 14.6470 0.0000 24.5320 0.0000
# 6 0.0000 0.0000 0.0000 28.2521 0.0000 37.5008
#
#
#
# Elastic Compliance Matrix: (Units=1/GPa)
#
#
# Indices 1 2 3 4 5 6 
#
# 1 0.015491 -0.007652 -0.005950 0.000000 0.004629 0.000000
# 2 -0.007652 0.028651 -0.008151 0.000000 -0.003090 0.000000
# 3 -0.005950 -0.008151 0.018824 0.000000 -0.008341 0.000000
# 4 0.000000 0.000000 0.000000 0.007845 0.000000 -0.005910
# 5 0.004629 -0.003090 -0.008341 0.000000 0.046305 0.000000
# 6 0.000000 0.000000 0.000000 -0.005910 0.000000 0.031119
#
#
# Mechanical properties :
#
#
# Convention : Reuss Voigt Hill
#
# Bulk Modulus (GPa) = 51.38914 60.01397 55.70155
# Shear Modulus (GPa) = 25.22338 50.20803 37.71570
#
# Velocity S-wave (km/s) = 3.64503 5.14264 4.45718
# Velocity P-wave (km/s) = 6.69207 8.17766 7.47188
#
# Compressibility (1/GPa) = 0.01945936
#
# Stress axis : x y z
#
# Youngs Moduli (GPa) = 64.55211 34.90289 53.12376
#
# Poissons Ratio (x) = 0.26709 0.31606
# Poissons Ratio (y) = 0.49398 0.43304
# Poissons Ratio (z) = 0.38406 0.28451
#
# Static dielectric constant tensor:
#      x y z
#    x 3.546530 0.000000 -0.007440 
#    y 0.000000 3.442160 0.000000 
#    z -0.007440 0.000000 3.413330 
# 
# 
# High freq. dielectric constant tensor:
#      x y z
#    x 1.745320 0.000000 0.000910 
#    y 0.000000 1.733130 0.000000 
#    z 0.000910 0.000000 1.736870 
# 
# From -- ./inp_files/94977.got.cif
#   From: 2010.06.25/outbox.cif.g09.slc.cpg/sg10_48_cif.got.tgz:94977.got - 2010.06.27 22:07:45.
