data_PCOD8064628
_publ_section_title
;
Structure prediction by ZEFSAII (Michael W. Deem and Ramdas Pophale) SiO2 
 PCOD8064628
Probable space group: P 2/M
;
_chemical_formula_sum "Si O2"
_cell_formula_units_Z 28
_cell_length_a 9.850666
_cell_length_b 9.001787
_cell_length_c 29.560077
_cell_angle_alpha 90.000000
_cell_angle_beta 33.580908
_cell_angle_gamma 90.000000
_cell_volume 1449.821441
_symmetry_space_group_name_H-M "P 2/M"
_symmetry_group_IT_number 10
_symmetry_cell_setting 'monoclinic'
loop_
_space_group_symop_operation_xyz
x,y,z
-x,y,-z
-x,-y,-z
x,-y,z
loop_
_atom_site_type_symbol
_atom_site_label
_atom_site_fract_x
_atom_site_fract_y
_atom_site_fract_z
Si Si1 0.976943 0.671665 0.822963
Si Si2 0.497664 0.332295 0.100934
Si Si3 0.204275 0.676375 0.357508
Si Si4 0.491818 0.676375 0.642491
Si Si5 0.654786 0.322576 0.500000
Si Si6 0.919320 0.174905 0.932272
Si Si7 0.408240 0.328335 0.822964
O O1 0.006865 0.500000 0.828764
O O2 0.776282 0.694385 0.840161
O O3 0.889570 0.762089 0.890478
O O4 0.232742 0.736663 0.733102
O O5 0.587497 0.500000 0.065001
O O6 0.477087 0.305616 0.159839
O O7 0.682431 0.217716 0.027028
O O8 0.195983 0.500000 0.357398
O O9 0.291791 0.727723 0.383284
O O10 0.398252 0.736663 0.266898
O O11 0.934080 0.738754 0.420792
O O12 0.482971 0.500000 0.642602
O O13 0.538040 0.738754 0.579208
O O14 0.500000 0.261307 0.500000
O O15 0.652953 0.500000 0.500000
O O16 0.158041 0.237911 0.890478
O O17 0.938899 0.000000 0.924441
O O18 0.349315 0.500000 0.828764
#
# Coordination Sequence:
#
# PCOD8064628 Si02
#       7
#     4   4   4   4   4   4   4
#     4  10  20  36  57  81 109 145 186 227 270 323
#     4  10  22  36  56  81 109 143 184 228 277 328
#     4   9  16  28  47  71 105 145 178 210 259 320
#     4   9  16  28  47  71 105 145 178 210 259 320
#     4   9  17  25  41  75 115 142 166 211 268 322
#     4  12  24  38  56  79 108 143 186 230 280 330
#     4  10  20  36  57  81 109 145 186 227 270 323
#
# _framework density 19.312723999999999
#
# number of rings (size 3 to 8) (size 9 to 14) (size 15 to 20)
#    0.000    2.143    1.429    2.571    2.000    6.286 
#    0.000    0.000    0.000    0.000    0.000    2.000 
#    0.000    1.143    0.000    0.000    0.000    0.000 
#
# Total GULP energy -347208.389967 kJ/mol
# GULP energy per Si atom -12400.299642 kJ/mol
# Density = 1.926877 g / cm^3
# Si number density = 19.312724 Si / 1000 Ang^3
#
#
#
# Elastic Constant Matrix: (Units=GPa)
#
#
# Indices 1 2 3 4 5 6 
#
# 1 163.9670 24.4553 58.0019 0.0000 2.0932 0.0000
# 2 24.4553 46.5505 16.4759 0.0000 0.4503 0.0000
# 3 58.0019 16.4759 115.2781 0.0000 0.6543 0.0000
# 4 0.0000 0.0000 0.0000 -0.3198 0.0000 0.1421
# 5 2.0932 0.4503 0.6543 0.0000 34.5164 0.0000
# 6 0.0000 0.0000 0.0000 0.1421 0.0000 2.1970
#
#
#
# Elastic Compliance Matrix: (Units=1/GPa)
#
#
# Indices 1 2 3 4 5 6 
#
# 1 0.007764 -0.002837 -0.003499 0.000000 -0.000368 0.000000
# 2 -0.002837 0.023665 -0.001954 0.000000 -0.000100 0.000000
# 3 -0.003499 -0.001954 0.010714 0.000000 0.000035 0.000000
# 4 0.000000 0.000000 0.000000 -3.039191 0.000000 0.196580
# 5 -0.000368 -0.000100 0.000035 0.000000 0.028995 0.000000
# 6 0.000000 0.000000 0.000000 0.196580 0.000000 0.442459
#
#
# Mechanical properties :
#
#
# Convention : Reuss Voigt Hill
#
# Bulk Modulus (GPa) = 39.11889 58.18464 48.65177
# Shear Modulus (GPa) = -1.99961 22.40286 10.20163
#
# Velocity S-wave (km/s) = -1.01864 3.40958 2.30083
# Velocity P-wave (km/s) = 4.34925 6.75968 5.68372
#
# Compressibility (1/GPa) = 0.02556310
#
# Stress axis : x y z
#
# Youngs Moduli (GPa) = 128.79332 42.25627 93.33289
#
# Poissons Ratio (x) = 0.11988 0.32658
# Poissons Ratio (y) = 0.36539 0.18240
# Poissons Ratio (z) = 0.45066 0.08258
#
# Static dielectric constant tensor:
#      x y z
#    x 3.758290 0.000000 0.002710 
#    y 0.000000 2.962050 0.000000 
#    z 0.002710 0.000000 3.710200 
# 
# 
# High freq. dielectric constant tensor:
#      x y z
#    x 1.771690 0.000000 0.000510 
#    y 0.000000 1.683000 0.000000 
#    z 0.000510 0.000000 1.762620 
# 
# From -- ./inp_files/36670.got.cif
#   From: 2010.06.25/outbox.cif.g09.slc.cpg/sg10_19_cif.got.tgz:36670.got - 2010.06.27 22:07:45.
