data_PCOD8064227
_publ_section_title
;
Structure prediction by ZEFSAII (Michael W. Deem and Ramdas Pophale) SiO2 
 PCOD8064227
Probable space group: P 2/M
;
_chemical_formula_sum "Si O2"
_cell_formula_units_Z 28
_cell_length_a 9.245796
_cell_length_b 8.958957
_cell_length_c 29.335285
_cell_angle_alpha 90.000000
_cell_angle_beta 37.844884
_cell_angle_gamma 90.000000
_cell_volume 1490.819066
_symmetry_space_group_name_H-M "P 2/M"
_symmetry_group_IT_number 10
_symmetry_cell_setting 'monoclinic'
loop_
_space_group_symop_operation_xyz
x,y,z
-x,y,-z
-x,-y,-z
x,-y,z
loop_
_atom_site_type_symbol
_atom_site_label
_atom_site_fract_x
_atom_site_fract_y
_atom_site_fract_z
Si Si1 0.334111 0.325498 0.133230
Si Si2 0.171578 0.175498 0.998586
Si Si3 0.996612 0.322491 0.867012
Si Si4 0.518937 0.326471 0.729831
Si Si5 0.766083 0.175740 0.430047
Si Si6 0.130686 0.325756 0.281073
Si Si7 0.055180 0.673609 0.435303
O O1 0.400360 0.500000 0.113201
O O2 0.181122 0.292074 0.216072
O O3 0.181921 0.270840 0.128036
O O4 0.568288 0.228990 0.078649
O O5 0.087315 0.257809 0.064576
O O6 0.171811 0.000000 0.007401
O O7 0.000000 0.220107 0.000000
O O8 0.996369 0.500000 0.870247
O O9 0.257500 0.256304 0.790884
O O10 0.481190 0.500000 0.747336
O O11 0.658488 0.262086 0.739204
O O12 0.670380 0.296164 0.646151
O O13 0.500000 0.233205 0.500000
O O14 0.886666 0.246545 0.355284
O O15 0.893343 0.226478 0.444082
O O16 0.780648 0.000000 0.421573
O O17 0.098472 0.500000 0.298903
O O18 0.993362 0.500000 0.443110
O O19 0.000000 0.724989 0.500000
#
# Coordination Sequence:
#
# PCOD8064227 Si02
#       7
#     4   4   4   4   4   4   4
#     4  10  21  36  57  85 110 135 171 216 267 318
#     4  11  24  39  55  77 106 142 182 218 256 308
#     4  10  20  35  56  81 109 138 171 215 266 318
#     4   8  15  30  51  75 103 135 171 213 261 311
#     4  10  21  35  51  75 109 146 181 217 261 315
#     4   9  18  34  55  77 103 138 180 221 261 309
#     4   9  18  33  55  81 106 136 178 225 270 315
#
# _framework density 18.781621999999999
#
# number of rings (size 3 to 8) (size 9 to 14) (size 15 to 20)
#    0.000    2.429    0.000    3.000    0.000    7.714 
#    0.000    7.143    0.000    0.000    0.000    0.000 
#    0.000    0.000    0.000    0.000    0.000    0.000 
#
# Total GULP energy -347177.067955 kJ/mol
# GULP energy per Si atom -12399.180998 kJ/mol
# Density = 1.873887 g / cm^3
# Si number density = 18.781622 Si / 1000 Ang^3
#
#
#
# Elastic Constant Matrix: (Units=GPa)
#
#
# Indices 1 2 3 4 5 6 
#
# 1 116.6369 28.9880 68.6958 0.0000 -3.5647 0.0000
# 2 28.9880 28.5221 30.5441 0.0000 -7.3767 0.0000
# 3 68.6958 30.5441 127.9191 0.0000 -3.0946 0.0000
# 4 0.0000 0.0000 0.0000 15.0509 0.0000 -6.0292
# 5 -3.5647 -7.3767 -3.0946 0.0000 41.6484 0.0000
# 6 0.0000 0.0000 0.0000 -6.0292 0.0000 21.2750
#
#
#
# Elastic Compliance Matrix: (Units=1/GPa)
#
#
# Indices 1 2 3 4 5 6 
#
# 1 0.013854 -0.008436 -0.005443 0.000000 -0.000713 0.000000
# 2 -0.008436 0.054718 -0.008333 0.000000 0.008350 0.000000
# 3 -0.005443 -0.008333 0.012706 0.000000 -0.000998 0.000000
# 4 0.000000 0.000000 0.000000 0.074950 0.000000 0.021240
# 5 -0.000713 0.008350 -0.000998 0.000000 0.025354 0.000000
# 6 0.000000 0.000000 0.000000 0.021240 0.000000 0.053023
#
#
# Mechanical properties :
#
#
# Convention : Reuss Voigt Hill
#
# Bulk Modulus (GPa) = 27.13410 58.83709 42.98559
# Shear Modulus (GPa) = 17.16367 25.25156 21.20762
#
# Velocity S-wave (km/s) = 3.02628 3.67070 3.36396
# Velocity P-wave (km/s) = 5.16621 7.02569 6.16644
#
# Compressibility (1/GPa) = 0.03685400
#
# Stress axis : x y z
#
# Youngs Moduli (GPa) = 72.18023 18.27566 78.70283
#
# Poissons Ratio (x) = 0.15417 0.42838
# Poissons Ratio (y) = 0.60891 0.65582
# Poissons Ratio (z) = 0.39288 0.15229
#
# Static dielectric constant tensor:
#      x y z
#    x 3.586440 0.000000 -0.116890 
#    y 0.000000 3.215060 0.000000 
#    z -0.116890 0.000000 3.693050 
# 
# 
# High freq. dielectric constant tensor:
#      x y z
#    x 1.728440 0.000000 -0.001090 
#    y 0.000000 1.705510 0.000000 
#    z -0.001090 0.000000 1.747310 
# 
# From -- ./inp_files/91934.got.cif
#   From: 2010.06.25/outbox.cif.g09.slc.cpg/sg10_46_cif.got.tgz:91934.got - 2010.06.27 22:07:45.
