data_PCOD8064084
_publ_section_title
;
Structure prediction by ZEFSAII (Michael W. Deem and Ramdas Pophale) SiO2 
 PCOD8064084
Probable space group: P 2/M
;
_chemical_formula_sum "Si O2"
_cell_formula_units_Z 28
_cell_length_a 15.011419
_cell_length_b 11.580366
_cell_length_c 9.838837
_cell_angle_alpha 90.000000
_cell_angle_beta 113.661674
_cell_angle_gamma 90.000000
_cell_volume 1566.573149
_symmetry_space_group_name_H-M "P 2/M"
_symmetry_group_IT_number 10
_symmetry_cell_setting 'monoclinic'
loop_
_space_group_symop_operation_xyz
x,y,z
-x,y,-z
-x,-y,-z
x,-y,z
loop_
_atom_site_type_symbol
_atom_site_label
_atom_site_fract_x
_atom_site_fract_y
_atom_site_fract_z
Si Si1 0.478056 0.500000 0.146116
Si Si2 0.403668 0.744330 0.149598
Si Si3 0.325083 0.745172 0.396717
Si Si4 0.399248 0.500000 0.521059
Si Si5 0.131313 0.137478 0.210195
Si Si6 0.596901 0.866643 0.301837
Si Si7 0.730738 0.132933 0.142092
Si Si8 0.919599 0.865902 0.120207
O O1 0.411117 0.607619 0.142009
O O2 0.575224 0.500000 0.301379
O O3 0.500000 0.500000 0.000000
O O4 0.370575 0.776621 0.279990
O O5 0.507014 0.801581 0.176646
O O6 0.325182 0.786461 0.995435
O O7 0.334511 0.610740 0.442320
O O8 0.213702 0.787045 0.334472
O O9 0.387888 0.819528 0.539205
O O10 0.500000 0.500000 0.500000
O O11 0.028872 0.179463 0.215496
O O12 0.152619 0.000000 0.241668
O O13 0.127259 0.177331 0.050113
O O14 0.694170 0.843834 0.272289
O O15 0.569860 0.000000 0.291529
O O16 0.846049 0.162854 0.199480
O O17 0.712613 0.000000 0.088817
O O18 0.934946 0.000000 0.107217
#
# Coordination Sequence:
#
# PCOD8064084 Si02
#       8
#     2   4   4   2   4   4   4   4
#     4  12  24  40  60  79 102 147 199 229 262 318
#     4  12  22  36  56  78 109 147 187 225 264 327
#     4  12  22  36  56  78 111 145 184 227 273 332
#     4  12  22  42  54  76 112 149 186 227 272 315
#     4   9  17  31  55  86 108 138 187 230 273 327
#     4  11  23  34  49  80 117 147 178 222 274 335
#     4  10  20  35  54  81 114 147 180 223 281 326
#     4   8  15  31  55  80 110 141 181 232 272 321
#
# _framework density 17.873407
#
# number of rings (size 3 to 8) (size 9 to 14) (size 15 to 20)
#    0.000    1.429    4.286    3.429    0.000    3.429 
#    0.000    0.714    0.000    6.000    0.000    1.000 
#    0.000    0.000    0.000    0.000    0.000    0.000 
#
# Total GULP energy -347130.990556 kJ/mol
# GULP energy per Si atom -12397.535377 kJ/mol
# Density = 1.783273 g / cm^3
# Si number density = 17.873407 Si / 1000 Ang^3
#
#
#
# Elastic Constant Matrix: (Units=GPa)
#
#
# Indices 1 2 3 4 5 6 
#
# 1 95.2562 45.0417 17.3067 0.0000 11.7800 0.0000
# 2 45.0417 92.7860 31.3019 0.0000 8.2183 0.0000
# 3 17.3067 31.3019 59.1622 0.0000 2.5802 0.0000
# 4 0.0000 0.0000 0.0000 24.5361 0.0000 -3.0581
# 5 11.7800 8.2183 2.5802 0.0000 30.5233 0.0000
# 6 0.0000 0.0000 0.0000 -3.0581 0.0000 -2.4262
#
#
#
# Elastic Compliance Matrix: (Units=1/GPa)
#
#
# Indices 1 2 3 4 5 6 
#
# 1 0.014033 -0.006276 -0.000624 0.000000 -0.003673 0.000000
# 2 -0.006276 0.016198 -0.006674 0.000000 -0.001375 0.000000
# 3 -0.000624 -0.006674 0.020603 0.000000 0.000296 0.000000
# 4 0.000000 0.000000 0.000000 0.035223 0.000000 -0.044397
# 5 -0.003673 -0.001375 0.000296 0.000000 0.034525 0.000000
# 6 0.000000 0.000000 0.000000 -0.044397 0.000000 -0.356209
#
#
# Mechanical properties :
#
#
# Convention : Reuss Voigt Hill
#
# Bulk Modulus (GPa) = 42.22019 48.27834 45.24927
# Shear Modulus (GPa) = -24.92733 20.76359 -2.08187
#
# Velocity S-wave (km/s) = -3.73857 3.41207 -1.08042
# Velocity P-wave (km/s) = 2.24438 6.52632 4.88007
#
# Compressibility (1/GPa) = 0.02368535
#
# Stress axis : x y z
#
# Youngs Moduli (GPa) = 71.25818 61.73786 48.53561
#
# Poissons Ratio (x) = 0.38749 0.03030
# Poissons Ratio (y) = 0.44725 0.32392
# Poissons Ratio (z) = 0.04448 0.41203
#
# Static dielectric constant tensor:
#      x y z
#    x 3.557500 0.000000 -0.005950 
#    y 0.000000 3.220970 0.000000 
#    z -0.005950 0.000000 3.273690 
# 
# 
# High freq. dielectric constant tensor:
#      x y z
#    x 1.695580 0.000000 -0.004820 
#    y 0.000000 1.672280 0.000000 
#    z -0.004820 0.000000 1.683540 
# 
# From -- ./inp_files/28284.got.cif
#   From: 2010.06.25/outbox.cif.g09.slc.cpg/sg10_15_cif.got.tgz:28284.got - 2010.06.27 22:07:45.
