data_PCOD8064068
_publ_section_title
;
Structure prediction by ZEFSAII (Michael W. Deem and Ramdas Pophale) SiO2 
 PCOD8064068
Probable space group: P 2/M
;
_chemical_formula_sum "Si O2"
_cell_formula_units_Z 32
_cell_length_a 14.343357
_cell_length_b 8.675859
_cell_length_c 19.533319
_cell_angle_alpha 90.000000
_cell_angle_beta 46.656358
_cell_angle_gamma 90.000000
_cell_volume 1767.759427
_symmetry_space_group_name_H-M "P 2/M"
_symmetry_group_IT_number 10
_symmetry_cell_setting 'monoclinic'
loop_
_space_group_symop_operation_xyz
x,y,z
-x,y,-z
-x,-y,-z
x,-y,z
loop_
_atom_site_type_symbol
_atom_site_label
_atom_site_fract_x
_atom_site_fract_y
_atom_site_fract_z
Si Si1 0.238256 0.681372 0.311625
Si Si2 0.130533 0.317635 0.642668
Si Si3 0.623686 0.818609 0.976711
Si Si4 0.467076 0.677576 0.845631
Si Si5 0.374593 0.319719 0.599946
Si Si6 0.515326 0.321221 0.314957
Si Si7 0.865802 0.182544 0.770411
Si Si8 0.242145 0.819418 0.453626
O O1 0.222668 0.500000 0.330005
O O2 0.384797 0.725848 0.220396
O O3 0.148060 0.740845 0.296903
O O4 0.195607 0.765762 0.402471
O O5 0.115335 0.500000 0.656680
O O6 0.244266 0.250889 0.633933
O O7 0.157122 0.271487 0.551223
O O8 0.000305 0.237305 0.734276
O O9 0.753357 0.755179 0.876839
O O10 0.620775 0.000000 0.971723
O O11 0.500000 0.747001 0.000000
O O12 0.620431 0.773424 0.058160
O O13 0.446907 0.500000 0.873453
O O14 0.422394 0.715656 0.790382
O O15 0.500000 0.246639 0.500000
O O16 0.373686 0.500000 0.584375
O O17 0.380755 0.285940 0.678306
O O18 0.470392 0.500000 0.339602
O O19 0.391084 0.218314 0.390729
O O20 0.861272 0.000000 0.764896
O O21 0.218739 0.000000 0.474238
#
# Coordination Sequence:
#
# PCOD8064068 Si02
#       8
#     4   4   4   4   4   4   4   4
#     4  10  20  35  54  78 107 143 182 220 260 313
#     4  11  22  37  56  78 106 144 183 220 266 319
#     4  10  20  35  55  77 105 142 177 214 264 321
#     4   9  18  30  52  82 109 133 170 225 266 306
#     4   9  16  31  58  82 104 138 179 223 265 312
#     4   9  17  33  54  81 110 139 177 221 270 313
#     4  11  23  38  54  77 109 142 177 222 270 319
#     4  11  21  33  51  78 111 146 179 217 262 314
#
# _framework density 18.10201
#
# number of rings (size 3 to 8) (size 9 to 14) (size 15 to 20)
#    0.000    2.000    2.500    3.000    0.000    3.750 
#    0.000    4.375    0.000    0.750    0.000    5.250 
#    0.000    0.000    0.000    0.000    0.000    0.000 
#
# Total GULP energy -396824.362487 kJ/mol
# GULP energy per Si atom -12400.761328 kJ/mol
# Density = 1.806081 g / cm^3
# Si number density = 18.102010 Si / 1000 Ang^3
#
#
#
# Elastic Constant Matrix: (Units=GPa)
#
#
# Indices 1 2 3 4 5 6 
#
# 1 117.9765 14.4013 59.8724 0.0000 -0.4028 0.0000
# 2 14.4013 34.8696 13.0537 0.0000 -0.3215 0.0000
# 3 59.8724 13.0537 106.7494 0.0000 -0.3032 0.0000
# 4 0.0000 0.0000 0.0000 27.6840 0.0000 -1.8994
# 5 -0.4028 -0.3215 -0.3032 0.0000 26.3008 0.0000
# 6 0.0000 0.0000 0.0000 -1.8994 0.0000 14.7728
#
#
#
# Elastic Compliance Matrix: (Units=1/GPa)
#
#
# Indices 1 2 3 4 5 6 
#
# 1 0.012064 -0.002566 -0.006453 0.000000 0.000079 0.000000
# 2 -0.002566 0.030603 -0.002302 0.000000 0.000308 0.000000
# 3 -0.006453 -0.002302 0.013268 0.000000 0.000026 0.000000
# 4 0.000000 0.000000 0.000000 0.036443 0.000000 0.004686
# 5 0.000079 0.000308 0.000026 0.000000 0.038027 0.000000
# 6 0.000000 0.000000 0.000000 0.004686 0.000000 0.068294
#
#
# Mechanical properties :
#
#
# Convention : Reuss Voigt Hill
#
# Bulk Modulus (GPa) = 30.03559 48.25004 39.14282
# Shear Modulus (GPa) = 21.51096 25.23608 23.37352
#
# Velocity S-wave (km/s) = 3.45094 3.73782 3.59724
# Velocity P-wave (km/s) = 5.70150 6.73356 6.23890
#
# Compressibility (1/GPa) = 0.03329383
#
# Stress axis : x y z
#
# Youngs Moduli (GPa) = 82.88838 32.67680 75.36760
#
# Poissons Ratio (x) = 0.08386 0.48631
# Poissons Ratio (y) = 0.21272 0.17349
# Poissons Ratio (z) = 0.53484 0.07522
#
# Static dielectric constant tensor:
#      x y z
#    x 3.434260 0.000000 0.061010 
#    y 0.000000 3.148050 0.000000 
#    z 0.061010 0.000000 3.337090 
# 
# 
# High freq. dielectric constant tensor:
#      x y z
#    x 1.693110 0.000000 0.013010 
#    y 0.000000 1.689940 0.000000 
#    z 0.013010 0.000000 1.688500 
# 
# From -- ./inp_files/84721.got.cif
#   From: 2010.06.25/outbox.cif.g09.slc.cpg/sg10_43_cif.got.tgz:84721.got - 2010.06.27 22:07:45.
