data_PCOD8064407
_publ_section_title
;
Structure prediction by ZEFSAII (Michael W. Deem and Ramdas Pophale) SiO2 
 PCOD8064407
Probable space group: P 2/M
;
_chemical_formula_sum "Si O2"
_cell_formula_units_Z 24
_cell_length_a 24.793592
_cell_length_b 7.748018
_cell_length_c 11.720099
_cell_angle_alpha 90.000000
_cell_angle_beta 29.384726
_cell_angle_gamma 90.000000
_cell_volume 1104.719889
_symmetry_space_group_name_H-M "P 2/M"
_symmetry_group_IT_number 10
_symmetry_cell_setting 'monoclinic'
loop_
_space_group_symop_operation_xyz
x,y,z
-x,y,-z
-x,-y,-z
x,-y,z
loop_
_atom_site_type_symbol
_atom_site_label
_atom_site_fract_x
_atom_site_fract_y
_atom_site_fract_z
Si Si1 0.418408 0.301620 0.992041
Si Si2 0.772242 0.307320 0.490522
Si Si3 0.068619 0.000000 0.753763
Si Si4 0.381495 0.794413 0.678629
Si Si5 0.927899 0.000000 0.515301
Si Si6 0.350219 0.193965 0.484889
Si Si7 0.759182 0.697478 0.862749
O O1 0.454084 0.500000 0.921483
O O2 0.529583 0.192996 0.794941
O O3 0.344463 0.262048 0.237954
O O4 0.347517 0.247766 0.012819
O O5 0.813182 0.500000 0.447187
O O6 0.745308 0.296750 0.405894
O O7 0.861542 0.174314 0.370422
O O8 0.015595 0.000000 0.719639
O O9 0.000000 0.000000 0.000000
O O10 0.500000 0.723155 0.500000
O O11 0.361487 0.724094 0.588753
O O12 0.378877 0.000000 0.691295
O O13 0.279541 0.715843 0.936000
O O14 0.857735 0.174901 0.650602
O O15 0.000000 0.000000 0.500000
O O16 0.306426 0.000000 0.571396
O O17 0.796066 0.500000 0.768232
#
# Coordination Sequence:
#
# PCOD8064407 Si02
#       7
#     4   4   2   4   2   4   4
#     4  10  21  36  60  95 133 176 221 260 312 392
#     4  11  24  44  67  96 134 176 221 275 333 400
#     4  12  28  50  76 101 128 170 228 285 355 416
#     4  10  20  35  57  91 138 184 223 265 316 383
#     4  12  28  50  76 100 132 166 218 298 353 400
#     4  11  22  33  60 100 141 184 226 266 319 389
#     4  11  23  41  69  98 130 178 224 263 328 401
#
# _framework density 21.724964
#
# number of rings (size 3 to 8) (size 9 to 14) (size 15 to 20)
#    0.000    1.167    5.000    1.000    2.333    5.667 
#    0.000    0.000    0.000    0.000    0.000    0.000 
#    0.000    0.000    0.000    0.000    0.000    0.000 
#
# Total GULP energy -297403.331487 kJ/mol
# GULP energy per Si atom -12391.805479 kJ/mol
# Density = 2.167552 g / cm^3
# Si number density = 21.724964 Si / 1000 Ang^3
#
#
#
# Elastic Constant Matrix: (Units=GPa)
#
#
# Indices 1 2 3 4 5 6 
#
# 1 138.5761 25.0856 34.9162 0.0000 20.2911 0.0000
# 2 25.0856 91.3623 28.1368 0.0000 0.3180 0.0000
# 3 34.9162 28.1368 54.2684 0.0000 18.8106 0.0000
# 4 0.0000 0.0000 0.0000 16.2381 0.0000 6.1166
# 5 20.2911 0.3180 18.8106 0.0000 31.2448 0.0000
# 6 0.0000 0.0000 0.0000 6.1166 0.0000 12.0356
#
#
#
# Elastic Compliance Matrix: (Units=1/GPa)
#
#
# Indices 1 2 3 4 5 6 
#
# 1 0.008928 -0.001233 -0.003917 0.000000 -0.003428 0.000000
# 2 -0.001233 0.013836 -0.008352 0.000000 0.005688 0.000000
# 3 -0.003917 -0.008352 0.030792 0.000000 -0.015909 0.000000
# 4 0.000000 0.000000 0.000000 0.076164 0.000000 -0.038707
# 5 -0.003428 0.005688 -0.015909 0.000000 0.043751 0.000000
# 6 0.000000 0.000000 0.000000 -0.038707 0.000000 0.102758
#
#
# Mechanical properties :
#
#
# Convention : Reuss Voigt Hill
#
# Bulk Modulus (GPa) = 37.66193 51.16488 44.41341
# Shear Modulus (GPa) = 16.02124 24.97489 20.49806
#
# Velocity S-wave (km/s) = 2.71856 3.39424 3.07502
# Velocity P-wave (km/s) = 5.21800 6.24208 5.75287
#
# Compressibility (1/GPa) = 0.02655201
#
# Stress axis : x y z
#
# Youngs Moduli (GPa) = 112.00317 72.27293 32.47608
#
# Poissons Ratio (x) = 0.08913 0.12721
# Poissons Ratio (y) = 0.13812 0.27124
# Poissons Ratio (z) = 0.43872 0.60363
#
# Static dielectric constant tensor:
#      x y z
#    x 4.300180 0.000000 0.363780 
#    y 0.000000 3.808960 0.000000 
#    z 0.363780 0.000000 3.710180 
# 
# 
# High freq. dielectric constant tensor:
#      x y z
#    x 1.866630 0.000000 0.027380 
#    y 0.000000 1.854550 0.000000 
#    z 0.027380 0.000000 1.819430 
# 
# From -- ./inp_files/56560.got.cif
#   From: 2010.06.25/outbox.cif.g09.slc.cpg/sg10_29_cif.got.tgz:56560.got - 2010.06.27 22:07:45.
