data_PCOD8064609
_publ_section_title
;
Structure prediction by ZEFSAII (Michael W. Deem and Ramdas Pophale) SiO2 
 PCOD8064609
Probable space group: P 2/M
;
_chemical_formula_sum "Si O2"
_cell_formula_units_Z 28
_cell_length_a 11.441343
_cell_length_b 8.767548
_cell_length_c 14.777961
_cell_angle_alpha 90.000000
_cell_angle_beta 77.150794
_cell_angle_gamma 90.000000
_cell_volume 1445.293019
_symmetry_space_group_name_H-M "P 2/M"
_symmetry_group_IT_number 10
_symmetry_cell_setting 'monoclinic'
loop_
_space_group_symop_operation_xyz
x,y,z
-x,y,-z
-x,-y,-z
x,-y,z
loop_
_atom_site_type_symbol
_atom_site_label
_atom_site_fract_x
_atom_site_fract_y
_atom_site_fract_z
Si Si1 0.361917 0.820001 0.520522
Si Si2 0.266370 0.320655 0.358074
Si Si3 0.767640 0.175725 0.915283
Si Si4 0.705224 0.817612 0.118509
Si Si5 0.194834 0.180495 0.711690
Si Si6 0.070935 0.817902 0.271935
Si Si7 0.563972 0.823636 0.813463
O O1 0.500000 0.767089 0.500000
O O2 0.290088 0.734443 0.455116
O O3 0.299207 0.769659 0.625024
O O4 0.352239 0.000000 0.505493
O O5 0.251992 0.500000 0.358743
O O6 0.141758 0.247509 0.345609
O O7 0.377559 0.271624 0.277147
O O8 0.868494 0.246361 0.831464
O O9 0.636780 0.197588 0.893802
O O10 0.799541 0.000000 0.921718
O O11 0.765752 0.249887 0.016200
O O12 0.776365 0.754184 0.193368
O O13 0.568702 0.760094 0.147695
O O14 0.705215 0.000000 0.114958
O O15 0.065542 0.241648 0.701256
O O16 0.189051 0.000000 0.718904
O O17 0.081262 0.000000 0.274135
O O18 0.563812 0.000000 0.782551
#
# Coordination Sequence:
#
# PCOD8064609 Si02
#       7
#     4   4   4   4   4   4   4
#     4  10  20  36  57  79 103 132 164 200 249 305
#     4  11  22  35  53  75 100 132 169 211 255 296
#     4   8  14  24  44  74 105 135 164 201 248 294
#     4   9  15  25  46  78 108 131 163 207 251 294
#     4   9  18  30  48  75 103 132 168 209 248 293
#     4   9  18  34  52  73 102 134 170 207 246 294
#     4   9  16  29  50  76 105 135 167 204 249 301
#
# _framework density 19.373234
#
# number of rings (size 3 to 8) (size 9 to 14) (size 15 to 20)
#    0.000    2.714    0.000    3.429    0.000    5.429 
#    0.000    6.429    0.000    7.714    0.000    4.000 
#    0.000    0.000    0.000    0.000    0.000    0.000 
#
# Total GULP energy -347108.549214 kJ/mol
# GULP energy per Si atom -12396.733901 kJ/mol
# Density = 1.932914 g / cm^3
# Si number density = 19.373234 Si / 1000 Ang^3
#
#
#
# Elastic Constant Matrix: (Units=GPa)
#
#
# Indices 1 2 3 4 5 6 
#
# 1 144.6655 23.4876 65.9916 0.0000 -3.9151 0.0000
# 2 23.4876 34.9025 23.8149 0.0000 4.1422 0.0000
# 3 65.9916 23.8149 117.3605 0.0000 15.7525 0.0000
# 4 0.0000 0.0000 0.0000 4.3814 0.0000 -2.0243
# 5 -3.9151 4.1422 15.7525 0.0000 30.0535 0.0000
# 6 0.0000 0.0000 0.0000 -2.0243 0.0000 3.9582
#
#
#
# Elastic Compliance Matrix: (Units=1/GPa)
#
#
# Indices 1 2 3 4 5 6 
#
# 1 0.010201 -0.003576 -0.005653 0.000000 0.004785 0.000000
# 2 -0.003576 0.034545 -0.004623 0.000000 -0.002804 0.000000
# 3 -0.005653 -0.004623 0.013608 0.000000 -0.007232 0.000000
# 4 0.000000 0.000000 0.000000 0.298851 0.000000 0.152841
# 5 0.004785 -0.002804 -0.007232 0.000000 0.038074 0.000000
# 6 0.000000 0.000000 0.000000 0.152841 0.000000 0.330809
#
#
# Mechanical properties :
#
#
# Convention : Reuss Voigt Hill
#
# Bulk Modulus (GPa) = 32.62512 58.16853 45.39683
# Shear Modulus (GPa) = 6.54443 19.92091 13.23267
#
# Velocity S-wave (km/s) = 1.83995 3.21014 2.61634
# Velocity P-wave (km/s) = 4.62501 6.62045 5.71057
#
# Compressibility (1/GPa) = 0.03065122
#
# Stress axis : x y z
#
# Youngs Moduli (GPa) = 98.02882 28.94810 73.48610
#
# Poissons Ratio (x) = 0.10351 0.41539
# Poissons Ratio (y) = 0.35052 0.33972
# Poissons Ratio (z) = 0.55413 0.13382
#
# Static dielectric constant tensor:
#      x y z
#    x 3.685620 0.000000 -0.010380 
#    y 0.000000 2.933850 0.000000 
#    z -0.010380 0.000000 3.793110 
# 
# 
# High freq. dielectric constant tensor:
#      x y z
#    x 1.758900 0.000000 0.002550 
#    y 0.000000 1.688650 0.000000 
#    z 0.002550 0.000000 1.764700 
# 
# From -- ./inp_files/49062.got.cif
#   From: 2010.06.25/outbox.cif.g09.slc.cpg/sg10_25_cif.got.tgz:49062.got - 2010.06.27 22:07:45.
