data_PCOD8064715
_publ_section_title
;
Structure prediction by ZEFSAII (Michael W. Deem and Ramdas Pophale) SiO2 
 PCOD8064715
Probable space group: P 2/M
;
_chemical_formula_sum "Si O2"
_cell_formula_units_Z 20
_cell_length_a 12.626031
_cell_length_b 8.925575
_cell_length_c 9.078801
_cell_angle_alpha 90.000000
_cell_angle_beta 89.139969
_cell_angle_gamma 90.000000
_cell_volume 1023.016467
_symmetry_space_group_name_H-M "P 2/M"
_symmetry_group_IT_number 10
_symmetry_cell_setting 'monoclinic'
loop_
_space_group_symop_operation_xyz
x,y,z
-x,y,-z
-x,-y,-z
x,-y,z
loop_
_atom_site_type_symbol
_atom_site_label
_atom_site_fract_x
_atom_site_fract_y
_atom_site_fract_z
Si Si1 0.680221 0.324302 0.849722
Si Si2 0.291252 0.823369 0.841901
Si Si3 0.892314 0.677123 0.317744
Si Si4 0.526859 0.673575 0.333668
Si Si5 0.870704 0.323173 0.648048
O O1 0.695102 0.500000 0.879672
O O2 0.573121 0.290448 0.765490
O O3 0.778379 0.257562 0.753366
O O4 0.671978 0.239819 0.003000
O O5 0.175411 0.761300 0.804037
O O6 0.374096 0.772476 0.716685
O O7 0.286895 0.000000 0.850139
O O8 0.874810 0.500000 0.302259
O O9 0.858437 0.735468 0.480898
O O10 0.015047 0.720394 0.287835
O O11 0.500000 0.718997 0.500000
O O12 0.559958 0.500000 0.322446
O O13 0.859704 0.500000 0.640129
#
# Coordination Sequence:
#
# PCOD8064715 Si02
#       5
#     4   4   4   4   4
#     4  10  20  36  58  83 110 141 180 226 277 326
#     4  12  25  37  51  78 117 154 184 217 264 322
#     4   9  17  35  61  85 109 139 182 231 276 322
#     4  10  21  39  64  87 105 133 179 232 279 325
#     4   8  16  33  61  89 107 133 180 236 281 319
#
# _framework density 19.550025999999999
#
# number of rings (size 3 to 8) (size 9 to 14) (size 15 to 20)
#    0.000    2.200    0.000    4.800    0.000    7.600 
#    0.000   10.000    0.000    0.000    0.000    0.000 
#    0.000    0.000    0.000    0.000    0.000    0.000 
#
# Total GULP energy -248041.121132 kJ/mol
# GULP energy per Si atom -12402.056057 kJ/mol
# Density = 1.950553 g / cm^3
# Si number density = 19.550026 Si / 1000 Ang^3
#
#
#
# Elastic Constant Matrix: (Units=GPa)
#
#
# Indices 1 2 3 4 5 6 
#
# 1 77.4161 29.0706 16.7629 0.0000 7.6291 0.0000
# 2 29.0706 63.3913 28.2642 0.0000 14.1992 0.0000
# 3 16.7629 28.2642 81.6328 0.0000 17.4039 0.0000
# 4 0.0000 0.0000 0.0000 -0.2955 0.0000 -5.6310
# 5 7.6291 14.1992 17.4039 0.0000 34.5224 0.0000
# 6 0.0000 0.0000 0.0000 -5.6310 0.0000 6.9210
#
#
#
# Elastic Compliance Matrix: (Units=1/GPa)
#
#
# Indices 1 2 3 4 5 6 
#
# 1 0.015658 -0.006755 -0.000819 0.000000 -0.000269 0.000000
# 2 -0.006755 0.022355 -0.005278 0.000000 -0.005041 0.000000
# 3 -0.000819 -0.005278 0.015399 0.000000 -0.005411 0.000000
# 4 0.000000 0.000000 0.000000 -0.205046 0.000000 -0.166827
# 5 -0.000269 -0.005041 -0.005411 0.000000 0.033828 0.000000
# 6 0.000000 0.000000 0.000000 -0.166827 0.000000 0.008755
#
#
# Mechanical properties :
#
#
# Convention : Reuss Voigt Hill
#
# Bulk Modulus (GPa) = 36.09120 41.18172 38.63646
# Shear Modulus (GPa) = -67.46697 18.11908 -24.67395
#
# Velocity S-wave (km/s) = -5.88089 3.04765 -3.55645
# Velocity P-wave (km/s) = 5.25472 5.78747 1.71503
#
# Compressibility (1/GPa) = 0.02770758
#
# Stress axis : x y z
#
# Youngs Moduli (GPa) = 63.86662 44.73182 64.93746
#
# Poissons Ratio (x) = 0.30216 0.05319
# Poissons Ratio (y) = 0.43142 0.34277
# Poissons Ratio (z) = 0.05231 0.23611
#
# Static dielectric constant tensor:
#      x y z
#    x 3.833290 0.000000 -0.115530 
#    y 0.000000 3.166730 0.000000 
#    z -0.115530 0.000000 3.697480 
# 
# 
# High freq. dielectric constant tensor:
#      x y z
#    x 1.778610 0.000000 0.003060 
#    y 0.000000 1.719400 0.000000 
#    z 0.003060 0.000000 1.768430 
# 
# From -- ./inp_files/22125.got.cif
#   From: 2010.06.25/outbox.cif.g09.slc.cpg/sg10_12_cif.got.tgz:22125.got - 2010.06.27 22:07:45.
