data_PCOD8064493
_publ_section_title
;
Structure prediction by ZEFSAII (Michael W. Deem and Ramdas Pophale) SiO2 
 PCOD8064493
Probable space group: P 2/M
;
_chemical_formula_sum "Si O2"
_cell_formula_units_Z 32
_cell_length_a 17.061388
_cell_length_b 12.996400
_cell_length_c 14.004396
_cell_angle_alpha 90.000000
_cell_angle_beta 147.436761
_cell_angle_gamma 90.000000
_cell_volume 1671.359364
_symmetry_space_group_name_H-M "P 2/M"
_symmetry_group_IT_number 10
_symmetry_cell_setting 'monoclinic'
loop_
_space_group_symop_operation_xyz
x,y,z
-x,y,-z
-x,-y,-z
x,-y,z
loop_
_atom_site_type_symbol
_atom_site_label
_atom_site_fract_x
_atom_site_fract_y
_atom_site_fract_z
Si Si1 0.629460 0.380512 0.863087
Si Si2 0.581371 0.255826 0.489418
Si Si3 0.036833 0.615651 0.777739
Si Si4 0.466562 0.240670 0.072806
Si Si5 0.932095 0.189731 0.571277
Si Si6 0.871317 0.617742 0.801707
Si Si7 0.321874 0.119849 0.578321
Si Si8 0.799423 0.884177 0.250004
O O1 0.592156 0.500000 0.820791
O O2 0.532950 0.325960 0.684252
O O3 0.586352 0.340239 0.923683
O O4 0.800027 0.358415 0.018307
O O5 0.500000 0.214130 0.500000
O O6 0.723189 0.320153 0.665027
O O7 0.630106 0.157859 0.476837
O O8 0.034190 0.500000 0.732424
O O9 0.984523 0.693415 0.642276
O O10 0.921968 0.625562 0.744927
O O11 0.603819 0.187158 0.262726
O O12 0.500000 0.277473 0.000000
O O13 0.344844 0.152681 0.950232
O O14 0.849443 0.141676 0.578437
O O15 0.832617 0.189350 0.374151
O O16 0.071914 0.118401 0.695703
O O17 0.840132 0.500000 0.799988
O O18 0.000000 0.663603 0.000000
O O19 0.359769 0.000000 0.626063
O O20 0.778726 0.000000 0.266753
#
# Coordination Sequence:
#
# PCOD8064493 Si02
#       8
#     4   4   4   4   4   4   4   4
#     4  10  22  40  60  85 119 157 195 238 291 350
#     4  11  23  39  61  88 115 154 195 246 289 348
#     4  10  20  37  58  83 115 150 187 236 288 343
#     4  11  22  37  58  86 120 155 196 240 287 351
#     4  11  20  37  57  85 114 149 193 240 289 342
#     4  10  20  35  59  89 115 144 184 232 287 343
#     4  11  23  39  61  86 116 156 196 243 297 343
#     4  11  22  36  59  85 114 150 198 249 287 334
#
# _framework density 19.146093
#
# number of rings (size 3 to 8) (size 9 to 14) (size 15 to 20)
#    0.000    1.375    3.750    3.000    0.000    3.000 
#    0.000    1.875    0.000    0.375    0.000    0.000 
#    0.000    0.000    0.000    0.000    0.000    0.000 
#
# Total GULP energy -396827.755431 kJ/mol
# GULP energy per Si atom -12400.867357 kJ/mol
# Density = 1.910252 g / cm^3
# Si number density = 19.146093 Si / 1000 Ang^3
#
#
#
# Elastic Constant Matrix: (Units=GPa)
#
#
# Indices 1 2 3 4 5 6 
#
# 1 127.2950 27.2999 28.2887 0.0000 7.9128 0.0000
# 2 27.2999 73.6315 14.1607 0.0000 -3.5855 0.0000
# 3 28.2887 14.1607 66.7318 0.0000 3.4981 0.0000
# 4 0.0000 0.0000 0.0000 8.6832 0.0000 4.4617
# 5 7.9128 -3.5855 3.4981 0.0000 31.1153 0.0000
# 6 0.0000 0.0000 0.0000 4.4617 0.0000 20.9142
#
#
#
# Elastic Compliance Matrix: (Units=1/GPa)
#
#
# Indices 1 2 3 4 5 6 
#
# 1 0.009352 -0.002965 -0.003212 0.000000 -0.002359 0.000000
# 2 -0.002965 0.015221 -0.002117 0.000000 0.002746 0.000000
# 3 -0.003212 -0.002117 0.016865 0.000000 -0.001323 0.000000
# 4 0.000000 0.000000 0.000000 0.129344 0.000000 -0.027593
# 5 -0.002359 0.002746 -0.001323 0.000000 0.033204 0.000000
# 6 0.000000 0.000000 0.000000 -0.027593 0.000000 0.053701
#
#
# Mechanical properties :
#
#
# Convention : Reuss Voigt Hill
#
# Bulk Modulus (GPa) = 40.23869 45.23965 42.73917
# Shear Modulus (GPa) = 17.69550 25.33646 21.51598
#
# Velocity S-wave (km/s) = 3.04342 3.64170 3.35592
# Velocity P-wave (km/s) = 5.78033 6.43137 6.11452
#
# Compressibility (1/GPa) = 0.02485170
#
# Stress axis : x y z
#
# Youngs Moduli (GPa) = 106.93012 65.69793 59.29266
#
# Poissons Ratio (x) = 0.19476 0.19043
# Poissons Ratio (y) = 0.31700 0.12553
# Poissons Ratio (z) = 0.34343 0.13910
#
# Static dielectric constant tensor:
#      x y z
#    x 3.633390 0.000000 0.195320 
#    y 0.000000 3.356690 0.000000 
#    z 0.195320 0.000000 3.535340 
# 
# 
# High freq. dielectric constant tensor:
#      x y z
#    x 1.753410 0.000000 0.018860 
#    y 0.000000 1.729650 0.000000 
#    z 0.018860 0.000000 1.747040 
# 
# From -- ./inp_files/69172.got.cif
#   From: 2010.06.25/outbox.cif.g09.slc.cpg/sg10_35_cif.got.tgz:69172.got - 2010.06.27 22:07:45.
