data_PCOD8064951
_publ_section_title
;
Structure prediction by ZEFSAII (Michael W. Deem and Ramdas Pophale) SiO2 
 PCOD8064951
Probable space group: P 2/M
;
_chemical_formula_sum "Si O2"
_cell_formula_units_Z 28
_cell_length_a 19.104094
_cell_length_b 15.001386
_cell_length_c 8.724455
_cell_angle_alpha 90.000000
_cell_angle_beta 146.907206
_cell_angle_gamma 90.000000
_cell_volume 1365.167926
_symmetry_space_group_name_H-M "P 2/M"
_symmetry_group_IT_number 10
_symmetry_cell_setting 'monoclinic'
loop_
_space_group_symop_operation_xyz
x,y,z
-x,y,-z
-x,-y,-z
x,-y,z
loop_
_atom_site_type_symbol
_atom_site_label
_atom_site_fract_x
_atom_site_fract_y
_atom_site_fract_z
Si Si1 0.926370 0.401875 0.016507
Si Si2 0.007515 0.238289 0.690904
Si Si3 0.646668 0.902371 0.225340
Si Si4 0.278273 0.269279 0.763089
Si Si5 0.435739 0.602397 0.223015
Si Si6 0.874403 0.899297 0.872570
Si Si7 0.342762 0.402014 0.611482
O O1 0.983413 0.500000 0.158649
O O2 0.943582 0.338744 0.194045
O O3 0.775221 0.407444 0.719487
O O4 0.000000 0.364486 0.000000
O O5 0.867985 0.239047 0.510116
O O6 0.000000 0.213636 0.500000
O O7 0.104875 0.168445 0.948386
O O8 0.648785 0.825670 0.100270
O O9 0.743334 0.873980 0.541410
O O10 0.692750 0.000000 0.248250
O O11 0.500000 0.911168 0.000000
O O12 0.317813 0.325104 0.686525
O O13 0.315695 0.330202 0.978339
O O14 0.500000 0.629777 0.500000
O O15 0.388640 0.500000 0.143434
O O16 0.530939 0.619514 0.254975
O O17 0.862048 0.000000 0.914238
O O18 0.000000 0.890605 0.000000
O O19 0.357963 0.500000 0.719637
#
# Coordination Sequence:
#
# PCOD8064951 Si02
#       7
#     4   4   4   4   4   4   4
#     4  10  20  37  59  82 113 155 202 255 307 362
#     4  12  26  38  56  91 126 161 206 254 306 374
#     4  10  21  38  66 100 122 147 198 258 309 360
#     4  12  22  38  60  87 117 161 203 255 303 362
#     4  10  23  40  58  85 121 162 207 253 305 367
#     4  10  20  41  69  89 117 162 207 254 306 366
#     4  10  20  36  61  86 111 151 206 253 298 361
#
# _framework density 20.510297000000001
#
# number of rings (size 3 to 8) (size 9 to 14) (size 15 to 20)
#    0.000    1.429    2.857    3.000    2.000    2.286 
#    0.000    0.000    0.000    0.429    0.000    0.000 
#    0.000    0.000    0.000    0.000    0.000    0.000 
#
# Total GULP energy -347020.582419 kJ/mol
# GULP energy per Si atom -12393.592229 kJ/mol
# Density = 2.046361 g / cm^3
# Si number density = 20.510297 Si / 1000 Ang^3
#
#
#
# Elastic Constant Matrix: (Units=GPa)
#
#
# Indices 1 2 3 4 5 6 
#
# 1 40.9096 30.3674 19.8051 0.0000 -3.6712 0.0000
# 2 30.3674 145.1329 52.4238 0.0000 -15.2803 0.0000
# 3 19.8051 52.4238 111.0544 0.0000 3.2647 0.0000
# 4 0.0000 0.0000 0.0000 92.8333 0.0000 19.5329
# 5 -3.6712 -15.2803 3.2647 0.0000 34.9894 0.0000
# 6 0.0000 0.0000 0.0000 19.5329 0.0000 21.1229
#
#
#
# Elastic Compliance Matrix: (Units=1/GPa)
#
#
# Indices 1 2 3 4 5 6 
#
# 1 0.029713 -0.005020 -0.002965 0.000000 0.001202 0.000000
# 2 -0.005020 0.009755 -0.003830 0.000000 0.004091 0.000000
# 3 -0.002965 -0.003830 0.011431 0.000000 -0.003050 0.000000
# 4 0.000000 0.000000 0.000000 0.013374 0.000000 -0.012367
# 5 0.001202 0.004091 -0.003050 0.000000 0.030777 0.000000
# 6 0.000000 0.000000 0.000000 -0.012367 0.000000 0.058778
#
#
# Mechanical properties :
#
#
# Convention : Reuss Voigt Hill
#
# Bulk Modulus (GPa) = 36.66977 55.80994 46.23985
# Shear Modulus (GPa) = 26.80286 42.75585 34.77935
#
# Velocity S-wave (km/s) = 3.61889 4.57070 4.12236
# Velocity P-wave (km/s) = 5.94805 7.42461 6.72697
#
# Compressibility (1/GPa) = 0.02727042
#
# Stress axis : x y z
#
# Youngs Moduli (GPa) = 33.65478 102.51580 87.48260
#
# Poissons Ratio (x) = 0.51460 0.25936
# Poissons Ratio (y) = 0.16894 0.33504
# Poissons Ratio (z) = 0.09978 0.39261
#
# Static dielectric constant tensor:
#      x y z
#    x 3.345410 0.000000 0.201510 
#    y 0.000000 4.250620 0.000000 
#    z 0.201510 0.000000 3.910160 
# 
# 
# High freq. dielectric constant tensor:
#      x y z
#    x 1.760350 0.000000 0.018970 
#    y 0.000000 1.817940 0.000000 
#    z 0.018970 0.000000 1.812610 
# 
# From -- ./inp_files/35256.got.cif
#   From: 2010.06.25/outbox.cif.g09.slc.cpg/sg10_18_cif.got.tgz:35256.got - 2010.06.27 22:07:45.
