data_PCOD8064343
_publ_section_title
;
Structure prediction by ZEFSAII (Michael W. Deem and Ramdas Pophale) SiO2 
 PCOD8064343
Probable space group: P 2/M
;
_chemical_formula_sum "Si O2"
_cell_formula_units_Z 32
_cell_length_a 27.956407
_cell_length_b 9.271821
_cell_length_c 21.725038
_cell_angle_alpha 90.000000
_cell_angle_beta 17.993413
_cell_angle_gamma 90.000000
_cell_volume 1739.544758
_symmetry_space_group_name_H-M "P 2/M"
_symmetry_group_IT_number 10
_symmetry_cell_setting 'monoclinic'
loop_
_space_group_symop_operation_xyz
x,y,z
-x,y,-z
-x,-y,-z
x,-y,z
loop_
_atom_site_type_symbol
_atom_site_label
_atom_site_fract_x
_atom_site_fract_y
_atom_site_fract_z
Si Si1 0.827212 0.669153 0.225971
Si Si2 0.567978 0.169880 0.125082
Si Si3 0.022462 0.666624 0.713534
Si Si4 0.394699 0.670271 0.038675
Si Si5 0.709076 0.168783 0.082516
Si Si6 0.445557 0.168859 0.498605
Si Si7 0.740078 0.334250 0.470275
Si Si8 0.278854 0.670004 0.308947
O O1 0.809218 0.500000 0.236684
O O2 0.714333 0.749744 0.317366
O O3 0.787230 0.713041 0.344413
O O4 0.000000 0.721573 0.000000
O O5 0.657399 0.242652 0.958135
O O6 0.664653 0.209490 0.067374
O O7 0.396424 0.233451 0.339041
O O8 0.555786 0.000000 0.130161
O O9 0.982547 0.500000 0.750620
O O10 0.111187 0.688152 0.668969
O O11 0.127165 0.730407 0.529217
O O12 0.865314 0.753552 0.910350
O O13 0.391412 0.500000 0.028975
O O14 0.565382 0.726344 0.848841
O O15 0.277625 0.710105 0.237973
O O16 0.573412 0.223540 0.293507
O O17 0.735442 0.000000 0.058813
O O18 0.500000 0.209091 0.500000
O O19 0.415064 0.000000 0.528050
O O20 0.683457 0.500000 0.542304
O O21 0.283499 0.500000 0.311562
#
# Coordination Sequence:
#
# PCOD8064343 Si02
#       8
#     4   4   4   4   4   4   4   4
#     4  10  22  38  58  87 118 142 175 228 282 325
#     4  11  21  35  55  80 110 145 185 227 269 320
#     4  10  20  35  57  84 109 139 185 229 272 327
#     4   9  16  31  56  80 108 142 178 224 277 323
#     4  10  23  40  54  76 112 148 184 226 271 320
#     4  10  22  41  60  79 109 151 192 224 263 325
#     4  10  20  36  58  82 110 143 182 227 273 325
#     4   8  15  30  53  81 109 139 176 226 275 321
#
# _framework density 18.395617000000001
#
# number of rings (size 3 to 8) (size 9 to 14) (size 15 to 20)
#    0.000    2.250    2.500    1.125    1.750    2.500 
#    0.000    2.500    0.000    3.750    0.000    0.000 
#    0.000    0.000    0.000    0.000    0.000    0.000 
#
# Total GULP energy -396826.899337 kJ/mol
# GULP energy per Si atom -12400.840604 kJ/mol
# Density = 1.835375 g / cm^3
# Si number density = 18.395617 Si / 1000 Ang^3
#
#
#
# Elastic Constant Matrix: (Units=GPa)
#
#
# Indices 1 2 3 4 5 6 
#
# 1 119.4979 44.5234 45.0074 0.0000 9.3601 0.0000
# 2 44.5234 45.5683 29.6533 0.0000 -3.2467 0.0000
# 3 45.0074 29.6533 90.6599 0.0000 -4.3176 0.0000
# 4 0.0000 0.0000 0.0000 24.6625 0.0000 1.9574
# 5 9.3601 -3.2467 -4.3176 0.0000 31.0046 0.0000
# 6 0.0000 0.0000 0.0000 1.9574 0.0000 21.0563
#
#
#
# Elastic Compliance Matrix: (Units=1/GPa)
#
#
# Indices 1 2 3 4 5 6 
#
# 1 0.014955 -0.012750 -0.003556 0.000000 -0.006345 0.000000
# 2 -0.012750 0.038835 -0.006035 0.000000 0.007075 0.000000
# 3 -0.003556 -0.006035 0.014890 0.000000 0.002515 0.000000
# 4 0.000000 0.000000 0.000000 0.040849 0.000000 -0.003797
# 5 -0.006345 0.007075 0.002515 0.000000 0.035260 0.000000
# 6 0.000000 0.000000 0.000000 -0.003797 0.000000 0.047845
#
#
# Mechanical properties :
#
#
# Convention : Reuss Voigt Hill
#
# Bulk Modulus (GPa) = 41.67423 54.89938 48.28680
# Shear Modulus (GPa) = 20.38190 24.44749 22.41470
#
# Velocity S-wave (km/s) = 3.33224 3.64948 3.49446
# Velocity P-wave (km/s) = 6.12443 6.90411 6.52593
#
# Compressibility (1/GPa) = 0.02399565
#
# Stress axis : x y z
#
# Youngs Moduli (GPa) = 66.86527 25.75019 67.16119
#
# Poissons Ratio (x) = 0.32833 0.23884
# Poissons Ratio (y) = 0.85256 0.40534
# Poissons Ratio (z) = 0.23779 0.15541
#
# Static dielectric constant tensor:
#      x y z
#    x 3.540410 0.000000 0.287620 
#    y 0.000000 3.174090 0.000000 
#    z 0.287620 0.000000 3.468390 
# 
# 
# High freq. dielectric constant tensor:
#      x y z
#    x 1.723530 0.000000 0.015690 
#    y 0.000000 1.692030 0.000000 
#    z 0.015690 0.000000 1.708950 
# 
# From -- ./inp_files/86864.got.cif
#   From: 2010.06.25/outbox.cif.g09.slc.cpg/sg10_44_cif.got.tgz:86864.got - 2010.06.27 22:07:45.
