data_PCOD8064555
_publ_section_title
;
Structure prediction by ZEFSAII (Michael W. Deem and Ramdas Pophale) SiO2 
 PCOD8064555
Probable space group: P 2/M
;
_chemical_formula_sum "Si O2"
_cell_formula_units_Z 24
_cell_length_a 25.178827
_cell_length_b 8.974124
_cell_length_c 9.094095
_cell_angle_alpha 90.000000
_cell_angle_beta 41.945788
_cell_angle_gamma 90.000000
_cell_volume 1373.539441
_symmetry_space_group_name_H-M "P 2/M"
_symmetry_group_IT_number 10
_symmetry_cell_setting 'monoclinic'
loop_
_space_group_symop_operation_xyz
x,y,z
-x,y,-z
-x,-y,-z
x,-y,z
loop_
_atom_site_type_symbol
_atom_site_label
_atom_site_fract_x
_atom_site_fract_y
_atom_site_fract_z
Si Si1 0.289013 0.832072 0.234461
Si Si2 0.590039 0.324440 0.835761
Si Si3 0.018016 0.827657 0.795442
Si Si4 0.136350 0.825117 0.075233
Si Si5 0.721636 0.167810 0.420510
Si Si6 0.155209 0.324094 0.344145
O O1 0.374392 0.752617 0.089499
O O2 0.241538 0.832971 0.488998
O O3 0.240706 0.742501 0.211388
O O4 0.303148 0.000000 0.148004
O O5 0.596428 0.500000 0.839739
O O6 0.642183 0.270738 0.586339
O O7 0.500000 0.271071 0.000000
O O8 0.941269 0.788023 0.858055
O O9 0.090349 0.725558 0.595891
O O10 0.042544 0.000000 0.725434
O O11 0.000000 0.788529 0.000000
O O12 0.129791 0.734330 0.237843
O O13 0.142267 0.000000 0.097635
O O14 0.213163 0.768950 0.826054
O O15 0.697093 0.000000 0.426406
O O16 0.161845 0.500000 0.328005
#
# Coordination Sequence:
#
# PCOD8064555 Si02
#       6
#     4   4   4   4   4   4
#     4   9  18  34  55  77 102 136 180 220 258 306
#     4   9  17  30  52  83 114 139 166 208 265 320
#     4  10  21  38  59  78 101 137 183 226 263 308
#     4  10  20  36  55  76 104 142 182 220 262 311
#     4   8  17  32  54  79 102 134 179 220 257 305
#     4  12  24  35  50  77 110 143 177 218 271 319
#
# _framework density 17.473106000000001
#
# number of rings (size 3 to 8) (size 9 to 14) (size 15 to 20)
#    1.000    1.333    0.000    3.500    0.000    7.667 
#    0.000    0.000    0.000    1.000    0.000    7.000 
#    0.000    0.000    0.000    0.000    0.000    0.000 
#
# Total GULP energy -297468.824198 kJ/mol
# GULP energy per Si atom -12394.534342 kJ/mol
# Density = 1.743334 g / cm^3
# Si number density = 17.473106 Si / 1000 Ang^3
#
#
#
# Elastic Constant Matrix: (Units=GPa)
#
#
# Indices 1 2 3 4 5 6 
#
# 1 124.9148 64.9385 44.3182 0.0000 -9.6658 0.0000
# 2 64.9385 99.5678 31.3877 0.0000 -10.9115 0.0000
# 3 44.3182 31.3877 45.2859 0.0000 -9.7930 0.0000
# 4 0.0000 0.0000 0.0000 23.4936 0.0000 -6.6686
# 5 -9.6658 -10.9115 -9.7930 0.0000 29.4809 0.0000
# 6 0.0000 0.0000 0.0000 -6.6686 0.0000 23.1142
#
#
#
# Elastic Compliance Matrix: (Units=1/GPa)
#
#
# Indices 1 2 3 4 5 6 
#
# 1 0.015064 -0.006676 -0.010323 0.000000 -0.000961 0.000000
# 2 -0.006676 0.015913 -0.003982 0.000000 0.002378 0.000000
# 3 -0.010323 -0.003982 0.036517 0.000000 0.007272 0.000000
# 4 0.000000 0.000000 0.000000 0.046361 0.000000 0.013376
# 5 -0.000961 0.002378 0.007272 0.000000 0.036901 0.000000
# 6 0.000000 0.000000 0.000000 0.013376 0.000000 0.047122
#
#
# Mechanical properties :
#
#
# Convention : Reuss Voigt Hill
#
# Bulk Modulus (GPa) = 39.16578 61.22859 50.19718
# Shear Modulus (GPa) = 20.13274 23.82600 21.97937
#
# Velocity S-wave (km/s) = 3.39811 3.69668 3.55053
# Velocity P-wave (km/s) = 6.15303 7.30330 6.75270
#
# Compressibility (1/GPa) = 0.02553249
#
# Stress axis : x y z
#
# Youngs Moduli (GPa) = 66.38286 62.83993 27.38474
#
# Poissons Ratio (x) = 0.41952 0.28269
# Poissons Ratio (y) = 0.44317 0.10905
# Poissons Ratio (z) = 0.68526 0.25023
#
# Static dielectric constant tensor:
#      x y z
#    x 3.166260 0.000000 -0.054230 
#    y 0.000000 3.166230 0.000000 
#    z -0.054230 0.000000 3.110190 
# 
# 
# High freq. dielectric constant tensor:
#      x y z
#    x 1.668280 0.000000 -0.005980 
#    y 0.000000 1.674930 0.000000 
#    z -0.005980 0.000000 1.655950 
# 
# From -- ./inp_files/33765.got.cif
#   From: 2010.06.25/outbox.cif.g09.slc.cpg/sg10_17_cif.got.tgz:33765.got - 2010.06.27 22:07:45.
