data_PCOD8064168
_publ_section_title
;
Structure prediction by ZEFSAII (Michael W. Deem and Ramdas Pophale) SiO2 
 PCOD8064168
Probable space group: P 2/M
;
_chemical_formula_sum "Si O2"
_cell_formula_units_Z 28
_cell_length_a 11.852533
_cell_length_b 8.880330
_cell_length_c 15.805845
_cell_angle_alpha 90.000000
_cell_angle_beta 123.510892
_cell_angle_gamma 90.000000
_cell_volume 1387.106894
_symmetry_space_group_name_H-M "P 2/M"
_symmetry_group_IT_number 10
_symmetry_cell_setting 'monoclinic'
loop_
_space_group_symop_operation_xyz
x,y,z
-x,y,-z
-x,-y,-z
x,-y,z
loop_
_atom_site_type_symbol
_atom_site_label
_atom_site_fract_x
_atom_site_fract_y
_atom_site_fract_z
Si Si1 0.898545 0.177808 0.384227
Si Si2 0.349856 0.175830 0.462912
Si Si3 0.816387 0.327461 0.748535
Si Si4 0.906935 0.673596 0.215339
Si Si5 0.634236 0.322783 0.823647
Si Si6 0.637740 0.320405 0.013824
Si Si7 0.348750 0.321747 0.637484
O O1 0.954001 0.231633 0.316428
O O2 0.753145 0.254952 0.335728
O O3 0.000000 0.231869 0.500000
O O4 0.882174 0.000000 0.378461
O O5 0.500000 0.225760 0.500000
O O6 0.250189 0.217926 0.346677
O O7 0.304545 0.264208 0.527407
O O8 0.339147 0.000000 0.478029
O O9 0.771984 0.500000 0.711487
O O10 0.764604 0.279556 0.820551
O O11 0.978303 0.309684 0.809773
O O12 0.890902 0.500000 0.235884
O O13 0.766707 0.738461 0.120029
O O14 0.620674 0.500000 0.828252
O O15 0.498618 0.261554 0.722194
O O16 0.648400 0.252861 0.923265
O O17 0.639680 0.500000 0.012631
O O18 0.500000 0.260770 0.000000
O O19 0.340130 0.500000 0.636480
#
# Coordination Sequence:
#
# PCOD8064168 Si02
#       7
#     4   4   4   4   4   4   4
#     4  11  24  40  57  79 112 150 188 231 283 340
#     4  11  22  35  53  80 116 155 190 226 276 336
#     4  10  20  35  55  83 116 148 191 237 279 334
#     4  10  21  36  58  85 112 148 190 234 283 335
#     4   9  18  32  54  84 114 145 181 231 287 332
#     4   9  17  32  55  83 114 145 185 235 286 335
#     4  11  21  35  59  85 112 146 189 236 281 332
#
# _framework density 20.185898999999999
#
# number of rings (size 3 to 8) (size 9 to 14) (size 15 to 20)
#    0.000    1.857    1.429    3.000    0.000    7.429 
#    0.000    2.857    0.000    5.571    0.000    2.000 
#    0.000    0.000    0.000    0.000    0.000    0.000 
#
# Total GULP energy -347271.510752 kJ/mol
# GULP energy per Si atom -12402.553955 kJ/mol
# Density = 2.013996 g / cm^3
# Si number density = 20.185899 Si / 1000 Ang^3
#
#
#
# Elastic Constant Matrix: (Units=GPa)
#
#
# Indices 1 2 3 4 5 6 
#
# 1 150.5320 28.7259 62.2231 0.0000 -5.4825 0.0000
# 2 28.7259 43.2417 22.4501 0.0000 -0.0100 0.0000
# 3 62.2231 22.4501 132.6433 0.0000 -9.5002 0.0000
# 4 0.0000 0.0000 0.0000 8.9905 0.0000 4.2666
# 5 -5.4825 -0.0100 -9.5002 0.0000 39.4332 0.0000
# 6 0.0000 0.0000 0.0000 4.2666 0.0000 19.0314
#
#
#
# Elastic Compliance Matrix: (Units=1/GPa)
#
#
# Indices 1 2 3 4 5 6 
#
# 1 0.008860 -0.004103 -0.003433 0.000000 0.000404 0.000000
# 2 -0.004103 0.027297 -0.002783 0.000000 -0.001234 0.000000
# 3 -0.003433 -0.002783 0.009754 0.000000 0.001872 0.000000
# 4 0.000000 0.000000 0.000000 0.124472 0.000000 -0.027906
# 5 0.000404 -0.001234 0.001872 0.000000 0.025866 0.000000
# 6 0.000000 0.000000 0.000000 -0.027906 0.000000 0.058801
#
#
# Mechanical properties :
#
#
# Convention : Reuss Voigt Hill
#
# Bulk Modulus (GPa) = 39.56996 61.46835 50.51916
# Shear Modulus (GPa) = 17.59861 27.69220 22.64540
#
# Velocity S-wave (km/s) = 2.95587 3.70788 3.35303
# Velocity P-wave (km/s) = 5.59419 6.98916 6.33022
#
# Compressibility (1/GPa) = 0.02527170
#
# Stress axis : x y z
#
# Youngs Moduli (GPa) = 112.86965 36.63470 102.51680
#
# Poissons Ratio (x) = 0.15032 0.35191
# Poissons Ratio (y) = 0.46314 0.28535
# Poissons Ratio (z) = 0.38745 0.10197
#
# Static dielectric constant tensor:
#      x y z
#    x 3.934430 0.000000 -0.051390 
#    y 0.000000 3.258790 0.000000 
#    z -0.051390 0.000000 3.694690 
# 
# 
# High freq. dielectric constant tensor:
#      x y z
#    x 1.807200 0.000000 -0.004710 
#    y 0.000000 1.749840 0.000000 
#    z -0.004710 0.000000 1.783600 
# 
# From -- ./inp_files/63637.got.cif
#   From: 2010.06.25/outbox.cif.g09.slc.cpg/sg10_32_cif.got.tgz:63637.got - 2010.06.27 22:07:45.
