data_PCOD8064291
_publ_section_title
;
Structure prediction by ZEFSAII (Michael W. Deem and Ramdas Pophale) SiO2 
 PCOD8064291
Probable space group: P 2/M
;
_chemical_formula_sum "Si O2"
_cell_formula_units_Z 20
_cell_length_a 22.347806
_cell_length_b 7.736353
_cell_length_c 15.389476
_cell_angle_alpha 90.000000
_cell_angle_beta 156.735545
_cell_angle_gamma 90.000000
_cell_volume 1050.909500
_symmetry_space_group_name_H-M "P 2/M"
_symmetry_group_IT_number 10
_symmetry_cell_setting 'monoclinic'
loop_
_space_group_symop_operation_xyz
x,y,z
-x,y,-z
-x,-y,-z
x,-y,z
loop_
_atom_site_type_symbol
_atom_site_label
_atom_site_fract_x
_atom_site_fract_y
_atom_site_fract_z
Si Si1 0.130182 0.199050 0.933428
Si Si2 0.336732 0.302716 0.754348
Si Si3 0.176613 0.500000 0.251760
Si Si4 0.171355 0.191760 0.368321
Si Si5 0.678141 0.500000 0.740525
Si Si6 0.941271 0.797510 0.513529
O O1 0.999778 0.234229 0.830544
O O2 0.066972 0.244657 0.753782
O O3 0.185911 0.000000 0.011884
O O4 0.267453 0.327667 0.136915
O O5 0.352395 0.500000 0.744829
O O6 0.278581 0.192092 0.595577
O O7 0.218590 0.290853 0.676490
O O8 0.500000 0.228425 0.000000
O O9 0.225181 0.329170 0.369310
O O10 0.267126 0.500000 0.284468
O O11 0.000000 0.500000 0.000000
O O12 0.179847 0.000000 0.338445
O O13 0.500000 0.500000 0.500000
O O14 0.000000 0.723351 0.500000
O O15 0.910309 0.000000 0.466401
#
# Coordination Sequence:
#
# PCOD8064291 Si02
#       6
#     4   4   2   4   2   4
#     4   9  19  38  62  86 114 149 193 238 283 344
#     4  10  20  35  56  87 125 154 183 233 288 339
#     4  12  22  40  65  84 114 146 195 254 280 342
#     4  10  20  37  64  91 113 149 197 239 288 341
#     4  12  26  42  59  84 116 154 187 240 302 340
#     4   9  19  36  58  84 114 152 195 231 274 340
#
# _framework density 19.031134000000002
#
# number of rings (size 3 to 8) (size 9 to 14) (size 15 to 20)
#    0.000    2.000    3.000    1.800    4.200    3.600 
#    3.600    0.000    0.000    0.000    0.000    0.000 
#    0.000    0.000    0.000    0.000    0.000    0.000 
#
# Total GULP energy -248038.608063 kJ/mol
# GULP energy per Si atom -12401.930403 kJ/mol
# Density = 1.898782 g / cm^3
# Si number density = 19.031134 Si / 1000 Ang^3
#
#
#
# Elastic Constant Matrix: (Units=GPa)
#
#
# Indices 1 2 3 4 5 6 
#
# 1 116.7942 40.6877 53.6652 0.0000 -7.3226 0.0000
# 2 40.6877 109.4307 54.5684 0.0000 -2.2549 0.0000
# 3 53.6652 54.5684 130.2375 0.0000 17.2518 0.0000
# 4 0.0000 0.0000 0.0000 23.2044 0.0000 -10.2462
# 5 -7.3226 -2.2549 17.2518 0.0000 22.9507 0.0000
# 6 0.0000 0.0000 0.0000 -10.2462 0.0000 13.8175
#
#
#
# Elastic Compliance Matrix: (Units=1/GPa)
#
#
# Indices 1 2 3 4 5 6 
#
# 1 0.012052 -0.001698 -0.005267 0.000000 0.007637 0.000000
# 2 -0.001698 0.012402 -0.005094 0.000000 0.004506 0.000000
# 3 -0.005267 -0.005094 0.013629 0.000000 -0.012425 0.000000
# 4 0.000000 0.000000 0.000000 0.064076 0.000000 0.047515
# 5 0.007637 0.004506 -0.012425 0.000000 0.055791 0.000000
# 6 0.000000 0.000000 0.000000 0.047515 0.000000 0.107607
#
#
# Mechanical properties :
#
#
# Convention : Reuss Voigt Hill
#
# Bulk Modulus (GPa) = 71.59682 72.70056 72.14869
# Shear Modulus (GPa) = 16.98780 25.83058 21.40919
#
# Velocity S-wave (km/s) = 2.99094 3.68813 3.35768
# Velocity P-wave (km/s) = 7.04487 7.51133 7.28184
#
# Compressibility (1/GPa) = 0.01396710
#
# Stress axis : x y z
#
# Youngs Moduli (GPa) = 82.97220 80.63020 73.37507
#
# Poissons Ratio (x) = 0.13687 0.38644
# Poissons Ratio (y) = 0.14085 0.37376
# Poissons Ratio (z) = 0.43698 0.41072
#
# Static dielectric constant tensor:
#      x y z
#    x 3.365760 0.000000 -0.157770 
#    y 0.000000 3.577550 0.000000 
#    z -0.157770 0.000000 3.376130 
# 
# 
# High freq. dielectric constant tensor:
#      x y z
#    x 1.721480 0.000000 -0.015500 
#    y 0.000000 1.752290 0.000000 
#    z -0.015500 0.000000 1.727970 
# 
# From -- ./inp_files/71357.got.cif
#   From: 2010.06.25/outbox.cif.g09.slc.cpg/sg10_36_cif.got.tgz:71357.got - 2010.06.27 22:07:45.
