data_PCOD8064326
_publ_section_title
;
Structure prediction by ZEFSAII (Michael W. Deem and Ramdas Pophale) SiO2 
 PCOD8064326
Probable space group: P 2/M
;
_chemical_formula_sum "Si O2"
_cell_formula_units_Z 32
_cell_length_a 12.101844
_cell_length_b 9.216697
_cell_length_c 33.240767
_cell_angle_alpha 90.000000
_cell_angle_beta 26.819539
_cell_angle_gamma 90.000000
_cell_volume 1672.821376
_symmetry_space_group_name_H-M "P 2/M"
_symmetry_group_IT_number 10
_symmetry_cell_setting 'monoclinic'
loop_
_space_group_symop_operation_xyz
x,y,z
-x,y,-z
-x,-y,-z
x,-y,z
loop_
_atom_site_type_symbol
_atom_site_label
_atom_site_fract_x
_atom_site_fract_y
_atom_site_fract_z
Si Si1 0.297333 0.830617 0.034777
Si Si2 0.777604 0.669414 0.019156
Si Si3 0.397633 0.167581 0.297039
Si Si4 0.225680 0.159305 0.604712
Si Si5 0.674582 0.669326 0.141154
Si Si6 0.225669 0.170062 0.757930
Si Si7 0.629053 0.672610 0.368194
Si Si8 0.137182 0.168272 0.546875
O O1 0.352118 0.753967 0.974711
O O2 0.027878 0.791426 0.138038
O O3 0.328320 0.000000 0.017427
O O4 0.500000 0.772807 0.000000
O O5 0.768785 0.500000 0.012520
O O6 0.057272 0.722616 0.932401
O O7 0.634380 0.704533 0.107050
O O8 0.470913 0.250070 0.232892
O O9 0.551439 0.219730 0.285656
O O10 0.109242 0.195887 0.398811
O O11 0.452039 0.000000 0.271241
O O12 0.500000 0.149513 0.500000
O O13 0.209434 0.275573 0.645941
O O14 0.073036 0.206453 0.614564
O O15 0.140957 0.000000 0.647943
O O16 0.648655 0.500000 0.157576
O O17 0.237870 0.266158 0.714205
O O18 0.243065 0.000000 0.741267
O O19 0.623794 0.500000 0.369087
O O20 0.351782 0.731969 0.459670
O O21 0.221464 0.000000 0.516225
#
# Coordination Sequence:
#
# PCOD8064326 Si02
#       8
#     4   4   4   4   4   4   4   4
#     4  10  21  38  59  83 109 140 184 234 276 315
#     4   9  18  34  56  80 108 145 180 213 270 336
#     4  10  20  35  57  83 108 142 187 229 271 322
#     4   8  15  32  56  76 101 138 173 215 271 320
#     4   9  18  33  54  80 111 144 176 217 271 328
#     4  10  21  38  57  77 108 146 181 224 277 325
#     4  11  22  35  55  82 110 144 188 226 263 318
#     4   9  19  36  57  82 111 143 180 223 276 328
#
# _framework density 19.129358
#
# number of rings (size 3 to 8) (size 9 to 14) (size 15 to 20)
#    0.000    2.500    1.250    2.625    0.000    5.000 
#    2.250    3.750    0.000    0.000    0.000    0.000 
#    0.000    0.000    0.000    0.000    0.000    0.000 
#
# Total GULP energy -396747.781073 kJ/mol
# GULP energy per Si atom -12398.368159 kJ/mol
# Density = 1.908582 g / cm^3
# Si number density = 19.129358 Si / 1000 Ang^3
#
#
#
# Elastic Constant Matrix: (Units=GPa)
#
#
# Indices 1 2 3 4 5 6 
#
# 1 109.3538 33.3472 16.2211 0.0000 6.2957 0.0000
# 2 33.3472 70.0897 24.3201 0.0000 14.6795 0.0000
# 3 16.2211 24.3201 32.0782 0.0000 12.3926 0.0000
# 4 0.0000 0.0000 0.0000 28.2439 0.0000 7.1055
# 5 6.2957 14.6795 12.3926 0.0000 30.9103 0.0000
# 6 0.0000 0.0000 0.0000 7.1055 0.0000 20.0178
#
#
#
# Elastic Compliance Matrix: (Units=1/GPa)
#
#
# Indices 1 2 3 4 5 6 
#
# 1 0.010823 -0.004503 -0.002406 0.000000 0.000899 0.000000
# 2 -0.004503 0.021643 -0.012442 0.000000 -0.004373 0.000000
# 3 -0.002406 -0.012442 0.046564 0.000000 -0.012269 0.000000
# 4 0.000000 0.000000 0.000000 0.038878 0.000000 -0.013800
# 5 0.000899 -0.004373 -0.012269 0.000000 0.039164 0.000000
# 6 0.000000 0.000000 0.000000 -0.013800 0.000000 0.054854
#
#
# Mechanical properties :
#
#
# Convention : Reuss Voigt Hill
#
# Bulk Modulus (GPa) = 24.79739 39.92206 32.35973
# Shear Modulus (GPa) = 18.93433 25.00994 21.97213
#
# Velocity S-wave (km/s) = 3.14953 3.61974 3.39279
# Velocity P-wave (km/s) = 5.12027 6.19555 5.68340
#
# Compressibility (1/GPa) = 0.04032683
#
# Stress axis : x y z
#
# Youngs Moduli (GPa) = 92.39683 46.20469 21.47588
#
# Poissons Ratio (x) = 0.20804 0.05168
# Poissons Ratio (y) = 0.41602 0.26721
# Poissons Ratio (z) = 0.22235 0.57490
#
# Static dielectric constant tensor:
#      x y z
#    x 3.869980 0.000000 -0.003260 
#    y 0.000000 3.303710 0.000000 
#    z -0.003260 0.000000 3.236320 
# 
# 
# High freq. dielectric constant tensor:
#      x y z
#    x 1.752180 0.000000 0.006550 
#    y 0.000000 1.729130 0.000000 
#    z 0.006550 0.000000 1.724470 
# 
# From -- ./inp_files/94968.got.cif
#   From: 2010.06.25/outbox.cif.g09.slc.cpg/sg10_48_cif.got.tgz:94968.got - 2010.06.27 22:07:45.
