data_PCOD8064948
_publ_section_title
;
Structure prediction by ZEFSAII (Michael W. Deem and Ramdas Pophale) SiO2 
 PCOD8064948
Probable space group: P 2/M
;
_chemical_formula_sum "Si O2"
_cell_formula_units_Z 24
_cell_length_a 9.344538
_cell_length_b 15.466394
_cell_length_c 14.485309
_cell_angle_alpha 90.000000
_cell_angle_beta 144.931180
_cell_angle_gamma 90.000000
_cell_volume 1202.845940
_symmetry_space_group_name_H-M "P 2/M"
_symmetry_group_IT_number 10
_symmetry_cell_setting 'monoclinic'
loop_
_space_group_symop_operation_xyz
x,y,z
-x,y,-z
-x,-y,-z
x,-y,z
loop_
_atom_site_type_symbol
_atom_site_label
_atom_site_fract_x
_atom_site_fract_y
_atom_site_fract_z
Si Si1 0.913415 0.669154 0.699629
Si Si2 0.601014 0.835427 0.311818
Si Si3 0.765503 0.500000 0.097774
Si Si4 0.558923 0.669889 0.678648
Si Si5 0.907194 0.000000 0.693587
Si Si6 0.288753 0.500000 0.140265
Si Si7 0.917579 0.165267 0.305441
Si Si8 0.423325 0.000000 0.310263
O O1 0.792485 0.688646 0.735228
O O2 0.695117 0.657441 0.510886
O O3 0.075660 0.583176 0.790019
O O4 0.087835 0.748679 0.760204
O O5 0.451143 0.747895 0.253615
O O6 0.673243 0.838753 0.241583
O O7 0.426034 0.916356 0.245433
O O8 0.843566 0.837106 0.503314
O O9 0.500000 0.500000 0.000000
O O10 0.667661 0.500000 0.943394
O O11 0.588361 0.582878 0.749920
O O12 0.662267 0.000000 0.501865
O O13 0.825397 0.000000 0.757960
O O14 0.074899 0.916215 0.759727
O O15 0.000000 0.500000 0.000000
#
# Coordination Sequence:
#
# PCOD8064948 Si02
#       8
#     4   4   2   4   2   2   4   2
#     4  10  20  38  57  83 111 147 186 230 278 329
#     4   9  17  28  46  76 108 144 180 226 272 324
#     4  12  27  41  57  81 114 145 183 232 287 336
#     4  10  20  36  61  82 109 145 190 232 273 328
#     4   9  15  25  43  71 107 147 177 223 272 323
#     4  12  23  41  59  83 108 144 189 232 280 333
#     4   9  17  28  46  74 112 143 178 222 280 326
#     4   9  15  25  43  71 107 143 185 221 268 320
#
# _framework density 19.952680000000001
#
# number of rings (size 3 to 8) (size 9 to 14) (size 15 to 20)
#    0.000    2.167    1.667    2.000    2.333    7.333 
#    0.000    0.833    0.000    0.000    0.000    2.333 
#    0.000    0.000    0.000    0.000    0.000    0.000 
#
# Total GULP energy -297550.877113 kJ/mol
# GULP energy per Si atom -12397.953213 kJ/mol
# Density = 1.990727 g / cm^3
# Si number density = 19.952680 Si / 1000 Ang^3
#
#
#
# Elastic Constant Matrix: (Units=GPa)
#
#
# Indices 1 2 3 4 5 6 
#
# 1 209.9971 116.4141 31.1922 0.0000 2.6916 0.0000
# 2 116.4141 217.5780 31.9085 0.0000 -2.9109 0.0000
# 3 31.1922 31.9085 16.5476 0.0000 3.6286 0.0000
# 4 0.0000 0.0000 0.0000 -5.7120 0.0000 6.3874
# 5 2.6916 -2.9109 3.6286 0.0000 20.2370 0.0000
# 6 0.0000 0.0000 0.0000 6.3874 0.0000 43.5321
#
#
#
# Elastic Compliance Matrix: (Units=1/GPa)
#
#
# Indices 1 2 3 4 5 6 
#
# 1 0.007640 -0.002740 -0.009169 0.000000 0.000234 0.000000
# 2 -0.002740 0.007605 -0.010222 0.000000 0.003291 0.000000
# 3 -0.009169 -0.010222 0.101471 0.000000 -0.018445 0.000000
# 4 0.000000 0.000000 0.000000 -0.150394 0.000000 0.022067
# 5 0.000234 0.003291 -0.018445 0.000000 0.053164 0.000000
# 6 0.000000 0.000000 0.000000 0.022067 0.000000 0.019734
#
#
# Mechanical properties :
#
#
# Convention : Reuss Voigt Hill
#
# Bulk Modulus (GPa) = 13.80185 89.23913 51.52049
# Shear Modulus (GPa) = 46.45459 29.25197 37.85328
#
# Velocity S-wave (km/s) = 4.83042 3.83308 4.36036
# Velocity P-wave (km/s) = 6.16789 8.02574 7.15735
#
# Compressibility (1/GPa) = 0.07245406
#
# Stress axis : x y z
#
# Youngs Moduli (GPa) = 130.89426 131.49093 9.85505
#
# Poissons Ratio (x) = 0.36026 0.09036
# Poissons Ratio (y) = 0.35863 0.10074
# Poissons Ratio (z) = 1.20017 1.34409
#
# Static dielectric constant tensor:
#      x y z
#    x 3.946860 0.000000 0.027730 
#    y 0.000000 3.830220 0.000000 
#    z 0.027730 0.000000 3.216060 
# 
# 
# High freq. dielectric constant tensor:
#      x y z
#    x 1.796370 0.000000 -0.001970 
#    y 0.000000 1.794820 0.000000 
#    z -0.001970 0.000000 1.727960 
# 
# From -- ./inp_files/32912.got.cif
#   From: 2010.06.25/outbox.cif.g09.slc.cpg/sg10_17_cif.got.tgz:32912.got - 2010.06.27 22:07:45.
