data_PCOD8064412
_publ_section_title
;
Structure prediction by ZEFSAII (Michael W. Deem and Ramdas Pophale) SiO2 
 PCOD8064412
Probable space group: P 2/M
;
_chemical_formula_sum "Si O2"
_cell_formula_units_Z 20
_cell_length_a 5.679087
_cell_length_b 9.434505
_cell_length_c 16.161557
_cell_angle_alpha 90.000000
_cell_angle_beta 97.448500
_cell_angle_gamma 90.000000
_cell_volume 858.619246
_symmetry_space_group_name_H-M "P 2/M"
_symmetry_group_IT_number 10
_symmetry_cell_setting 'monoclinic'
loop_
_space_group_symop_operation_xyz
x,y,z
-x,y,-z
-x,-y,-z
x,-y,z
loop_
_atom_site_type_symbol
_atom_site_label
_atom_site_fract_x
_atom_site_fract_y
_atom_site_fract_z
Si Si1 0.375166 0.343349 0.816175
Si Si2 0.963155 0.655713 0.349896
Si Si3 0.333669 0.843801 0.273042
Si Si4 0.674194 0.844355 0.437354
Si Si5 0.232322 0.835738 0.954331
O O1 0.451213 0.500000 0.853169
O O2 0.251757 0.365822 0.722879
O O3 0.602923 0.242280 0.808323
O O4 0.201258 0.263824 0.872580
O O5 0.070783 0.500000 0.375392
O O6 0.884692 0.731184 0.432397
O O7 0.148676 0.758133 0.317301
O O8 0.557917 0.864541 0.342389
O O9 0.236915 0.000000 0.242259
O O10 0.500000 0.782122 0.500000
O O11 0.767394 0.000000 0.470982
O O12 0.224261 0.000000 0.928284
O O13 0.500000 0.799161 0.000000
O O14 0.000000 0.800309 0.000000
#
# Coordination Sequence:
#
# PCOD8064412 Si02
#       5
#     4   4   4   4   4
#     4  10  22  39  59  84 116 152 193 241 292 352
#     4  10  21  36  55  82 114 149 189 236 293 352
#     4  10  20  35  58  83 109 148 193 239 292 348
#     4   9  19  36  55  78 109 146 192 241 288 345
#     4  10  23  42  63  92 126 162 204 250 303 364
#
# _framework density 23.293212
#
# number of rings (size 3 to 8) (size 9 to 14) (size 15 to 20)
#    0.000    2.200    0.000    1.800    2.800    5.200 
#    0.000    4.000    0.000    0.000    0.000    0.000 
#    0.000    0.000    0.000    0.000    0.000    0.000 
#
# Total GULP energy -247794.582901 kJ/mol
# GULP energy per Si atom -12389.729145 kJ/mol
# Density = 2.324020 g / cm^3
# Si number density = 23.293212 Si / 1000 Ang^3
#
#
#
# Elastic Constant Matrix: (Units=GPa)
#
#
# Indices 1 2 3 4 5 6 
#
# 1 111.6276 68.0084 31.6714 0.0000 -47.1938 0.0000
# 2 68.0084 225.5078 55.5511 0.0000 -58.7861 0.0000
# 3 31.6714 55.5511 81.3172 0.0000 -44.3983 0.0000
# 4 0.0000 0.0000 0.0000 66.2988 0.0000 -23.6312
# 5 -47.1938 -58.7861 -44.3983 0.0000 53.8065 0.0000
# 6 0.0000 0.0000 0.0000 -23.6312 0.0000 29.9615
#
#
#
# Elastic Compliance Matrix: (Units=1/GPa)
#
#
# Indices 1 2 3 4 5 6 
#
# 1 0.014899 -0.001637 0.002682 0.000000 0.013493 0.000000
# 2 -0.001637 0.006423 -0.001279 0.000000 0.004527 0.000000
# 3 0.002682 -0.001279 0.023018 0.000000 0.019949 0.000000
# 4 0.000000 0.000000 0.000000 0.020982 0.000000 0.016549
# 5 0.013493 0.004527 0.019949 0.000000 0.051827 0.000000
# 6 0.000000 0.000000 0.000000 0.016549 0.000000 0.046429
#
#
# Mechanical properties :
#
#
# Convention : Reuss Voigt Hill
#
# Bulk Modulus (GPa) = 22.79232 80.99049 51.89141
# Shear Modulus (GPa) = 27.98473 47.56144 37.77309
#
# Velocity S-wave (km/s) = 3.46990 4.52360 4.03132
# Velocity P-wave (km/s) = 5.08525 7.88222 6.63284
#
# Compressibility (1/GPa) = 0.04387442
#
# Stress axis : x y z
#
# Youngs Moduli (GPa) = 67.11833 155.68836 43.44347
#
# Poissons Ratio (x) = 0.25479 -0.11653
# Poissons Ratio (y) = 0.10984 0.05556
# Poissons Ratio (z) = -0.18003 0.19910
#
# Static dielectric constant tensor:
#      x y z
#    x 4.108480 0.000000 -0.059500 
#    y 0.000000 4.855340 0.000000 
#    z -0.059500 0.000000 4.119460 
# 
# 
# High freq. dielectric constant tensor:
#      x y z
#    x 1.904490 0.000000 -0.021200 
#    y 0.000000 1.935690 0.000000 
#    z -0.021200 0.000000 1.907470 
# 
# From -- ./inp_files/10543.got.cif
#   From: 2010.06.25/outbox.cif.g09.slc.cpg/sg10_6_cif.got.tgz:10543.got - 2010.06.27 22:07:45.
