data_PCOD8064565
_publ_section_title
;
Structure prediction by ZEFSAII (Michael W. Deem and Ramdas Pophale) SiO2 
 PCOD8064565
Probable space group: P 2/M
;
_chemical_formula_sum "Si O2"
_cell_formula_units_Z 32
_cell_length_a 16.031385
_cell_length_b 22.152415
_cell_length_c 9.238080
_cell_angle_alpha 90.000000
_cell_angle_beta 28.820790
_cell_angle_gamma 90.000000
_cell_volume 1581.559011
_symmetry_space_group_name_H-M "P 2/M"
_symmetry_group_IT_number 10
_symmetry_cell_setting 'monoclinic'
loop_
_space_group_symop_operation_xyz
x,y,z
-x,y,-z
-x,-y,-z
x,-y,z
loop_
_atom_site_type_symbol
_atom_site_label
_atom_site_fract_x
_atom_site_fract_y
_atom_site_fract_z
Si Si1 0.935111 0.664008 0.257259
Si Si2 0.496171 0.655286 0.334175
Si Si3 0.839994 0.291404 0.845661
Si Si4 0.314756 0.932717 0.708891
Si Si5 0.523010 0.122719 0.805710
Si Si6 0.360666 0.254978 0.328069
Si Si7 0.816142 0.846141 0.859585
Si Si8 0.344297 0.432417 0.347576
O O1 0.830480 0.727109 0.436944
O O2 0.810778 0.607386 0.484339
O O3 0.106287 0.670615 0.093909
O O4 0.000000 0.651292 0.000000
O O5 0.500000 0.653816 0.500000
O O6 0.382267 0.711150 0.448762
O O7 0.420306 0.593981 0.382717
O O8 0.692905 0.670152 0.987690
O O9 0.779528 0.222423 0.967654
O O10 0.000000 0.287796 0.500000
O O11 0.500000 0.930329 0.500000
O O12 0.347344 0.915993 0.491185
O O13 0.234619 0.000000 0.838092
O O14 0.188015 0.887464 0.988845
O O15 0.626962 0.184292 0.672479
O O16 0.500000 0.091998 0.000000
O O17 0.335211 0.133866 0.020651
O O18 0.500000 0.279720 0.000000
O O19 0.000000 0.854410 0.500000
O O20 0.275753 0.500000 0.481725
O O21 0.500000 0.432962 0.000000
#
# Coordination Sequence:
#
# PCOD8064565 Si02
#       8
#     4   4   4   4   4   4   4   4
#     4  11  23  36  56  88 117 149 186 234 296 341
#     4  11  21  34  58  86 116 144 188 236 288 338
#     4  11  21  34  54  85 119 147 180 242 295 347
#     4   9  20  39  61  84 117 163 206 250 296 355
#     4  10  21  36  60  87 116 158 201 248 293 356
#     4  10  20  36  55  80 116 158 187 230 284 358
#     4  10  22  36  57  90 120 156 197 247 308 357
#     4  10  22  43  64  79 109 161 203 230 274 350
#
# _framework density 20.2332
#
# number of rings (size 3 to 8) (size 9 to 14) (size 15 to 20)
#    0.000    1.750    1.250    4.500    8.750    1.000 
#    0.000    1.250    0.000    3.000    0.000    0.000 
#    0.000    0.000    0.000    0.000    0.000    0.000 
#
# Total GULP energy -396642.936186 kJ/mol
# GULP energy per Si atom -12395.091756 kJ/mol
# Density = 2.018715 g / cm^3
# Si number density = 20.233200 Si / 1000 Ang^3
#
#
#
# Elastic Constant Matrix: (Units=GPa)
#
#
# Indices 1 2 3 4 5 6 
#
# 1 93.0837 27.4588 10.6194 0.0000 15.6946 0.0000
# 2 27.4588 100.4694 29.7489 0.0000 8.2235 0.0000
# 3 10.6194 29.7489 62.8807 0.0000 5.4111 0.0000
# 4 0.0000 0.0000 0.0000 19.3314 0.0000 7.7324
# 5 15.6946 8.2235 5.4111 0.0000 41.1381 0.0000
# 6 0.0000 0.0000 0.0000 7.7324 0.0000 18.1498
#
#
#
# Elastic Compliance Matrix: (Units=1/GPa)
#
#
# Indices 1 2 3 4 5 6 
#
# 1 0.012335 -0.002936 -0.000344 0.000000 -0.004074 0.000000
# 2 -0.002936 0.012380 -0.005305 0.000000 -0.000657 0.000000
# 3 -0.000344 -0.005305 0.018579 0.000000 -0.001252 0.000000
# 4 0.000000 0.000000 0.000000 0.062355 0.000000 -0.026565
# 5 -0.004074 -0.000657 -0.001252 0.000000 0.026159 0.000000
# 6 0.000000 0.000000 0.000000 -0.026565 0.000000 0.066415
#
#
# Mechanical properties :
#
#
# Convention : Reuss Voigt Hill
#
# Bulk Modulus (GPa) = 38.27710 43.56535 40.92122
# Shear Modulus (GPa) = 22.31150 28.29763 25.30457
#
# Velocity S-wave (km/s) = 3.32432 3.74381 3.54028
# Velocity P-wave (km/s) = 5.80464 6.34559 6.08113
#
# Compressibility (1/GPa) = 0.02612528
#
# Stress axis : x y z
#
# Youngs Moduli (GPa) = 81.06871 80.77406 53.82550
#
# Poissons Ratio (x) = 0.23716 0.01849
# Poissons Ratio (y) = 0.23803 0.28553
# Poissons Ratio (z) = 0.02785 0.42848
#
# Static dielectric constant tensor:
#      x y z
#    x 3.740420 0.000000 0.029930 
#    y 0.000000 3.742280 0.000000 
#    z 0.029930 0.000000 3.871770 
# 
# 
# High freq. dielectric constant tensor:
#      x y z
#    x 1.790180 0.000000 0.007190 
#    y 0.000000 1.770680 0.000000 
#    z 0.007190 0.000000 1.796460 
# 
# From -- ./inp_files/30562.got.cif
#   From: 2010.06.25/outbox.cif.g09.slc.cpg/sg10_16_cif.got.tgz:30562.got - 2010.06.27 22:07:45.
