data_PCOD8064345
_publ_section_title
;
Structure prediction by ZEFSAII (Michael W. Deem and Ramdas Pophale) SiO2 
 PCOD8064345
Probable space group: P 2/M
;
_chemical_formula_sum "Si O2"
_cell_formula_units_Z 32
_cell_length_a 14.086450
_cell_length_b 8.833003
_cell_length_c 14.157657
_cell_angle_alpha 90.000000
_cell_angle_beta 87.055024
_cell_angle_gamma 90.000000
_cell_volume 1759.249296
_symmetry_space_group_name_H-M "P 2/M"
_symmetry_group_IT_number 10
_symmetry_cell_setting 'monoclinic'
loop_
_space_group_symop_operation_xyz
x,y,z
-x,y,-z
-x,-y,-z
x,-y,z
loop_
_atom_site_type_symbol
_atom_site_label
_atom_site_fract_x
_atom_site_fract_y
_atom_site_fract_z
Si Si1 0.783966 0.173460 0.861535
Si Si2 0.632356 0.175124 0.717589
Si Si3 0.452831 0.321687 0.803905
Si Si4 0.846793 0.172441 0.194121
Si Si5 0.315158 0.824789 0.946261
Si Si6 0.021281 0.677568 0.103213
Si Si7 0.684633 0.176982 0.338717
Si Si8 0.392232 0.677584 0.480578
O O1 0.734215 0.195225 0.762895
O O2 0.878837 0.270341 0.860006
O O3 0.812304 0.000000 0.878757
O O4 0.709302 0.224492 0.946199
O O5 0.552971 0.236429 0.793390
O O6 0.633034 0.273717 0.623391
O O7 0.612322 0.000000 0.694597
O O8 0.469410 0.500000 0.798974
O O9 0.402780 0.275597 0.904668
O O10 0.390505 0.272678 0.717417
O O11 0.777401 0.209939 0.111181
O O12 0.791263 0.206800 0.294770
O O13 0.939632 0.275691 0.181265
O O14 0.881370 0.000000 0.188683
O O15 0.344965 0.000000 0.935716
O O16 0.023886 0.500000 0.095243
O O17 0.000000 0.747734 0.000000
O O18 0.678933 0.232340 0.446631
O O19 0.658978 0.000000 0.330431
O O20 0.500000 0.722809 0.500000
O O21 0.375092 0.500000 0.493065
#
# Coordination Sequence:
#
# PCOD8064345 Si02
#       8
#     4   4   4   4   4   4   4   4
#     4  10  22  39  58  79 107 148 193 232 273 323
#     4  11  23  38  57  80 108 147 191 232 274 324
#     4  11  21  33  51  78 113 149 183 224 275 329
#     4   9  18  33  56  82 109 142 182 227 273 319
#     4   9  18  34  54  77 107 146 189 228 267 319
#     4  11  22  34  54  85 115 146 182 225 278 330
#     4  10  20  35  57  84 110 142 185 230 273 320
#     4  11  22  36  57  85 113 145 182 224 282 335
#
# _framework density 18.189577
#
# number of rings (size 3 to 8) (size 9 to 14) (size 15 to 20)
#    0.000    1.750    2.500    3.375    0.000    5.500 
#    0.000    2.500    0.000    0.750    0.000    5.250 
#    0.000    0.000    0.000    0.000    0.000    0.000 
#
# Total GULP energy -396895.927936 kJ/mol
# GULP energy per Si atom -12402.997748 kJ/mol
# Density = 1.814818 g / cm^3
# Si number density = 18.189577 Si / 1000 Ang^3
#
#
#
# Elastic Constant Matrix: (Units=GPa)
#
#
# Indices 1 2 3 4 5 6 
#
# 1 89.2684 38.6325 38.2681 0.0000 -7.6122 0.0000
# 2 38.6325 63.5704 24.4933 0.0000 -6.3420 0.0000
# 3 38.2681 24.4933 90.7371 0.0000 -8.8346 0.0000
# 4 0.0000 0.0000 0.0000 25.3333 0.0000 -0.9546
# 5 -7.6122 -6.3420 -8.8346 0.0000 22.0206 0.0000
# 6 0.0000 0.0000 0.0000 -0.9546 0.0000 18.1275
#
#
#
# Elastic Compliance Matrix: (Units=1/GPa)
#
#
# Indices 1 2 3 4 5 6 
#
# 1 0.016981 -0.008329 -0.004761 0.000000 0.001561 0.000000
# 2 -0.008329 0.021873 -0.002142 0.000000 0.002561 0.000000
# 3 -0.004761 -0.002142 0.013931 0.000000 0.003326 0.000000
# 4 0.000000 0.000000 0.000000 0.039552 0.000000 0.002083
# 5 0.001561 0.002561 0.003326 0.000000 0.048024 0.000000
# 6 0.000000 0.000000 0.000000 0.002083 0.000000 0.055275
#
#
# Mechanical properties :
#
#
# Convention : Reuss Voigt Hill
#
# Bulk Modulus (GPa) = 44.80358 49.59595 47.19976
# Shear Modulus (GPa) = 21.40947 22.57507 21.99227
#
# Velocity S-wave (km/s) = 3.43449 3.52675 3.48092
# Velocity P-wave (km/s) = 6.35709 6.62641 6.49314
#
# Compressibility (1/GPa) = 0.02231965
#
# Stress axis : x y z
#
# Youngs Moduli (GPa) = 58.88900 45.71787 71.78208
#
# Poissons Ratio (x) = 0.38080 0.34178
# Poissons Ratio (y) = 0.49051 0.15377
# Poissons Ratio (z) = 0.28039 0.09794
#
# Static dielectric constant tensor:
#      x y z
#    x 3.210250 0.000000 -0.192900 
#    y 0.000000 3.318160 0.000000 
#    z -0.192900 0.000000 3.320200 
# 
# 
# High freq. dielectric constant tensor:
#      x y z
#    x 1.689040 0.000000 -0.016910 
#    y 0.000000 1.709410 0.000000 
#    z -0.016910 0.000000 1.695100 
# 
# From -- ./inp_files/55396.got.cif
#   From: 2010.06.25/outbox.cif.g09.slc.cpg/sg10_28_cif.got.tgz:55396.got - 2010.06.27 22:07:45.
