data_PCOD8064775
_publ_section_title
;
Structure prediction by ZEFSAII (Michael W. Deem and Ramdas Pophale) SiO2 
 PCOD8064775
Probable space group: P 2/M
;
_chemical_formula_sum "Si O2"
_cell_formula_units_Z 24
_cell_length_a 12.368229
_cell_length_b 9.145605
_cell_length_c 23.859526
_cell_angle_alpha 90.000000
_cell_angle_beta 150.884860
_cell_angle_gamma 90.000000
_cell_volume 1313.178466
_symmetry_space_group_name_H-M "P 2/M"
_symmetry_group_IT_number 10
_symmetry_cell_setting 'monoclinic'
loop_
_space_group_symop_operation_xyz
x,y,z
-x,y,-z
-x,-y,-z
x,-y,z
loop_
_atom_site_type_symbol
_atom_site_label
_atom_site_fract_x
_atom_site_fract_y
_atom_site_fract_z
Si Si1 0.133035 0.171757 0.878534
Si Si2 0.566801 0.669132 0.895488
Si Si3 0.653157 0.169804 0.705321
Si Si4 0.745171 0.171188 0.873716
Si Si5 0.131969 0.331973 0.765504
Si Si6 0.357285 0.327897 0.488121
O O1 0.206479 0.235540 0.852114
O O2 0.875336 0.208426 0.771702
O O3 0.180313 0.000000 0.901682
O O4 0.272929 0.245217 0.990537
O O5 0.637007 0.500000 0.926826
O O6 0.587532 0.736649 0.843167
O O7 0.311872 0.688633 0.798328
O O8 0.681345 0.218121 0.782217
O O9 0.447553 0.256124 0.585766
O O10 0.598723 0.000000 0.676607
O O11 0.706768 0.000000 0.867222
O O12 0.000000 0.213319 0.000000
O O13 0.117030 0.500000 0.778904
O O14 0.896720 0.278089 0.634836
O O15 0.500000 0.270926 0.500000
O O16 0.379598 0.500000 0.505042
#
# Coordination Sequence:
#
# PCOD8064775 Si02
#       6
#     4   4   4   4   4   4
#     4  11  21  35  57  85 116 148 183 227 282 338
#     4  11  23  37  56  83 116 150 186 229 278 335
#     4  10  21  36  57  85 113 142 181 234 281 323
#     4  10  20  39  60  80 112 148 185 232 279 325
#     4  10  22  39  55  81 118 150 184 231 281 327
#     4  10  20  36  59  82 109 148 188 228 274 328
#
# _framework density 18.276268000000002
#
# number of rings (size 3 to 8) (size 9 to 14) (size 15 to 20)
#    0.000    1.667    3.333    1.500    0.000    6.000 
#    0.000    0.833    0.000    5.000    0.000    0.000 
#    0.000    0.000    0.000    0.000    0.000    0.000 
#
# Total GULP energy -297730.738272 kJ/mol
# GULP energy per Si atom -12405.447428 kJ/mol
# Density = 1.823467 g / cm^3
# Si number density = 18.276268 Si / 1000 Ang^3
#
#
#
# Elastic Constant Matrix: (Units=GPa)
#
#
# Indices 1 2 3 4 5 6 
#
# 1 111.6244 48.5139 30.3121 0.0000 -11.3593 0.0000
# 2 48.5139 69.5859 36.4245 0.0000 -3.3673 0.0000
# 3 30.3121 36.4245 71.5793 0.0000 -20.2706 0.0000
# 4 0.0000 0.0000 0.0000 31.1345 0.0000 -5.0111
# 5 -11.3593 -3.3673 -20.2706 0.0000 26.9742 0.0000
# 6 0.0000 0.0000 0.0000 -5.0111 0.0000 33.1991
#
#
#
# Elastic Compliance Matrix: (Units=1/GPa)
#
#
# Indices 1 2 3 4 5 6 
#
# 1 0.013382 -0.009327 0.000439 0.000000 0.004801 0.000000
# 2 -0.009327 0.027002 -0.012638 0.000000 -0.010054 0.000000
# 3 0.000439 -0.012638 0.025180 0.000000 0.017529 0.000000
# 4 0.000000 0.000000 0.000000 0.032918 0.000000 0.004969
# 5 0.004801 -0.010054 0.017529 0.000000 0.051012 0.000000
# 6 0.000000 0.000000 0.000000 0.004969 0.000000 0.030871
#
#
# Mechanical properties :
#
#
# Convention : Reuss Voigt Hill
#
# Bulk Modulus (GPa) = 44.42165 53.69896 49.06031
# Shear Modulus (GPa) = 21.65247 27.43084 24.54165
#
# Velocity S-wave (km/s) = 3.44573 3.87835 3.66842
# Velocity P-wave (km/s) = 6.33949 7.03570 6.69665
#
# Compressibility (1/GPa) = 0.02251154
#
# Stress axis : x y z
#
# Youngs Moduli (GPa) = 74.72991 37.03448 39.71423
#
# Poissons Ratio (x) = 0.34541 -0.01743
# Poissons Ratio (y) = 0.69698 0.50191
# Poissons Ratio (z) = -0.03279 0.46804
#
# Static dielectric constant tensor:
#      x y z
#    x 3.497420 0.000000 0.015600 
#    y 0.000000 3.373130 0.000000 
#    z 0.015600 0.000000 3.345530 
# 
# 
# High freq. dielectric constant tensor:
#      x y z
#    x 1.707950 0.000000 -0.002320 
#    y 0.000000 1.709320 0.000000 
#    z -0.002320 0.000000 1.706910 
# 
# From -- ./inp_files/45004.got.cif
#   From: 2010.06.25/outbox.cif.g09.slc.cpg/sg10_23_cif.got.tgz:45004.got - 2010.06.27 22:07:45.
