data_PCOD8064518
_publ_section_title
;
Structure prediction by ZEFSAII (Michael W. Deem and Ramdas Pophale) SiO2 
 PCOD8064518
Probable space group: P 2/M
;
_chemical_formula_sum "Si O2"
_cell_formula_units_Z 28
_cell_length_a 8.867382
_cell_length_b 21.306954
_cell_length_c 15.106721
_cell_angle_alpha 90.000000
_cell_angle_beta 149.968616
_cell_angle_gamma 90.000000
_cell_volume 1428.462258
_symmetry_space_group_name_H-M "P 2/M"
_symmetry_group_IT_number 10
_symmetry_cell_setting 'monoclinic'
loop_
_space_group_symop_operation_xyz
x,y,z
-x,y,-z
-x,-y,-z
x,-y,z
loop_
_atom_site_type_symbol
_atom_site_label
_atom_site_fract_x
_atom_site_fract_y
_atom_site_fract_z
Si Si1 0.978673 0.070793 0.777995
Si Si2 0.647638 0.591733 0.670702
Si Si3 0.120021 0.500000 0.962244
Si Si4 0.325151 0.263336 0.321180
Si Si5 0.300273 0.194303 0.979343
Si Si6 0.664410 0.191455 0.340686
Si Si7 0.650729 0.500000 0.346375
Si Si8 0.372111 0.070452 0.576008
O O1 0.702832 0.080045 0.704419
O O2 0.873421 0.084298 0.624535
O O3 0.107566 0.000000 0.851969
O O4 0.233740 0.120363 0.933259
O O5 0.500000 0.580251 0.500000
O O6 0.688645 0.664347 0.713567
O O7 0.436614 0.561095 0.639505
O O8 0.983414 0.560931 0.842549
O O9 0.481169 0.500000 0.162687
O O10 0.000000 0.500000 0.000000
O O11 0.500000 0.252557 0.500000
O O12 0.502650 0.226234 0.337586
O O13 0.994171 0.236437 0.165183
O O14 0.483536 0.204711 0.160888
O O15 0.500000 0.219349 0.000000
O O16 0.677678 0.117175 0.367896
O O17 0.000000 0.218386 0.500000
O O18 0.000000 0.500000 0.500000
O O19 0.335735 0.000000 0.594186
#
# Coordination Sequence:
#
# PCOD8064518 Si02
#       8
#     4   4   2   4   4   4   2   4
#     4   9  18  35  60  85 113 149 190 245 308 369
#     4   9  19  38  63  86 118 162 201 234 290 353
#     4   8  16  33  58  87 118 155 189 228 272 328
#     4  11  23  42  64  87 120 162 201 253 303 353
#     4  12  25  40  60  87 118 155 201 251 303 367
#     4  12  25  39  59  86 116 156 200 249 303 364
#     4  10  20  35  60  95 130 159 196 246 286 326
#     4   9  18  35  59  84 112 149 191 242 305 367
#
# _framework density 19.601496999999998
#
# number of rings (size 3 to 8) (size 9 to 14) (size 15 to 20)
#    0.000    2.000    1.429    4.714    0.000    5.143 
#    0.000    5.714    0.000    0.000    0.000    0.000 
#    0.000    0.000    0.000    0.000    0.000    0.000 
#
# Total GULP energy -347165.375551 kJ/mol
# GULP energy per Si atom -12398.763413 kJ/mol
# Density = 1.955688 g / cm^3
# Si number density = 19.601497 Si / 1000 Ang^3
#
#
#
# Elastic Constant Matrix: (Units=GPa)
#
#
# Indices 1 2 3 4 5 6 
#
# 1 105.9974 58.0379 53.9974 0.0000 11.7118 0.0000
# 2 58.0379 132.9538 63.3251 0.0000 2.5014 0.0000
# 3 53.9974 63.3251 141.7033 0.0000 9.6954 0.0000
# 4 0.0000 0.0000 0.0000 21.3565 0.0000 -5.8957
# 5 11.7118 2.5014 9.6954 0.0000 33.6784 0.0000
# 6 0.0000 0.0000 0.0000 -5.8957 0.0000 -18.1102
#
#
#
# Elastic Compliance Matrix: (Units=1/GPa)
#
#
# Indices 1 2 3 4 5 6 
#
# 1 0.013853 -0.004551 -0.002997 0.000000 -0.003616 0.000000
# 2 -0.004551 0.011060 -0.003326 0.000000 0.001719 0.000000
# 3 -0.002997 -0.003326 0.009790 0.000000 -0.001529 0.000000
# 4 0.000000 0.000000 0.000000 0.042963 0.000000 -0.013986
# 5 -0.003616 0.001719 -0.001529 0.000000 0.031263 0.000000
# 6 0.000000 0.000000 0.000000 -0.013986 0.000000 -0.050664
#
#
# Mechanical properties :
#
#
# Convention : Reuss Voigt Hill
#
# Bulk Modulus (GPa) = 77.19818 81.26393 79.23105
# Shear Modulus (GPa) = 59.29003 21.07122 40.18062
#
# Velocity S-wave (km/s) = 5.50576 3.28225 4.53247
# Velocity P-wave (km/s) = 8.93796 7.47745 8.24013
#
# Compressibility (1/GPa) = 0.01295367
#
# Stress axis : x y z
#
# Youngs Moduli (GPa) = 72.18756 90.41644 102.14512
#
# Poissons Ratio (x) = 0.41153 0.30616
# Poissons Ratio (y) = 0.32856 0.33971
# Poissons Ratio (z) = 0.21637 0.30070
#
# Static dielectric constant tensor:
#      x y z
#    x 3.456160 0.000000 -0.023510 
#    y 0.000000 3.698120 0.000000 
#    z -0.023510 0.000000 4.069470 
# 
# 
# High freq. dielectric constant tensor:
#      x y z
#    x 1.752670 0.000000 -0.006270 
#    y 0.000000 1.763260 0.000000 
#    z -0.006270 0.000000 1.772770 
# 
# From -- ./inp_files/62633.got.cif
#   From: 2010.06.25/outbox.cif.g09.slc.cpg/sg10_32_cif.got.tgz:62633.got - 2010.06.27 22:07:45.
