data_PCOD8064693
_publ_section_title
;
Structure prediction by ZEFSAII (Michael W. Deem and Ramdas Pophale) SiO2 
 PCOD8064693
Probable space group: P 2/M
;
_chemical_formula_sum "Si O2"
_cell_formula_units_Z 32
_cell_length_a 26.344169
_cell_length_b 8.813056
_cell_length_c 21.314861
_cell_angle_alpha 90.000000
_cell_angle_beta 20.079753
_cell_angle_gamma 90.000000
_cell_volume 1699.035812
_symmetry_space_group_name_H-M "P 2/M"
_symmetry_group_IT_number 10
_symmetry_cell_setting 'monoclinic'
loop_
_space_group_symop_operation_xyz
x,y,z
-x,y,-z
-x,-y,-z
x,-y,z
loop_
_atom_site_type_symbol
_atom_site_label
_atom_site_fract_x
_atom_site_fract_y
_atom_site_fract_z
Si Si1 0.348755 0.671106 0.969458
Si Si2 0.646204 0.179488 0.292570
Si Si3 0.543483 0.820933 0.276264
Si Si4 0.677910 0.327931 0.632950
Si Si5 0.951367 0.679404 0.987195
Si Si6 0.345382 0.319146 0.201742
Si Si7 0.161228 0.318941 0.300851
Si Si8 0.775191 0.178202 0.398596
O O1 0.305201 0.500000 0.001349
O O2 0.352723 0.765950 0.900779
O O3 0.502947 0.674503 0.826459
O O4 0.229570 0.743304 0.156190
O O5 0.500000 0.228719 0.500000
O O6 0.616945 0.237320 0.255500
O O7 0.669442 0.000000 0.268398
O O8 0.792195 0.253581 0.152787
O O9 0.373167 0.762873 0.465639
O O10 0.538291 0.000000 0.281135
O O11 0.737839 0.500000 0.554614
O O12 0.706937 0.262467 0.668955
O O13 0.759595 0.216410 0.490078
O O14 0.938357 0.500000 0.998077
O O15 0.079650 0.735797 0.792589
O O16 0.000000 0.733419 0.000000
O O17 0.353607 0.500000 0.195901
O O18 0.237868 0.256155 0.273863
O O19 0.500000 0.250588 0.000000
O O20 0.172061 0.500000 0.285380
O O21 0.000000 0.255939 0.500000
O O22 0.798099 0.000000 0.362484
#
# Coordination Sequence:
#
# PCOD8064693 Si02
#       8
#     4   4   4   4   4   4   4   4
#     4   9  16  28  48  72 100 135 173 216 267 320
#     4  10  21  39  62  85 110 145 188 222 256 313
#     4   9  19  35  56  81 107 140 181 224 265 314
#     4   9  16  28  49  75 102 134 176 224 269 316
#     4  11  24  40  59  86 117 144 174 220 273 317
#     4   9  14  24  44  67  93 131 175 217 265 318
#     4   9  16  26  41  66  97 127 168 220 267 313
#     4  10  20  36  58  81 110 147 184 220 266 324
#
# _framework density 18.834212000000001
#
# number of rings (size 3 to 8) (size 9 to 14) (size 15 to 20)
#    0.000    2.500    1.250    1.500    0.000    3.250 
#    2.250    0.000    0.000    1.500    0.000    0.000 
#    0.000    0.000    0.000    0.000    0.000    0.000 
#
# Total GULP energy -396622.909283 kJ/mol
# GULP energy per Si atom -12394.465915 kJ/mol
# Density = 1.879134 g / cm^3
# Si number density = 18.834212 Si / 1000 Ang^3
#
#
#
# Elastic Constant Matrix: (Units=GPa)
#
#
# Indices 1 2 3 4 5 6 
#
# 1 164.6322 29.3315 85.5345 0.0000 6.1436 0.0000
# 2 29.3315 28.2025 26.1956 0.0000 -1.6281 0.0000
# 3 85.5345 26.1956 148.1443 0.0000 3.6995 0.0000
# 4 0.0000 0.0000 0.0000 22.8509 0.0000 -2.6373
# 5 6.1436 -1.6281 3.6995 0.0000 31.2152 0.0000
# 6 0.0000 0.0000 0.0000 -2.6373 0.0000 27.2557
#
#
#
# Elastic Compliance Matrix: (Units=1/GPa)
#
#
# Indices 1 2 3 4 5 6 
#
# 1 0.009457 -0.005859 -0.004383 0.000000 -0.001647 0.000000
# 2 -0.005859 0.046360 -0.004918 0.000000 0.004154 0.000000
# 3 -0.004383 -0.004918 0.010165 0.000000 -0.000599 0.000000
# 4 0.000000 0.000000 0.000000 0.044256 0.000000 0.004282
# 5 -0.001647 0.004154 -0.000599 0.000000 0.032647 0.000000
# 6 0.000000 0.000000 0.000000 0.004282 0.000000 0.037104
#
#
# Mechanical properties :
#
#
# Convention : Reuss Voigt Hill
#
# Bulk Modulus (GPa) = 28.04186 69.23359 48.63773
# Shear Modulus (GPa) = 22.50251 29.59218 26.04735
#
# Velocity S-wave (km/s) = 3.46029 3.96813 3.72288
# Velocity P-wave (km/s) = 5.55751 7.60487 6.66033
#
# Compressibility (1/GPa) = 0.03566097
#
# Stress axis : x y z
#
# Youngs Moduli (GPa) = 105.74601 21.57034 98.37402
#
# Poissons Ratio (x) = 0.12639 0.43115
# Poissons Ratio (y) = 0.61961 0.48383
# Poissons Ratio (z) = 0.46346 0.10609
#
# Static dielectric constant tensor:
#      x y z
#    x 3.679890 0.000000 0.109430 
#    y 0.000000 3.096740 0.000000 
#    z 0.109430 0.000000 3.481830 
# 
# 
# High freq. dielectric constant tensor:
#      x y z
#    x 1.739760 0.000000 0.013450 
#    y 0.000000 1.694400 0.000000 
#    z 0.013450 0.000000 1.733180 
# 
# From -- ./inp_files/86740.got.cif
#   From: 2010.06.25/outbox.cif.g09.slc.cpg/sg10_44_cif.got.tgz:86740.got - 2010.06.27 22:07:45.
