data_PCOD8064860
_publ_section_title
;
Structure prediction by ZEFSAII (Michael W. Deem and Ramdas Pophale) SiO2 
 PCOD8064860
Probable space group: P 2/M
;
_chemical_formula_sum "Si O2"
_cell_formula_units_Z 28
_cell_length_a 10.169302
_cell_length_b 8.929517
_cell_length_c 27.680698
_cell_angle_alpha 90.000000
_cell_angle_beta 34.663215
_cell_angle_gamma 90.000000
_cell_volume 1429.613899
_symmetry_space_group_name_H-M "P 2/M"
_symmetry_group_IT_number 10
_symmetry_cell_setting 'monoclinic'
loop_
_space_group_symop_operation_xyz
x,y,z
-x,y,-z
-x,-y,-z
x,-y,z
loop_
_atom_site_type_symbol
_atom_site_label
_atom_site_fract_x
_atom_site_fract_y
_atom_site_fract_z
Si Si1 0.926703 0.672267 0.968146
Si Si2 0.590929 0.676580 0.339816
Si Si3 0.600927 0.673997 0.226759
Si Si4 0.863868 0.823524 0.494272
Si Si5 0.515007 0.825427 0.939355
Si Si6 0.070825 0.677123 0.241303
Si Si7 0.825353 0.176613 0.689622
O O1 0.844219 0.500000 0.989747
O O2 0.137756 0.703256 0.868379
O O3 0.000000 0.713190 0.000000
O O4 0.720569 0.780629 0.015708
O O5 0.565576 0.500000 0.350345
O O6 0.575684 0.731878 0.289123
O O7 0.387704 0.749917 0.432438
O O8 0.832710 0.729753 0.288918
O O9 0.535951 0.500000 0.241314
O O10 0.432808 0.767644 0.243170
O O11 0.000000 0.763037 0.500000
O O12 0.005164 0.773586 0.404595
O O13 0.831521 0.000000 0.506886
O O14 0.723226 0.731694 0.854548
O O15 0.561094 0.000000 0.916657
O O16 0.500000 0.784861 0.000000
O O17 0.086928 0.500000 0.241531
O O18 0.079748 0.749041 0.291044
O O19 0.818672 0.000000 0.698461
#
# Coordination Sequence:
#
# PCOD8064860 Si02
#       7
#     4   4   4   4   4   4   4
#     4  10  21  37  59  87 119 157 200 247 298 352
#     4  10  22  38  60  88 117 154 201 250 294 347
#     4  10  20  36  59  88 118 153 200 248 298 352
#     4  10  21  39  61  88 121 158 199 241 295 359
#     4  11  24  41  62  90 122 158 201 246 296 354
#     4  11  24  42  62  88 122 159 200 245 298 356
#     4  11  23  39  61  89 122 159 198 245 300 355
#
# _framework density 19.585708
#
# number of rings (size 3 to 8) (size 9 to 14) (size 15 to 20)
#    0.000    1.571    1.429    3.000    0.000    7.429 
#    0.000    2.857    0.000    0.000    0.000    0.000 
#    0.000    0.000    0.000    0.000    0.000    0.000 
#
# Total GULP energy -347386.113367 kJ/mol
# GULP energy per Si atom -12406.646906 kJ/mol
# Density = 1.954113 g / cm^3
# Si number density = 19.585708 Si / 1000 Ang^3
#
#
#
# Elastic Constant Matrix: (Units=GPa)
#
#
# Indices 1 2 3 4 5 6 
#
# 1 102.9027 34.5826 45.1933 0.0000 0.9223 0.0000
# 2 34.5826 51.3994 34.3524 0.0000 0.6519 0.0000
# 3 45.1933 34.3524 109.1937 0.0000 -3.8521 0.0000
# 4 0.0000 0.0000 0.0000 18.1496 0.0000 14.7208
# 5 0.9223 0.6519 -3.8521 0.0000 33.9674 0.0000
# 6 0.0000 0.0000 0.0000 14.7208 0.0000 4.1737
#
#
#
# Elastic Compliance Matrix: (Units=1/GPa)
#
#
# Indices 1 2 3 4 5 6 
#
# 1 0.013531 -0.006759 -0.003496 0.000000 -0.000634 0.000000
# 2 -0.006759 0.028074 -0.006072 0.000000 -0.001044 0.000000
# 3 -0.003496 -0.006072 0.012573 0.000000 0.001637 0.000000
# 4 0.000000 0.000000 0.000000 -0.029610 0.000000 0.104438
# 5 -0.000634 -0.001044 0.001637 0.000000 0.029663 0.000000
# 6 0.000000 0.000000 0.000000 0.104438 0.000000 -0.128764
#
#
# Mechanical properties :
#
#
# Convention : Reuss Voigt Hill
#
# Bulk Modulus (GPa) = 46.45893 54.63913 50.54903
# Shear Modulus (GPa) = -144.06794 21.21597 -61.42598
#
# Velocity S-wave (km/s) = -8.58588 3.29483 -5.60631
# Velocity P-wave (km/s) = 8.63235 6.51403 4.00531
#
# Compressibility (1/GPa) = 0.02152439
#
# Stress axis : x y z
#
# Youngs Moduli (GPa) = 73.90706 35.61991 79.53646
#
# Poissons Ratio (x) = 0.24076 0.27806
# Poissons Ratio (y) = 0.49954 0.48291
# Poissons Ratio (z) = 0.25838 0.21627
#
# Static dielectric constant tensor:
#      x y z
#    x 3.678430 0.000000 0.071600 
#    y 0.000000 3.497270 0.000000 
#    z 0.071600 0.000000 3.642060 
# 
# 
# High freq. dielectric constant tensor:
#      x y z
#    x 1.772600 0.000000 0.001990 
#    y 0.000000 1.760170 0.000000 
#    z 0.001990 0.000000 1.778260 
# 
# From -- ./inp_files/91996.got.cif
#   From: 2010.06.25/outbox.cif.g09.slc.cpg/sg10_46_cif.got.tgz:91996.got - 2010.06.27 22:07:45.
