data_PCOD8064869
_publ_section_title
;
Structure prediction by ZEFSAII (Michael W. Deem and Ramdas Pophale) SiO2 
 PCOD8064869
Probable space group: P 2/M
;
_chemical_formula_sum "Si O2"
_cell_formula_units_Z 24
_cell_length_a 10.063481
_cell_length_b 8.401093
_cell_length_c 15.034428
_cell_angle_alpha 90.000000
_cell_angle_beta 110.686253
_cell_angle_gamma 90.000000
_cell_volume 1189.126618
_symmetry_space_group_name_H-M "P 2/M"
_symmetry_group_IT_number 10
_symmetry_cell_setting 'monoclinic'
loop_
_space_group_symop_operation_xyz
x,y,z
-x,y,-z
-x,-y,-z
x,-y,z
loop_
_atom_site_type_symbol
_atom_site_label
_atom_site_fract_x
_atom_site_fract_y
_atom_site_fract_z
Si Si1 0.111958 0.685798 0.906522
Si Si2 0.400116 0.182050 0.303611
Si Si3 0.804877 0.684092 0.600991
Si Si4 0.104175 0.183130 0.716741
Si Si5 0.181881 0.184806 0.104664
Si Si6 0.703041 0.317007 0.383646
O O1 0.144588 0.500000 0.911005
O O2 0.161649 0.765989 0.826819
O O3 0.944405 0.713114 0.881722
O O4 0.203414 0.764740 0.007463
O O5 0.288223 0.209477 0.355589
O O6 0.326100 0.220902 0.191757
O O7 0.534012 0.295984 0.346838
O O8 0.451122 0.000000 0.319364
O O9 0.766495 0.500000 0.607242
O O10 0.770342 0.737405 0.492744
O O11 0.970655 0.709887 0.657727
O O12 0.231412 0.208346 0.677750
O O13 0.057539 0.000000 0.706704
O O14 0.139252 0.000000 0.101532
O O15 0.739329 0.500000 0.372485
#
# Coordination Sequence:
#
# PCOD8064869 Si02
#       6
#     4   4   4   4   4   4
#     4  11  21  35  60  90 119 154 197 245 297 354
#     4  11  23  39  62  91 123 160 200 245 297 353
#     4  11  23  40  63  89 119 158 204 250 297 352
#     4  12  24  40  62  89 121 158 200 250 302 357
#     4  10  20  36  59  89 122 154 195 246 296 348
#     4  11  25  42  60  86 123 162 200 248 301 356
#
# _framework density 20.182880000000001
#
# number of rings (size 3 to 8) (size 9 to 14) (size 15 to 20)
#    0.000    1.000    1.667    7.000    0.000    8.667 
#    0.000    0.833    0.000    5.000    0.000    0.000 
#    0.000    0.000    0.000    0.000    0.000    0.000 
#
# Total GULP energy -297790.940893 kJ/mol
# GULP energy per Si atom -12407.955871 kJ/mol
# Density = 2.013694 g / cm^3
# Si number density = 20.182880 Si / 1000 Ang^3
#
#
#
# Elastic Constant Matrix: (Units=GPa)
#
#
# Indices 1 2 3 4 5 6 
#
# 1 64.5981 12.0985 30.4770 0.0000 -11.5060 0.0000
# 2 12.0985 69.6327 45.6221 0.0000 -0.1814 0.0000
# 3 30.4770 45.6221 150.1259 0.0000 -16.3002 0.0000
# 4 0.0000 0.0000 0.0000 25.6376 0.0000 -1.1683
# 5 -11.5060 -0.1814 -16.3002 0.0000 16.8467 0.0000
# 6 0.0000 0.0000 0.0000 -1.1683 0.0000 31.1126
#
#
#
# Elastic Compliance Matrix: (Units=1/GPa)
#
#
# Indices 1 2 3 4 5 6 
#
# 1 0.018723 -0.001874 -0.002062 0.000000 0.010772 0.000000
# 2 -0.001874 0.018618 -0.006028 0.000000 -0.006912 0.000000
# 3 -0.002062 -0.006028 0.009779 0.000000 0.007989 0.000000
# 4 0.000000 0.000000 0.000000 0.039072 0.000000 0.001467
# 5 0.010772 -0.006912 0.007989 0.000000 0.074371 0.000000
# 6 0.000000 0.000000 0.000000 0.001467 0.000000 0.032196
#
#
# Mechanical properties :
#
#
# Convention : Reuss Voigt Hill
#
# Bulk Modulus (GPa) = 36.77537 51.19467 43.98502
# Shear Modulus (GPa) = 22.54783 27.79664 25.17224
#
# Velocity S-wave (km/s) = 3.34604 3.71514 3.53541
# Velocity P-wave (km/s) = 5.76096 6.61993 6.20533
#
# Compressibility (1/GPa) = 0.02719212
#
# Stress axis : x y z
#
# Youngs Moduli (GPa) = 53.41084 53.71133 102.26181
#
# Poissons Ratio (x) = 0.10066 0.21084
# Poissons Ratio (y) = 0.10010 0.61642
# Poissons Ratio (z) = 0.11012 0.32377
#
# Static dielectric constant tensor:
#      x y z
#    x 3.303930 0.000000 -0.005080 
#    y 0.000000 3.648650 0.000000 
#    z -0.005080 0.000000 4.015070 
# 
# 
# High freq. dielectric constant tensor:
#      x y z
#    x 1.761650 0.000000 -0.001050 
#    y 0.000000 1.799930 0.000000 
#    z -0.001050 0.000000 1.807670 
# 
# From -- ./inp_files/60366.got.cif
#   From: 2010.06.25/outbox.cif.g09.slc.cpg/sg10_31_cif.got.tgz:60366.got - 2010.06.27 22:07:45.
