data_PCOD8064219
_publ_section_title
;
Structure prediction by ZEFSAII (Michael W. Deem and Ramdas Pophale) SiO2 
 PCOD8064219
Probable space group: P 2/M
;
_chemical_formula_sum "Si O2"
_cell_formula_units_Z 32
_cell_length_a 10.744082
_cell_length_b 9.211109
_cell_length_c 19.098015
_cell_angle_alpha 90.000000
_cell_angle_beta 121.910026
_cell_angle_gamma 90.000000
_cell_volume 1604.410002
_symmetry_space_group_name_H-M "P 2/M"
_symmetry_group_IT_number 10
_symmetry_cell_setting 'monoclinic'
loop_
_space_group_symop_operation_xyz
x,y,z
-x,y,-z
-x,-y,-z
x,-y,z
loop_
_atom_site_type_symbol
_atom_site_label
_atom_site_fract_x
_atom_site_fract_y
_atom_site_fract_z
Si Si1 0.310400 0.832804 0.366860
Si Si2 0.608609 0.163753 0.380305
Si Si3 0.900232 0.338631 0.313138
Si Si4 0.389478 0.832075 0.774857
Si Si5 0.925953 0.663921 0.777881
Si Si6 0.904439 0.327510 0.036601
Si Si7 0.199683 0.668961 0.467097
Si Si8 0.570406 0.327523 0.947081
O O1 0.478814 0.814557 0.396660
O O2 0.213796 0.765347 0.275715
O O3 0.286919 0.750132 0.432020
O O4 0.266241 0.000000 0.363588
O O5 0.547554 0.196799 0.284283
O O6 0.742611 0.270128 0.441380
O O7 0.669646 0.000000 0.401110
O O8 0.834072 0.500000 0.306961
O O9 0.779417 0.214926 0.279708
O O10 0.969379 0.334561 0.257290
O O11 0.025458 0.304294 0.408081
O O12 0.477049 0.737498 0.856297
O O13 0.399127 0.000000 0.799686
O O14 0.871198 0.500000 0.777036
O O15 0.016172 0.727767 0.869890
O O16 0.898545 0.500000 0.032523
O O17 0.737054 0.269106 0.988143
O O18 0.000000 0.266436 0.000000
O O19 0.236365 0.500000 0.471673
O O20 0.563009 0.500000 0.938862
O O21 0.500000 0.276743 0.000000
#
# Coordination Sequence:
#
# PCOD8064219 Si02
#       8
#     4   4   4   4   4   4   4   4
#     4  10  20  35  56  80 113 154 188 223 278 341
#     4  10  23  39  53  77 117 155 185 227 282 336
#     4   9  19  37  57  80 110 144 184 233 286 333
#     4  11  24  39  57  83 114 149 191 234 276 333
#     4   9  18  34  57  83 111 142 183 236 281 330
#     4   9  18  32  54  85 115 144 185 237 289 342
#     4  10  21  37  59  86 111 141 188 239 280 329
#     4  10  21  39  62  85 113 152 193 238 295 349
#
# _framework density 19.945025999999999
#
# number of rings (size 3 to 8) (size 9 to 14) (size 15 to 20)
#    0.000    2.250    0.000    3.000    1.750    8.750 
#    0.000    3.125    0.000    0.750    0.000    0.000 
#    0.000    0.000    0.000    0.000    0.000    0.000 
#
# Total GULP energy -396795.171229 kJ/mol
# GULP energy per Si atom -12399.849101 kJ/mol
# Density = 1.989963 g / cm^3
# Si number density = 19.945026 Si / 1000 Ang^3
#
#
#
# Elastic Constant Matrix: (Units=GPa)
#
#
# Indices 1 2 3 4 5 6 
#
# 1 72.0780 27.3438 32.8144 0.0000 9.8121 0.0000
# 2 27.3438 73.7945 48.5990 0.0000 5.0623 0.0000
# 3 32.8144 48.5990 130.7185 0.0000 7.2632 0.0000
# 4 0.0000 0.0000 0.0000 26.2574 0.0000 0.8014
# 5 9.8121 5.0623 7.2632 0.0000 20.0885 0.0000
# 6 0.0000 0.0000 0.0000 0.8014 0.0000 18.8420
#
#
#
# Elastic Compliance Matrix: (Units=1/GPa)
#
#
# Indices 1 2 3 4 5 6 
#
# 1 0.017553 -0.004491 -0.002371 0.000000 -0.006585 0.000000
# 2 -0.004491 0.019186 -0.005979 0.000000 -0.000479 0.000000
# 3 -0.002371 -0.005979 0.010532 0.000000 -0.001143 0.000000
# 4 0.000000 0.000000 0.000000 0.038134 0.000000 -0.001622
# 5 -0.006585 -0.000479 -0.001143 0.000000 0.053530 0.000000
# 6 0.000000 0.000000 0.000000 -0.001622 0.000000 0.053142
#
#
# Mechanical properties :
#
#
# Convention : Reuss Voigt Hill
#
# Bulk Modulus (GPa) = 46.32004 54.90060 50.61032
# Shear Modulus (GPa) = 22.22670 24.22651 23.22661
#
# Velocity S-wave (km/s) = 3.34188 3.48898 3.41623
# Velocity P-wave (km/s) = 6.17780 6.61940 6.40240
#
# Compressibility (1/GPa) = 0.02158893
#
# Stress axis : x y z
#
# Youngs Moduli (GPa) = 56.96903 52.12213 94.95284
#
# Poissons Ratio (x) = 0.23409 0.22512
# Poissons Ratio (y) = 0.25586 0.56771
# Poissons Ratio (z) = 0.13506 0.31163
#
# Static dielectric constant tensor:
#      x y z
#    x 3.647050 0.000000 -0.017100 
#    y 0.000000 3.531680 0.000000 
#    z -0.017100 0.000000 3.797010 
# 
# 
# High freq. dielectric constant tensor:
#      x y z
#    x 1.772720 0.000000 -0.001500 
#    y 0.000000 1.761470 0.000000 
#    z -0.001500 0.000000 1.792120 
# 
# From -- ./inp_files/83620.got.cif
#   From: 2010.06.25/outbox.cif.g09.slc.cpg/sg10_42_cif.got.tgz:83620.got - 2010.06.27 22:07:45.
