data_PCOD8064038
_publ_section_title
;
Structure prediction by ZEFSAII (Michael W. Deem and Ramdas Pophale) SiO2 
 PCOD8064038
Probable space group: P 2/M
;
_chemical_formula_sum "Si O2"
_cell_formula_units_Z 28
_cell_length_a 14.724116
_cell_length_b 8.765995
_cell_length_c 21.733361
_cell_angle_alpha 90.000000
_cell_angle_beta 30.888139
_cell_angle_gamma 90.000000
_cell_volume 1440.066087
_symmetry_space_group_name_H-M "P 2/M"
_symmetry_group_IT_number 10
_symmetry_cell_setting 'monoclinic'
loop_
_space_group_symop_operation_xyz
x,y,z
-x,y,-z
-x,-y,-z
x,-y,z
loop_
_atom_site_type_symbol
_atom_site_label
_atom_site_fract_x
_atom_site_fract_y
_atom_site_fract_z
Si Si1 0.906821 0.174845 0.491118
Si Si2 0.757227 0.825406 0.782587
Si Si3 0.460789 0.321777 0.873837
Si Si4 0.537673 0.322538 0.692664
Si Si5 0.234934 0.682131 0.641734
Si Si6 0.535248 0.819535 0.388746
Si Si7 0.835089 0.679029 0.861840
O O1 0.745357 0.287139 0.573212
O O2 0.000000 0.223103 0.500000
O O3 0.042389 0.197254 0.356462
O O4 0.839265 0.000000 0.534091
O O5 0.626184 0.761336 0.807782
O O6 0.734642 0.744143 0.860988
O O7 0.708971 0.000000 0.820278
O O8 0.496755 0.500000 0.860597
O O9 0.448200 0.276582 0.809468
O O10 0.277420 0.272798 0.012758
O O11 0.511818 0.500000 0.692862
O O12 0.440915 0.223925 0.696431
O O13 0.251015 0.500000 0.628549
O O14 0.345576 0.757639 0.522152
O O15 0.308576 0.739398 0.664176
O O16 0.033966 0.741665 0.753246
O O17 0.544236 0.000000 0.392927
O O18 0.841029 0.500000 0.850363
#
# Coordination Sequence:
#
# PCOD8064038 Si02
#       7
#     4   4   4   4   4   4   4
#     4  10  20  35  53  77 113 147 178 224 279 329
#     4  11  22  35  55  82 111 147 188 229 276 328
#     4  10  22  39  56  77 110 150 189 230 273 322
#     4  11  22  36  57  83 111 147 191 230 271 327
#     4  10  20  38  63  88 112 140 183 231 272 326
#     4  11  22  37  60  87 117 146 174 221 285 338
#     4  10  22  39  58  80 109 146 186 230 278 323
#
# _framework density 19.443552
#
# number of rings (size 3 to 8) (size 9 to 14) (size 15 to 20)
#    0.000    1.571    1.429    4.714    0.000    7.714 
#    0.000    0.714    0.000    4.286    0.000    0.000 
#    0.000    0.000    0.000    0.000    0.000    0.000 
#
# Total GULP energy -347315.705956 kJ/mol
# GULP energy per Si atom -12404.132356 kJ/mol
# Density = 1.939930 g / cm^3
# Si number density = 19.443552 Si / 1000 Ang^3
#
#
#
# Elastic Constant Matrix: (Units=GPa)
#
#
# Indices 1 2 3 4 5 6 
#
# 1 84.1925 10.6735 32.6516 0.0000 22.3629 0.0000
# 2 10.6735 35.3718 17.7642 0.0000 7.5505 0.0000
# 3 32.6516 17.7642 73.0882 0.0000 15.4379 0.0000
# 4 0.0000 0.0000 0.0000 16.4178 0.0000 5.3531
# 5 22.3629 7.5505 15.4379 0.0000 29.8755 0.0000
# 6 0.0000 0.0000 0.0000 5.3531 0.0000 16.3217
#
#
#
# Elastic Compliance Matrix: (Units=1/GPa)
#
#
# Indices 1 2 3 4 5 6 
#
# 1 0.016499 -0.000287 -0.005285 0.000000 -0.009547 0.000000
# 2 -0.000287 0.032779 -0.006886 0.000000 -0.004511 0.000000
# 3 -0.005285 -0.006886 0.018537 0.000000 -0.003883 0.000000
# 4 0.000000 0.000000 0.000000 0.068203 0.000000 -0.022369
# 5 -0.009547 -0.004511 -0.003883 0.000000 0.043765 0.000000
# 6 0.000000 0.000000 0.000000 -0.022369 0.000000 0.068605
#
#
# Mechanical properties :
#
#
# Convention : Reuss Voigt Hill
#
# Bulk Modulus (GPa) = 23.30990 34.98121 29.14555
# Shear Modulus (GPa) = 17.38511 21.29387 19.33949
#
# Velocity S-wave (km/s) = 2.99345 3.31292 3.15723
# Velocity P-wave (km/s) = 4.89512 5.71525 5.32101
#
# Compressibility (1/GPa) = 0.04290023
#
# Stress axis : x y z
#
# Youngs Moduli (GPa) = 60.60882 30.50741 53.94695
#
# Poissons Ratio (x) = 0.00875 0.28509
# Poissons Ratio (y) = 0.01738 0.37148
# Poissons Ratio (z) = 0.32030 0.21007
#
# Static dielectric constant tensor:
#      x y z
#    x 3.603140 0.000000 0.116280 
#    y 0.000000 3.513660 0.000000 
#    z 0.116280 0.000000 3.683930 
# 
# 
# High freq. dielectric constant tensor:
#      x y z
#    x 1.760430 0.000000 0.011670 
#    y 0.000000 1.759260 0.000000 
#    z 0.011670 0.000000 1.751890 
# 
# From -- ./inp_files/84909.got.cif
#   From: 2010.06.25/outbox.cif.g09.slc.cpg/sg10_43_cif.got.tgz:84909.got - 2010.06.27 22:07:45.
