data_PCOD8064847
_publ_section_title
;
Structure prediction by ZEFSAII (Michael W. Deem and Ramdas Pophale) SiO2 
 PCOD8064847
Probable space group: P 2/M
;
_chemical_formula_sum "Si O2"
_cell_formula_units_Z 24
_cell_length_a 14.673800
_cell_length_b 9.040695
_cell_length_c 14.901457
_cell_angle_alpha 90.000000
_cell_angle_beta 139.699696
_cell_angle_gamma 90.000000
_cell_volume 1278.612698
_symmetry_space_group_name_H-M "P 2/M"
_symmetry_group_IT_number 10
_symmetry_cell_setting 'monoclinic'
loop_
_space_group_symop_operation_xyz
x,y,z
-x,y,-z
-x,-y,-z
x,-y,z
loop_
_atom_site_type_symbol
_atom_site_label
_atom_site_fract_x
_atom_site_fract_y
_atom_site_fract_z
Si Si1 0.842367 0.824626 0.103915
Si Si2 0.153822 0.829914 0.388313
Si Si3 0.846936 0.327303 0.921447
Si Si4 0.341579 0.674018 0.386669
Si Si5 0.841801 0.829256 0.400991
Si Si6 0.335079 0.672587 0.878614
O O1 0.727465 0.756558 0.083275
O O2 0.996817 0.770102 0.250799
O O3 0.829407 0.000000 0.097994
O O4 0.809904 0.768360 0.980117
O O5 0.267120 0.741355 0.416927
O O6 0.192787 0.806590 0.520958
O O7 0.162402 0.000000 0.366312
O O8 0.837803 0.500000 0.939212
O O9 0.735856 0.279967 0.762648
O O10 0.000000 0.284690 0.000000
O O11 0.500000 0.735182 0.500000
O O12 0.338371 0.500000 0.398027
O O13 0.732584 0.730979 0.264064
O O14 0.000000 0.774956 0.500000
O O15 0.826244 0.000000 0.359483
O O16 0.302488 0.500000 0.863688
O O17 0.500000 0.705901 0.000000
#
# Coordination Sequence:
#
# PCOD8064847 Si02
#       6
#     4   4   4   4   4   4
#     4  11  22  38  62  89 117 154 198 244 295 351
#     4  10  21  37  60  88 117 150 192 242 289 345
#     4  10  20  36  59  87 117 152 195 241 288 343
#     4  10  22  39  58  83 118 155 190 237 294 345
#     4  10  20  39  63  89 121 154 195 245 295 351
#     4  11  25  42  60  88 124 158 197 246 297 354
#
# _framework density 18.770344000000001
#
# number of rings (size 3 to 8) (size 9 to 14) (size 15 to 20)
#    0.000    1.667    3.333    1.000    0.000    5.667 
#    0.000    5.000    0.000    0.000    0.000    0.000 
#    0.000    0.000    0.000    0.000    0.000    0.000 
#
# Total GULP energy -297733.316226 kJ/mol
# GULP energy per Si atom -12405.554843 kJ/mol
# Density = 1.872762 g / cm^3
# Si number density = 18.770344 Si / 1000 Ang^3
#
#
#
# Elastic Constant Matrix: (Units=GPa)
#
#
# Indices 1 2 3 4 5 6 
#
# 1 142.3663 60.9861 75.0097 0.0000 1.3721 0.0000
# 2 60.9861 64.9322 54.5471 0.0000 2.1075 0.0000
# 3 75.0097 54.5471 141.1818 0.0000 6.6746 0.0000
# 4 0.0000 0.0000 0.0000 23.7370 0.0000 -4.7456
# 5 1.3721 2.1075 6.6746 0.0000 32.3609 0.0000
# 6 0.0000 0.0000 0.0000 -4.7456 0.0000 38.0269
#
#
#
# Elastic Compliance Matrix: (Units=1/GPa)
#
#
# Indices 1 2 3 4 5 6 
#
# 1 0.012650 -0.009224 -0.003191 0.000000 0.000723 0.000000
# 2 -0.009224 0.029530 -0.006500 0.000000 -0.000191 0.000000
# 3 -0.003191 -0.006500 0.011374 0.000000 -0.001787 0.000000
# 4 0.000000 0.000000 0.000000 0.043206 0.000000 0.005392
# 5 0.000723 -0.000191 -0.001787 0.000000 0.031252 0.000000
# 6 0.000000 0.000000 0.000000 0.005392 0.000000 0.026970
#
#
# Mechanical properties :
#
#
# Convention : Reuss Voigt Hill
#
# Bulk Modulus (GPa) = 63.59320 81.06289 72.32804
# Shear Modulus (GPa) = 25.24570 29.35411 27.29990
#
# Velocity S-wave (km/s) = 3.67137 3.95885 3.81782
# Velocity P-wave (km/s) = 7.20591 8.01106 7.61913
#
# Compressibility (1/GPa) = 0.01572495
#
# Stress axis : x y z
#
# Youngs Moduli (GPa) = 79.05304 33.86379 87.91692
#
# Poissons Ratio (x) = 0.31234 0.28057
# Poissons Ratio (y) = 0.72915 0.57144
# Poissons Ratio (z) = 0.25229 0.22011
#
# Static dielectric constant tensor:
#      x y z
#    x 3.555130 0.000000 -0.011440 
#    y 0.000000 3.386490 0.000000 
#    z -0.011440 0.000000 3.596580 
# 
# 
# High freq. dielectric constant tensor:
#      x y z
#    x 1.737640 0.000000 -0.006360 
#    y 0.000000 1.725570 0.000000 
#    z -0.006360 0.000000 1.736490 
# 
# From -- ./inp_files/66297.got.cif
#   From: 2010.06.25/outbox.cif.g09.slc.cpg/sg10_34_cif.got.tgz:66297.got - 2010.06.27 22:07:45.
