data_PCOD8064416
_publ_section_title
;
Structure prediction by ZEFSAII (Michael W. Deem and Ramdas Pophale) SiO2 
 PCOD8064416
Probable space group: P 2/M
;
_chemical_formula_sum "Si O2"
_cell_formula_units_Z 32
_cell_length_a 19.933570
_cell_length_b 9.167946
_cell_length_c 25.296296
_cell_angle_alpha 90.000000
_cell_angle_beta 21.314577
_cell_angle_gamma 90.000000
_cell_volume 1680.368187
_symmetry_space_group_name_H-M "P 2/M"
_symmetry_group_IT_number 10
_symmetry_cell_setting 'monoclinic'
loop_
_space_group_symop_operation_xyz
x,y,z
-x,y,-z
-x,-y,-z
x,-y,z
loop_
_atom_site_type_symbol
_atom_site_label
_atom_site_fract_x
_atom_site_fract_y
_atom_site_fract_z
Si Si1 0.788274 0.171895 0.643923
Si Si2 0.508087 0.173434 0.053256
Si Si3 0.238501 0.671547 0.551516
Si Si4 0.131415 0.835328 0.153389
Si Si5 0.914037 0.836275 0.120309
Si Si6 0.618841 0.327673 0.667724
Si Si7 0.455813 0.672883 0.591235
Si Si8 0.243334 0.834623 0.950855
O O1 0.663335 0.227992 0.784828
O O2 0.728262 0.251874 0.634727
O O3 0.000000 0.211591 0.500000
O O4 0.760554 0.000000 0.655188
O O5 0.502738 0.000000 0.056083
O O6 0.500000 0.238397 0.000000
O O7 0.701377 0.229030 0.934724
O O8 0.226781 0.500000 0.566714
O O9 0.282155 0.716069 0.459497
O O10 0.392488 0.733676 0.478870
O O11 0.043526 0.735290 0.710709
O O12 0.081664 0.000000 0.207198
O O13 0.200498 0.830940 0.043457
O O14 0.741190 0.730830 0.246794
O O15 0.853235 0.000000 0.181147
O O16 0.000000 0.834935 0.000000
O O17 0.065284 0.775934 0.050362
O O18 0.617319 0.500000 0.678233
O O19 0.410811 0.272209 0.815674
O O20 0.500000 0.730230 0.500000
O O21 0.448267 0.500000 0.598489
O O22 0.292495 0.000000 0.896672
#
# Coordination Sequence:
#
# PCOD8064416 Si02
#       8
#     4   4   4   4   4   4   4   4
#     4  10  21  38  62  87 113 148 186 229 281 333
#     4   9  18  34  56  85 115 139 177 230 274 325
#     4  10  23  39  54  80 117 152 190 235 281 335
#     4  10  20  35  58  84 109 143 186 234 281 327
#     4  10  21  35  55  84 114 144 182 234 288 335
#     4  11  23  38  57  82 117 155 189 231 280 334
#     4  10  21  38  58  80 110 150 194 238 282 335
#     4  10  20  37  58  82 113 145 186 236 281 335
#
# _framework density 19.043444000000001
#
# number of rings (size 3 to 8) (size 9 to 14) (size 15 to 20)
#    0.000    2.000    1.250    1.875    1.750    3.250 
#    0.000    0.000    0.000    0.750    0.000    0.000 
#    0.000    0.000    0.000    0.000    0.000    0.000 
#
# Total GULP energy -396865.225509 kJ/mol
# GULP energy per Si atom -12402.038297 kJ/mol
# Density = 1.900010 g / cm^3
# Si number density = 19.043444 Si / 1000 Ang^3
#
#
#
# Elastic Constant Matrix: (Units=GPa)
#
#
# Indices 1 2 3 4 5 6 
#
# 1 321.3962 54.9409 229.8303 0.0000 5.9155 0.0000
# 2 54.9409 28.2579 53.4419 0.0000 4.6983 0.0000
# 3 229.8303 53.4419 290.6038 0.0000 6.5910 0.0000
# 4 0.0000 0.0000 0.0000 54.9252 0.0000 -13.1222
# 5 5.9155 4.6983 6.5910 0.0000 37.5051 0.0000
# 6 0.0000 0.0000 0.0000 -13.1222 0.0000 29.7464
#
#
#
# Elastic Compliance Matrix: (Units=1/GPa)
#
#
# Indices 1 2 3 4 5 6 
#
# 1 0.007643 -0.005323 -0.005074 0.000000 0.000353 0.000000
# 2 -0.005323 0.058942 -0.006507 0.000000 -0.005401 0.000000
# 3 -0.005074 -0.006507 0.008648 0.000000 0.000096 0.000000
# 4 0.000000 0.000000 0.000000 0.020351 0.000000 0.008978
# 5 0.000353 -0.005401 0.000096 0.000000 0.027267 0.000000
# 6 0.000000 0.000000 0.000000 0.008978 0.000000 0.037578
#
#
# Mechanical properties :
#
#
# Convention : Reuss Voigt Hill
#
# Bulk Modulus (GPa) = 24.13966 146.29823 85.21894
# Shear Modulus (GPa) = 24.03303 44.57167 34.30235
#
# Velocity S-wave (km/s) = 3.55633 4.84315 4.24874
# Velocity P-wave (km/s) = 5.43755 10.40504 8.30156
#
# Compressibility (1/GPa) = 0.04142561
#
# Stress axis : x y z
#
# Youngs Moduli (GPa) = 130.83428 16.96577 115.62934
#
# Poissons Ratio (x) = 0.09032 0.58669
# Poissons Ratio (y) = 0.69648 0.75238
# Poissons Ratio (z) = 0.66384 0.11039
#
# Static dielectric constant tensor:
#      x y z
#    x 3.867220 0.000000 0.001610 
#    y 0.000000 3.308840 0.000000 
#    z 0.001610 0.000000 3.460930 
# 
# 
# High freq. dielectric constant tensor:
#      x y z
#    x 1.761380 0.000000 -0.002400 
#    y 0.000000 1.715980 0.000000 
#    z -0.002400 0.000000 1.748870 
# 
# From -- ./inp_files/93684.got.cif
#   From: 2010.06.25/outbox.cif.g09.slc.cpg/sg10_47_cif.got.tgz:93684.got - 2010.06.27 22:07:45.
