data_PCOD8064706
_publ_section_title
;
Structure prediction by ZEFSAII (Michael W. Deem and Ramdas Pophale) SiO2 
 PCOD8064706
Probable space group: P 2/M
;
_chemical_formula_sum "Si O2"
_cell_formula_units_Z 32
_cell_length_a 12.191289
_cell_length_b 9.116191
_cell_length_c 28.081867
_cell_angle_alpha 90.000000
_cell_angle_beta 32.390153
_cell_angle_gamma 90.000000
_cell_volume 1671.844241
_symmetry_space_group_name_H-M "P 2/M"
_symmetry_group_IT_number 10
_symmetry_cell_setting 'monoclinic'
loop_
_space_group_symop_operation_xyz
x,y,z
-x,y,-z
-x,-y,-z
x,-y,z
loop_
_atom_site_type_symbol
_atom_site_label
_atom_site_fract_x
_atom_site_fract_y
_atom_site_fract_z
Si Si1 0.597438 0.828968 0.183105
Si Si2 0.238533 0.670764 0.362465
Si Si3 0.457560 0.827817 0.570684
Si Si4 0.098727 0.326252 0.752720
Si Si5 0.080558 0.827024 0.856160
Si Si6 0.632293 0.672439 0.906982
Si Si7 0.768898 0.328136 0.526567
Si Si8 0.348366 0.828313 0.943712
O O1 0.383507 0.752720 0.272618
O O2 0.772406 0.778912 0.155110
O O3 0.676533 0.783838 0.102073
O O4 0.556509 0.000000 0.201702
O O5 0.280396 0.500000 0.342799
O O6 0.285905 0.720086 0.399384
O O7 0.007583 0.706803 0.431284
O O8 0.500000 0.795433 0.500000
O O9 0.245079 0.746990 0.660192
O O10 0.639708 0.765341 0.536458
O O11 0.436124 0.000000 0.588781
O O12 0.130839 0.500000 0.740877
O O13 0.157429 0.263184 0.782655
O O14 0.867055 0.280365 0.826042
O O15 0.091982 0.000000 0.841477
O O16 0.852489 0.777425 0.954031
O O17 0.607985 0.500000 0.910768
O O18 0.547134 0.746679 0.890739
O O19 0.500000 0.731479 0.000000
O O20 0.722353 0.500000 0.535926
O O21 0.383152 0.000000 0.936799
#
# Coordination Sequence:
#
# PCOD8064706 Si02
#       8
#     4   4   4   4   4   4   4   4
#     4  10  21  35  52  81 118 151 186 230 281 337
#     4   9  19  36  58  85 113 145 185 233 283 336
#     4  11  25  42  59  84 118 151 188 237 286 337
#     4  11  23  39  62  87 113 149 191 237 287 339
#     4  10  20  36  58  82 113 151 191 233 279 334
#     4  10  21  39  59  82 114 147 188 240 285 331
#     4   9  19  38  62  84 111 146 188 233 281 339
#     4  10  21  36  56  81 112 152 192 232 280 334
#
# _framework density 19.140539
#
# number of rings (size 3 to 8) (size 9 to 14) (size 15 to 20)
#    0.000    2.000    1.250    2.625    0.000    8.750 
#    0.000    6.250    0.000    2.250    0.000    0.000 
#    0.000    0.000    0.000    0.000    0.000    0.000 
#
# Total GULP energy -396905.732043 kJ/mol
# GULP energy per Si atom -12403.304126 kJ/mol
# Density = 1.909697 g / cm^3
# Si number density = 19.140539 Si / 1000 Ang^3
#
#
#
# Elastic Constant Matrix: (Units=GPa)
#
#
# Indices 1 2 3 4 5 6 
#
# 1 114.4495 49.2852 60.5159 0.0000 -8.3649 0.0000
# 2 49.2852 56.7872 50.8505 0.0000 -0.3351 0.0000
# 3 60.5159 50.8505 120.3172 0.0000 1.3851 0.0000
# 4 0.0000 0.0000 0.0000 34.2246 0.0000 -1.6712
# 5 -8.3649 -0.3351 1.3851 0.0000 28.6471 0.0000
# 6 0.0000 0.0000 0.0000 -1.6712 0.0000 24.6241
#
#
#
# Elastic Compliance Matrix: (Units=1/GPa)
#
#
# Indices 1 2 3 4 5 6 
#
# 1 0.015245 -0.010123 -0.003441 0.000000 0.004500 0.000000
# 2 -0.010123 0.035078 -0.009710 0.000000 -0.002076 0.000000
# 3 -0.003441 -0.009710 0.014167 0.000000 -0.001803 0.000000
# 4 0.000000 0.000000 0.000000 0.029316 0.000000 0.001990
# 5 0.004500 -0.002076 -0.001803 0.000000 0.036284 0.000000
# 6 0.000000 0.000000 0.000000 0.001990 0.000000 0.040746
#
#
# Mechanical properties :
#
#
# Convention : Reuss Voigt Hill
#
# Bulk Modulus (GPa) = 55.73673 68.09524 61.91598
# Shear Modulus (GPa) = 22.38497 26.22597 24.30547
#
# Velocity S-wave (km/s) = 3.42351 3.70561 3.56735
# Velocity P-wave (km/s) = 6.69404 7.34591 7.02754
#
# Compressibility (1/GPa) = 0.01794149
#
# Stress axis : x y z
#
# Youngs Moduli (GPa) = 65.59398 28.50810 70.58851
#
# Poissons Ratio (x) = 0.28859 0.24291
# Poissons Ratio (y) = 0.66402 0.68538
# Poissons Ratio (z) = 0.22573 0.27680
#
# Static dielectric constant tensor:
#      x y z
#    x 3.564250 0.000000 -0.035740 
#    y 0.000000 3.373050 0.000000 
#    z -0.035740 0.000000 3.598050 
# 
# 
# High freq. dielectric constant tensor:
#      x y z
#    x 1.750080 0.000000 -0.004370 
#    y 0.000000 1.737640 0.000000 
#    z -0.004370 0.000000 1.753250 
# 
# From -- ./inp_files/94924.got.cif
#   From: 2010.06.25/outbox.cif.g09.slc.cpg/sg10_48_cif.got.tgz:94924.got - 2010.06.27 22:07:45.
