data_PCOD8064120
_publ_section_title
;
Structure prediction by ZEFSAII (Michael W. Deem and Ramdas Pophale) SiO2 
 PCOD8064120
Probable space group: P 2/M
;
_chemical_formula_sum "Si O2"
_cell_formula_units_Z 32
_cell_length_a 25.243580
_cell_length_b 9.082654
_cell_length_c 15.652562
_cell_angle_alpha 90.000000
_cell_angle_beta 29.730803
_cell_angle_gamma 90.000000
_cell_volume 1779.777299
_symmetry_space_group_name_H-M "P 2/M"
_symmetry_group_IT_number 10
_symmetry_cell_setting 'monoclinic'
loop_
_space_group_symop_operation_xyz
x,y,z
-x,y,-z
-x,-y,-z
x,-y,z
loop_
_atom_site_type_symbol
_atom_site_label
_atom_site_fract_x
_atom_site_fract_y
_atom_site_fract_z
Si Si1 0.693175 0.171613 0.407060
Si Si2 0.546379 0.169963 0.845160
Si Si3 0.510618 0.673648 0.244176
Si Si4 0.946923 0.172686 0.663961
Si Si5 0.799915 0.667567 0.104562
Si Si6 0.217169 0.167355 0.536180
Si Si7 0.736355 0.670330 0.005129
Si Si8 0.028098 0.670841 0.712590
O O1 0.581402 0.256804 0.568443
O O2 0.758561 0.220985 0.233288
O O3 0.764301 0.205685 0.390616
O O4 0.666433 0.000000 0.438751
O O5 0.491840 0.266805 0.848561
O O6 0.673540 0.192099 0.668798
O O7 0.517629 0.000000 0.867312
O O8 0.500000 0.224379 0.000000
O O9 0.494488 0.500000 0.265796
O O10 0.622875 0.720194 0.127773
O O11 0.000000 0.212993 0.500000
O O12 0.020125 0.242541 0.635045
O O13 0.941516 0.000000 0.687567
O O14 0.827314 0.235528 0.831498
O O15 0.782069 0.500000 0.160329
O O16 0.735609 0.698570 0.107601
O O17 0.924625 0.700478 0.915587
O O18 0.130524 0.278594 0.621622
O O19 0.176656 0.000000 0.582103
O O20 0.761265 0.500000 0.951141
O O21 0.038585 0.500000 0.675252
#
# Coordination Sequence:
#
# PCOD8064120 Si02
#       8
#     4   4   4   4   4   4   4   4
#     4  10  21  36  54  78 106 137 174 215 261 309
#     4   9  19  36  55  76 106 141 175 215 262 310
#     4  10  20  35  55  78 106 138 174 217 260 307
#     4  10  21  36  55  79 106 138 175 214 258 308
#     4   9  19  36  54  74 103 137 172 211 259 312
#     4   9  19  35  53  75 105 138 173 215 260 307
#     4   9  20  37  55  78 107 139 174 213 260 308
#     4  10  21  36  55  78 105 138 174 214 260 310
#
# _framework density 17.979778
#
# number of rings (size 3 to 8) (size 9 to 14) (size 15 to 20)
#    0.000    2.500    0.000    3.000    0.000    9.250 
#    0.000    8.750    0.000    0.000    0.000    0.000 
#    0.000    0.000    0.000    0.000    0.000    0.000 
#
# Total GULP energy -396907.852737 kJ/mol
# GULP energy per Si atom -12403.370398 kJ/mol
# Density = 1.793886 g / cm^3
# Si number density = 17.979778 Si / 1000 Ang^3
#
#
#
# Elastic Constant Matrix: (Units=GPa)
#
#
# Indices 1 2 3 4 5 6 
#
# 1 112.1970 60.8602 82.4370 0.0000 -9.6649 0.0000
# 2 60.8602 86.6402 62.2482 0.0000 0.4099 0.0000
# 3 82.4370 62.2482 111.8392 0.0000 8.2176 0.0000
# 4 0.0000 0.0000 0.0000 32.1587 0.0000 0.3483
# 5 -9.6649 0.4099 8.2176 0.0000 32.7525 0.0000
# 6 0.0000 0.0000 0.0000 0.3483 0.0000 32.0873
#
#
#
# Elastic Compliance Matrix: (Units=1/GPa)
#
#
# Indices 1 2 3 4 5 6 
#
# 1 0.024698 -0.006211 -0.015576 0.000000 0.011274 0.000000
# 2 -0.006211 0.020997 -0.007085 0.000000 -0.000318 0.000000
# 3 -0.015576 -0.007085 0.025161 0.000000 -0.010821 0.000000
# 4 0.000000 0.000000 0.000000 0.031099 0.000000 -0.000338
# 5 0.011274 -0.000318 -0.010821 0.000000 0.036578 0.000000
# 6 0.000000 0.000000 0.000000 -0.000338 0.000000 0.031169
#
#
# Mechanical properties :
#
#
# Convention : Reuss Voigt Hill
#
# Bulk Modulus (GPa) = 76.27064 80.19637 78.23350
# Shear Modulus (GPa) = 21.56878 26.40843 23.98861
#
# Velocity S-wave (km/s) = 3.46730 3.83663 3.65663
# Velocity P-wave (km/s) = 7.65127 8.02040 7.83801
#
# Compressibility (1/GPa) = 0.01311121
#
# Stress axis : x y z
#
# Youngs Moduli (GPa) = 40.48912 47.62621 39.74413
#
# Poissons Ratio (x) = 0.29583 0.61906
# Poissons Ratio (y) = 0.25150 0.28158
# Poissons Ratio (z) = 0.63066 0.33742
#
# Static dielectric constant tensor:
#      x y z
#    x 3.347260 0.000000 -0.013290 
#    y 0.000000 3.330130 0.000000 
#    z -0.013290 0.000000 3.329790 
# 
# 
# High freq. dielectric constant tensor:
#      x y z
#    x 1.697090 0.000000 -0.000010 
#    y 0.000000 1.703360 0.000000 
#    z -0.000010 0.000000 1.697390 
# 
# From -- ./inp_files/71505.got.cif
#   From: 2010.06.25/outbox.cif.g09.slc.cpg/sg10_36_cif.got.tgz:71505.got - 2010.06.27 22:07:45.
