data_PCOD8064204
_publ_section_title
;
Structure prediction by ZEFSAII (Michael W. Deem and Ramdas Pophale) SiO2 
 PCOD8064204
Probable space group: P 2/M
;
_chemical_formula_sum "Si O2"
_cell_formula_units_Z 32
_cell_length_a 20.222354
_cell_length_b 9.006037
_cell_length_c 25.097037
_cell_angle_alpha 90.000000
_cell_angle_beta 23.069208
_cell_angle_gamma 90.000000
_cell_volume 1791.016874
_symmetry_space_group_name_H-M "P 2/M"
_symmetry_group_IT_number 10
_symmetry_cell_setting 'monoclinic'
loop_
_space_group_symop_operation_xyz
x,y,z
-x,y,-z
-x,-y,-z
x,-y,z
loop_
_atom_site_type_symbol
_atom_site_label
_atom_site_fract_x
_atom_site_fract_y
_atom_site_fract_z
Si Si1 0.662687 0.836869 0.342229
Si Si2 0.140835 0.176363 0.708546
Si Si3 0.820447 0.174522 0.883490
Si Si4 0.446266 0.177426 0.410113
Si Si5 0.455053 0.170374 0.195902
Si Si6 0.954003 0.324484 0.680205
Si Si7 0.660470 0.675056 0.613282
Si Si8 0.143030 0.829206 0.353267
O O1 0.500000 0.851580 0.500000
O O2 0.807732 0.755567 0.270876
O O3 0.602907 0.761203 0.330818
O O4 0.729429 0.000000 0.277358
O O5 0.270595 0.230893 0.566940
O O6 0.953862 0.225788 0.830039
O O7 0.157331 0.000000 0.701436
O O8 0.855388 0.258686 0.803153
O O9 0.836651 0.000000 0.860208
O O10 0.637307 0.219532 0.039910
O O11 0.458453 0.250466 0.343134
O O12 0.454146 0.000000 0.399297
O O13 0.405619 0.276529 0.280509
O O14 0.326040 0.192246 0.243199
O O15 0.454568 0.000000 0.216123
O O16 0.943490 0.500000 0.690339
O O17 0.147523 0.269114 0.536293
O O18 0.860553 0.269301 0.696663
O O19 0.646586 0.500000 0.618408
O O20 0.000000 0.772204 0.500000
O O21 0.107727 0.000000 0.364085
#
# Coordination Sequence:
#
# PCOD8064204 Si02
#       8
#     4   4   4   4   4   4   4   4
#     4   7  11  20  39  72 104 127 160 205 252 295
#     4   8  13  24  46  75 104 132 161 203 258 301
#     4  10  20  35  56  80 106 135 169 211 256 305
#     4   9  15  26  49  76 101 131 169 212 251 295
#     4  10  22  38  56  79 102 130 173 216 256 306
#     4  11  23  36  54  79 106 137 172 209 252 308
#     4  11  22  34  51  76 106 138 172 212 254 301
#     4  10  20  36  58  78 100 133 171 215 260 299
#
# _framework density 17.866945000000001
#
# number of rings (size 3 to 8) (size 9 to 14) (size 15 to 20)
#    0.000    2.500    2.500    2.250    0.000    2.750 
#    0.000    2.500    0.000    4.875    0.000    5.250 
#    0.000    0.000    0.000    0.000    0.000    0.000 
#
# Total GULP energy -396614.935721 kJ/mol
# GULP energy per Si atom -12394.216741 kJ/mol
# Density = 1.782628 g / cm^3
# Si number density = 17.866945 Si / 1000 Ang^3
#
#
#
# Elastic Constant Matrix: (Units=GPa)
#
#
# Indices 1 2 3 4 5 6 
#
# 1 124.0642 36.1918 44.4339 0.0000 -11.1668 0.0000
# 2 36.1918 39.7221 25.4969 0.0000 2.8037 0.0000
# 3 44.4339 25.4969 90.3675 0.0000 -7.9688 0.0000
# 4 0.0000 0.0000 0.0000 17.1474 0.0000 4.2341
# 5 -11.1668 2.8037 -7.9688 0.0000 23.3542 0.0000
# 6 0.0000 0.0000 0.0000 4.2341 0.0000 -1.7210
#
#
#
# Elastic Compliance Matrix: (Units=1/GPa)
#
#
# Indices 1 2 3 4 5 6 
#
# 1 0.012569 -0.010116 -0.002773 0.000000 0.006278 0.000000
# 2 -0.010116 0.039987 -0.007380 0.000000 -0.012155 0.000000
# 3 -0.002773 -0.007380 0.014922 0.000000 0.004652 0.000000
# 4 0.000000 0.000000 0.000000 0.036278 0.000000 0.089255
# 5 0.006278 -0.012155 0.004652 0.000000 0.048867 0.000000
# 6 0.000000 0.000000 0.000000 0.089255 0.000000 -0.361467
#
#
# Mechanical properties :
#
#
# Convention : Reuss Voigt Hill
#
# Bulk Modulus (GPa) = 37.11829 51.82211 44.47020
# Shear Modulus (GPa) = -31.38212 17.62487 -6.87862
#
# Velocity S-wave (km/s) = -4.19553 3.14419 -1.96425
# Velocity P-wave (km/s) = 1.62789 6.49990 4.44964
#
# Compressibility (1/GPa) = 0.02694089
#
# Stress axis : x y z
#
# Youngs Moduli (GPa) = 79.55808 25.00832 67.01641
#
# Poissons Ratio (x) = 0.25298 0.18581
# Poissons Ratio (y) = 0.80479 0.49459
# Poissons Ratio (z) = 0.22059 0.18456
#
# Static dielectric constant tensor:
#      x y z
#    x 3.651560 0.000000 -0.306620 
#    y 0.000000 2.958250 0.000000 
#    z -0.306620 0.000000 3.180630 
# 
# 
# High freq. dielectric constant tensor:
#      x y z
#    x 1.712550 0.000000 -0.015590 
#    y 0.000000 1.656640 0.000000 
#    z -0.015590 0.000000 1.662270 
# 
# From -- ./inp_files/93688.got.cif
#   From: 2010.06.25/outbox.cif.g09.slc.cpg/sg10_47_cif.got.tgz:93688.got - 2010.06.27 22:07:45.
