data_PCOD8064837
_publ_section_title
;
Structure prediction by ZEFSAII (Michael W. Deem and Ramdas Pophale) SiO2 
 PCOD8064837
Probable space group: P 2/M
;
_chemical_formula_sum "Si O2"
_cell_formula_units_Z 24
_cell_length_a 8.413093
_cell_length_b 14.113768
_cell_length_c 13.393453
_cell_angle_alpha 90.000000
_cell_angle_beta 132.313004
_cell_angle_gamma 90.000000
_cell_volume 1176.025320
_symmetry_space_group_name_H-M "P 2/M"
_symmetry_group_IT_number 10
_symmetry_cell_setting 'monoclinic'
loop_
_space_group_symop_operation_xyz
x,y,z
-x,y,-z
-x,-y,-z
x,-y,z
loop_
_atom_site_type_symbol
_atom_site_label
_atom_site_fract_x
_atom_site_fract_y
_atom_site_fract_z
Si Si1 0.516215 0.500000 0.390978
Si Si2 0.874858 0.699417 0.051088
Si Si3 0.404323 0.000000 0.100265
Si Si4 0.507986 0.796810 0.203910
Si Si5 0.020941 0.500000 0.124300
Si Si6 0.631987 0.296294 0.453674
Si Si7 0.133144 0.000000 0.802975
Si Si8 0.039708 0.799844 0.712432
O O1 0.500000 0.500000 0.500000
O O2 0.273842 0.500000 0.250114
O O3 0.644118 0.404124 0.414610
O O4 0.963948 0.766382 0.174989
O O5 0.900892 0.594566 0.111371
O O6 0.630557 0.725756 0.923426
O O7 0.000000 0.712359 0.000000
O O8 0.409090 0.097123 0.166018
O O9 0.622481 0.000000 0.130282
O O10 0.180436 0.000000 0.942285
O O11 0.510299 0.765866 0.319975
O O12 0.738225 0.786445 0.250769
O O13 0.000000 0.500000 0.000000
O O14 0.500000 0.292475 0.500000
O O15 0.866802 0.254041 0.571748
O O16 0.995205 0.911908 0.703613
#
# Coordination Sequence:
#
# PCOD8064837 Si02
#       8
#     2   4   2   4   2   4   2   4
#     4  10  20  40  63  82 115 168 201 230 293 380
#     4  11  21  37  60  88 117 154 200 248 294 354
#     4   9  18  37  62  85 117 165 198 226 295 380
#     4  11  22  39  62  89 121 157 200 247 296 352
#     4  10  20  36  59  86 115 158 201 234 293 372
#     4  11  23  41  62  88 119 158 205 248 295 355
#     4   9  18  37  62  85 117 163 200 230 291 374
#     4  11  22  39  62  89 119 157 203 246 294 353
#
# _framework density 20.407724000000002
#
# number of rings (size 3 to 8) (size 9 to 14) (size 15 to 20)
#    0.000    1.500    1.667    6.000    0.000    0.667 
#    0.000   12.500    0.000    0.000    0.000    0.000 
#    0.000    0.000    0.000    0.000    0.000    0.000 
#
# Total GULP energy -297406.608232 kJ/mol
# GULP energy per Si atom -12391.942010 kJ/mol
# Density = 2.036128 g / cm^3
# Si number density = 20.407724 Si / 1000 Ang^3
#
#
#
# Elastic Constant Matrix: (Units=GPa)
#
#
# Indices 1 2 3 4 5 6 
#
# 1 32.7526 49.8200 7.5672 0.0000 -4.5703 0.0000
# 2 49.8200 193.2245 87.6950 0.0000 13.6675 0.0000
# 3 7.5672 87.6950 148.1212 0.0000 6.9351 0.0000
# 4 0.0000 0.0000 0.0000 26.1911 0.0000 0.8586
# 5 -4.5703 13.6675 6.9351 0.0000 36.9305 0.0000
# 6 0.0000 0.0000 0.0000 0.8586 0.0000 30.0303
#
#
#
# Elastic Compliance Matrix: (Units=1/GPa)
#
#
# Indices 1 2 3 4 5 6 
#
# 1 0.062338 -0.020940 0.008564 0.000000 0.013856 0.000000
# 2 -0.020940 0.014238 -0.007054 0.000000 -0.006536 0.000000
# 3 0.008564 -0.007054 0.010410 0.000000 0.001716 0.000000
# 4 0.000000 0.000000 0.000000 0.038217 0.000000 -0.001093
# 5 0.013856 -0.006536 0.001716 0.000000 0.030889 0.000000
# 6 0.000000 0.000000 0.000000 -0.001093 0.000000 0.033331
#
#
# Mechanical properties :
#
#
# Convention : Reuss Voigt Hill
#
# Bulk Modulus (GPa) = 20.77851 73.80694 47.29273
# Shear Modulus (GPa) = 20.46455 33.89811 27.18133
#
# Velocity S-wave (km/s) = 3.17011 4.08001 3.65350
# Velocity P-wave (km/s) = 4.85832 7.64461 6.40481
#
# Compressibility (1/GPa) = 0.04812664
#
# Stress axis : x y z
#
# Youngs Moduli (GPa) = 16.04146 70.23435 96.06516
#
# Poissons Ratio (x) = 1.47070 -0.82270
# Poissons Ratio (y) = 0.33591 0.67763
# Poissons Ratio (z) = -0.13738 0.49542
#
# Static dielectric constant tensor:
#      x y z
#    x 3.390290 0.000000 -0.044530 
#    y 0.000000 3.525350 0.000000 
#    z -0.044530 0.000000 3.918550 
# 
# 
# High freq. dielectric constant tensor:
#      x y z
#    x 1.765880 0.000000 -0.007170 
#    y 0.000000 1.816690 0.000000 
#    z -0.007170 0.000000 1.809680 
# 
# From -- ./inp_files/62001.got.cif
#   From: 2010.06.25/outbox.cif.g09.slc.cpg/sg10_32_cif.got.tgz:62001.got - 2010.06.27 22:07:45.
