data_PCOD8064195
_publ_section_title
;
Structure prediction by ZEFSAII (Michael W. Deem and Ramdas Pophale) SiO2 
 PCOD8064195
Probable space group: P 2/M
;
_chemical_formula_sum "Si O2"
_cell_formula_units_Z 28
_cell_length_a 9.730173
_cell_length_b 9.188235
_cell_length_c 27.635521
_cell_angle_alpha 90.000000
_cell_angle_beta 141.671290
_cell_angle_gamma 90.000000
_cell_volume 1532.260487
_symmetry_space_group_name_H-M "P 2/M"
_symmetry_group_IT_number 10
_symmetry_cell_setting 'monoclinic'
loop_
_space_group_symop_operation_xyz
x,y,z
-x,y,-z
-x,-y,-z
x,-y,z
loop_
_atom_site_type_symbol
_atom_site_label
_atom_site_fract_x
_atom_site_fract_y
_atom_site_fract_z
Si Si1 0.146276 0.670576 0.698686
Si Si2 0.997450 0.668752 0.141416
Si Si3 0.713492 0.333129 0.526084
Si Si4 0.508923 0.669279 0.287001
Si Si5 0.747070 0.171622 0.438481
Si Si6 0.728966 0.671379 0.161981
Si Si7 0.640699 0.836259 0.990298
O O1 0.110640 0.500000 0.693670
O O2 0.360358 0.709568 0.725773
O O3 0.177828 0.733610 0.761444
O O4 0.925008 0.735095 0.612703
O O5 0.953048 0.500000 0.118707
O O6 0.908096 0.710041 0.170145
O O7 0.874382 0.758750 0.065475
O O8 0.253960 0.709237 0.208574
O O9 0.500000 0.321374 0.500000
O O10 0.760494 0.500000 0.523787
O O11 0.662840 0.239204 0.465016
O O12 0.539705 0.500000 0.309054
O O13 0.597778 0.766180 0.354773
O O14 0.000000 0.218440 0.500000
O O15 0.717069 0.000000 0.432074
O O16 0.681980 0.500000 0.151482
O O17 0.494125 0.749104 0.087708
O O18 0.685006 0.000000 0.984389
O O19 0.500000 0.834525 0.000000
#
# Coordination Sequence:
#
# PCOD8064195 Si02
#       7
#     4   4   4   4   4   4   4
#     4   9  18  33  52  78 107 136 170 218 270 312
#     4   9  18  31  53  80 102 130 172 218 261 310
#     4  10  21  36  59  84 108 139 181 229 273 316
#     4  10  20  35  56  79 105 138 179 222 267 317
#     4  11  23  38  55  77 109 148 185 219 266 322
#     4   9  17  31  52  76 104 133 169 215 262 312
#     4   9  17  31  51  75 104 135 170 209 256 312
#
# _framework density 18.273655999999999
#
# number of rings (size 3 to 8) (size 9 to 14) (size 15 to 20)
#    0.000    2.429    1.429    0.857    2.000    3.143 
#    0.000    2.143    0.000    4.286    0.000    0.000 
#    0.000    0.000    0.000    0.000    0.000    0.000 
#
# Total GULP energy -347239.944514 kJ/mol
# GULP energy per Si atom -12401.426590 kJ/mol
# Density = 1.823206 g / cm^3
# Si number density = 18.273656 Si / 1000 Ang^3
#
#
#
# Elastic Constant Matrix: (Units=GPa)
#
#
# Indices 1 2 3 4 5 6 
#
# 1 76.5259 26.8287 45.5582 0.0000 7.1195 0.0000
# 2 26.8287 56.5927 36.7227 0.0000 6.5120 0.0000
# 3 45.5582 36.7227 105.9929 0.0000 12.4279 0.0000
# 4 0.0000 0.0000 0.0000 11.2586 0.0000 1.2131
# 5 7.1195 6.5120 12.4279 0.0000 32.2209 0.0000
# 6 0.0000 0.0000 0.0000 1.2131 0.0000 11.9434
#
#
#
# Elastic Compliance Matrix: (Units=1/GPa)
#
#
# Indices 1 2 3 4 5 6 
#
# 1 0.018479 -0.004615 -0.006257 0.000000 -0.000737 0.000000
# 2 -0.004615 0.024030 -0.006171 0.000000 -0.001457 0.000000
# 3 -0.006257 -0.006171 0.014615 0.000000 -0.003007 0.000000
# 4 0.000000 0.000000 0.000000 0.089804 0.000000 -0.009121
# 5 -0.000737 -0.001457 -0.003007 0.000000 0.032653 0.000000
# 6 0.000000 0.000000 0.000000 -0.009121 0.000000 0.084655
#
#
# Mechanical properties :
#
#
# Convention : Reuss Voigt Hill
#
# Bulk Modulus (GPa) = 43.40883 50.81453 47.11168
# Shear Modulus (GPa) = 16.33979 19.75138 18.04559
#
# Velocity S-wave (km/s) = 2.99352 3.29122 3.14589
# Velocity P-wave (km/s) = 5.97952 6.50467 6.24761
#
# Compressibility (1/GPa) = 0.02303679
#
# Stress axis : x y z
#
# Youngs Moduli (GPa) = 54.11470 41.61472 68.42372
#
# Poissons Ratio (x) = 0.19206 0.42816
# Poissons Ratio (y) = 0.24975 0.42224
# Poissons Ratio (z) = 0.33862 0.25680
#
# Static dielectric constant tensor:
#      x y z
#    x 3.281920 0.000000 0.001290 
#    y 0.000000 3.239320 0.000000 
#    z 0.001290 0.000000 3.561260 
# 
# 
# High freq. dielectric constant tensor:
#      x y z
#    x 1.695810 0.000000 0.001850 
#    y 0.000000 1.688320 0.000000 
#    z 0.001850 0.000000 1.719750 
# 
# From -- ./inp_files/36951.got.cif
#   From: 2010.06.25/outbox.cif.g09.slc.cpg/sg10_19_cif.got.tgz:36951.got - 2010.06.27 22:07:45.
