data_PCOD8064074
_publ_section_title
;
Structure prediction by ZEFSAII (Michael W. Deem and Ramdas Pophale) SiO2 
 PCOD8064074
Probable space group: P 2/M
;
_chemical_formula_sum "Si O2"
_cell_formula_units_Z 32
_cell_length_a 22.387682
_cell_length_b 9.294758
_cell_length_c 12.612217
_cell_angle_alpha 90.000000
_cell_angle_beta 39.137900
_cell_angle_gamma 90.000000
_cell_volume 1656.525319
_symmetry_space_group_name_H-M "P 2/M"
_symmetry_group_IT_number 10
_symmetry_cell_setting 'monoclinic'
loop_
_space_group_symop_operation_xyz
x,y,z
-x,y,-z
-x,-y,-z
x,-y,z
loop_
_atom_site_type_symbol
_atom_site_label
_atom_site_fract_x
_atom_site_fract_y
_atom_site_fract_z
Si Si1 0.888492 0.839506 0.143890
Si Si2 0.127704 0.669357 0.627063
Si Si3 0.398381 0.331692 0.594550
Si Si4 0.373892 0.832629 0.987357
Si Si5 0.087549 0.336031 0.088646
Si Si6 0.582556 0.169892 0.643266
Si Si7 0.735175 0.336071 0.030311
Si Si8 0.704345 0.166974 0.679001
O O1 0.847438 0.743692 0.295161
O O2 0.843323 0.000000 0.210148
O O3 0.864683 0.763724 0.066063
O O4 0.000000 0.849745 0.000000
O O5 0.144145 0.500000 0.614361
O O6 0.200126 0.738159 0.443185
O O7 0.020841 0.706226 0.736400
O O8 0.500000 0.285667 0.500000
O O9 0.394356 0.500000 0.573478
O O10 0.375668 0.245846 0.518254
O O11 0.320846 0.285841 0.787748
O O12 0.476187 0.773719 0.811394
O O13 0.291404 0.757368 0.034307
O O14 0.366072 0.000000 0.974331
O O15 0.359816 0.799847 0.130645
O O16 0.090729 0.500000 0.041769
O O17 0.152054 0.318488 0.104526
O O18 0.645340 0.214077 0.657408
O O19 0.583593 0.000000 0.624220
O O20 0.708328 0.500000 0.041469
O O21 0.733331 0.000000 0.634442
#
# Coordination Sequence:
#
# PCOD8064074 Si02
#       8
#     4   4   4   4   4   4   4   4
#     4   9  17  30  50  76 107 142 178 222 274 324
#     4  10  20  35  54  78 109 145 189 232 273 323
#     4  10  20  35  55  83 117 147 176 222 278 328
#     4  10  21  39  60  81 109 145 185 230 278 333
#     4   9  19  35  54  78 110 150 188 225 271 326
#     4  10  21  37  59  84 111 144 182 225 277 337
#     4  10  21  37  57  81 114 151 185 224 273 329
#     4  10  22  39  58  82 111 144 185 233 283 328
#
# _framework density 19.317544000000002
#
# number of rings (size 3 to 8) (size 9 to 14) (size 15 to 20)
#    0.000    2.250    1.250    1.125    1.750    5.750 
#    0.000    0.625    0.000    6.000    0.000    0.000 
#    0.000    0.000    0.000    0.000    0.000    0.000 
#
# Total GULP energy -396851.449309 kJ/mol
# GULP energy per Si atom -12401.607791 kJ/mol
# Density = 1.927358 g / cm^3
# Si number density = 19.317544 Si / 1000 Ang^3
#
#
#
# Elastic Constant Matrix: (Units=GPa)
#
#
# Indices 1 2 3 4 5 6 
#
# 1 106.9662 38.2368 32.7189 0.0000 5.4957 0.0000
# 2 38.2368 66.1740 31.9319 0.0000 4.4065 0.0000
# 3 32.7189 31.9319 63.0726 0.0000 4.0951 0.0000
# 4 0.0000 0.0000 0.0000 29.0108 0.0000 -0.2348
# 5 5.4957 4.4065 4.0951 0.0000 29.2486 0.0000
# 6 0.0000 0.0000 0.0000 -0.2348 0.0000 25.4188
#
#
#
# Elastic Compliance Matrix: (Units=1/GPa)
#
#
# Indices 1 2 3 4 5 6 
#
# 1 0.012437 -0.005342 -0.003681 0.000000 -0.001017 0.000000
# 2 -0.005342 0.022367 -0.008476 0.000000 -0.001179 0.000000
# 3 -0.003681 -0.008476 0.022129 0.000000 -0.001130 0.000000
# 4 0.000000 0.000000 0.000000 0.034473 0.000000 0.000318
# 5 -0.001017 -0.001179 -0.001130 0.000000 0.034716 0.000000
# 6 0.000000 0.000000 0.000000 0.000318 0.000000 0.039344
#
#
# Mechanical properties :
#
#
# Convention : Reuss Voigt Hill
#
# Bulk Modulus (GPa) = 45.59088 49.10977 47.35032
# Shear Modulus (GPa) = 24.06451 25.62398 24.84424
#
# Velocity S-wave (km/s) = 3.53332 3.64601 3.59011
# Velocity P-wave (km/s) = 6.34806 6.57283 6.46142
#
# Compressibility (1/GPa) = 0.02193421
#
# Stress axis : x y z
#
# Youngs Moduli (GPa) = 80.40818 44.70848 45.19021
#
# Poissons Ratio (x) = 0.23884 0.16634
# Poissons Ratio (y) = 0.42956 0.38303
# Poissons Ratio (z) = 0.29597 0.37895
#
# Static dielectric constant tensor:
#      x y z
#    x 3.490010 0.000000 -0.150210 
#    y 0.000000 3.498090 0.000000 
#    z -0.150210 0.000000 3.498580 
# 
# 
# High freq. dielectric constant tensor:
#      x y z
#    x 1.748060 0.000000 -0.011700 
#    y 0.000000 1.746700 0.000000 
#    z -0.011700 0.000000 1.744460 
# 
# From -- ./inp_files/55261.got.cif
#   From: 2010.06.25/outbox.cif.g09.slc.cpg/sg10_28_cif.got.tgz:55261.got - 2010.06.27 22:07:45.
