data_PCOD8064517
_publ_section_title
;
Structure prediction by ZEFSAII (Michael W. Deem and Ramdas Pophale) SiO2 
 PCOD8064517
Probable space group: P 2/M
;
_chemical_formula_sum "Si O2"
_cell_formula_units_Z 26
_cell_length_a 11.899373
_cell_length_b 7.730826
_cell_length_c 15.174300
_cell_angle_alpha 90.000000
_cell_angle_beta 112.770733
_cell_angle_gamma 90.000000
_cell_volume 1287.117766
_symmetry_space_group_name_H-M "P 2/M"
_symmetry_group_IT_number 10
_symmetry_cell_setting 'monoclinic'
loop_
_space_group_symop_operation_xyz
x,y,z
-x,y,-z
-x,-y,-z
x,-y,z
loop_
_atom_site_type_symbol
_atom_site_label
_atom_site_fract_x
_atom_site_fract_y
_atom_site_fract_z
Si Si1 0.903361 0.500000 0.892328
Si Si2 0.600518 0.500000 0.608347
Si Si3 0.454950 0.309614 0.894743
Si Si4 0.385299 0.500000 0.182979
Si Si5 0.981261 0.804427 0.792976
Si Si6 0.205327 0.804974 0.757506
Si Si7 0.763722 0.804996 0.598443
Si Si8 0.864668 0.793786 0.449054
O O1 0.924752 0.676603 0.846745
O O2 0.760385 0.500000 0.874197
O O3 0.000000 0.500000 0.000000
O O4 0.500000 0.500000 0.500000
O O5 0.562346 0.500000 0.700492
O O6 0.676500 0.675624 0.623520
O O7 0.400243 0.500000 0.900524
O O8 0.560854 0.329739 0.852200
O O9 0.345405 0.193510 0.827200
O O10 0.500000 0.224167 0.000000
O O11 0.113682 0.728165 0.803543
O O12 0.897317 0.805253 0.681239
O O13 0.989402 0.000000 0.835261
O O14 0.191732 0.714752 0.657944
O O15 0.158854 0.000000 0.731783
O O16 0.778645 0.733925 0.503481
O O17 0.708333 0.000000 0.585136
O O18 0.000000 0.717426 0.500000
O O19 0.867640 0.000000 0.451991
#
# Coordination Sequence:
#
# PCOD8064517 Si02
#       8
#     2   2   4   2   4   4   4   4
#     4  12  26  40  70  88 119 165 205 250 326 362
#     4  12  26  41  59  85 123 162 212 254 289 359
#     4   9  22  40  63  79 116 157 199 248 304 357
#     4  10  23  45  56  89 118 156 210 255 295 373
#     4  10  21  39  63  94 126 155 202 259 305 368
#     4  10  20  35  60  93 122 153 199 250 305 364
#     4  10  20  39  61  83 123 165 196 246 309 358
#     4   9  16  31  55  85 119 154 185 231 296 354
#
# _framework density 20.200171999999998
#
# number of rings (size 3 to 8) (size 9 to 14) (size 15 to 20)
#    0.462    1.538    3.077    0.000    5.385    0.923 
#    0.000    1.923    0.000    0.000    0.000    0.000 
#    0.000    0.000    0.000    0.000    0.000    0.000 
#
# Total GULP energy -322166.088221 kJ/mol
# GULP energy per Si atom -12391.003393 kJ/mol
# Density = 2.015420 g / cm^3
# Si number density = 20.200172 Si / 1000 Ang^3
#
#
#
# Elastic Constant Matrix: (Units=GPa)
#
#
# Indices 1 2 3 4 5 6 
#
# 1 136.0107 34.8549 59.9005 0.0000 -5.3741 0.0000
# 2 34.8549 70.1529 17.8884 0.0000 -7.8779 0.0000
# 3 59.9005 17.8884 142.8918 0.0000 0.8992 0.0000
# 4 0.0000 0.0000 0.0000 20.0072 0.0000 3.3114
# 5 -5.3741 -7.8779 0.8992 0.0000 35.3645 0.0000
# 6 0.0000 0.0000 0.0000 3.3114 0.0000 22.8769
#
#
#
# Elastic Compliance Matrix: (Units=1/GPa)
#
#
# Indices 1 2 3 4 5 6 
#
# 1 0.010031 -0.003954 -0.003715 0.000000 0.000738 0.000000
# 2 -0.003954 0.016685 -0.000451 0.000000 0.003127 0.000000
# 3 -0.003715 -0.000451 0.008617 0.000000 -0.000884 0.000000
# 4 0.000000 0.000000 0.000000 0.051209 0.000000 -0.007412
# 5 0.000738 0.003127 -0.000884 0.000000 0.029108 0.000000
# 6 0.000000 0.000000 0.000000 -0.007412 0.000000 0.044785
#
#
# Mechanical properties :
#
#
# Convention : Reuss Voigt Hill
#
# Bulk Modulus (GPa) = 52.37053 63.81592 58.09322
# Shear Modulus (GPa) = 27.31662 31.41050 29.36356
#
# Velocity S-wave (km/s) = 3.68135 3.94758 3.81679
# Velocity P-wave (km/s) = 6.63716 7.24142 6.94586
#
# Compressibility (1/GPa) = 0.01909471
#
# Stress axis : x y z
#
# Youngs Moduli (GPa) = 99.69471 59.93369 116.04307
#
# Poissons Ratio (x) = 0.23695 0.43105
# Poissons Ratio (y) = 0.39415 0.05235
# Poissons Ratio (z) = 0.37032 0.02704
#
# Static dielectric constant tensor:
#      x y z
#    x 3.526180 0.000000 -0.109430 
#    y 0.000000 3.793000 0.000000 
#    z -0.109430 0.000000 3.816560 
# 
# 
# High freq. dielectric constant tensor:
#      x y z
#    x 1.780930 0.000000 -0.005060 
#    y 0.000000 1.768340 0.000000 
#    z -0.005060 0.000000 1.792050 
# 
# From -- ./inp_files/63591.got.cif
#   From: 2010.06.25/outbox.cif.g09.slc.cpg/sg10_32_cif.got.tgz:63591.got - 2010.06.27 22:07:45.
