data_PCOD8064550
_publ_section_title
;
Structure prediction by ZEFSAII (Michael W. Deem and Ramdas Pophale) SiO2 
 PCOD8064550
Probable space group: P 2/M
;
_chemical_formula_sum "Si O2"
_cell_formula_units_Z 28
_cell_length_a 9.958333
_cell_length_b 14.721820
_cell_length_c 19.045911
_cell_angle_alpha 90.000000
_cell_angle_beta 34.018104
_cell_angle_gamma 90.000000
_cell_volume 1562.121920
_symmetry_space_group_name_H-M "P 2/M"
_symmetry_group_IT_number 10
_symmetry_cell_setting 'monoclinic'
loop_
_space_group_symop_operation_xyz
x,y,z
-x,y,-z
-x,-y,-z
x,-y,z
loop_
_atom_site_type_symbol
_atom_site_label
_atom_site_fract_x
_atom_site_fract_y
_atom_site_fract_z
Si Si1 0.965670 0.104141 0.391129
Si Si2 0.289273 0.760808 0.040377
Si Si3 0.435547 0.215116 0.220720
Si Si4 0.978647 0.599613 0.897218
Si Si5 0.487342 0.105780 0.678646
Si Si6 0.913501 0.104542 0.254803
Si Si7 0.398299 0.599810 0.814107
O O1 0.178810 0.174262 0.312576
O O2 0.759521 0.124465 0.536746
O O3 0.853570 0.119817 0.362667
O O4 0.058982 0.000000 0.358414
O O5 0.097952 0.678291 0.123189
O O6 0.162095 0.847770 0.128287
O O7 0.500000 0.728483 0.000000
O O8 0.386011 0.789446 0.922363
O O9 0.562345 0.158877 0.227895
O O10 0.406122 0.320442 0.258565
O O11 0.971601 0.500000 0.863578
O O12 0.248103 0.618561 0.808051
O O13 0.790497 0.600360 0.041581
O O14 0.305869 0.141545 0.697326
O O15 0.446339 0.000000 0.710789
O O16 0.956966 0.000000 0.219516
O O17 0.524520 0.500000 0.755653
#
# Coordination Sequence:
#
# PCOD8064550 Si02
#       7
#     4   4   4   4   4   4   4
#     4  10  20  36  55  74 101 136 175 216 255 293
#     4  11  21  33  48  76 111 138 165 201 261 322
#     4  11  20  32  53  80 106 135 164 209 262 304
#     4   8  15  29  49  71 100 136 170 204 243 294
#     4  10  21  36  55  77  97 129 183 227 246 281
#     4  10  21  36  53  73 103 142 173 204 253 309
#     4   8  15  29  49  74 102 133 166 202 249 303
#
# _framework density 17.924337000000001
#
# number of rings (size 3 to 8) (size 9 to 14) (size 15 to 20)
#    0.000    2.286    1.429    3.000    0.000    6.286 
#    0.000    1.429    0.000    1.714    0.000    0.000 
#    0.000    5.714    0.000    0.000    0.000    0.000 
#
# Total GULP energy -347118.335185 kJ/mol
# GULP energy per Si atom -12397.083399 kJ/mol
# Density = 1.788354 g / cm^3
# Si number density = 17.924337 Si / 1000 Ang^3
#
#
#
# Elastic Constant Matrix: (Units=GPa)
#
#
# Indices 1 2 3 4 5 6 
#
# 1 87.9456 47.9247 13.6762 0.0000 2.1063 0.0000
# 2 47.9247 95.6373 31.9697 0.0000 -2.8971 0.0000
# 3 13.6762 31.9697 42.9731 0.0000 5.5764 0.0000
# 4 0.0000 0.0000 0.0000 9.5717 0.0000 -9.9389
# 5 2.1063 -2.8971 5.5764 0.0000 26.0719 0.0000
# 6 0.0000 0.0000 0.0000 -9.9389 0.0000 30.6121
#
#
#
# Elastic Compliance Matrix: (Units=1/GPa)
#
#
# Indices 1 2 3 4 5 6 
#
# 1 0.015848 -0.008580 0.001676 0.000000 -0.002592 0.000000
# 2 -0.008580 0.018953 -0.012067 0.000000 0.005380 0.000000
# 3 0.001676 -0.012067 0.032817 0.000000 -0.008495 0.000000
# 4 0.000000 0.000000 0.000000 0.157609 0.000000 0.051171
# 5 -0.002592 0.005380 -0.008495 0.000000 0.040980 0.000000
# 6 0.000000 0.000000 0.000000 0.051171 0.000000 0.049281
#
#
# Mechanical properties :
#
#
# Convention : Reuss Voigt Hill
#
# Bulk Modulus (GPa) = 33.69921 45.96636 39.83279
# Shear Modulus (GPa) = 13.76193 22.11683 17.93938
#
# Velocity S-wave (km/s) = 2.77389 3.51650 3.16704
# Velocity P-wave (km/s) = 5.39453 6.49523 5.97030
#
# Compressibility (1/GPa) = 0.02967429
#
# Stress axis : x y z
#
# Youngs Moduli (GPa) = 63.10024 52.76313 30.47228
#
# Poissons Ratio (x) = 0.45272 -0.05107
# Poissons Ratio (y) = 0.54142 0.36772
# Poissons Ratio (z) = -0.10576 0.63670
#
# Static dielectric constant tensor:
#      x y z
#    x 3.481180 0.000000 0.028630 
#    y 0.000000 3.634970 0.000000 
#    z 0.028630 0.000000 2.958320 
# 
# 
# High freq. dielectric constant tensor:
#      x y z
#    x 1.702810 0.000000 0.000300 
#    y 0.000000 1.695860 0.000000 
#    z 0.000300 0.000000 1.655210 
# 
# From -- ./inp_files/24938.got.cif
#   From: 2010.06.25/outbox.cif.g09.slc.cpg/sg10_13_cif.got.tgz:24938.got - 2010.06.27 22:07:45.
