data_PCOD8064355
_publ_section_title
;
Structure prediction by ZEFSAII (Michael W. Deem and Ramdas Pophale) SiO2 
 PCOD8064355
Probable space group: P 2/M
;
_chemical_formula_sum "Si O2"
_cell_formula_units_Z 32
_cell_length_a 10.846018
_cell_length_b 9.207494
_cell_length_c 21.787514
_cell_angle_alpha 90.000000
_cell_angle_beta 51.385618
_cell_angle_gamma 90.000000
_cell_volume 1700.093304
_symmetry_space_group_name_H-M "P 2/M"
_symmetry_group_IT_number 10
_symmetry_cell_setting 'monoclinic'
loop_
_space_group_symop_operation_xyz
x,y,z
-x,y,-z
-x,-y,-z
x,-y,z
loop_
_atom_site_type_symbol
_atom_site_label
_atom_site_fract_x
_atom_site_fract_y
_atom_site_fract_z
Si Si1 0.183104 0.170711 0.446581
Si Si2 0.119421 0.829153 0.909123
Si Si3 0.748180 0.330306 0.694768
Si Si4 0.585596 0.661237 0.147245
Si Si5 0.677554 0.828993 0.464755
Si Si6 0.355805 0.662133 0.012855
Si Si7 0.042607 0.670945 0.684594
Si Si8 0.974987 0.671472 0.845329
O O1 0.271612 0.249288 0.363597
O O2 0.272744 0.217937 0.481426
O O3 0.000000 0.220324 0.500000
O O4 0.196803 0.000000 0.432543
O O5 0.298969 0.787199 0.866600
O O6 0.096674 0.752802 0.850961
O O7 0.102126 0.000000 0.907341
O O8 0.000000 0.772422 0.000000
O O9 0.765625 0.500000 0.676166
O O10 0.593176 0.294333 0.782247
O O11 0.900524 0.273565 0.685156
O O12 0.624163 0.500000 0.162898
O O13 0.607490 0.653742 0.068901
O O14 0.500000 0.782329 0.500000
O O15 0.795264 0.750036 0.381913
O O16 0.699337 0.000000 0.450070
O O17 0.344214 0.500000 0.045315
O O18 0.500000 0.747966 0.000000
O O19 0.192315 0.738549 0.080764
O O20 0.067083 0.500000 0.669516
O O21 0.002675 0.713243 0.766507
O O22 0.989708 0.500000 0.852463
#
# Coordination Sequence:
#
# PCOD8064355 Si02
#       8
#     4   4   4   4   4   4   4   4
#     4  10  20  37  61  86 113 155 205 238 277 350
#     4  11  23  38  55  77 111 152 195 240 284 332
#     4  10  21  36  58  90 121 146 184 242 298 342
#     4  10  20  35  57  84 112 146 189 233 281 341
#     4  10  22  40  61  85 116 155 198 239 284 346
#     4   9  16  29  53  81 108 142 184 227 272 329
#     4  10  21  37  58  88 121 147 183 238 294 345
#     4  10  20  35  58  84 111 149 192 231 280 342
#
# _framework density 18.822496000000001
#
# number of rings (size 3 to 8) (size 9 to 14) (size 15 to 20)
#    0.000    2.000    2.500    1.125    0.000    6.500 
#    0.000    2.500    0.000    3.000    0.000    0.000 
#    0.000    0.000    0.000    0.000    0.000    0.000 
#
# Total GULP energy -396699.096042 kJ/mol
# GULP energy per Si atom -12396.846751 kJ/mol
# Density = 1.877966 g / cm^3
# Si number density = 18.822496 Si / 1000 Ang^3
#
#
#
# Elastic Constant Matrix: (Units=GPa)
#
#
# Indices 1 2 3 4 5 6 
#
# 1 132.9971 32.5816 58.6740 0.0000 -2.1898 0.0000
# 2 32.5816 36.1277 39.6559 0.0000 2.0149 0.0000
# 3 58.6740 39.6559 137.3346 0.0000 -5.4336 0.0000
# 4 0.0000 0.0000 0.0000 26.6264 0.0000 -2.3390
# 5 -2.1898 2.0149 -5.4336 0.0000 36.5941 0.0000
# 6 0.0000 0.0000 0.0000 -2.3390 0.0000 17.6983
#
#
#
# Elastic Compliance Matrix: (Units=1/GPa)
#
#
# Indices 1 2 3 4 5 6 
#
# 1 0.010216 -0.006563 -0.002445 0.000000 0.000610 0.000000
# 2 -0.006563 0.045328 -0.010461 0.000000 -0.004442 0.000000
# 3 -0.002445 -0.010461 0.011431 0.000000 0.002127 0.000000
# 4 0.000000 0.000000 0.000000 0.037998 0.000000 0.005022
# 5 0.000610 -0.004442 0.002127 0.000000 0.027924 0.000000
# 6 0.000000 0.000000 0.000000 0.005022 0.000000 0.057166
#
#
# Mechanical properties :
#
#
# Convention : Reuss Voigt Hill
#
# Bulk Modulus (GPa) = 35.66677 63.14247 49.40462
# Shear Modulus (GPa) = 20.97797 27.88694 24.43246
#
# Velocity S-wave (km/s) = 3.34206 3.85330 3.60675
# Velocity P-wave (km/s) = 5.82088 7.30865 6.60677
#
# Compressibility (1/GPa) = 0.02803730
#
# Stress axis : x y z
#
# Youngs Moduli (GPa) = 97.89031 22.06137 87.48239
#
# Poissons Ratio (x) = 0.14478 0.21392
# Poissons Ratio (y) = 0.64243 0.91512
# Poissons Ratio (z) = 0.23937 0.23077
#
# Static dielectric constant tensor:
#      x y z
#    x 3.581770 0.000000 -0.008470 
#    y 0.000000 3.254260 0.000000 
#    z -0.008470 0.000000 3.439840 
# 
# 
# High freq. dielectric constant tensor:
#      x y z
#    x 1.741580 0.000000 -0.000050 
#    y 0.000000 1.705130 0.000000 
#    z -0.000050 0.000000 1.736720 
# 
# From -- ./inp_files/83558.got.cif
#   From: 2010.06.25/outbox.cif.g09.slc.cpg/sg10_42_cif.got.tgz:83558.got - 2010.06.27 22:07:45.
