data_PCOD8064579
_publ_section_title
;
Structure prediction by ZEFSAII (Michael W. Deem and Ramdas Pophale) SiO2 
 PCOD8064579
Probable space group: P 2/M
;
_chemical_formula_sum "Si O2"
_cell_formula_units_Z 28
_cell_length_a 14.841781
_cell_length_b 12.536118
_cell_length_c 9.201982
_cell_angle_alpha 90.000000
_cell_angle_beta 118.510577
_cell_angle_gamma 90.000000
_cell_volume 1504.476593
_symmetry_space_group_name_H-M "P 2/M"
_symmetry_group_IT_number 10
_symmetry_cell_setting 'monoclinic'
loop_
_space_group_symop_operation_xyz
x,y,z
-x,y,-z
-x,-y,-z
x,-y,z
loop_
_atom_site_type_symbol
_atom_site_label
_atom_site_fract_x
_atom_site_fract_y
_atom_site_fract_z
Si Si1 0.762374 0.806163 0.515635
Si Si2 0.904668 0.000000 0.126266
Si Si3 0.861355 0.623029 0.760353
Si Si4 0.810702 0.195192 0.223554
Si Si5 0.096237 0.622875 0.881501
Si Si6 0.594837 0.878724 0.982772
Si Si7 0.142770 0.000000 0.239894
Si Si8 0.458117 0.878360 0.614368
O O1 0.783537 0.692168 0.604915
O O2 0.818396 0.816812 0.403344
O O3 0.803219 0.895514 0.656431
O O4 0.639853 0.815584 0.397806
O O5 0.875440 0.896717 0.196112
O O6 0.025037 0.000000 0.194535
O O7 0.845490 0.000000 0.926223
O O8 0.832541 0.500000 0.714122
O O9 0.975887 0.646885 0.794970
O O10 0.852872 0.652800 0.924360
O O11 0.855285 0.308863 0.210650
O O12 0.693303 0.193671 0.081711
O O13 0.116763 0.500000 0.859923
O O14 0.559111 0.874422 0.790315
O O15 0.620937 0.000000 0.054020
O O16 0.500000 0.832114 0.000000
O O17 0.500000 0.824935 0.500000
O O18 0.421753 0.000000 0.561648
#
# Coordination Sequence:
#
# PCOD8064579 Si02
#       8
#     4   2   4   4   4   4   2   4
#     4  12  23  36  58  88 120 149 185 242 293 341
#     4  11  25  39  53  81 115 161 192 223 286 351
#     4   9  20  40  63  84 112 152 197 242 283 337
#     4  12  23  35  59  88 117 153 188 233 297 344
#     4   9  20  40  63  85 111 151 200 239 281 344
#     4  10  20  36  56  78 115 154 189 232 277 342
#     4  11  25  39  53  79 121 154 192 234 276 345
#     4  10  22  36  56  84 113 150 196 237 277 333
#
# _framework density 18.611124
#
# number of rings (size 3 to 8) (size 9 to 14) (size 15 to 20)
#    0.000    1.571    2.857    3.000    4.000    5.714 
#    0.000    1.429    0.000    1.714    0.000    0.000 
#    0.000    0.000    0.000    0.000    0.000    0.000 
#
# Total GULP energy -347244.781721 kJ/mol
# GULP energy per Si atom -12401.599347 kJ/mol
# Density = 1.856876 g / cm^3
# Si number density = 18.611124 Si / 1000 Ang^3
#
#
#
# Elastic Constant Matrix: (Units=GPa)
#
#
# Indices 1 2 3 4 5 6 
#
# 1 50.7817 24.9482 9.7179 0.0000 -8.8778 0.0000
# 2 24.9482 81.5171 29.5627 0.0000 -2.7491 0.0000
# 3 9.7179 29.5627 76.8719 0.0000 -11.0289 0.0000
# 4 0.0000 0.0000 0.0000 18.9318 0.0000 0.8772
# 5 -8.8778 -2.7491 -11.0289 0.0000 36.9839 0.0000
# 6 0.0000 0.0000 0.0000 0.8772 0.0000 19.9929
#
#
#
# Elastic Compliance Matrix: (Units=1/GPa)
#
#
# Indices 1 2 3 4 5 6 
#
# 1 0.024178 -0.007426 0.000578 0.000000 0.005424 0.000000
# 2 -0.007426 0.016549 -0.005751 0.000000 -0.002267 0.000000
# 3 0.000578 -0.005751 0.015781 0.000000 0.004417 0.000000
# 4 0.000000 0.000000 0.000000 0.052929 0.000000 -0.002322
# 5 0.005424 -0.002267 0.004417 0.000000 0.029490 0.000000
# 6 0.000000 0.000000 0.000000 -0.002322 0.000000 0.050120
#
#
# Mechanical properties :
#
#
# Convention : Reuss Voigt Hill
#
# Bulk Modulus (GPa) = 31.93927 37.51427 34.72677
# Shear Modulus (GPa) = 22.25365 24.84450 23.54908
#
# Velocity S-wave (km/s) = 3.46167 3.65763 3.56100
# Velocity P-wave (km/s) = 5.75987 6.16752 5.96718
#
# Compressibility (1/GPa) = 0.03130942
#
# Stress axis : x y z
#
# Youngs Moduli (GPa) = 41.35940 60.42551 63.36739
#
# Poissons Ratio (x) = 0.44874 -0.03660
# Poissons Ratio (y) = 0.30715 0.36442
# Poissons Ratio (z) = -0.02389 0.34750
#
# Static dielectric constant tensor:
#      x y z
#    x 3.461280 0.000000 -0.061890 
#    y 0.000000 3.248010 0.000000 
#    z -0.061890 0.000000 3.517190 
# 
# 
# High freq. dielectric constant tensor:
#      x y z
#    x 1.723850 0.000000 -0.006360 
#    y 0.000000 1.697190 0.000000 
#    z -0.006360 0.000000 1.732880 
# 
# From -- ./inp_files/28370.got.cif
#   From: 2010.06.25/outbox.cif.g09.slc.cpg/sg10_15_cif.got.tgz:28370.got - 2010.06.27 22:07:45.
