data_PCOD8064490
_publ_section_title
;
Structure prediction by ZEFSAII (Michael W. Deem and Ramdas Pophale) SiO2 
 PCOD8064490
Probable space group: P 2/M
;
_chemical_formula_sum "Si O2"
_cell_formula_units_Z 30
_cell_length_a 8.544477
_cell_length_b 17.525321
_cell_length_c 19.770851
_cell_angle_alpha 90.000000
_cell_angle_beta 147.402553
_cell_angle_gamma 90.000000
_cell_volume 1594.962979
_symmetry_space_group_name_H-M "P 2/M"
_symmetry_group_IT_number 10
_symmetry_cell_setting 'monoclinic'
loop_
_space_group_symop_operation_xyz
x,y,z
-x,y,-z
-x,-y,-z
x,-y,z
loop_
_atom_site_type_symbol
_atom_site_label
_atom_site_fract_x
_atom_site_fract_y
_atom_site_fract_z
Si Si1 0.579584 0.089425 0.659984
Si Si2 0.813383 0.167977 0.116882
Si Si3 0.224600 0.415026 0.807215
Si Si4 0.500000 0.179914 0.500000
Si Si5 0.097398 0.266590 0.109921
Si Si6 0.091998 0.746318 0.717108
Si Si7 0.285165 0.797338 0.645954
Si Si8 0.895090 0.583180 0.086002
O O1 0.437959 0.126474 0.541918
O O2 0.398597 0.120801 0.658939
O O3 0.924900 0.107053 0.784977
O O4 0.532423 0.000000 0.641744
O O5 0.759533 0.221751 0.161911
O O6 0.869948 0.223880 0.074957
O O7 0.500000 0.124736 0.000000
O O8 0.142805 0.500000 0.748089
O O9 0.144512 0.345066 0.727259
O O10 0.057133 0.401297 0.816835
O O11 0.561807 0.412261 0.944820
O O12 0.755099 0.238825 0.605112
O O13 0.428326 0.254803 0.255142
O O14 0.069604 0.357160 0.104756
O O15 0.000000 0.238842 0.000000
O O16 0.204628 0.797016 0.695339
O O17 0.000000 0.768470 0.500000
O O18 0.020561 0.500000 0.113461
#
# Coordination Sequence:
#
# PCOD8064490 Si02
#       8
#     4   4   4   2   4   4   4   4
#     4  10  22  40  60  86 117 146 187 236 293 354
#     4  10  20  35  59  88 115 150 194 237 289 345
#     4   9  17  30  53  83 115 150 193 245 291 331
#     4  10  21  38  61  86 106 148 196 240 275 340
#     4  11  21  34  57  86 119 157 196 246 290 347
#     4  11  20  36  60  81 114 152 200 239 284 342
#     4  11  23  39  57  87 117 154 192 242 296 345
#     4   9  17  30  50  82 117 150 192 241 292 336
#
# _framework density 18.809214000000001
#
# number of rings (size 3 to 8) (size 9 to 14) (size 15 to 20)
#    0.000    1.867    2.667    3.400    0.000    0.800 
#    0.000    1.667    0.000   15.200    0.000    0.000 
#    0.000    0.000    0.000    0.000    0.000    0.000 
#
# Total GULP energy -371684.863443 kJ/mol
# GULP energy per Si atom -12389.495448 kJ/mol
# Density = 1.876640 g / cm^3
# Si number density = 18.809214 Si / 1000 Ang^3
#
#
#
# Elastic Constant Matrix: (Units=GPa)
#
#
# Indices 1 2 3 4 5 6 
#
# 1 95.4806 29.4454 30.0926 0.0000 -10.3984 0.0000
# 2 29.4454 109.3352 34.3920 0.0000 -2.5003 0.0000
# 3 30.0926 34.3920 93.3394 0.0000 5.1109 0.0000
# 4 0.0000 0.0000 0.0000 13.9398 0.0000 2.6507
# 5 -10.3984 -2.5003 5.1109 0.0000 25.3163 0.0000
# 6 0.0000 0.0000 0.0000 2.6507 0.0000 22.1295
#
#
#
# Elastic Compliance Matrix: (Units=1/GPa)
#
#
# Indices 1 2 3 4 5 6 
#
# 1 0.012948 -0.002194 -0.003686 0.000000 0.005846 0.000000
# 2 -0.002194 0.010800 -0.003318 0.000000 0.000835 0.000000
# 3 -0.003686 -0.003318 0.013373 0.000000 -0.004542 0.000000
# 4 0.000000 0.000000 0.000000 0.073409 0.000000 -0.008793
# 5 0.005846 0.000835 -0.004542 0.000000 0.042901 0.000000
# 6 0.000000 0.000000 0.000000 -0.008793 0.000000 0.046242
#
#
# Mechanical properties :
#
#
# Convention : Reuss Voigt Hill
#
# Bulk Modulus (GPa) = 53.40326 54.00171 53.70248
# Shear Modulus (GPa) = 22.29055 25.89213 24.09134
#
# Velocity S-wave (km/s) = 3.44624 3.71424 3.58275
# Velocity P-wave (km/s) = 6.65501 6.86780 6.76224
#
# Compressibility (1/GPa) = 0.01872545
#
# Stress axis : x y z
#
# Youngs Moduli (GPa) = 77.22974 92.59479 74.77661
#
# Poissons Ratio (x) = 0.20315 0.27565
# Poissons Ratio (y) = 0.16944 0.24809
# Poissons Ratio (z) = 0.28469 0.30720
#
# Static dielectric constant tensor:
#      x y z
#    x 3.576950 0.000000 -0.031780 
#    y 0.000000 3.497700 0.000000 
#    z -0.031780 0.000000 3.508540 
# 
# 
# High freq. dielectric constant tensor:
#      x y z
#    x 1.735160 0.000000 0.005720 
#    y 0.000000 1.713580 0.000000 
#    z 0.005720 0.000000 1.722450 
# 
# From -- ./inp_files/83051.got.cif
#   From: 2010.06.25/outbox.cif.g09.slc.cpg/sg10_42_cif.got.tgz:83051.got - 2010.06.27 22:07:45.
