data_PCOD8064812
_publ_section_title
;
Structure prediction by ZEFSAII (Michael W. Deem and Ramdas Pophale) SiO2 
 PCOD8064812
Probable space group: P 2/M
;
_chemical_formula_sum "Si O2"
_cell_formula_units_Z 24
_cell_length_a 23.233329
_cell_length_b 9.159214
_cell_length_c 11.424088
_cell_angle_alpha 90.000000
_cell_angle_beta 29.781232
_cell_angle_gamma 90.000000
_cell_volume 1207.469947
_symmetry_space_group_name_H-M "P 2/M"
_symmetry_group_IT_number 10
_symmetry_cell_setting 'monoclinic'
loop_
_space_group_symop_operation_xyz
x,y,z
-x,y,-z
-x,-y,-z
x,-y,z
loop_
_atom_site_type_symbol
_atom_site_label
_atom_site_fract_x
_atom_site_fract_y
_atom_site_fract_z
Si Si1 0.728556 0.168627 0.358290
Si Si2 0.607029 0.665788 0.380118
Si Si3 0.160628 0.665048 0.169882
Si Si4 0.366519 0.829658 0.222345
Si Si5 0.816086 0.672117 0.601770
Si Si6 0.957992 0.827470 0.820671
O O1 0.629591 0.250587 0.460473
O O2 0.707480 0.204314 0.530607
O O3 0.711363 0.000000 0.360608
O O4 0.857462 0.217515 0.090620
O O5 0.500000 0.738003 0.500000
O O6 0.577547 0.500000 0.466561
O O7 0.713462 0.678097 0.105616
O O8 0.112256 0.500000 0.243512
O O9 0.170927 0.713096 0.285421
O O10 0.073476 0.770579 0.254054
O O11 0.305831 0.737062 0.227355
O O12 0.361825 0.000000 0.197879
O O13 0.500000 0.779194 0.000000
O O14 0.817966 0.500000 0.575121
O O15 0.923992 0.749355 0.344765
O O16 0.977641 0.000000 0.782466
#
# Coordination Sequence:
#
# PCOD8064812 Si02
#       6
#     4   4   4   4   4   4
#     4   9  20  38  57  80 110 144 183 231 279 322
#     4   9  18  32  54  81 109 145 184 223 272 329
#     4   9  19  35  53  81 118 148 179 226 279 328
#     4  10  23  42  60  80 110 148 189 232 277 327
#     4  11  23  37  57  84 115 150 186 227 277 330
#     4  10  20  36  59  85 113 145 185 230 278 331
#
# _framework density 19.876272
#
# number of rings (size 3 to 8) (size 9 to 14) (size 15 to 20)
#    0.000    2.333    0.000    1.500    2.333    6.000 
#    0.000    3.333    0.000    0.000    0.000    0.000 
#    0.000    0.000    0.000    0.000    0.000    0.000 
#
# Total GULP energy -297627.097934 kJ/mol
# GULP energy per Si atom -12401.129081 kJ/mol
# Density = 1.983103 g / cm^3
# Si number density = 19.876272 Si / 1000 Ang^3
#
#
#
# Elastic Constant Matrix: (Units=GPa)
#
#
# Indices 1 2 3 4 5 6 
#
# 1 76.0114 44.7646 57.6396 0.0000 -15.7607 0.0000
# 2 44.7646 72.0672 39.4707 0.0000 -8.7327 0.0000
# 3 57.6396 39.4707 75.1849 0.0000 -11.6744 0.0000
# 4 0.0000 0.0000 0.0000 26.7025 0.0000 -7.1086
# 5 -15.7607 -8.7327 -11.6744 0.0000 35.4587 0.0000
# 6 0.0000 0.0000 0.0000 -7.1086 0.0000 37.3672
#
#
#
# Elastic Compliance Matrix: (Units=1/GPa)
#
#
# Indices 1 2 3 4 5 6 
#
# 1 0.037560 -0.010265 -0.022349 0.000000 0.006809 0.000000
# 2 -0.010265 0.022358 -0.003922 0.000000 -0.000348 0.000000
# 3 -0.022349 -0.003922 0.032460 0.000000 -0.000212 0.000000
# 4 0.000000 0.000000 0.000000 0.039447 0.000000 0.007504
# 5 0.006809 -0.000348 -0.000212 0.000000 0.031073 0.000000
# 6 0.000000 0.000000 0.000000 0.007504 0.000000 0.028189
#
#
# Mechanical properties :
#
#
# Convention : Reuss Voigt Hill
#
# Bulk Modulus (GPa) = 51.79627 56.33480 54.06554
# Shear Modulus (GPa) = 18.47787 25.33160 21.90474
#
# Velocity S-wave (km/s) = 3.05232 3.57384 3.32332
# Velocity P-wave (km/s) = 6.20791 6.74048 6.47966
#
# Compressibility (1/GPa) = 0.01930641
#
# Stress axis : x y z
#
# Youngs Moduli (GPa) = 26.62399 44.72672 30.80731
#
# Poissons Ratio (x) = 0.45913 0.68850
# Poissons Ratio (y) = 0.27330 0.12082
# Poissons Ratio (z) = 0.59501 0.17541
#
# Static dielectric constant tensor:
#      x y z
#    x 3.580320 0.000000 -0.077570 
#    y 0.000000 3.575250 0.000000 
#    z -0.077570 0.000000 3.776720 
# 
# 
# High freq. dielectric constant tensor:
#      x y z
#    x 1.769450 0.000000 -0.008190 
#    y 0.000000 1.767570 0.000000 
#    z -0.008190 0.000000 1.786480 
# 
# From -- ./inp_files/56529.got.cif
#   From: 2010.06.25/outbox.cif.g09.slc.cpg/sg10_29_cif.got.tgz:56529.got - 2010.06.27 22:07:45.
