data_PCOD8064092
_publ_section_title
;
Structure prediction by ZEFSAII (Michael W. Deem and Ramdas Pophale) SiO2 
 PCOD8064092
Probable space group: P 2/M
;
_chemical_formula_sum "Si O2"
_cell_formula_units_Z 26
_cell_length_a 9.447528
_cell_length_b 11.753094
_cell_length_c 12.964496
_cell_angle_alpha 90.000000
_cell_angle_beta 67.026861
_cell_angle_gamma 90.000000
_cell_volume 1325.374120
_symmetry_space_group_name_H-M "P 2/M"
_symmetry_group_IT_number 10
_symmetry_cell_setting 'monoclinic'
loop_
_space_group_symop_operation_xyz
x,y,z
-x,y,-z
-x,-y,-z
x,-y,z
loop_
_atom_site_type_symbol
_atom_site_label
_atom_site_fract_x
_atom_site_fract_y
_atom_site_fract_z
Si Si1 0.730116 0.500000 0.238268
Si Si2 0.338317 0.747066 0.320862
Si Si3 0.890786 0.500000 0.400306
Si Si4 0.637329 0.869450 0.251427
Si Si5 0.102975 0.287810 0.870614
Si Si6 0.260915 0.868217 0.550770
Si Si7 0.974334 0.729780 0.687145
Si Si8 0.619176 0.500000 0.636155
O O1 0.854084 0.500000 0.292012
O O2 0.767587 0.387257 0.161950
O O3 0.562319 0.500000 0.338375
O O4 0.495409 0.804765 0.236971
O O5 0.321223 0.786826 0.443869
O O6 0.193614 0.780216 0.290970
O O7 0.349598 0.611470 0.305655
O O8 0.729755 0.500000 0.506107
O O9 0.990493 0.615099 0.391788
O O10 0.799462 0.828331 0.158881
O O11 0.635202 0.849584 0.376437
O O12 0.620034 0.000000 0.228148
O O13 0.990239 0.296193 0.804022
O O14 0.000000 0.294275 0.000000
O O15 0.087478 0.831597 0.624057
O O16 0.265204 0.000000 0.514479
#
# Coordination Sequence:
#
# PCOD8064092 Si02
#       8
#     2   4   2   4   4   4   4   2
#     4  10  20  36  59  89 111 142 191 232 273 335
#     4  12  22  34  55  83 123 151 181 223 278 336
#     4  10  20  35  54  82 123 154 184 222 267 332
#     4  10  22  39  58  83 113 148 191 234 275 327
#     4  10  21  41  65  82 105 143 192 242 285 330
#     4  10  21  36  55  81 116 157 192 218 263 333
#     4  10  22  36  55  85 115 151 187 230 276 328
#     4  12  22  31  57  87 120 153 180 219 279 335
#
# _framework density 19.617104000000001
#
# number of rings (size 3 to 8) (size 9 to 14) (size 15 to 20)
#    0.000    1.538    3.077    2.308    0.000    5.231 
#    0.000    0.769    0.000    1.846    0.000    0.000 
#    0.000    0.000    0.000    0.000    0.000    0.000 
#
# Total GULP energy -322299.226000 kJ/mol
# GULP energy per Si atom -12396.124077 kJ/mol
# Density = 1.957245 g / cm^3
# Si number density = 19.617104 Si / 1000 Ang^3
#
#
#
# Elastic Constant Matrix: (Units=GPa)
#
#
# Indices 1 2 3 4 5 6 
#
# 1 125.0331 43.1867 29.7063 0.0000 -18.6998 0.0000
# 2 43.1867 113.4897 22.7730 0.0000 -7.3299 0.0000
# 3 29.7063 22.7730 83.4164 0.0000 -12.0284 0.0000
# 4 0.0000 0.0000 0.0000 15.1250 0.0000 -4.2751
# 5 -18.6998 -7.3299 -12.0284 0.0000 16.4673 0.0000
# 6 0.0000 0.0000 0.0000 -4.2751 0.0000 13.4277
#
#
#
# Elastic Compliance Matrix: (Units=1/GPa)
#
#
# Indices 1 2 3 4 5 6 
#
# 1 0.010962 -0.003213 -0.001607 0.000000 0.009844 0.000000
# 2 -0.003213 0.010361 -0.001728 0.000000 -0.000298 0.000000
# 3 -0.001607 -0.001728 0.014148 0.000000 0.007740 0.000000
# 4 0.000000 0.000000 0.000000 0.072653 0.000000 0.023131
# 5 0.009844 -0.000298 0.007740 0.000000 0.077426 0.000000
# 6 0.000000 0.000000 0.000000 0.023131 0.000000 0.081837
#
#
# Mechanical properties :
#
#
# Convention : Reuss Voigt Hill
#
# Bulk Modulus (GPa) = 44.69072 57.03012 50.86042
# Shear Modulus (GPa) = 17.36461 24.08888 20.72674
#
# Velocity S-wave (km/s) = 2.97842 3.50802 3.25401
# Velocity P-wave (km/s) = 5.88718 6.74855 6.33253
#
# Compressibility (1/GPa) = 0.02237601
#
# Stress axis : x y z
#
# Youngs Moduli (GPa) = 91.22654 96.51185 70.68066
#
# Poissons Ratio (x) = 0.31010 0.11359
# Poissons Ratio (y) = 0.29312 0.12210
# Poissons Ratio (z) = 0.14661 0.16673
#
# Static dielectric constant tensor:
#      x y z
#    x 3.548090 0.000000 -0.157950 
#    y 0.000000 3.905960 0.000000 
#    z -0.157950 0.000000 3.158980 
# 
# 
# High freq. dielectric constant tensor:
#      x y z
#    x 1.765460 0.000000 -0.021390 
#    y 0.000000 1.777580 0.000000 
#    z -0.021390 0.000000 1.720150 
# 
# From -- ./inp_files/60897.got.cif
#   From: 2010.06.25/outbox.cif.g09.slc.cpg/sg10_31_cif.got.tgz:60897.got - 2010.06.27 22:07:45.
