data_PCOD8064916
_publ_section_title
;
Structure prediction by ZEFSAII (Michael W. Deem and Ramdas Pophale) SiO2 
 PCOD8064916
Probable space group: P 2/M
;
_chemical_formula_sum "Si O2"
_cell_formula_units_Z 32
_cell_length_a 12.218119
_cell_length_b 13.885064
_cell_length_c 18.317627
_cell_angle_alpha 90.000000
_cell_angle_beta 149.171392
_cell_angle_gamma 90.000000
_cell_volume 1592.543563
_symmetry_space_group_name_H-M "P 2/M"
_symmetry_group_IT_number 10
_symmetry_cell_setting 'monoclinic'
loop_
_space_group_symop_operation_xyz
x,y,z
-x,y,-z
-x,-y,-z
x,-y,z
loop_
_atom_site_type_symbol
_atom_site_label
_atom_site_fract_x
_atom_site_fract_y
_atom_site_fract_z
Si Si1 0.820152 0.244132 0.838207
Si Si2 0.432616 0.108396 0.206313
Si Si3 0.925140 0.108971 0.116060
Si Si4 0.274910 0.386113 0.334929
Si Si5 0.265375 0.113172 0.841716
Si Si6 0.213779 0.786057 0.662808
Si Si7 0.157538 0.610917 0.838107
Si Si8 0.405199 0.612336 0.836989
O O1 0.636286 0.183278 0.771514
O O2 0.730042 0.340582 0.749189
O O3 0.901419 0.178020 0.819026
O O4 0.000000 0.272041 0.000000
O O5 0.672154 0.133225 0.320829
O O6 0.419076 0.000000 0.230092
O O7 0.295808 0.118026 0.054264
O O8 0.888715 0.139415 0.178970
O O9 0.011029 0.000000 0.160413
O O10 0.500000 0.356243 0.500000
O O11 0.259025 0.500000 0.315211
O O12 0.070608 0.346322 0.265287
O O13 0.177238 0.171083 0.722314
O O14 0.266603 0.000000 0.824681
O O15 0.500000 0.148035 0.000000
O O16 0.348098 0.685571 0.739369
O O17 0.000000 0.758525 0.500000
O O18 0.117753 0.500000 0.802666
O O19 0.250741 0.649126 0.814672
O O20 0.343394 0.628049 0.004049
O O21 0.363012 0.500000 0.793128
#
# Coordination Sequence:
#
# PCOD8064916 Si02
#       8
#     4   4   4   4   4   4   4   4
#     4  10  22  37  62  89 117 161 206 246 298 359
#     4  10  21  40  60  84 124 162 198 246 305 369
#     4   9  18  35  62  91 112 145 202 256 298 349
#     4  10  22  39  61  90 126 163 201 254 314 367
#     4  10  20  36  60  88 114 151 201 254 302 360
#     4  12  26  37  58  92 126 166 201 247 321 372
#     4   8  17  35  62  89 114 153 204 258 307 351
#     4   9  20  37  60  91 121 157 208 255 302 361
#
# _framework density 20.093643
#
# number of rings (size 3 to 8) (size 9 to 14) (size 15 to 20)
#    0.000    2.250    1.250    1.500    7.000    4.000 
#    0.000    0.625    0.000    0.750    0.000    0.000 
#    0.000    0.000    0.000    0.000    0.000    0.000 
#
# Total GULP energy -396661.206402 kJ/mol
# GULP energy per Si atom -12395.662700 kJ/mol
# Density = 2.004791 g / cm^3
# Si number density = 20.093643 Si / 1000 Ang^3
#
#
#
# Elastic Constant Matrix: (Units=GPa)
#
#
# Indices 1 2 3 4 5 6 
#
# 1 89.7201 46.0337 49.2668 0.0000 5.6682 0.0000
# 2 46.0337 68.2016 41.3716 0.0000 -7.2883 0.0000
# 3 49.2668 41.3716 95.5530 0.0000 2.8188 0.0000
# 4 0.0000 0.0000 0.0000 22.1457 0.0000 -0.7476
# 5 5.6682 -7.2883 2.8188 0.0000 26.1386 0.0000
# 6 0.0000 0.0000 0.0000 -0.7476 0.0000 27.3835
#
#
#
# Elastic Compliance Matrix: (Units=1/GPa)
#
#
# Indices 1 2 3 4 5 6 
#
# 1 0.020275 -0.011129 -0.005431 0.000000 -0.006914 0.000000
# 2 -0.011129 0.027157 -0.006335 0.000000 0.010669 0.000000
# 3 -0.005431 -0.006335 0.016077 0.000000 -0.002322 0.000000
# 4 0.000000 0.000000 0.000000 0.045197 0.000000 0.001234
# 5 -0.006914 0.010669 -0.002322 0.000000 0.042982 0.000000
# 6 0.000000 0.000000 0.000000 0.001234 0.000000 0.036552
#
#
# Mechanical properties :
#
#
# Convention : Reuss Voigt Hill
#
# Bulk Modulus (GPa) = 56.43720 58.53543 57.48631
# Shear Modulus (GPa) = 20.83876 22.92039 21.87957
#
# Velocity S-wave (km/s) = 3.22387 3.38106 3.30340
# Velocity P-wave (km/s) = 6.48119 6.66608 6.57429
#
# Compressibility (1/GPa) = 0.01771881
#
# Stress axis : x y z
#
# Youngs Moduli (GPa) = 49.32137 36.82275 62.20090
#
# Poissons Ratio (x) = 0.40981 0.33782
# Poissons Ratio (y) = 0.54891 0.39402
# Poissons Ratio (z) = 0.26787 0.23326
#
# Static dielectric constant tensor:
#      x y z
#    x 3.843570 0.000000 0.120570 
#    y 0.000000 3.734720 0.000000 
#    z 0.120570 0.000000 3.362070 
# 
# 
# High freq. dielectric constant tensor:
#      x y z
#    x 1.781420 0.000000 0.007300 
#    y 0.000000 1.798340 0.000000 
#    z 0.007300 0.000000 1.748430 
# 
# From -- ./inp_files/77026.got.cif
#   From: 2010.06.25/outbox.cif.g09.slc.cpg/sg10_39_cif.got.tgz:77026.got - 2010.06.27 22:07:45.
