data_PCOD8064754
_publ_section_title
;
Structure prediction by ZEFSAII (Michael W. Deem and Ramdas Pophale) SiO2 
 PCOD8064754
Probable space group: P 2/M
;
_chemical_formula_sum "Si O2"
_cell_formula_units_Z 28
_cell_length_a 11.372043
_cell_length_b 9.178889
_cell_length_c 14.907954
_cell_angle_alpha 90.000000
_cell_angle_beta 115.580203
_cell_angle_gamma 90.000000
_cell_volume 1403.603409
_symmetry_space_group_name_H-M "P 2/M"
_symmetry_group_IT_number 10
_symmetry_cell_setting 'monoclinic'
loop_
_space_group_symop_operation_xyz
x,y,z
-x,y,-z
-x,-y,-z
x,-y,z
loop_
_atom_site_type_symbol
_atom_site_label
_atom_site_fract_x
_atom_site_fract_y
_atom_site_fract_z
Si Si1 0.609167 0.830410 0.290682
Si Si2 0.858838 0.168758 0.484364
Si Si3 0.789101 0.168512 0.953515
Si Si4 0.835460 0.335022 0.656631
Si Si5 0.970663 0.832423 0.847992
Si Si6 0.452644 0.334338 0.387367
Si Si7 0.525242 0.671693 0.905803
O O1 0.757396 0.803070 0.370493
O O2 0.508408 0.772329 0.331188
O O3 0.587957 0.746462 0.190318
O O4 0.580185 0.000000 0.266602
O O5 0.812054 0.257514 0.554625
O O6 0.000000 0.224812 0.500000
O O7 0.863417 0.000000 0.513027
O O8 0.866558 0.211543 0.889453
O O9 0.665026 0.271232 0.920155
O O10 0.745300 0.000000 0.936366
O O11 0.883269 0.196684 0.069300
O O12 0.876570 0.500000 0.650853
O O13 0.950087 0.261166 0.751716
O O14 0.702985 0.325323 0.669803
O O15 0.952399 0.000000 0.815911
O O16 0.500000 0.279994 0.500000
O O17 0.501581 0.500000 0.386501
O O18 0.520339 0.500000 0.888479
O O19 0.500000 0.714722 0.000000
#
# Coordination Sequence:
#
# PCOD8064754 Si02
#       7
#     4   4   4   4   4   4   4
#     4  11  23  39  63  90 115 151 198 246 294 346
#     4  10  23  42  60  81 113 152 194 239 287 339
#     4   9  19  38  62  87 114 150 194 239 291 345
#     4  11  22  35  56  87 118 154 194 232 283 346
#     4   9  19  36  59  87 120 151 184 237 295 344
#     4  10  20  36  58  86 123 157 188 234 292 347
#     4  11  25  42  60  84 118 157 196 243 296 348
#
# _framework density 19.948654000000001
#
# number of rings (size 3 to 8) (size 9 to 14) (size 15 to 20)
#    0.000    1.857    1.429    3.000    0.000    8.000 
#    0.000    5.714    0.000    0.000    0.000    0.000 
#    0.000    0.000    0.000    0.000    0.000    0.000 
#
# Total GULP energy -347325.391954 kJ/mol
# GULP energy per Si atom -12404.478284 kJ/mol
# Density = 1.990325 g / cm^3
# Si number density = 19.948654 Si / 1000 Ang^3
#
#
#
# Elastic Constant Matrix: (Units=GPa)
#
#
# Indices 1 2 3 4 5 6 
#
# 1 78.0380 39.5616 31.9135 0.0000 7.2727 0.0000
# 2 39.5616 99.8481 66.6168 0.0000 -1.2246 0.0000
# 3 31.9135 66.6168 138.9512 0.0000 2.5650 0.0000
# 4 0.0000 0.0000 0.0000 32.1477 0.0000 -5.3402
# 5 7.2727 -1.2246 2.5650 0.0000 26.3427 0.0000
# 6 0.0000 0.0000 0.0000 -5.3402 0.0000 18.3544
#
#
#
# Elastic Compliance Matrix: (Units=1/GPa)
#
#
# Indices 1 2 3 4 5 6 
#
# 1 0.016706 -0.006142 -0.000803 0.000000 -0.004819 0.000000
# 2 -0.006142 0.017034 -0.006814 0.000000 0.003151 0.000000
# 3 -0.000803 -0.006814 0.010669 0.000000 -0.001134 0.000000
# 4 0.000000 0.000000 0.000000 0.032686 0.000000 0.009510
# 5 -0.004819 0.003151 -0.001134 0.000000 0.039549 0.000000
# 6 0.000000 0.000000 0.000000 0.009510 0.000000 0.057250
#
#
# Mechanical properties :
#
#
# Convention : Reuss Voigt Hill
#
# Bulk Modulus (GPa) = 59.20780 65.89126 62.54953
# Shear Modulus (GPa) = 24.14980 27.28533 25.71757
#
# Velocity S-wave (km/s) = 3.48314 3.70236 3.59442
# Velocity P-wave (km/s) = 6.77649 7.16790 6.97494
#
# Compressibility (1/GPa) = 0.01688967
#
# Stress axis : x y z
#
# Youngs Moduli (GPa) = 59.85966 58.70745 93.73084
#
# Poissons Ratio (x) = 0.36061 0.07527
# Poissons Ratio (y) = 0.36768 0.63866
# Poissons Ratio (z) = 0.04807 0.40002
#
# Static dielectric constant tensor:
#      x y z
#    x 3.445920 0.000000 0.113670 
#    y 0.000000 3.588250 0.000000 
#    z 0.113670 0.000000 3.788570 
# 
# 
# High freq. dielectric constant tensor:
#      x y z
#    x 1.764830 0.000000 0.009690 
#    y 0.000000 1.777710 0.000000 
#    z 0.009690 0.000000 1.792200 
# 
# From -- ./inp_files/49615.got.cif
#   From: 2010.06.25/outbox.cif.g09.slc.cpg/sg10_25_cif.got.tgz:49615.got - 2010.06.27 22:07:45.
