data_PCOD8064958
_publ_section_title
;
Structure prediction by ZEFSAII (Michael W. Deem and Ramdas Pophale) SiO2 
 PCOD8064958
Probable space group: P 2/M
;
_chemical_formula_sum "Si O2"
_cell_formula_units_Z 32
_cell_length_a 13.247022
_cell_length_b 13.228210
_cell_length_c 16.584237
_cell_angle_alpha 90.000000
_cell_angle_beta 34.602193
_cell_angle_gamma 90.000000
_cell_volume 1650.318526
_symmetry_space_group_name_H-M "P 2/M"
_symmetry_group_IT_number 10
_symmetry_cell_setting 'monoclinic'
loop_
_space_group_symop_operation_xyz
x,y,z
-x,y,-z
-x,-y,-z
x,-y,z
loop_
_atom_site_type_symbol
_atom_site_label
_atom_site_fract_x
_atom_site_fract_y
_atom_site_fract_z
Si Si1 0.800350 0.251085 0.614963
Si Si2 0.511120 0.116449 0.741397
Si Si3 0.310630 0.617645 0.756799
Si Si4 0.263909 0.292278 0.952385
Si Si5 0.878309 0.710520 0.269484
Si Si6 0.360560 0.885471 0.522500
Si Si7 0.442289 0.617994 0.126832
Si Si8 0.716781 0.614000 0.519121
O O1 0.681730 0.150729 0.681679
O O2 0.732243 0.318103 0.734975
O O3 0.790820 0.316815 0.540677
O O4 0.000000 0.215567 0.500000
O O5 0.340711 0.182328 0.879132
O O6 0.546651 0.134505 0.623901
O O7 0.469403 0.000000 0.788271
O O8 0.283967 0.500000 0.753681
O O9 0.217606 0.643970 0.902753
O O10 0.221338 0.685740 0.747586
O O11 0.518001 0.647788 0.625269
O O12 0.403625 0.358068 0.910796
O O13 0.087410 0.277490 0.119983
O O14 0.809600 0.814641 0.353755
O O15 0.841133 0.622156 0.358672
O O16 0.500000 0.860154 0.500000
O O17 0.291085 0.000000 0.574195
O O18 0.395134 0.500000 0.160896
O O19 0.500000 0.651875 0.000000
O O20 0.716721 0.500000 0.551386
#
# Coordination Sequence:
#
# PCOD8064958 Si02
#       8
#     4   4   4   4   4   4   4   4
#     4  11  23  40  63  90 117 148 195 253 302 355
#     4  10  21  42  66  86 116 159 198 243 306 363
#     4  11  22  39  59  83 122 170 207 239 291 356
#     4  11  23  38  58  85 122 160 199 250 293 351
#     4  12  23  35  57  90 125 156 199 248 293 349
#     4  10  20  36  61  87 115 153 200 247 297 353
#     4  10  22  39  59  83 116 159 198 239 294 353
#     4  11  22  38  59  87 122 160 198 243 294 354
#
# _framework density 19.390197000000001
#
# number of rings (size 3 to 8) (size 9 to 14) (size 15 to 20)
#    0.000    1.250    3.750    3.375    1.750    5.250 
#    0.000    0.000    0.000    9.750    0.000    0.000 
#    0.000    0.000    0.000    0.000    0.000    0.000 
#
# Total GULP energy -396947.042676 kJ/mol
# GULP energy per Si atom -12404.595084 kJ/mol
# Density = 1.934606 g / cm^3
# Si number density = 19.390197 Si / 1000 Ang^3
#
#
#
# Elastic Constant Matrix: (Units=GPa)
#
#
# Indices 1 2 3 4 5 6 
#
# 1 43.9516 10.0905 6.4761 0.0000 6.6649 0.0000
# 2 10.0905 75.2461 15.6199 0.0000 -2.1944 0.0000
# 3 6.4761 15.6199 103.6295 0.0000 -1.6850 0.0000
# 4 0.0000 0.0000 0.0000 25.7682 0.0000 7.8178
# 5 6.6649 -2.1944 -1.6850 0.0000 37.1590 0.0000
# 6 0.0000 0.0000 0.0000 7.8178 0.0000 18.1635
#
#
#
# Elastic Compliance Matrix: (Units=1/GPa)
#
#
# Indices 1 2 3 4 5 6 
#
# 1 0.024342 -0.003166 -0.001119 0.000000 -0.004604 0.000000
# 2 -0.003166 0.014150 -0.001914 0.000000 0.001317 0.000000
# 3 -0.001119 -0.001914 0.010017 0.000000 0.000542 0.000000
# 4 0.000000 0.000000 0.000000 0.044636 0.000000 -0.019212
# 5 -0.004604 0.001317 0.000542 0.000000 0.027839 0.000000
# 6 0.000000 0.000000 0.000000 -0.019212 0.000000 0.063325
#
#
# Mechanical properties :
#
#
# Convention : Reuss Voigt Hill
#
# Bulk Modulus (GPa) = 27.69179 31.91114 29.80147
# Shear Modulus (GPa) = 23.95281 28.92752 26.44016
#
# Velocity S-wave (km/s) = 3.51850 3.86665 3.69668
# Velocity P-wave (km/s) = 5.55147 6.03554 5.79856
#
# Compressibility (1/GPa) = 0.03611178
#
# Stress axis : x y z
#
# Youngs Moduli (GPa) = 41.08094 70.67171 99.83120
#
# Poissons Ratio (x) = 0.22377 0.11169
# Poissons Ratio (y) = 0.13007 0.19103
# Poissons Ratio (z) = 0.04596 0.13523
#
# Static dielectric constant tensor:
#      x y z
#    x 3.488530 0.000000 0.152500 
#    y 0.000000 3.564290 0.000000 
#    z 0.152500 0.000000 3.664490 
# 
# 
# High freq. dielectric constant tensor:
#      x y z
#    x 1.750260 0.000000 0.013160 
#    y 0.000000 1.756560 0.000000 
#    z 0.013160 0.000000 1.755630 
# 
# From -- ./inp_files/65071.got.cif
#   From: 2010.06.25/outbox.cif.g09.slc.cpg/sg10_33_cif.got.tgz:65071.got - 2010.06.27 22:07:45.
