data_PCOD8064330
_publ_section_title
;
Structure prediction by ZEFSAII (Michael W. Deem and Ramdas Pophale) SiO2 
 PCOD8064330
Probable space group: P 2/M
;
_chemical_formula_sum "Si O2"
_cell_formula_units_Z 32
_cell_length_a 13.773627
_cell_length_b 9.206361
_cell_length_c 23.881707
_cell_angle_alpha 90.000000
_cell_angle_beta 31.460130
_cell_angle_gamma 90.000000
_cell_volume 1580.495412
_symmetry_space_group_name_H-M "P 2/M"
_symmetry_group_IT_number 10
_symmetry_cell_setting 'monoclinic'
loop_
_space_group_symop_operation_xyz
x,y,z
-x,y,-z
-x,-y,-z
x,-y,z
loop_
_atom_site_type_symbol
_atom_site_label
_atom_site_fract_x
_atom_site_fract_y
_atom_site_fract_z
Si Si1 0.244034 0.831174 0.022844
Si Si2 0.774630 0.160511 0.845194
Si Si3 0.134267 0.333473 0.794290
Si Si4 0.537337 0.665397 0.286690
Si Si5 0.742923 0.668236 0.478868
Si Si6 0.788148 0.162695 0.349023
Si Si7 0.450423 0.170236 0.218785
Si Si8 0.172436 0.331982 0.286501
O O1 0.320958 0.797446 0.048218
O O2 0.063917 0.737922 0.095921
O O3 0.187042 0.000000 0.046951
O O4 0.402337 0.788720 0.901491
O O5 0.729994 0.274838 0.818570
O O6 0.992562 0.159185 0.750069
O O7 0.708472 0.000000 0.857680
O O8 0.103645 0.500000 0.791172
O O9 0.255046 0.322307 0.791145
O O10 0.250431 0.254470 0.687994
O O11 0.494404 0.500000 0.289337
O O12 0.388175 0.717138 0.406063
O O13 0.525837 0.771756 0.240146
O O14 0.713098 0.500000 0.478261
O O15 0.688840 0.761624 0.450815
O O16 0.953689 0.699026 0.394019
O O17 0.708089 0.000000 0.381855
O O18 0.256523 0.247527 0.298348
O O19 0.415895 0.000000 0.240593
O O20 0.220238 0.500000 0.268825
#
# Coordination Sequence:
#
# PCOD8064330 Si02
#       8
#     4   4   4   4   4   4   4   4
#     4   9  20  38  58  81 111 146 180 220 273 329
#     4   8  15  31  54  79 108 140 174 214 265 326
#     4  10  20  35  58  84 111 144 180 224 275 324
#     4  10  23  41  57  78 109 145 188 232 272 320
#     4   9  19  37  59  81 110 148 184 221 271 327
#     4   9  17  31  54  84 116 145 177 221 270 324
#     4  11  24  40  57  78 107 145 187 229 274 326
#     4  10  20  35  57  83 110 141 178 223 272 322
#
# _framework density 20.246815000000002
#
# number of rings (size 3 to 8) (size 9 to 14) (size 15 to 20)
#    0.000    2.500    0.000    2.250    0.000    8.000 
#    0.000   10.000    0.000    0.000    0.000    0.000 
#    0.000    0.000    0.000    0.000    0.000    0.000 
#
# Total GULP energy -396859.283926 kJ/mol
# GULP energy per Si atom -12401.852623 kJ/mol
# Density = 2.020073 g / cm^3
# Si number density = 20.246815 Si / 1000 Ang^3
#
#
#
# Elastic Constant Matrix: (Units=GPa)
#
#
# Indices 1 2 3 4 5 6 
#
# 1 74.2932 41.9690 8.7069 0.0000 12.7428 0.0000
# 2 41.9690 101.8742 32.3768 0.0000 5.6423 0.0000
# 3 8.7069 32.3768 47.7888 0.0000 11.2296 0.0000
# 4 0.0000 0.0000 0.0000 25.3826 0.0000 9.5413
# 5 12.7428 5.6423 11.2296 0.0000 22.0922 0.0000
# 6 0.0000 0.0000 0.0000 9.5413 0.0000 36.5559
#
#
#
# Elastic Compliance Matrix: (Units=1/GPa)
#
#
# Indices 1 2 3 4 5 6 
#
# 1 0.020195 -0.009409 0.005528 0.000000 -0.012056 0.000000
# 2 -0.009409 0.016924 -0.011370 0.000000 0.006884 0.000000
# 3 0.005528 -0.011370 0.031444 0.000000 -0.016268 0.000000
# 4 0.000000 0.000000 0.000000 0.043683 0.000000 -0.011402
# 5 -0.012056 0.006884 -0.016268 0.000000 0.058729 0.000000
# 6 0.000000 0.000000 0.000000 -0.011402 0.000000 0.030331
#
#
# Mechanical properties :
#
#
# Convention : Reuss Voigt Hill
#
# Bulk Modulus (GPa) = 26.27277 43.34018 34.80647
# Shear Modulus (GPa) = 20.45028 26.19970 23.32499
#
# Velocity S-wave (km/s) = 3.18157 3.60115 3.39784
# Velocity P-wave (km/s) = 5.14791 6.22442 5.71158
#
# Compressibility (1/GPa) = 0.03806222
#
# Stress axis : x y z
#
# Youngs Moduli (GPa) = 49.51639 59.08653 31.80285
#
# Poissons Ratio (x) = 0.55594 -0.17580
# Poissons Ratio (y) = 0.46590 0.36158
# Poissons Ratio (z) = -0.27372 0.67179
#
# Static dielectric constant tensor:
#      x y z
#    x 3.602840 0.000000 0.100030 
#    y 0.000000 3.738270 0.000000 
#    z 0.100030 0.000000 3.643660 
# 
# 
# High freq. dielectric constant tensor:
#      x y z
#    x 1.788140 0.000000 -0.001840 
#    y 0.000000 1.792340 0.000000 
#    z -0.001840 0.000000 1.786410 
# 
# From -- ./inp_files/89528.got.cif
#   From: 2010.06.25/outbox.cif.g09.slc.cpg/sg10_45_cif.got.tgz:89528.got - 2010.06.27 22:07:45.
