data_PCOD8064016
_publ_section_title
;
Structure prediction by ZEFSAII (Michael W. Deem and Ramdas Pophale) SiO2 
 PCOD8064016
Probable space group: P 2/M
;
_chemical_formula_sum "Si O2"
_cell_formula_units_Z 28
_cell_length_a 16.890290
_cell_length_b 14.371414
_cell_length_c 9.385850
_cell_angle_alpha 90.000000
_cell_angle_beta 45.165719
_cell_angle_gamma 90.000000
_cell_volume 1615.651619
_symmetry_space_group_name_H-M "P 2/M"
_symmetry_group_IT_number 10
_symmetry_cell_setting 'monoclinic'
loop_
_space_group_symop_operation_xyz
x,y,z
-x,y,-z
-x,-y,-z
x,-y,z
loop_
_atom_site_type_symbol
_atom_site_label
_atom_site_fract_x
_atom_site_fract_y
_atom_site_fract_z
Si Si1 0.557703 0.105118 0.288438
Si Si2 0.019863 0.889623 0.138760
Si Si3 0.113735 0.399573 0.530609
Si Si4 0.214457 0.796639 0.064071
Si Si5 0.136169 0.600426 0.166278
Si Si6 0.406085 0.895552 0.218721
Si Si7 0.818765 0.798164 0.560692
O O1 0.500000 0.148957 0.500000
O O2 0.453742 0.103403 0.315074
O O3 0.602419 0.000000 0.257885
O O4 0.659285 0.167869 0.105793
O O5 0.921513 0.852853 0.363280
O O6 0.136864 0.850989 0.050633
O O7 0.023363 0.000000 0.144801
O O8 0.000000 0.858110 0.000000
O O9 0.158920 0.500000 0.533167
O O10 0.119634 0.403005 0.354595
O O11 0.182832 0.309214 0.491638
O O12 0.986656 0.385029 0.745241
O O13 0.214405 0.686851 0.022503
O O14 0.171463 0.809548 0.280728
O O15 0.186107 0.500000 0.051293
O O16 0.294544 0.837263 0.357954
O O17 0.379423 0.000000 0.196460
O O18 0.500000 0.848738 0.000000
#
# Coordination Sequence:
#
# PCOD8064016 Si02
#       7
#     4   4   4   4   4   4   4
#     4  10  22  37  54  75 102 142 185 220 258 313
#     4  11  25  37  48  76 114 146 170 211 274 325
#     4   8  14  27  49  79 109 134 167 213 264 316
#     4  11  20  35  58  81 104 136 183 223 259 315
#     4   8  14  27  50  79 107 132 168 216 264 315
#     4  10  20  35  52  75 103 135 180 227 263 300
#     4  11  20  34  58  81 105 138 179 223 264 312
#
# _framework density 17.330469000000001
#
# number of rings (size 3 to 8) (size 9 to 14) (size 15 to 20)
#    0.000    2.143    2.857    2.143    2.000    2.286 
#    0.000    0.000    0.000    3.429    0.000    0.000 
#    0.000    0.000    0.000    0.000    0.000    0.000 
#
# Total GULP energy -346967.129896 kJ/mol
# GULP energy per Si atom -12391.683211 kJ/mol
# Density = 1.729102 g / cm^3
# Si number density = 17.330469 Si / 1000 Ang^3
#
#
#
# Elastic Constant Matrix: (Units=GPa)
#
#
# Indices 1 2 3 4 5 6 
#
# 1 75.9150 42.6458 24.3980 0.0000 -6.6221 0.0000
# 2 42.6458 130.5833 36.7985 0.0000 -14.0329 0.0000
# 3 24.3980 36.7985 62.0657 0.0000 1.7875 0.0000
# 4 0.0000 0.0000 0.0000 13.3005 0.0000 -26.7001
# 5 -6.6221 -14.0329 1.7875 0.0000 29.0580 0.0000
# 6 0.0000 0.0000 0.0000 -26.7001 0.0000 239.4183
#
#
#
# Elastic Compliance Matrix: (Units=1/GPa)
#
#
# Indices 1 2 3 4 5 6 
#
# 1 0.017068 -0.004122 -0.004328 0.000000 0.002165 0.000000
# 2 -0.004122 0.010905 -0.004979 0.000000 0.004633 0.000000
# 3 -0.004328 -0.004979 0.020900 0.000000 -0.004676 0.000000
# 4 0.000000 0.000000 0.000000 0.096872 0.000000 0.010803
# 5 0.002165 0.004633 -0.004676 0.000000 0.037433 0.000000
# 6 0.000000 0.000000 0.000000 0.010803 0.000000 0.005382
#
#
# Mechanical properties :
#
#
# Convention : Reuss Voigt Hill
#
# Bulk Modulus (GPa) = 45.42181 52.91649 49.16915
# Shear Modulus (GPa) = 22.44629 67.33681 44.89155
#
# Velocity S-wave (km/s) = 3.60278 6.24011 5.09505
# Velocity P-wave (km/s) = 6.60097 9.08398 7.94014
#
# Compressibility (1/GPa) = 0.02201586
#
# Stress axis : x y z
#
# Youngs Moduli (GPa) = 58.58966 91.70195 47.84734
#
# Poissons Ratio (x) = 0.37797 0.20708
# Poissons Ratio (y) = 0.24149 0.23822
# Poissons Ratio (z) = 0.25358 0.45655
#
# Static dielectric constant tensor:
#      x y z
#    x 3.143180 0.000000 -0.000580 
#    y 0.000000 3.755580 0.000000 
#    z -0.000580 0.000000 3.072840 
# 
# 
# High freq. dielectric constant tensor:
#      x y z
#    x 1.651540 0.000000 -0.000710 
#    y 0.000000 1.675530 0.000000 
#    z -0.000710 0.000000 1.649860 
# 
# From -- ./inp_files/24953.got.cif
#   From: 2010.06.25/outbox.cif.g09.slc.cpg/sg10_13_cif.got.tgz:24953.got - 2010.06.27 22:07:45.
