data_PCOD8064805
_publ_section_title
;
Structure prediction by ZEFSAII (Michael W. Deem and Ramdas Pophale) SiO2 
 PCOD8064805
Probable space group: P 2/M
;
_chemical_formula_sum "Si O2"
_cell_formula_units_Z 32
_cell_length_a 12.449091
_cell_length_b 8.967211
_cell_length_c 14.588312
_cell_angle_alpha 90.000000
_cell_angle_beta 88.398662
_cell_angle_gamma 90.000000
_cell_volume 1627.910154
_symmetry_space_group_name_H-M "P 2/M"
_symmetry_group_IT_number 10
_symmetry_cell_setting 'monoclinic'
loop_
_space_group_symop_operation_xyz
x,y,z
-x,y,-z
-x,-y,-z
x,-y,z
loop_
_atom_site_type_symbol
_atom_site_label
_atom_site_fract_x
_atom_site_fract_y
_atom_site_fract_z
Si Si1 0.372680 0.826824 0.205707
Si Si2 0.977960 0.824285 0.774844
Si Si3 0.812620 0.323042 0.281053
Si Si4 0.615272 0.171175 0.193047
Si Si5 0.115713 0.672538 0.524128
Si Si6 0.694144 0.172064 0.995282
Si Si7 0.893327 0.333458 0.945433
Si Si8 0.805396 0.327336 0.668922
O O1 0.495401 0.793046 0.230693
O O2 0.298195 0.735370 0.276676
O O3 0.344113 0.000000 0.218458
O O4 0.358478 0.778510 0.099911
O O5 0.901588 0.781086 0.861345
O O6 0.915945 0.758970 0.688909
O O7 0.094264 0.748274 0.784375
O O8 0.991423 0.000000 0.767538
O O9 0.819045 0.500000 0.273351
O O10 0.696638 0.272874 0.248062
O O11 0.832917 0.260646 0.383882
O O12 0.616252 0.202128 0.083307
O O13 0.646000 0.000000 0.211318
O O14 0.093920 0.500000 0.544726
O O15 0.203666 0.694148 0.440821
O O16 0.000000 0.745745 0.500000
O O17 0.728450 0.000000 0.990891
O O18 0.798270 0.273547 0.011822
O O19 0.867759 0.500000 0.909986
O O20 0.000000 0.333105 0.000000
O O21 0.818884 0.500000 0.694915
#
# Coordination Sequence:
#
# PCOD8064805 Si02
#       8
#     4   4   4   4   4   4   4   4
#     4  10  21  39  61  86 118 158 201 242 288 346
#     4  12  23  36  56  84 119 155 190 232 292 356
#     4  11  22  39  62  87 117 153 196 245 293 349
#     4  10  22  40  60  85 120 159 197 240 294 351
#     4   9  18  36  61  87 116 152 191 235 295 355
#     4  10  20  36  59  84 113 154 201 241 284 344
#     4  11  23  36  52  80 118 156 194 239 289 342
#     4  11  21  37  62  89 116 148 192 244 293 342
#
# _framework density 19.657104
#
# number of rings (size 3 to 8) (size 9 to 14) (size 15 to 20)
#    0.000    1.500    2.500    3.375    0.000    5.500 
#    0.000    3.750    0.000    6.000    0.000    0.000 
#    0.000    0.000    0.000    0.000    0.000    0.000 
#
# Total GULP energy -396776.898612 kJ/mol
# GULP energy per Si atom -12399.278082 kJ/mol
# Density = 1.961236 g / cm^3
# Si number density = 19.657104 Si / 1000 Ang^3
#
#
#
# Elastic Constant Matrix: (Units=GPa)
#
#
# Indices 1 2 3 4 5 6 
#
# 1 105.3150 48.7135 31.4920 0.0000 -3.6819 0.0000
# 2 48.7135 99.8431 32.7059 0.0000 -3.2251 0.0000
# 3 31.4920 32.7059 87.2007 0.0000 -4.9464 0.0000
# 4 0.0000 0.0000 0.0000 18.4650 0.0000 0.8231
# 5 -3.6819 -3.2251 -4.9464 0.0000 23.3103 0.0000
# 6 0.0000 0.0000 0.0000 0.8231 0.0000 28.6870
#
#
#
# Elastic Compliance Matrix: (Units=1/GPa)
#
#
# Indices 1 2 3 4 5 6 
#
# 1 0.012769 -0.005369 -0.002556 0.000000 0.000732 0.000000
# 2 -0.005369 0.013687 -0.003173 0.000000 0.000372 0.000000
# 3 -0.002556 -0.003173 0.013698 0.000000 0.002064 0.000000
# 4 0.000000 0.000000 0.000000 0.054226 0.000000 -0.001556
# 5 0.000732 0.000372 0.002064 0.000000 0.043504 0.000000
# 6 0.000000 0.000000 0.000000 -0.001556 0.000000 0.034904
#
#
# Mechanical properties :
#
#
# Convention : Reuss Voigt Hill
#
# Bulk Modulus (GPa) = 55.68908 57.57572 56.63240
# Shear Modulus (GPa) = 24.87934 26.05562 25.46748
#
# Velocity S-wave (km/s) = 3.56148 3.64470 3.60333
# Velocity P-wave (km/s) = 6.73082 6.86042 6.79593
#
# Compressibility (1/GPa) = 0.01795684
#
# Stress axis : x y z
#
# Youngs Moduli (GPa) = 78.31703 73.06359 73.00222
#
# Poissons Ratio (x) = 0.39227 0.18660
# Poissons Ratio (y) = 0.42047 0.23166
# Poissons Ratio (z) = 0.20019 0.23186
#
# Static dielectric constant tensor:
#      x y z
#    x 3.512640 0.000000 -0.059300 
#    y 0.000000 3.479220 0.000000 
#    z -0.059300 0.000000 3.807500 
# 
# 
# High freq. dielectric constant tensor:
#      x y z
#    x 1.760710 0.000000 -0.005640 
#    y 0.000000 1.754480 0.000000 
#    z -0.005640 0.000000 1.766470 
# 
# From -- ./inp_files/49786.got.cif
#   From: 2010.06.25/outbox.cif.g09.slc.cpg/sg10_25_cif.got.tgz:49786.got - 2010.06.27 22:07:45.
