data_PCOD8064435
_publ_section_title
;
Structure prediction by ZEFSAII (Michael W. Deem and Ramdas Pophale) SiO2 
 PCOD8064435
Probable space group: P 2/M
;
_chemical_formula_sum "Si O2"
_cell_formula_units_Z 32
_cell_length_a 13.992985
_cell_length_b 9.054899
_cell_length_c 24.113639
_cell_angle_alpha 90.000000
_cell_angle_beta 149.231792
_cell_angle_gamma 90.000000
_cell_volume 1562.998464
_symmetry_space_group_name_H-M "P 2/M"
_symmetry_group_IT_number 10
_symmetry_cell_setting 'monoclinic'
loop_
_space_group_symop_operation_xyz
x,y,z
-x,y,-z
-x,-y,-z
x,-y,z
loop_
_atom_site_type_symbol
_atom_site_label
_atom_site_fract_x
_atom_site_fract_y
_atom_site_fract_z
Si Si1 0.059373 0.170806 0.590165
Si Si2 0.963736 0.171215 0.917588
Si Si3 0.721150 0.833460 0.116614
Si Si4 0.277683 0.662852 0.385795
Si Si5 0.346307 0.325915 0.299374
Si Si6 0.761701 0.328591 0.027383
Si Si7 0.268434 0.170481 0.487169
Si Si8 0.675639 0.670412 0.202556
O O1 0.891268 0.200313 0.548239
O O2 0.000000 0.226558 0.500000
O O3 0.239366 0.264644 0.698432
O O4 0.118303 0.000000 0.617990
O O5 0.764720 0.245351 0.804944
O O6 0.958722 0.000000 0.898641
O O7 0.128651 0.250360 0.966916
O O8 0.000000 0.194914 0.000000
O O9 0.773405 0.755711 0.200300
O O10 0.800088 0.000000 0.156521
O O11 0.500000 0.832505 0.000000
O O12 0.815082 0.743320 0.113196
O O13 0.500000 0.660315 0.500000
O O14 0.198175 0.500000 0.359883
O O15 0.230965 0.707473 0.298960
O O16 0.196314 0.777809 0.390179
O O17 0.357649 0.500000 0.293769
O O18 0.554846 0.264254 0.405180
O O19 0.816693 0.500000 0.057396
O O20 0.544894 0.304602 0.906001
O O21 0.325448 0.000000 0.512111
O O22 0.726902 0.500000 0.221884
#
# Coordination Sequence:
#
# PCOD8064435 Si02
#       8
#     4   4   4   4   4   4   4   4
#     4  10  23  41  57  77 110 152 196 238 282 337
#     4  11  25  42  59  82 112 149 196 242 281 333
#     4   9  17  32  57  87 117 150 187 227 278 341
#     4   8  16  32  54  82 113 144 178 218 274 340
#     4  10  21  38  60  84 114 150 183 225 284 342
#     4  10  21  38  60  87 118 150 186 233 288 340
#     4  10  20  35  58  86 113 145 186 232 280 331
#     4  10  21  37  59  87 117 148 186 236 289 341
#
# _framework density 20.473468
#
# number of rings (size 3 to 8) (size 9 to 14) (size 15 to 20)
#    0.000    2.250    0.000    3.000    0.000   10.000 
#    0.000    6.250    0.000    0.000    0.000    0.000 
#    0.000    0.000    0.000    0.000    0.000    0.000 
#
# Total GULP energy -396880.456790 kJ/mol
# GULP energy per Si atom -12402.514275 kJ/mol
# Density = 2.042687 g / cm^3
# Si number density = 20.473468 Si / 1000 Ang^3
#
#
#
# Elastic Constant Matrix: (Units=GPa)
#
#
# Indices 1 2 3 4 5 6 
#
# 1 65.7717 36.8583 1.7483 0.0000 -13.1233 0.0000
# 2 36.8583 125.3518 35.4807 0.0000 -9.5552 0.0000
# 3 1.7483 35.4807 58.0220 0.0000 -22.5392 0.0000
# 4 0.0000 0.0000 0.0000 29.4866 0.0000 -5.1677
# 5 -13.1233 -9.5552 -22.5392 0.0000 26.1443 0.0000
# 6 0.0000 0.0000 0.0000 -5.1677 0.0000 21.3730
#
#
#
# Elastic Compliance Matrix: (Units=1/GPa)
#
#
# Indices 1 2 3 4 5 6 
#
# 1 0.023734 -0.008976 0.012220 0.000000 0.019168 0.000000
# 2 -0.008976 0.013139 -0.011500 0.000000 -0.009618 0.000000
# 3 0.012220 -0.011500 0.037060 0.000000 0.033881 0.000000
# 4 0.000000 0.000000 0.000000 0.035414 0.000000 0.008563
# 5 0.019168 -0.009618 0.033881 0.000000 0.073564 0.000000
# 6 0.000000 0.000000 0.000000 0.008563 0.000000 0.048858
#
#
# Mechanical properties :
#
#
# Convention : Reuss Voigt Hill
#
# Bulk Modulus (GPa) = 17.41570 44.14668 30.78119
# Shear Modulus (GPa) = 18.69689 27.07133 22.88411
#
# Velocity S-wave (km/s) = 3.02524 3.64024 3.34690
# Velocity P-wave (km/s) = 4.55277 6.26723 5.47749
#
# Compressibility (1/GPa) = 0.05741945
#
# Stress axis : x y z
#
# Youngs Moduli (GPa) = 42.13338 76.10940 26.98295
#
# Poissons Ratio (x) = 0.68319 -0.32973
# Poissons Ratio (y) = 0.37821 0.31031
# Poissons Ratio (z) = -0.51486 0.87529
#
# Static dielectric constant tensor:
#      x y z
#    x 3.681120 0.000000 -0.212910 
#    y 0.000000 3.838630 0.000000 
#    z -0.212910 0.000000 3.776190 
# 
# 
# High freq. dielectric constant tensor:
#      x y z
#    x 1.791610 0.000000 -0.003940 
#    y 0.000000 1.809270 0.000000 
#    z -0.003940 0.000000 1.804350 
# 
# From -- ./inp_files/89627.got.cif
#   From: 2010.06.25/outbox.cif.g09.slc.cpg/sg10_45_cif.got.tgz:89627.got - 2010.06.27 22:07:45.
