data_PCOD8064960
_publ_section_title
;
Structure prediction by ZEFSAII (Michael W. Deem and Ramdas Pophale) SiO2 
 PCOD8064960
Probable space group: P 2/M
;
_chemical_formula_sum "Si O2"
_cell_formula_units_Z 28
_cell_length_a 16.888220
_cell_length_b 7.455033
_cell_length_c 15.089365
_cell_angle_alpha 90.000000
_cell_angle_beta 42.333689
_cell_angle_gamma 90.000000
_cell_volume 1279.404932
_symmetry_space_group_name_H-M "P 2/M"
_symmetry_group_IT_number 10
_symmetry_cell_setting 'monoclinic'
loop_
_space_group_symop_operation_xyz
x,y,z
-x,y,-z
-x,-y,-z
x,-y,z
loop_
_atom_site_type_symbol
_atom_site_label
_atom_site_fract_x
_atom_site_fract_y
_atom_site_fract_z
Si Si1 0.664239 0.301846 0.793950
Si Si2 0.009083 0.288084 0.249332
Si Si3 0.492766 0.289042 0.789699
Si Si4 0.734852 0.710438 0.922260
Si Si5 0.475734 0.000000 0.380633
Si Si6 0.900534 0.289354 0.154631
Si Si7 0.297469 0.000000 0.685320
Si Si8 0.897427 0.204418 0.522822
O O1 0.617380 0.500000 0.854719
O O2 0.563991 0.211700 0.816081
O O3 0.689348 0.201846 0.866899
O O4 0.781534 0.316736 0.638191
O O5 0.016474 0.500000 0.243363
O O6 0.139909 0.205385 0.153470
O O7 0.953546 0.221497 0.203741
O O8 0.926800 0.218729 0.395493
O O9 0.518334 0.500000 0.751770
O O10 0.531378 0.180211 0.671615
O O11 0.355692 0.251909 0.923326
O O12 0.751040 0.500000 0.891874
O O13 0.360469 0.000000 0.537543
O O14 0.599295 0.000000 0.328558
O O15 0.867162 0.500000 0.182069
O O16 0.781981 0.177420 0.234754
O O17 0.000000 0.247481 0.000000
O O18 0.000000 0.284888 0.500000
O O19 0.872591 0.000000 0.570032
#
# Coordination Sequence:
#
# PCOD8064960 Si02
#       8
#     4   4   4   4   2   4   2   4
#     4  10  20  36  61  87 122 171 214 257 312 370
#     4  10  21  37  62  92 122 165 210 256 321 386
#     4  10  23  42  66  94 126 167 220 272 315 371
#     4   9  18  37  61  88 127 168 209 257 310 374
#     4  11  28  48  67  97 125 173 225 268 330 396
#     4  10  24  45  73 106 134 165 212 271 338 403
#     4  11  27  50  70  93 134 171 212 269 340 397
#     4  11  23  36  52  86 131 171 211 259 313 378
#
# _framework density 21.885173000000002
#
# number of rings (size 3 to 8) (size 9 to 14) (size 15 to 20)
#    0.000    1.857    1.429    1.071    6.000    3.429 
#    2.571    2.143    0.000    0.000    0.000    0.000 
#    0.000    0.000    0.000    0.000    0.000    0.000 
#
# Total GULP energy -347157.434443 kJ/mol
# GULP energy per Si atom -12398.479802 kJ/mol
# Density = 2.183536 g / cm^3
# Si number density = 21.885173 Si / 1000 Ang^3
#
#
#
# Elastic Constant Matrix: (Units=GPa)
#
#
# Indices 1 2 3 4 5 6 
#
# 1 99.3717 32.1010 31.4861 0.0000 0.6542 0.0000
# 2 32.1010 66.5691 27.9997 0.0000 2.8351 0.0000
# 3 31.4861 27.9997 123.0814 0.0000 1.5869 0.0000
# 4 0.0000 0.0000 0.0000 5.2953 0.0000 -7.8212
# 5 0.6542 2.8351 1.5869 0.0000 39.9504 0.0000
# 6 0.0000 0.0000 0.0000 -7.8212 0.0000 18.2007
#
#
#
# Elastic Compliance Matrix: (Units=1/GPa)
#
#
# Indices 1 2 3 4 5 6 
#
# 1 0.012350 -0.005126 -0.001996 0.000000 0.000241 0.000000
# 2 -0.005126 0.018781 -0.002947 0.000000 -0.001132 0.000000
# 3 -0.001996 -0.002947 0.009307 0.000000 -0.000128 0.000000
# 4 0.000000 0.000000 0.000000 0.516947 0.000000 0.222141
# 5 0.000241 -0.001132 -0.000128 0.000000 0.025112 0.000000
# 6 0.000000 0.000000 0.000000 0.222141 0.000000 0.150401
#
#
# Mechanical properties :
#
#
# Convention : Reuss Voigt Hill
#
# Bulk Modulus (GPa) = 49.25902 52.46621 50.86261
# Shear Modulus (GPa) = 6.58064 25.85165 16.21615
#
# Velocity S-wave (km/s) = 1.73592 3.44065 2.72502
# Velocity P-wave (km/s) = 5.15507 6.30948 5.76126
#
# Compressibility (1/GPa) = 0.02030085
#
# Stress axis : x y z
#
# Youngs Moduli (GPa) = 80.97097 53.24391 107.44157
#
# Poissons Ratio (x) = 0.27293 0.21449
# Poissons Ratio (y) = 0.41506 0.31660
# Poissons Ratio (z) = 0.16164 0.15689
#
# Static dielectric constant tensor:
#      x y z
#    x 4.228850 0.000000 -0.004580 
#    y 0.000000 3.710400 0.000000 
#    z -0.004580 0.000000 3.889270 
# 
# 
# High freq. dielectric constant tensor:
#      x y z
#    x 1.863550 0.000000 -0.004230 
#    y 0.000000 1.846780 0.000000 
#    z -0.004230 0.000000 1.865630 
# 
# From -- ./inp_files/68625.got.cif
#   From: 2010.06.25/outbox.cif.g09.slc.cpg/sg10_35_cif.got.tgz:68625.got - 2010.06.27 22:07:45.
