data_PCOD8064071
_publ_section_title
;
Structure prediction by ZEFSAII (Michael W. Deem and Ramdas Pophale) SiO2 
 PCOD8064071
Probable space group: P 2/M
;
_chemical_formula_sum "Si O2"
_cell_formula_units_Z 32
_cell_length_a 9.806869
_cell_length_b 19.391390
_cell_length_c 11.839753
_cell_angle_alpha 90.000000
_cell_angle_beta 132.380046
_cell_angle_gamma 90.000000
_cell_volume 1663.199148
_symmetry_space_group_name_H-M "P 2/M"
_symmetry_group_IT_number 10
_symmetry_cell_setting 'monoclinic'
loop_
_space_group_symop_operation_xyz
x,y,z
-x,y,-z
-x,-y,-z
x,-y,z
loop_
_atom_site_type_symbol
_atom_site_label
_atom_site_fract_x
_atom_site_fract_y
_atom_site_fract_z
Si Si1 0.795641 0.579221 0.595256
Si Si2 0.301427 0.923932 0.183275
Si Si3 0.203796 0.197212 0.827991
Si Si4 0.893090 0.663326 0.326389
Si Si5 0.506919 0.804490 0.815935
Si Si6 0.797644 0.579433 0.859267
Si Si7 0.992509 0.923529 0.180236
Si Si8 0.555603 0.654575 0.281523
O O1 0.770348 0.500000 0.544147
O O2 0.754124 0.588922 0.703326
O O3 0.650291 0.625833 0.447271
O O4 0.005425 0.601579 0.683254
O O5 0.460285 0.867367 0.252411
O O6 0.190505 0.906219 0.235639
O O7 0.392397 0.000000 0.244221
O O8 0.163060 0.923641 0.001609
O O9 0.101824 0.269367 0.749326
O O10 0.331616 0.176710 0.794198
O O11 0.054550 0.135644 0.755202
O O12 0.316926 0.207785 0.006129
O O13 0.684252 0.639978 0.242908
O O14 0.000000 0.682645 0.500000
O O15 0.470850 0.736575 0.721230
O O16 0.790310 0.500000 0.892165
O O17 0.643663 0.619211 0.846528
O O18 0.000000 0.610038 0.000000
O O19 0.997442 0.000000 0.239452
#
# Coordination Sequence:
#
# PCOD8064071 Si02
#       8
#     4   4   4   4   4   4   4   4
#     4  10  21  38  59  80 103 138 181 217 263 319
#     4   8  14  26  42  66 102 134 169 212 254 303
#     4   9  17  30  46  68 105 133 166 218 261 307
#     4   9  20  35  54  78 102 137 178 221 265 315
#     4   9  18  29  45  73 102 137 171 208 264 312
#     4  10  22  38  55  79 108 137 173 220 265 313
#     4   8  14  25  43  67  96 135 172 208 256 306
#     4  10  20  35  54  78 108 140 174 218 262 318
#
# _framework density 19.240030000000001
#
# number of rings (size 3 to 8) (size 9 to 14) (size 15 to 20)
#    0.000    2.875    0.000    1.500    1.750    5.250 
#    2.250    2.500    0.000    2.625    0.000    2.625 
#    0.000   20.000    0.000    0.000    0.000    0.125 
#
# Total GULP energy -396717.855890 kJ/mol
# GULP energy per Si atom -12397.432997 kJ/mol
# Density = 1.919624 g / cm^3
# Si number density = 19.240030 Si / 1000 Ang^3
#
#
#
# Elastic Constant Matrix: (Units=GPa)
#
#
# Indices 1 2 3 4 5 6 
#
# 1 109.6991 83.0510 28.4481 0.0000 16.9933 0.0000
# 2 83.0510 144.1782 39.8740 0.0000 2.6718 0.0000
# 3 28.4481 39.8740 32.5932 0.0000 6.3465 0.0000
# 4 0.0000 0.0000 0.0000 21.2129 0.0000 -3.4046
# 5 16.9933 2.6718 6.3465 0.0000 22.3372 0.0000
# 6 0.0000 0.0000 0.0000 -3.4046 0.0000 35.5785
#
#
#
# Elastic Compliance Matrix: (Units=1/GPa)
#
#
# Indices 1 2 3 4 5 6 
#
# 1 0.019601 -0.010618 -0.001547 0.000000 -0.013202 0.000000
# 2 -0.010618 0.016371 -0.012652 0.000000 0.009715 0.000000
# 3 -0.001547 -0.012652 0.049738 0.000000 -0.011441 0.000000
# 4 0.000000 0.000000 0.000000 0.047877 0.000000 0.004581
# 5 -0.013202 0.009715 -0.011441 0.000000 0.056901 0.000000
# 6 0.000000 0.000000 0.000000 0.004581 0.000000 0.028545
#
#
# Mechanical properties :
#
#
# Convention : Reuss Voigt Hill
#
# Bulk Modulus (GPa) = 27.72011 65.46854 46.59433
# Shear Modulus (GPa) = 17.81300 24.83221 21.32260
#
# Velocity S-wave (km/s) = 3.04605 3.59646 3.33264
# Velocity P-wave (km/s) = 5.17784 7.16570 6.25129
#
# Compressibility (1/GPa) = 0.03607489
#
# Stress axis : x y z
#
# Youngs Moduli (GPa) = 51.01767 61.08234 20.10524
#
# Poissons Ratio (x) = 0.64858 0.03111
# Poissons Ratio (y) = 0.54171 0.25438
# Poissons Ratio (z) = 0.07895 0.77283
#
# Static dielectric constant tensor:
#      x y z
#    x 3.743790 0.000000 0.161750 
#    y 0.000000 3.720820 0.000000 
#    z 0.161750 0.000000 3.170450 
# 
# 
# High freq. dielectric constant tensor:
#      x y z
#    x 1.753320 0.000000 0.009240 
#    y 0.000000 1.750400 0.000000 
#    z 0.009240 0.000000 1.710240 
# 
# From -- ./inp_files/43627.got.cif
#   From: 2010.06.25/outbox.cif.g09.slc.cpg/sg10_22_cif.got.tgz:43627.got - 2010.06.27 22:07:45.
