data_PCOD8064125
_publ_section_title
;
Structure prediction by ZEFSAII (Michael W. Deem and Ramdas Pophale) SiO2 
 PCOD8064125
Probable space group: P 2/M
;
_chemical_formula_sum "Si O2"
_cell_formula_units_Z 24
_cell_length_a 8.729706
_cell_length_b 21.186835
_cell_length_c 8.351115
_cell_angle_alpha 90.000000
_cell_angle_beta 58.488676
_cell_angle_gamma 90.000000
_cell_volume 1316.810685
_symmetry_space_group_name_H-M "P 2/M"
_symmetry_group_IT_number 10
_symmetry_cell_setting 'monoclinic'
loop_
_space_group_symop_operation_xyz
x,y,z
-x,y,-z
-x,-y,-z
x,-y,z
loop_
_atom_site_type_symbol
_atom_site_label
_atom_site_fract_x
_atom_site_fract_y
_atom_site_fract_z
Si Si1 0.034281 0.328490 0.794763
Si Si2 0.180860 0.430184 0.500000
Si Si3 0.672574 0.000000 0.796801
Si Si4 0.180582 0.102642 0.500000
Si Si5 0.030624 0.000000 0.796801
Si Si6 0.329044 0.671510 0.205237
Si Si7 0.680294 0.238035 0.500000
O O1 0.140296 0.391959 0.685057
O O2 0.154064 0.267997 0.687313
O O3 0.848376 0.321647 0.803249
O O4 0.000000 0.332293 0.000000
O O5 0.256877 0.500000 0.500000
O O6 0.325353 0.391959 0.314944
O O7 0.000000 0.436708 0.500000
O O8 0.680484 0.937389 0.683627
O O9 0.500000 0.000000 0.000000
O O10 0.839574 0.000000 0.820852
O O11 0.135889 0.062611 0.683627
O O12 0.282678 0.164578 0.500000
O O13 0.000000 0.118834 0.500000
O O14 0.000000 0.000000 0.000000
O O15 0.341377 0.732003 0.312686
O O16 0.500000 0.667707 0.000000
O O17 0.500000 0.249407 0.500000
#
# Coordination Sequence:
#
# PCOD8064125 Si02
#       7
#     4   4   2   4   2   4   4
#     4  10  20  35  55  78 107 141 176 218 264 313
#     4   8  16  32  53  77 106 139 174 214 262 313
#     4   9  19  35  56  78 104 137 171 211 257 308
#     4   9  19  37  55  75 106 141 172 208 261 315
#     4   9  19  35  56  78 104 137 171 211 257 308
#     4  10  20  35  55  78 107 141 176 218 264 313
#     4  11  22  36  55  79 106 139 179 221 265 313
#
# _framework density 18.225854999999999
#
# number of rings (size 3 to 8) (size 9 to 14) (size 15 to 20)
#    0.000    2.500    0.000    4.500    0.000    3.333 
#    0.000    5.000    0.000   17.000    0.000    0.000 
#    0.000    0.000    0.000    0.000    0.000    0.000 
#
# Total GULP energy -297579.373075 kJ/mol
# GULP energy per Si atom -12399.140545 kJ/mol
# Density = 1.818437 g / cm^3
# Si number density = 18.225855 Si / 1000 Ang^3
#
#
#
# Elastic Constant Matrix: (Units=GPa)
#
#
# Indices 1 2 3 4 5 6 
#
# 1 85.9024 50.4241 56.5826 0.0000 3.6131 0.0000
# 2 50.4241 154.8332 83.3665 0.0000 2.9984 0.0000
# 3 56.5826 83.3665 190.5849 0.0000 5.9151 0.0000
# 4 0.0000 0.0000 0.0000 13.1616 0.0000 -0.6730
# 5 3.6131 2.9984 5.9151 0.0000 34.7170 0.0000
# 6 0.0000 0.0000 0.0000 -0.6730 0.0000 20.5555
#
#
#
# Elastic Compliance Matrix: (Units=1/GPa)
#
#
# Indices 1 2 3 4 5 6 
#
# 1 0.015762 -0.003416 -0.003160 0.000000 -0.000807 0.000000
# 2 -0.003416 0.009189 -0.003008 0.000000 0.000074 0.000000
# 3 -0.003160 -0.003008 0.007522 0.000000 -0.000693 0.000000
# 4 0.000000 0.000000 0.000000 0.076106 0.000000 0.002492
# 5 -0.000807 0.000074 -0.000693 0.000000 0.029000 0.000000
# 6 0.000000 0.000000 0.000000 0.002492 0.000000 0.048730
#
#
# Mechanical properties :
#
#
# Convention : Reuss Voigt Hill
#
# Bulk Modulus (GPa) = 75.15679 90.22967 82.69323
# Shear Modulus (GPa) = 23.81948 29.74998 26.78473
#
# Velocity S-wave (km/s) = 3.61904 4.04455 3.83770
# Velocity P-wave (km/s) = 7.66741 8.45134 8.06890
#
# Compressibility (1/GPa) = 0.01330552
#
# Stress axis : x y z
#
# Youngs Moduli (GPa) = 63.44465 108.82609 132.93663
#
# Poissons Ratio (x) = 0.37174 0.42011
# Poissons Ratio (y) = 0.21672 0.39983
# Poissons Ratio (z) = 0.20050 0.32731
#
# Static dielectric constant tensor:
#      x y z
#    x 3.225970 0.000000 0.009470 
#    y 0.000000 3.559810 0.000000 
#    z 0.009470 0.000000 3.330010 
# 
# 
# High freq. dielectric constant tensor:
#      x y z
#    x 1.697520 0.000000 0.001330 
#    y 0.000000 1.711870 0.000000 
#    z 0.001330 0.000000 1.712160 
# 
# From -- ./inp_files/20157.got.cif
#   From: 2010.06.25/outbox.cif.g09.slc.cpg/sg10_11_cif.got.tgz:20157.got - 2010.06.27 22:07:45.
