data_PCOD8064275
_publ_section_title
;
Structure prediction by ZEFSAII (Michael W. Deem and Ramdas Pophale) SiO2 
 PCOD8064275
Probable space group: P 2/M
;
_chemical_formula_sum "Si O2"
_cell_formula_units_Z 32
_cell_length_a 14.863023
_cell_length_b 8.753491
_cell_length_c 11.895360
_cell_angle_alpha 90.000000
_cell_angle_beta 93.495595
_cell_angle_gamma 90.000000
_cell_volume 1544.746668
_symmetry_space_group_name_H-M "P 2/M"
_symmetry_group_IT_number 10
_symmetry_cell_setting 'monoclinic'
loop_
_space_group_symop_operation_xyz
x,y,z
-x,y,-z
-x,-y,-z
x,-y,z
loop_
_atom_site_type_symbol
_atom_site_label
_atom_site_fract_x
_atom_site_fract_y
_atom_site_fract_z
Si Si1 0.664850 0.321388 0.743785
Si Si2 0.088175 0.321140 0.440517
Si Si3 0.279432 0.180330 0.483891
Si Si4 0.672385 0.679527 0.288435
Si Si5 0.494224 0.681516 0.872347
Si Si6 0.195608 0.827423 0.091152
Si Si7 0.971852 0.826578 0.783914
Si Si8 0.174915 0.178514 0.836692
O O1 0.658054 0.500000 0.717867
O O2 0.673744 0.236350 0.626406
O O3 0.577827 0.259526 0.804262
O O4 0.751236 0.290338 0.827354
O O5 0.102950 0.500000 0.458897
O O6 0.177390 0.238795 0.492422
O O7 0.074457 0.283694 0.309467
O O8 0.000000 0.261712 0.500000
O O9 0.339968 0.239783 0.592090
O O10 0.277519 0.000000 0.483229
O O11 0.664465 0.500000 0.306473
O O12 0.596422 0.739474 0.195885
O O13 0.769830 0.721512 0.246975
O O14 0.495881 0.500000 0.879344
O O15 0.500000 0.749046 0.000000
O O16 0.088872 0.816735 0.108750
O O17 0.229739 0.000000 0.117902
O O18 0.210945 0.782864 0.963370
O O19 0.071566 0.769336 0.819793
O O20 0.973377 0.000000 0.737242
O O21 0.186349 0.000000 0.809954
#
# Coordination Sequence:
#
# PCOD8064275 Si02
#       8
#     4   4   4   4   4   4   4   4
#     4  11  22  39  65  93 122 159 206 258 308 361
#     4  11  23  38  58  86 120 158 206 260 305 354
#     4  12  25  42  62  87 123 163 204 249 308 373
#     4  11  23  41  64  90 121 157 203 255 304 357
#     4   9  20  40  66  95 125 159 198 243 305 372
#     4  10  20  36  58  87 123 163 204 247 300 365
#     4  10  20  35  56  83 119 163 205 245 297 362
#     4  10  21  37  58  87 124 165 206 247 302 366
#
# _framework density 20.715371000000001
#
# number of rings (size 3 to 8) (size 9 to 14) (size 15 to 20)
#    0.000    1.500    1.250    4.125    0.000    7.000 
#    0.000    5.000    0.000    6.750    0.000    0.000 
#    0.000    0.000    0.000    0.000    0.000    0.000 
#
# Total GULP energy -396916.894007 kJ/mol
# GULP energy per Si atom -12403.652938 kJ/mol
# Density = 2.066822 g / cm^3
# Si number density = 20.715371 Si / 1000 Ang^3
#
#
#
# Elastic Constant Matrix: (Units=GPa)
#
#
# Indices 1 2 3 4 5 6 
#
# 1 119.5291 33.5288 53.4371 0.0000 -3.2320 0.0000
# 2 33.5288 80.2089 43.4665 0.0000 1.1941 0.0000
# 3 53.4371 43.4665 137.0054 0.0000 4.0731 0.0000
# 4 0.0000 0.0000 0.0000 31.2240 0.0000 4.0917
# 5 -3.2320 1.1941 4.0731 0.0000 36.2920 0.0000
# 6 0.0000 0.0000 0.0000 4.0917 0.0000 18.2646
#
#
#
# Elastic Compliance Matrix: (Units=1/GPa)
#
#
# Indices 1 2 3 4 5 6 
#
# 1 0.010648 -0.002655 -0.003353 0.000000 0.001412 0.000000
# 2 -0.002655 0.015718 -0.003942 0.000000 -0.000311 0.000000
# 3 -0.003353 -0.003942 0.009895 0.000000 -0.001279 0.000000
# 4 0.000000 0.000000 0.000000 0.032995 0.000000 -0.007392
# 5 0.001412 -0.000311 -0.001279 0.000000 0.027834 0.000000
# 6 0.000000 0.000000 0.000000 -0.007392 0.000000 0.056407
#
#
# Mechanical properties :
#
#
# Convention : Reuss Voigt Hill
#
# Bulk Modulus (GPa) = 61.11756 66.40092 63.75924
# Shear Modulus (GPa) = 27.95629 30.91021 29.43325
#
# Velocity S-wave (km/s) = 3.67760 3.86701 3.77349
# Velocity P-wave (km/s) = 6.89931 7.21539 7.05912
#
# Compressibility (1/GPa) = 0.01636191
#
# Stress axis : x y z
#
# Youngs Moduli (GPa) = 93.91422 63.62063 101.05812
#
# Poissons Ratio (x) = 0.16893 0.33882
# Poissons Ratio (y) = 0.24936 0.39836
# Poissons Ratio (z) = 0.31487 0.25079
#
# Static dielectric constant tensor:
#      x y z
#    x 3.867660 0.000000 -0.043990 
#    y 0.000000 3.523830 0.000000 
#    z -0.043990 0.000000 3.899530 
# 
# 
# High freq. dielectric constant tensor:
#      x y z
#    x 1.813030 0.000000 -0.004080 
#    y 0.000000 1.793790 0.000000 
#    z -0.004080 0.000000 1.823180 
# 
# From -- ./inp_files/49804.got.cif
#   From: 2010.06.25/outbox.cif.g09.slc.cpg/sg10_25_cif.got.tgz:49804.got - 2010.06.27 22:07:45.
