data_PCOD8064248
_publ_section_title
;
Structure prediction by ZEFSAII (Michael W. Deem and Ramdas Pophale) SiO2 
 PCOD8064248
Probable space group: P 2/M
;
_chemical_formula_sum "Si O2"
_cell_formula_units_Z 32
_cell_length_a 28.782687
_cell_length_b 9.074515
_cell_length_c 12.290651
_cell_angle_alpha 90.000000
_cell_angle_beta 30.741346
_cell_angle_gamma 90.000000
_cell_volume 1640.927104
_symmetry_space_group_name_H-M "P 2/M"
_symmetry_group_IT_number 10
_symmetry_cell_setting 'monoclinic'
loop_
_space_group_symop_operation_xyz
x,y,z
-x,y,-z
-x,-y,-z
x,-y,z
loop_
_atom_site_type_symbol
_atom_site_label
_atom_site_fract_x
_atom_site_fract_y
_atom_site_fract_z
Si Si1 0.363850 0.170631 0.495888
Si Si2 0.856073 0.824419 0.519500
Si Si3 0.995488 0.670665 0.636848
Si Si4 0.849466 0.826923 0.064361
Si Si5 0.149757 0.827733 0.703653
Si Si6 0.663570 0.329010 0.896498
Si Si7 0.500433 0.329628 0.620214
Si Si8 0.356589 0.172016 0.269477
O O1 0.257525 0.206575 0.725334
O O2 0.419855 0.258811 0.470734
O O3 0.398799 0.210905 0.302617
O O4 0.381365 0.000000 0.480888
O O5 0.920803 0.757331 0.479420
O O6 0.898519 0.783695 0.313317
O O7 0.755252 0.760500 0.736546
O O8 0.850489 0.000000 0.544167
O O9 0.002966 0.500000 0.653107
O O10 0.000000 0.695870 0.500000
O O11 0.899763 0.734924 0.870370
O O12 0.888553 0.767622 0.103852
O O13 0.869672 0.000000 0.006294
O O14 0.252710 0.778175 0.483278
O O15 0.147760 0.000000 0.724760
O O16 0.687054 0.500000 0.831695
O O17 0.606641 0.267614 0.906057
O O18 0.598698 0.303443 0.129890
O O19 0.500000 0.260806 0.500000
O O20 0.525526 0.500000 0.564378
O O21 0.370371 0.000000 0.215246
#
# Coordination Sequence:
#
# PCOD8064248 Si02
#       8
#     4   4   4   4   4   4   4   4
#     4   9  19  36  59  85 111 140 177 226 275 320
#     4  10  20  37  61  84 109 142 178 220 273 327
#     4  11  25  41  54  75 110 148 186 226 267 316
#     4   9  18  36  60  84 110 139 176 221 270 322
#     4   7  13  29  54  82 109 136 166 208 265 324
#     4  10  20  35  56  82 112 144 180 223 269 320
#     4  10  23  40  54  73 107 150 190 226 270 325
#     4   8  15  31  54  81 112 142 173 212 268 330
#
# _framework density 19.501172
#
# number of rings (size 3 to 8) (size 9 to 14) (size 15 to 20)
#    0.000    2.750    0.000    3.375    0.000    5.250 
#    0.000   14.375    0.000    0.000    0.000    0.000 
#    0.000    0.000    0.000    0.000    0.000    0.000 
#
# Total GULP energy -396476.509079 kJ/mol
# GULP energy per Si atom -12389.890909 kJ/mol
# Density = 1.945679 g / cm^3
# Si number density = 19.501172 Si / 1000 Ang^3
#
#
#
# Elastic Constant Matrix: (Units=GPa)
#
#
# Indices 1 2 3 4 5 6 
#
# 1 -2169.1946-1405.4893-3996.0888 0.0000 -525.1950 0.0000
# 2 -1405.4893 -844.2019-2528.2690 0.0000 -332.9059 0.0000
# 3 -3996.0888-2528.2690-7021.5670 0.0000 -926.4669 0.0000
# 4 0.0000 0.0000 0.0000 24.1769 0.0000 4.1727
# 5 -525.1950 -332.9059 -926.4669 0.0000 -93.9051 0.0000
# 6 0.0000 0.0000 0.0000 4.1727 0.0000 29.8701
#
#
#
# Elastic Compliance Matrix: (Units=1/GPa)
#
#
# Indices 1 2 3 4 5 6 
#
# 1 0.011352 -0.005722 -0.004309 0.000000 -0.000691 0.000000
# 2 -0.005722 0.018004 -0.003223 0.000000 -0.000019 0.000000
# 3 -0.004309 -0.003223 0.004033 0.000000 -0.004263 0.000000
# 4 0.000000 0.000000 0.000000 0.042384 0.000000 -0.005921
# 5 -0.000691 -0.000019 -0.004263 0.000000 0.035339 0.000000
# 6 0.000000 0.000000 0.000000 -0.005921 0.000000 0.034305
#
#
# Mechanical properties :
#
#
# Convention : Reuss Voigt Hill
#
# Bulk Modulus (GPa) = 145.36259 -2877.18419 -1365.91080
# Shear Modulus (GPa) = 28.69926 -148.31272 -59.80673
#
# Velocity S-wave (km/s) = 3.84039 -8.73031 -5.54390
# Velocity P-wave (km/s) = 9.71427 39.75195 27.25666
#
# Compressibility (1/GPa) = 0.00687935
#
# Stress axis : x y z
#
# Youngs Moduli (GPa) = 88.08773 55.54317 247.94964
#
# Poissons Ratio (x) = 0.31784 1.06844
# Poissons Ratio (y) = 0.50408 0.79926
# Poissons Ratio (z) = 0.37958 0.17904
#
# Static dielectric constant tensor:
#      x y z
#    x 3.742140 0.000000 0.287050 
#    y 0.000000 3.425390 0.000000 
#    z 0.287050 0.000000 3.554460 
# 
# 
# High freq. dielectric constant tensor:
#      x y z
#    x 1.764510 0.000000 0.010260 
#    y 0.000000 1.741700 0.000000 
#    z 0.010260 0.000000 1.758160 
# 
# From -- ./inp_files/58112.got.cif
#   From: 2010.06.25/outbox.cif.g09.slc.cpg/sg10_30_cif.got.tgz:58112.got - 2010.06.27 22:07:45.
