data_PCOD8064166
_publ_section_title
;
Structure prediction by ZEFSAII (Michael W. Deem and Ramdas Pophale) SiO2 
 PCOD8064166
Probable space group: P 2/M
;
_chemical_formula_sum "Si O2"
_cell_formula_units_Z 28
_cell_length_a 11.690850
_cell_length_b 8.847624
_cell_length_c 15.221815
_cell_angle_alpha 90.000000
_cell_angle_beta 63.943387
_cell_angle_gamma 90.000000
_cell_volume 1414.457213
_symmetry_space_group_name_H-M "P 2/M"
_symmetry_group_IT_number 10
_symmetry_cell_setting 'monoclinic'
loop_
_space_group_symop_operation_xyz
x,y,z
-x,y,-z
-x,-y,-z
x,-y,z
loop_
_atom_site_type_symbol
_atom_site_label
_atom_site_fract_x
_atom_site_fract_y
_atom_site_fract_z
Si Si1 0.205568 0.825891 0.921071
Si Si2 0.938506 0.322302 0.696210
Si Si3 0.015368 0.174521 0.137416
Si Si4 0.709814 0.821587 0.682306
Si Si5 0.175961 0.177745 0.541262
Si Si6 0.374178 0.675861 0.594593
Si Si7 0.441517 0.323905 0.769311
O O1 0.331184 0.723010 0.874273
O O2 0.107687 0.779227 0.877502
O O3 0.244737 0.000000 0.896689
O O4 0.141591 0.798431 0.037034
O O5 0.933019 0.500000 0.686828
O O6 0.981206 0.281532 0.779894
O O7 0.800463 0.252594 0.724275
O O8 0.038199 0.255538 0.592146
O O9 0.007219 0.000000 0.169860
O O10 0.752507 0.767953 0.570845
O O11 0.567801 0.767586 0.749832
O O12 0.717284 0.000000 0.689544
O O13 0.257324 0.226392 0.598387
O O14 0.154747 0.000000 0.549392
O O15 0.500000 0.722877 0.500000
O O16 0.341960 0.500000 0.592040
O O17 0.393644 0.719636 0.688715
O O18 0.472131 0.500000 0.767218
#
# Coordination Sequence:
#
# PCOD8064166 Si02
#       7
#     4   4   4   4   4   4   4
#     4   9  19  37  63  91 118 150 187 232 286 340
#     4  12  25  39  59  85 115 151 191 238 292 343
#     4   9  19  39  64  89 117 149 189 236 283 337
#     4  11  24  41  59  80 112 154 199 242 282 335
#     4  11  23  38  59  85 113 151 199 242 283 336
#     4  10  20  35  55  82 119 154 186 229 284 339
#     4  11  22  36  57  86 120 156 191 233 287 342
#
# _framework density 19.795580000000001
#
# number of rings (size 3 to 8) (size 9 to 14) (size 15 to 20)
#    0.000    1.571    1.429    4.714    0.000    8.286 
#    0.000    2.143    0.000    4.286    0.000    0.000 
#    0.000    0.000    0.000    0.000    0.000    0.000 
#
# Total GULP energy -347386.326766 kJ/mol
# GULP energy per Si atom -12406.654527 kJ/mol
# Density = 1.975052 g / cm^3
# Si number density = 19.795580 Si / 1000 Ang^3
#
#
#
# Elastic Constant Matrix: (Units=GPa)
#
#
# Indices 1 2 3 4 5 6 
#
# 1 90.9331 39.1481 27.0348 0.0000 -16.7050 0.0000
# 2 39.1481 87.4309 28.5058 0.0000 -7.5791 0.0000
# 3 27.0348 28.5058 69.0398 0.0000 -20.2088 0.0000
# 4 0.0000 0.0000 0.0000 21.1599 0.0000 -1.5888
# 5 -16.7050 -7.5791 -20.2088 0.0000 30.4330 0.0000
# 6 0.0000 0.0000 0.0000 -1.5888 0.0000 35.5648
#
#
#
# Elastic Compliance Matrix: (Units=1/GPa)
#
#
# Indices 1 2 3 4 5 6 
#
# 1 0.015007 -0.005607 -0.001935 0.000000 0.005556 0.000000
# 2 -0.005607 0.015316 -0.004857 0.000000 -0.002488 0.000000
# 3 -0.001935 -0.004857 0.020583 0.000000 0.011396 0.000000
# 4 0.000000 0.000000 0.000000 0.047418 0.000000 0.002118
# 5 0.005556 -0.002488 0.011396 0.000000 0.042857 0.000000
# 6 0.000000 0.000000 0.000000 0.002118 0.000000 0.028212
#
#
# Mechanical properties :
#
#
# Convention : Reuss Voigt Hill
#
# Bulk Modulus (GPa) = 38.30107 48.53125 43.41616
# Shear Modulus (GPa) = 24.64343 27.61254 26.12799
#
# Velocity S-wave (km/s) = 3.53214 3.73887 3.63697
# Velocity P-wave (km/s) = 6.00208 6.57330 6.29417
#
# Compressibility (1/GPa) = 0.02610893
#
# Stress axis : x y z
#
# Youngs Moduli (GPa) = 66.63553 65.29159 48.58322
#
# Poissons Ratio (x) = 0.36609 0.09401
# Poissons Ratio (y) = 0.37363 0.23595
# Poissons Ratio (z) = 0.12894 0.31709
#
# Static dielectric constant tensor:
#      x y z
#    x 3.572140 0.000000 -0.091650 
#    y 0.000000 3.468180 0.000000 
#    z -0.091650 0.000000 3.583170 
# 
# 
# High freq. dielectric constant tensor:
#      x y z
#    x 1.772540 0.000000 -0.010990 
#    y 0.000000 1.771060 0.000000 
#    z -0.010990 0.000000 1.769020 
# 
# From -- ./inp_files/49157.got.cif
#   From: 2010.06.25/outbox.cif.g09.slc.cpg/sg10_25_cif.got.tgz:49157.got - 2010.06.27 22:07:45.
