data_PCOD8064815
_publ_section_title
;
Structure prediction by ZEFSAII (Michael W. Deem and Ramdas Pophale) SiO2 
 PCOD8064815
Probable space group: P 2/M
;
_chemical_formula_sum "Si O2"
_cell_formula_units_Z 24
_cell_length_a 10.247518
_cell_length_b 8.803018
_cell_length_c 13.484742
_cell_angle_alpha 90.000000
_cell_angle_beta 100.308186
_cell_angle_gamma 90.000000
_cell_volume 1196.812170
_symmetry_space_group_name_H-M "P 2/M"
_symmetry_group_IT_number 10
_symmetry_cell_setting 'monoclinic'
loop_
_space_group_symop_operation_xyz
x,y,z
-x,y,-z
-x,-y,-z
x,-y,z
loop_
_atom_site_type_symbol
_atom_site_label
_atom_site_fract_x
_atom_site_fract_y
_atom_site_fract_z
Si Si1 0.945537 0.177647 0.385323
Si Si2 0.318416 0.679779 0.725567
Si Si3 0.146438 0.674346 0.050748
Si Si4 0.165978 0.324379 0.286095
Si Si5 0.357775 0.178208 0.942833
Si Si6 0.453893 0.319351 0.387768
O O1 0.050346 0.223772 0.316107
O O2 0.000000 0.224243 0.500000
O O3 0.809895 0.266839 0.351409
O O4 0.916865 0.000000 0.372975
O O5 0.316503 0.500000 0.730728
O O6 0.318290 0.742270 0.835917
O O7 0.447528 0.740435 0.684374
O O8 0.172320 0.500000 0.022952
O O9 0.164820 0.697851 0.169109
O O10 0.250052 0.782031 0.010590
O O11 0.000000 0.725902 0.000000
O O12 0.143625 0.500000 0.312241
O O13 0.305857 0.261558 0.345732
O O14 0.360222 0.000000 0.924405
O O15 0.500000 0.237809 0.000000
O O16 0.500000 0.253302 0.500000
O O17 0.456666 0.500000 0.389345
#
# Coordination Sequence:
#
# PCOD8064815 Si02
#       6
#     4   4   4   4   4   4
#     4  11  24  40  58  85 122 159 194 235 286 347
#     4  11  22  38  63  89 115 152 196 244 293 340
#     4  10  21  37  58  85 114 147 193 243 288 338
#     4  10  20  36  59  85 113 147 191 241 287 338
#     4  11  24  40  59  86 121 158 194 235 288 352
#     4   9  18  33  55  84 113 142 184 237 288 337
#
# _framework density 20.053270999999999
#
# number of rings (size 3 to 8) (size 9 to 14) (size 15 to 20)
#    0.000    1.667    0.000    4.500    0.000    7.667 
#    0.000    1.667    0.000    4.500    0.000    0.000 
#    0.000    0.000    0.000    0.000    0.000    0.000 
#
# Total GULP energy -297738.739733 kJ/mol
# GULP energy per Si atom -12405.780822 kJ/mol
# Density = 2.000763 g / cm^3
# Si number density = 20.053271 Si / 1000 Ang^3
#
#
#
# Elastic Constant Matrix: (Units=GPa)
#
#
# Indices 1 2 3 4 5 6 
#
# 1 99.3495 23.5539 14.6711 0.0000 5.1606 0.0000
# 2 23.5539 50.7472 25.3588 0.0000 -0.3479 0.0000
# 3 14.6711 25.3588 82.5250 0.0000 9.8339 0.0000
# 4 0.0000 0.0000 0.0000 31.0785 0.0000 4.7861
# 5 5.1606 -0.3479 9.8339 0.0000 41.6521 0.0000
# 6 0.0000 0.0000 0.0000 4.7861 0.0000 12.9753
#
#
#
# Elastic Compliance Matrix: (Units=1/GPa)
#
#
# Indices 1 2 3 4 5 6 
#
# 1 0.011403 -0.005165 -0.000274 0.000000 -0.001391 0.000000
# 2 -0.005165 0.025773 -0.007309 0.000000 0.002581 0.000000
# 3 -0.000274 -0.007309 0.014833 0.000000 -0.003529 0.000000
# 4 0.000000 0.000000 0.000000 0.034114 0.000000 -0.012583
# 5 -0.001391 0.002581 -0.003529 0.000000 0.025036 0.000000
# 6 0.000000 0.000000 0.000000 -0.012583 0.000000 0.081711
#
#
# Mechanical properties :
#
#
# Convention : Reuss Voigt Hill
#
# Bulk Modulus (GPa) = 37.71880 39.97659 38.84769
# Shear Modulus (GPa) = 22.00677 28.41038 25.20857
#
# Velocity S-wave (km/s) = 3.31632 3.76805 3.54938
# Velocity P-wave (km/s) = 5.78914 6.23774 6.01762
#
# Compressibility (1/GPa) = 0.02651198
#
# Stress axis : x y z
#
# Youngs Moduli (GPa) = 87.69806 38.80057 67.41839
#
# Poissons Ratio (x) = 0.20040 0.01849
# Poissons Ratio (y) = 0.45296 0.49276
# Poissons Ratio (z) = 0.02405 0.28359
#
# Static dielectric constant tensor:
#      x y z
#    x 3.822660 0.000000 0.108360 
#    y 0.000000 3.457950 0.000000 
#    z 0.108360 0.000000 3.791770 
# 
# 
# High freq. dielectric constant tensor:
#      x y z
#    x 1.800050 0.000000 0.003550 
#    y 0.000000 1.762900 0.000000 
#    z 0.003550 0.000000 1.801180 
# 
# From -- ./inp_files/60368.got.cif
#   From: 2010.06.25/outbox.cif.g09.slc.cpg/sg10_31_cif.got.tgz:60368.got - 2010.06.27 22:07:45.
