data_PCOD8064935
_publ_section_title
;
Structure prediction by ZEFSAII (Michael W. Deem and Ramdas Pophale) SiO2 
 PCOD8064935
Probable space group: P 2/M
;
_chemical_formula_sum "Si O2"
_cell_formula_units_Z 28
_cell_length_a 29.670563
_cell_length_b 8.328763
_cell_length_c 10.019450
_cell_angle_alpha 90.000000
_cell_angle_beta 145.950885
_cell_angle_gamma 90.000000
_cell_volume 1386.319240
_symmetry_space_group_name_H-M "P 2/M"
_symmetry_group_IT_number 10
_symmetry_cell_setting 'monoclinic'
loop_
_space_group_symop_operation_xyz
x,y,z
-x,y,-z
-x,-y,-z
x,-y,z
loop_
_atom_site_type_symbol
_atom_site_label
_atom_site_fract_x
_atom_site_fract_y
_atom_site_fract_z
Si Si1 0.659144 0.686802 0.641424
Si Si2 0.237142 0.812322 0.339573
Si Si3 0.085242 0.186275 0.567001
Si Si4 0.506674 0.187779 0.863758
Si Si5 0.918376 0.686812 0.148258
Si Si6 0.258634 0.814693 0.906851
Si Si7 0.327624 0.316368 0.813226
O O1 0.651082 0.500000 0.586658
O O2 0.726150 0.769392 0.713846
O O3 0.574518 0.774311 0.413808
O O4 0.685630 0.709252 0.859281
O O5 0.286068 0.717616 0.570686
O O6 0.244618 0.000000 0.386558
O O7 0.144112 0.756617 0.113448
O O8 0.095345 0.218453 0.748419
O O9 0.165838 0.242422 0.688985
O O10 0.009602 0.284870 0.321115
O O11 0.067800 0.000000 0.500780
O O12 0.526187 0.000000 0.906545
O O13 0.500000 0.246961 0.000000
O O14 0.577803 0.281689 0.965063
O O15 0.902326 0.500000 0.133017
O O16 0.287685 0.794147 0.827348
O O17 0.265572 0.000000 0.966875
O O18 0.314588 0.500000 0.821575
#
# Coordination Sequence:
#
# PCOD8064935 Si02
#       7
#     4   4   4   4   4   4   4
#     4  12  24  39  65  96 126 160 208 261 310 361
#     4  12  23  40  63  91 125 165 211 254 308 374
#     4  10  20  36  60  89 125 165 206 252 308 370
#     4  11  23  41  66  93 125 164 208 254 308 369
#     4  11  21  34  59  93 126 159 206 261 310 357
#     4  11  24  43  65  91 128 170 208 250 311 378
#     4  12  26  43  65  93 127 163 206 260 315 368
#
# _framework density 20.197367
#
# number of rings (size 3 to 8) (size 9 to 14) (size 15 to 20)
#    0.000    0.714    2.857    7.286    0.000    2.857 
#    0.000    3.571    0.000    4.286    0.000    0.000 
#    0.000    0.000    0.000    0.000    0.000    0.000 
#
# Total GULP energy -347413.603668 kJ/mol
# GULP energy per Si atom -12407.628702 kJ/mol
# Density = 2.015140 g / cm^3
# Si number density = 20.197367 Si / 1000 Ang^3
#
#
#
# Elastic Constant Matrix: (Units=GPa)
#
#
# Indices 1 2 3 4 5 6 
#
# 1 95.0150 12.9389 30.1305 0.0000 15.2813 0.0000
# 2 12.9389 68.6739 18.1637 0.0000 4.2617 0.0000
# 3 30.1305 18.1637 100.4346 0.0000 21.7301 0.0000
# 4 0.0000 0.0000 0.0000 30.0387 0.0000 1.5834
# 5 15.2813 4.2617 21.7301 0.0000 26.9315 0.0000
# 6 0.0000 0.0000 0.0000 1.5834 0.0000 22.7829
#
#
#
# Elastic Compliance Matrix: (Units=1/GPa)
#
#
# Indices 1 2 3 4 5 6 
#
# 1 0.012241 -0.001378 -0.002384 0.000000 -0.004804 0.000000
# 2 -0.001378 0.015449 -0.002448 0.000000 0.000312 0.000000
# 3 -0.002384 -0.002448 0.013009 0.000000 -0.008757 0.000000
# 4 0.000000 0.000000 0.000000 0.033413 0.000000 -0.002322
# 5 -0.004804 0.000312 -0.008757 0.000000 0.046873 0.000000
# 6 0.000000 0.000000 0.000000 -0.002322 0.000000 0.044054
#
#
# Mechanical properties :
#
#
# Convention : Reuss Voigt Hill
#
# Bulk Modulus (GPa) = 35.36062 42.95441 39.15751
# Shear Modulus (GPa) = 26.75435 29.47664 28.11549
#
# Velocity S-wave (km/s) = 3.64352 3.82439 3.73505
# Velocity P-wave (km/s) = 5.93682 6.38865 6.16687
#
# Compressibility (1/GPa) = 0.02828005
#
# Stress axis : x y z
#
# Youngs Moduli (GPa) = 81.69382 64.72774 76.86865
#
# Poissons Ratio (x) = 0.08918 0.18323
# Poissons Ratio (y) = 0.11255 0.18820
# Poissons Ratio (z) = 0.19473 0.15847
#
# Static dielectric constant tensor:
#      x y z
#    x 3.542020 0.000000 0.296680 
#    y 0.000000 3.661690 0.000000 
#    z 0.296680 0.000000 3.765020 
# 
# 
# High freq. dielectric constant tensor:
#      x y z
#    x 1.771230 0.000000 0.020600 
#    y 0.000000 1.802230 0.000000 
#    z 0.020600 0.000000 1.797340 
# 
# From -- ./inp_files/37288.got.cif
#   From: 2010.06.25/outbox.cif.g09.slc.cpg/sg10_19_cif.got.tgz:37288.got - 2010.06.27 22:07:45.
