data_PCOD8064928
_publ_section_title
;
Structure prediction by ZEFSAII (Michael W. Deem and Ramdas Pophale) SiO2 
 PCOD8064928
Probable space group: P 2/M
;
_chemical_formula_sum "Si O2"
_cell_formula_units_Z 28
_cell_length_a 8.919393
_cell_length_b 8.444812
_cell_length_c 28.660828
_cell_angle_alpha 90.000000
_cell_angle_beta 38.918850
_cell_angle_gamma 90.000000
_cell_volume 1356.204334
_symmetry_space_group_name_H-M "P 2/M"
_symmetry_group_IT_number 10
_symmetry_cell_setting 'monoclinic'
loop_
_space_group_symop_operation_xyz
x,y,z
-x,y,-z
-x,-y,-z
x,-y,z
loop_
_atom_site_type_symbol
_atom_site_label
_atom_site_fract_x
_atom_site_fract_y
_atom_site_fract_z
Si Si1 0.203690 0.181347 0.349481
Si Si2 0.238902 0.314046 0.073086
Si Si3 0.083434 0.816234 0.929100
Si Si4 0.597845 0.315825 0.791019
Si Si5 0.038580 0.311881 0.218422
Si Si6 0.698492 0.316936 0.489674
Si Si7 0.498492 0.685794 0.639420
O O1 0.302388 0.293154 0.284903
O O2 0.340726 0.218938 0.363673
O O3 0.924973 0.209271 0.424683
O O4 0.246464 0.000000 0.325053
O O5 0.264788 0.500000 0.073542
O O6 0.134898 0.241037 0.146210
O O7 0.061158 0.281424 0.074005
O O8 0.500000 0.239243 0.000000
O O9 0.362148 0.786069 0.855621
O O10 0.026429 0.000000 0.935851
O O11 0.000000 0.757004 0.000000
O O12 0.538522 0.500000 0.813262
O O13 0.792759 0.252369 0.780650
O O14 0.035516 0.500000 0.218354
O O15 0.771430 0.249654 0.291647
O O16 0.500000 0.274795 0.500000
O O17 0.775904 0.500000 0.467663
O O18 0.594053 0.275328 0.565210
O O19 0.514018 0.500000 0.647022
#
# Coordination Sequence:
#
# PCOD8064928 Si02
#       7
#     4   4   4   4   4   4   4
#     4  12  25  39  57  86 123 157 192 236 293 355
#     4  10  20  36  60  89 118 152 199 246 288 342
#     4  11  24  40  58  86 124 160 194 236 291 350
#     4  11  22  40  65  88 114 151 198 246 291 343
#     4   9  19  36  60  88 113 143 190 248 298 339
#     4  10  21  39  63  88 114 150 199 248 292 343
#     4  10  20  37  61  86 114 152 198 243 289 345
#
# _framework density 20.645856999999999
#
# number of rings (size 3 to 8) (size 9 to 14) (size 15 to 20)
#    0.000    1.571    0.000    5.143    0.000    8.571 
#    0.000    4.286    0.000    0.000    0.000    0.000 
#    0.000    0.000    0.000    0.000    0.000    0.000 
#
# Total GULP energy -347366.215860 kJ/mol
# GULP energy per Si atom -12405.936281 kJ/mol
# Density = 2.059887 g / cm^3
# Si number density = 20.645857 Si / 1000 Ang^3
#
#
#
# Elastic Constant Matrix: (Units=GPa)
#
#
# Indices 1 2 3 4 5 6 
#
# 1 147.1778 11.6214 60.6745 0.0000 5.1858 0.0000
# 2 11.6214 30.8269 13.6797 0.0000 1.2828 0.0000
# 3 60.6745 13.6797 150.2278 0.0000 -2.3320 0.0000
# 4 0.0000 0.0000 0.0000 30.1821 0.0000 6.4970
# 5 5.1858 1.2828 -2.3320 0.0000 41.2942 0.0000
# 6 0.0000 0.0000 0.0000 6.4970 0.0000 11.4684
#
#
#
# Elastic Compliance Matrix: (Units=1/GPa)
#
#
# Indices 1 2 3 4 5 6 
#
# 1 0.008292 -0.001650 -0.003217 0.000000 -0.001172 0.000000
# 2 -0.001650 0.034196 -0.002463 0.000000 -0.000994 0.000000
# 3 -0.003217 -0.002463 0.008195 0.000000 0.000943 0.000000
# 4 0.000000 0.000000 0.000000 0.037734 0.000000 -0.021376
# 5 -0.001172 -0.000994 0.000943 0.000000 0.024448 0.000000
# 6 0.000000 0.000000 0.000000 -0.021376 0.000000 0.099306
#
#
# Mechanical properties :
#
#
# Convention : Reuss Voigt Hill
#
# Bulk Modulus (GPa) = 27.76001 55.57598 41.66799
# Shear Modulus (GPa) = 20.93475 32.73938 26.83707
#
# Velocity S-wave (km/s) = 3.18778 3.98648 3.60929
# Velocity P-wave (km/s) = 5.19848 6.94021 6.13151
#
# Compressibility (1/GPa) = 0.03602304
#
# Stress axis : x y z
#
# Youngs Moduli (GPa) = 120.59363 29.24361 122.02845
#
# Poissons Ratio (x) = 0.04824 0.39258
# Poissons Ratio (y) = 0.19895 0.30055
# Poissons Ratio (z) = 0.38796 0.07203
#
# Static dielectric constant tensor:
#      x y z
#    x 3.617080 0.000000 0.037980 
#    y 0.000000 3.398030 0.000000 
#    z 0.037980 0.000000 3.990670 
# 
# 
# High freq. dielectric constant tensor:
#      x y z
#    x 1.824840 0.000000 0.000380 
#    y 0.000000 1.780520 0.000000 
#    z 0.000380 0.000000 1.826830 
# 
# From -- ./inp_files/34179.got.cif
#   From: 2010.06.25/outbox.cif.g09.slc.cpg/sg10_18_cif.got.tgz:34179.got - 2010.06.27 22:07:45.
