data_PCOD8064892
_publ_section_title
;
Structure prediction by ZEFSAII (Michael W. Deem and Ramdas Pophale) SiO2 
 PCOD8064892
Probable space group: P 2/M
;
_chemical_formula_sum "Si O2"
_cell_formula_units_Z 24
_cell_length_a 13.444629
_cell_length_b 13.034299
_cell_length_c 13.750102
_cell_angle_alpha 90.000000
_cell_angle_beta 30.523494
_cell_angle_gamma 90.000000
_cell_volume 1223.808532
_symmetry_space_group_name_H-M "P 2/M"
_symmetry_group_IT_number 10
_symmetry_cell_setting 'monoclinic'
loop_
_space_group_symop_operation_xyz
x,y,z
-x,y,-z
-x,-y,-z
x,-y,z
loop_
_atom_site_type_symbol
_atom_site_label
_atom_site_fract_x
_atom_site_fract_y
_atom_site_fract_z
Si Si1 0.392485 0.262806 0.489443
Si Si2 0.299134 0.795140 0.062873
Si Si3 0.697404 0.884386 0.737523
Si Si4 0.891419 0.118841 0.374536
Si Si5 0.630999 0.384626 0.125559
Si Si6 0.952464 0.387672 0.141093
O O1 0.500000 0.236504 0.500000
O O2 0.294808 0.159882 0.529149
O O3 0.533941 0.319721 0.294486
O O4 0.213400 0.337615 0.655967
O O5 0.264388 0.802766 0.208315
O O6 0.098072 0.825236 0.175574
O O7 0.474216 0.873308 0.886569
O O8 0.376629 0.681589 0.967559
O O9 0.851141 0.863027 0.522642
O O10 0.726716 0.000000 0.752923
O O11 0.912160 0.000000 0.331084
O O12 0.538429 0.500000 0.191403
O O13 0.858217 0.397290 0.953191
O O14 0.870774 0.500000 0.180744
O O15 0.000000 0.327491 0.000000
#
# Coordination Sequence:
#
# PCOD8064892 Si02
#       6
#     4   4   4   4   4   4
#     4  12  23  38  61  86 122 158 199 242 292 346
#     4  11  20  38  63  88 120 151 192 246 297 348
#     4  10  21  38  64  93 116 149 201 251 292 349
#     4  11  23  39  61  88 120 156 195 244 299 352
#     4  11  23  38  59  88 119 158 199 240 294 352
#     4  10  20  36  60  86 112 150 203 252 291 338
#
# _framework density 19.610911999999999
#
# number of rings (size 3 to 8) (size 9 to 14) (size 15 to 20)
#    0.000    1.167    5.000    3.000    0.000    2.333 
#    0.000    1.667    0.000    2.500    0.000    0.000 
#    0.000    0.000    0.000    0.000    0.000    0.000 
#
# Total GULP energy -297426.339402 kJ/mol
# GULP energy per Si atom -12392.764142 kJ/mol
# Density = 1.956628 g / cm^3
# Si number density = 19.610912 Si / 1000 Ang^3
#
#
#
# Elastic Constant Matrix: (Units=GPa)
#
#
# Indices 1 2 3 4 5 6 
#
# 1 81.7549 53.5906 25.7701 0.0000 4.1299 0.0000
# 2 53.5906 109.2637 37.8764 0.0000 11.5009 0.0000
# 3 25.7701 37.8764 85.5638 0.0000 -3.0103 0.0000
# 4 0.0000 0.0000 0.0000 -368.6015 0.0000 99.2298
# 5 4.1299 11.5009 -3.0103 0.0000 33.7562 0.0000
# 6 0.0000 0.0000 0.0000 99.2298 0.0000 4.2606
#
#
#
# Elastic Compliance Matrix: (Units=1/GPa)
#
#
# Indices 1 2 3 4 5 6 
#
# 1 0.018270 -0.008397 -0.001769 0.000000 0.000468 0.000000
# 2 -0.008397 0.015274 -0.004393 0.000000 -0.004569 0.000000
# 3 -0.001769 -0.004393 0.014270 0.000000 0.002986 0.000000
# 4 0.000000 0.000000 0.000000 -0.000373 0.000000 0.008691
# 5 0.000468 -0.004569 0.002986 0.000000 0.031390 0.000000
# 6 0.000000 0.000000 0.000000 0.008691 0.000000 0.032285
#
#
# Mechanical properties :
#
#
# Convention : Reuss Voigt Hill
#
# Bulk Modulus (GPa) = 53.48811 56.78408 55.13610
# Shear Modulus (GPa) = 34.13765 -55.49392 -10.67814
#
# Velocity S-wave (km/s) = 4.17675 -5.32531 -2.33598
# Velocity P-wave (km/s) = 7.11296 2.96541 4.57168
#
# Compressibility (1/GPa) = 0.01869574
#
# Stress axis : x y z
#
# Youngs Moduli (GPa) = 54.73510 65.46917 70.07813
#
# Poissons Ratio (x) = 0.54973 0.12397
# Poissons Ratio (y) = 0.45960 0.30787
# Poissons Ratio (z) = 0.09683 0.28762
#
# Static dielectric constant tensor:
#      x y z
#    x 3.644550 0.000000 -0.067100 
#    y 0.000000 3.689520 0.000000 
#    z -0.067100 0.000000 3.735220 
# 
# 
# High freq. dielectric constant tensor:
#      x y z
#    x 1.749540 0.000000 -0.008530 
#    y 0.000000 1.749250 0.000000 
#    z -0.008530 0.000000 1.782120 
# 
# From -- ./inp_files/67233.got.cif
#   From: 2010.06.25/outbox.cif.g09.slc.cpg/sg10_34_cif.got.tgz:67233.got - 2010.06.27 22:07:45.
