data_PCOD8064218
_publ_section_title
;
Structure prediction by ZEFSAII (Michael W. Deem and Ramdas Pophale) SiO2 
 PCOD8064218
Probable space group: P 2/M
;
_chemical_formula_sum "Si O2"
_cell_formula_units_Z 28
_cell_length_a 14.223299
_cell_length_b 8.918647
_cell_length_c 19.233686
_cell_angle_alpha 90.000000
_cell_angle_beta 35.551028
_cell_angle_gamma 90.000000
_cell_volume 1418.592358
_symmetry_space_group_name_H-M "P 2/M"
_symmetry_group_IT_number 10
_symmetry_cell_setting 'monoclinic'
loop_
_space_group_symop_operation_xyz
x,y,z
-x,y,-z
-x,-y,-z
x,-y,z
loop_
_atom_site_type_symbol
_atom_site_label
_atom_site_fract_x
_atom_site_fract_y
_atom_site_fract_z
Si Si1 0.497006 0.168649 0.694506
Si Si2 0.972345 0.676965 0.299392
Si Si3 0.149881 0.829754 0.954521
Si Si4 0.574271 0.176879 0.803592
Si Si5 0.380983 0.677238 0.512632
Si Si6 0.751418 0.323153 0.967861
Si Si7 0.091860 0.323501 0.375833
O O1 0.303759 0.175975 0.811679
O O2 0.565454 0.221555 0.727793
O O3 0.556996 0.283040 0.600909
O O4 0.555849 0.000000 0.641726
O O5 0.971452 0.500000 0.291543
O O6 0.126909 0.739805 0.164527
O O7 0.984531 0.720454 0.373465
O O8 0.803024 0.740238 0.369789
O O9 0.125006 0.000000 0.997231
O O10 0.168605 0.717103 0.006924
O O11 0.000000 0.772313 0.000000
O O12 0.737922 0.241711 0.736448
O O13 0.566853 0.000000 0.817687
O O14 0.422525 0.245195 0.936747
O O15 0.500000 0.747396 0.500000
O O16 0.380737 0.500000 0.519950
O O17 0.726018 0.500000 0.977651
O O18 0.124699 0.500000 0.360737
O O19 0.000000 0.265319 0.500000
#
# Coordination Sequence:
#
# PCOD8064218 Si02
#       7
#     4   4   4   4   4   4   4
#     4   9  19  35  53  76 106 141 179 223 275 328
#     4   9  20  37  54  81 117 146 180 233 286 332
#     4   9  19  35  54  77 109 146 184 232 282 328
#     4  10  21  38  58  82 115 146 183 233 283 334
#     4  10  21  36  56  80 110 146 183 228 279 328
#     4  10  20  35  56  80 112 148 187 231 278 336
#     4  10  20  36  61  86 111 149 192 230 277 337
#
# _framework density 19.737877000000001
#
# number of rings (size 3 to 8) (size 9 to 14) (size 15 to 20)
#    0.000    2.429    0.000    2.571    2.000    5.429 
#    0.000    6.429    0.000    0.000    0.000    0.000 
#    0.000    0.000    0.000    0.000    0.000    0.000 
#
# Total GULP energy -347187.166922 kJ/mol
# GULP energy per Si atom -12399.541676 kJ/mol
# Density = 1.969295 g / cm^3
# Si number density = 19.737877 Si / 1000 Ang^3
#
#
#
# Elastic Constant Matrix: (Units=GPa)
#
#
# Indices 1 2 3 4 5 6 
#
# 1 101.3573 26.3850 69.9109 0.0000 -20.4537 0.0000
# 2 26.3850 39.7152 30.0554 0.0000 -3.0012 0.0000
# 3 69.9109 30.0554 135.7292 0.0000 -4.1826 0.0000
# 4 0.0000 0.0000 0.0000 21.9077 0.0000 -2.0325
# 5 -20.4537 -3.0012 -4.1826 0.0000 35.6670 0.0000
# 6 0.0000 0.0000 0.0000 -2.0325 0.0000 20.9438
#
#
#
# Elastic Compliance Matrix: (Units=1/GPa)
#
#
# Indices 1 2 3 4 5 6 
#
# 1 0.018872 -0.005635 -0.008183 0.000000 0.009389 0.000000
# 2 -0.005635 0.032042 -0.004224 0.000000 -0.001031 0.000000
# 3 -0.008183 -0.004224 0.012407 0.000000 -0.003593 0.000000
# 4 0.000000 0.000000 0.000000 0.046061 0.000000 0.004470
# 5 0.009389 -0.001031 -0.003593 0.000000 0.032913 0.000000
# 6 0.000000 0.000000 0.000000 0.004470 0.000000 0.048181
#
#
# Mechanical properties :
#
#
# Convention : Reuss Voigt Hill
#
# Bulk Modulus (GPa) = 36.71702 58.83380 47.77541
# Shear Modulus (GPa) = 21.21871 25.73372 23.47622
#
# Velocity S-wave (km/s) = 3.28231 3.61470 3.45251
# Velocity P-wave (km/s) = 5.74521 6.87704 6.33645
#
# Compressibility (1/GPa) = 0.02723532
#
# Stress axis : x y z
#
# Youngs Moduli (GPa) = 52.98807 31.20889 80.59704
#
# Poissons Ratio (x) = 0.17587 0.65956
# Poissons Ratio (y) = 0.29861 0.34048
# Poissons Ratio (z) = 0.43362 0.13184
#
# Static dielectric constant tensor:
#      x y z
#    x 3.694330 0.000000 -0.187930 
#    y 0.000000 3.326100 0.000000 
#    z -0.187930 0.000000 3.756950 
# 
# 
# High freq. dielectric constant tensor:
#      x y z
#    x 1.769890 0.000000 -0.010960 
#    y 0.000000 1.746830 0.000000 
#    z -0.010960 0.000000 1.777470 
# 
# From -- ./inp_files/84907.got.cif
#   From: 2010.06.25/outbox.cif.g09.slc.cpg/sg10_43_cif.got.tgz:84907.got - 2010.06.27 22:07:45.
