data_PCOD8064821
_publ_section_title
;
Structure prediction by ZEFSAII (Michael W. Deem and Ramdas Pophale) SiO2 
 PCOD8064821
Probable space group: P 2/M
;
_chemical_formula_sum "Si O2"
_cell_formula_units_Z 28
_cell_length_a 12.433351
_cell_length_b 14.759811
_cell_length_c 8.658501
_cell_angle_alpha 90.000000
_cell_angle_beta 55.214098
_cell_angle_gamma 90.000000
_cell_volume 1304.992548
_symmetry_space_group_name_H-M "P 2/M"
_symmetry_group_IT_number 10
_symmetry_cell_setting 'monoclinic'
loop_
_space_group_symop_operation_xyz
x,y,z
-x,y,-z
-x,-y,-z
x,-y,z
loop_
_atom_site_type_symbol
_atom_site_label
_atom_site_fract_x
_atom_site_fract_y
_atom_site_fract_z
Si Si1 0.722099 0.900436 0.064448
Si Si2 0.120132 0.603930 0.706549
Si Si3 0.821670 0.396267 0.987573
Si Si4 0.360670 0.900773 0.541209
Si Si5 0.357412 0.260448 0.048423
Si Si6 0.216168 0.226849 0.468266
Si Si7 0.989118 0.895888 0.184350
O O1 0.621749 0.827307 0.077160
O O2 0.863748 0.891885 0.868612
O O3 0.660207 0.000000 0.085555
O O4 0.743221 0.888053 0.232953
O O5 0.142690 0.500000 0.637802
O O6 0.202238 0.668895 0.528855
O O7 0.967247 0.629700 0.810582
O O8 0.175837 0.619937 0.831568
O O9 0.791251 0.500000 0.973178
O O10 0.705832 0.339680 0.003252
O O11 0.500000 0.890204 0.500000
O O12 0.345095 0.820086 0.432915
O O13 0.343682 0.000000 0.477240
O O14 0.245944 0.232208 0.263108
O O15 0.500000 0.289471 0.000000
O O16 0.095657 0.164848 0.627372
O O17 0.936657 0.000000 0.228164
O O18 0.000000 0.857298 0.000000
#
# Coordination Sequence:
#
# PCOD8064821 Si02
#       7
#     4   4   4   4   4   4   4
#     4  10  21  38  59  83 119 162 203 253 306 353
#     4   9  20  39  68  99 119 147 199 265 316 362
#     4   9  20  42  68  92 122 157 198 251 314 368
#     4  10  20  36  59  85 115 162 221 262 291 343
#     4  12  27  42  56  85 130 173 208 240 295 373
#     4  12  23  35  61  90 123 164 200 251 312 373
#     4  10  20  36  61  93 121 149 195 259 318 359
#
# _framework density 21.456060999999998
#
# number of rings (size 3 to 8) (size 9 to 14) (size 15 to 20)
#    0.000    1.714    1.429    3.857    2.000    4.571 
#    0.000    2.857    0.000    2.143    0.000    0.000 
#    0.000    0.000    0.000    0.000    0.000    0.000 
#
# Total GULP energy -346973.195940 kJ/mol
# GULP energy per Si atom -12391.899855 kJ/mol
# Density = 2.140723 g / cm^3
# Si number density = 21.456061 Si / 1000 Ang^3
#
#
#
# Elastic Constant Matrix: (Units=GPa)
#
#
# Indices 1 2 3 4 5 6 
#
# 1 99.3964 45.4011 0.7474 0.0000 -2.4623 0.0000
# 2 45.4011 122.4786 20.9129 0.0000 10.4383 0.0000
# 3 0.7474 20.9129 58.5167 0.0000 -1.7393 0.0000
# 4 0.0000 0.0000 0.0000 -1.2857 0.0000 41.4396
# 5 -2.4623 10.4383 -1.7393 0.0000 24.8139 0.0000
# 6 0.0000 0.0000 0.0000 41.4396 0.0000 -118.2024
#
#
#
# Elastic Compliance Matrix: (Units=1/GPa)
#
#
# Indices 1 2 3 4 5 6 
#
# 1 0.012542 -0.005267 0.001829 0.000000 0.003588 0.000000
# 2 -0.005267 0.011298 -0.004136 0.000000 -0.005565 0.000000
# 3 0.001829 -0.004136 0.018640 0.000000 0.003228 0.000000
# 4 0.000000 0.000000 0.000000 0.075516 0.000000 0.026475
# 5 0.003588 -0.005565 0.003228 0.000000 0.043223 0.000000
# 6 0.000000 0.000000 0.000000 0.026475 0.000000 0.000821
#
#
# Mechanical properties :
#
#
# Convention : Reuss Voigt Hill
#
# Bulk Modulus (GPa) = 36.58836 46.05715 41.32276
# Shear Modulus (GPa) = 26.83869 -4.71281 11.06294
#
# Velocity S-wave (km/s) = 3.54060 -1.48366 2.27317
# Velocity P-wave (km/s) = 5.81413 4.31015 5.11769
#
# Compressibility (1/GPa) = 0.02733109
#
# Stress axis : x y z
#
# Youngs Moduli (GPa) = 79.73385 88.51445 53.64881
#
# Poissons Ratio (x) = 0.46622 -0.09812
# Poissons Ratio (y) = 0.41997 0.22188
# Poissons Ratio (z) = -0.14582 0.36607
#
# Static dielectric constant tensor:
#      x y z
#    x 3.720240 0.000000 -0.129520 
#    y 0.000000 3.956430 0.000000 
#    z -0.129520 0.000000 4.194590 
# 
# 
# High freq. dielectric constant tensor:
#      x y z
#    x 1.836240 0.000000 -0.009710 
#    y 0.000000 1.844560 0.000000 
#    z -0.009710 0.000000 1.829020 
# 
# From -- ./inp_files/25199.got.cif
#   From: 2010.06.25/outbox.cif.g09.slc.cpg/sg10_13_cif.got.tgz:25199.got - 2010.06.27 22:07:45.
