data_PCOD8064387
_publ_section_title
;
Structure prediction by ZEFSAII (Michael W. Deem and Ramdas Pophale) SiO2 
 PCOD8064387
Probable space group: P 2/M
;
_chemical_formula_sum "Si O2"
_cell_formula_units_Z 22
_cell_length_a 15.688670
_cell_length_b 13.339065
_cell_length_c 7.798788
_cell_angle_alpha 90.000000
_cell_angle_beta 141.925479
_cell_angle_gamma 90.000000
_cell_volume 1006.474160
_symmetry_space_group_name_H-M "P 2/M"
_symmetry_group_IT_number 10
_symmetry_cell_setting 'monoclinic'
loop_
_space_group_symop_operation_xyz
x,y,z
-x,y,-z
-x,-y,-z
x,-y,z
loop_
_atom_site_type_symbol
_atom_site_label
_atom_site_fract_x
_atom_site_fract_y
_atom_site_fract_z
Si Si1 0.199006 0.889355 0.305661
Si Si2 0.000000 0.743911 0.500000
Si Si3 0.223483 0.114067 0.737447
Si Si4 0.513484 0.183455 0.316937
Si Si5 0.095961 0.686578 0.999726
Si Si6 0.400949 0.608771 0.506569
O O1 0.173566 0.868572 0.465302
O O2 0.362207 0.890295 0.530368
O O3 0.142466 0.000000 0.164852
O O4 0.120461 0.805184 0.072956
O O5 0.864102 0.813191 0.280796
O O6 0.988291 0.675035 0.311968
O O7 0.201305 0.000000 0.762109
O O8 0.382703 0.142376 0.010460
O O9 0.500000 0.186705 0.500000
O O10 0.546714 0.296562 0.298504
O O11 0.239568 0.627380 0.205713
O O12 0.000000 0.641220 0.000000
O O13 0.500000 0.602988 0.500000
O O14 0.410728 0.500000 0.617157
#
# Coordination Sequence:
#
# PCOD8064387 Si02
#       6
#     4   2   4   4   4   4
#     4  10  21  37  57  83 120 163 205 249 295 348
#     4  12  23  38  59  86 122 170 201 240 297 360
#     4  11  22  35  55  85 122 165 206 243 290 355
#     4  10  20  35  57  86 116 154 200 253 304 352
#     4  11  23  41  62  91 125 163 200 253 301 359
#     4   9  19  39  67  92 118 155 200 255 314 364
#
# _framework density 21.858484000000001
#
# number of rings (size 3 to 8) (size 9 to 14) (size 15 to 20)
#    0.000    1.636    1.818    4.636    0.000    6.545 
#    0.000    0.455    0.000    9.818    0.000    0.000 
#    0.000    0.000    0.000    0.000    0.000    0.000 
#
# Total GULP energy -272706.474674 kJ/mol
# GULP energy per Si atom -12395.748849 kJ/mol
# Density = 2.180873 g / cm^3
# Si number density = 21.858484 Si / 1000 Ang^3
#
#
#
# Elastic Constant Matrix: (Units=GPa)
#
#
# Indices 1 2 3 4 5 6 
#
# 1 103.9675 21.3036 39.8939 0.0000 15.2848 0.0000
# 2 21.3036 70.4412 -0.8614 0.0000 -10.2339 0.0000
# 3 39.8939 -0.8614 77.5853 0.0000 9.1998 0.0000
# 4 0.0000 0.0000 0.0000 79.7364 0.0000 157.7814
# 5 15.2848 -10.2339 9.1998 0.0000 43.4756 0.0000
# 6 0.0000 0.0000 0.0000 157.7814 0.0000 381.6982
#
#
#
# Elastic Compliance Matrix: (Units=1/GPa)
#
#
# Indices 1 2 3 4 5 6 
#
# 1 0.013857 -0.004945 -0.006631 0.000000 -0.004633 0.000000
# 2 -0.004945 0.016468 0.002113 0.000000 0.005168 0.000000
# 3 -0.006631 0.002113 0.016398 0.000000 -0.000641 0.000000
# 4 0.000000 0.000000 0.000000 0.068895 0.000000 -0.028479
# 5 -0.004633 0.005168 -0.000641 0.000000 0.025982 0.000000
# 6 0.000000 0.000000 0.000000 -0.028479 0.000000 0.014392
#
#
# Mechanical properties :
#
#
# Convention : Reuss Voigt Hill
#
# Bulk Modulus (GPa) = 35.97451 41.40736 38.69093
# Shear Modulus (GPa) = 27.14660 113.75925 70.45293
#
# Velocity S-wave (km/s) = 3.52792 7.22195 5.68343
# Velocity P-wave (km/s) = 5.75227 9.40885 7.79792
#
# Compressibility (1/GPa) = 0.02779746
#
# Stress axis : x y z
#
# Youngs Moduli (GPa) = 72.16548 60.72242 60.98279
#
# Poissons Ratio (x) = 0.30027 0.40436
# Poissons Ratio (y) = 0.35685 -0.12884
# Poissons Ratio (z) = 0.47851 -0.12829
#
# Static dielectric constant tensor:
#      x y z
#    x 4.089230 0.000000 0.267690 
#    y 0.000000 4.168220 0.000000 
#    z 0.267690 0.000000 3.697030 
# 
# 
# High freq. dielectric constant tensor:
#      x y z
#    x 1.865830 0.000000 0.024610 
#    y 0.000000 1.846980 0.000000 
#    z 0.024610 0.000000 1.848880 
# 
# From -- ./inp_files/32879.got.cif
#   From: 2010.06.25/outbox.cif.g09.slc.cpg/sg10_17_cif.got.tgz:32879.got - 2010.06.27 22:07:45.
