data_PCOD8064974
_publ_section_title
;
Structure prediction by ZEFSAII (Michael W. Deem and Ramdas Pophale) SiO2 
 PCOD8064974
Probable space group: P 2/M
;
_chemical_formula_sum "Si O2"
_cell_formula_units_Z 32
_cell_length_a 12.474179
_cell_length_b 9.046361
_cell_length_c 14.487332
_cell_angle_alpha 90.000000
_cell_angle_beta 91.323799
_cell_angle_gamma 90.000000
_cell_volume 1634.400062
_symmetry_space_group_name_H-M "P 2/M"
_symmetry_group_IT_number 10
_symmetry_cell_setting 'monoclinic'
loop_
_space_group_symop_operation_xyz
x,y,z
-x,y,-z
-x,-y,-z
x,-y,z
loop_
_atom_site_type_symbol
_atom_site_label
_atom_site_fract_x
_atom_site_fract_y
_atom_site_fract_z
Si Si1 0.316881 0.672813 0.711403
Si Si2 0.383368 0.831767 0.529486
Si Si3 0.819589 0.328305 0.985914
Si Si4 0.891356 0.174040 0.799837
Si Si5 0.546163 0.671244 0.781877
Si Si6 0.894768 0.328071 0.188154
Si Si7 0.387639 0.827309 0.040830
Si Si8 0.697212 0.168030 0.665541
O O1 0.307793 0.500000 0.693667
O O2 0.330030 0.745222 0.612302
O O3 0.420105 0.707757 0.777136
O O4 0.212606 0.732138 0.763853
O O5 0.500000 0.768739 0.500000
O O6 0.295773 0.821010 0.445183
O O7 0.400424 0.000000 0.562437
O O8 0.811282 0.500000 0.960089
O O9 0.861812 0.241814 0.898195
O O10 0.703515 0.265226 0.012991
O O11 0.893078 0.304018 0.077268
O O12 0.807125 0.217323 0.717975
O O13 0.005453 0.237670 0.769192
O O14 0.899695 0.000000 0.813025
O O15 0.567363 0.500000 0.805031
O O16 0.609310 0.776424 0.853626
O O17 0.600656 0.719020 0.687275
O O18 0.910629 0.500000 0.210681
O O19 0.361925 0.000000 0.033464
O O20 0.500000 0.782253 0.000000
O O21 0.667835 0.000000 0.694126
#
# Coordination Sequence:
#
# PCOD8064974 Si02
#       8
#     4   4   4   4   4   4   4   4
#     4  10  22  39  59  87 120 153 194 246 296 348
#     4  10  20  36  61  89 117 154 193 234 295 361
#     4  11  22  38  61  86 115 154 199 245 293 347
#     4  11  23  39  61  87 118 155 200 247 290 345
#     4  11  21  34  57  85 115 152 192 234 291 352
#     4  10  23  42  60  82 118 158 198 246 297 346
#     4  11  23  36  52  80 119 158 194 237 289 346
#     4  10  21  38  58  85 120 150 186 239 294 346
#
# _framework density 19.579049999999999
#
# number of rings (size 3 to 8) (size 9 to 14) (size 15 to 20)
#    0.000    1.500    2.500    2.625    0.000    6.750 
#    0.000    0.625    0.000    3.750    0.000    0.000 
#    0.000    0.000    0.000    0.000    0.000    0.000 
#
# Total GULP energy -396797.217302 kJ/mol
# GULP energy per Si atom -12399.913041 kJ/mol
# Density = 1.953449 g / cm^3
# Si number density = 19.579050 Si / 1000 Ang^3
#
#
#
# Elastic Constant Matrix: (Units=GPa)
#
#
# Indices 1 2 3 4 5 6 
#
# 1 122.4741 46.9412 32.7112 0.0000 5.6324 0.0000
# 2 46.9412 56.9370 23.6389 0.0000 4.4846 0.0000
# 3 32.7112 23.6389 73.2094 0.0000 6.0989 0.0000
# 4 0.0000 0.0000 0.0000 29.8217 0.0000 -1.9932
# 5 5.6324 4.4846 6.0989 0.0000 24.6309 0.0000
# 6 0.0000 0.0000 0.0000 -1.9932 0.0000 35.0799
#
#
#
# Elastic Compliance Matrix: (Units=1/GPa)
#
#
# Indices 1 2 3 4 5 6 
#
# 1 0.012350 -0.009085 -0.002540 0.000000 -0.000541 0.000000
# 2 -0.009085 0.027074 -0.004539 0.000000 -0.001728 0.000000
# 3 -0.002540 -0.004539 0.016483 0.000000 -0.002674 0.000000
# 4 0.000000 0.000000 0.000000 0.033660 0.000000 0.001913
# 5 -0.000541 -0.001728 -0.002674 0.000000 0.041700 0.000000
# 6 0.000000 0.000000 0.000000 0.001913 0.000000 0.028615
#
#
# Mechanical properties :
#
#
# Convention : Reuss Voigt Hill
#
# Bulk Modulus (GPa) = 42.40924 51.02257 46.71590
# Shear Modulus (GPa) = 24.99140 27.86178 26.42659
#
# Velocity S-wave (km/s) = 3.57660 3.77641 3.67786
# Velocity P-wave (km/s) = 6.22604 6.71799 6.47669
#
# Compressibility (1/GPa) = 0.02357977
#
# Stress axis : x y z
#
# Youngs Moduli (GPa) = 80.96993 36.93608 60.67030
#
# Poissons Ratio (x) = 0.33556 0.15409
# Poissons Ratio (y) = 0.73561 0.27536
# Poissons Ratio (z) = 0.20564 0.16764
#
# Static dielectric constant tensor:
#      x y z
#    x 3.769790 0.000000 0.058460 
#    y 0.000000 3.517780 0.000000 
#    z 0.058460 0.000000 3.510490 
# 
# 
# High freq. dielectric constant tensor:
#      x y z
#    x 1.764650 0.000000 0.007110 
#    y 0.000000 1.761790 0.000000 
#    z 0.007110 0.000000 1.756000 
# 
# From -- ./inp_files/49946.got.cif
#   From: 2010.06.25/outbox.cif.g09.slc.cpg/sg10_25_cif.got.tgz:49946.got - 2010.06.27 22:07:45.
