data_PCOD8064501
_publ_section_title
;
Structure prediction by ZEFSAII (Michael W. Deem and Ramdas Pophale) SiO2 
 PCOD8064501
Probable space group: P 2/M
;
_chemical_formula_sum "Si O2"
_cell_formula_units_Z 32
_cell_length_a 25.851963
_cell_length_b 13.895300
_cell_length_c 9.091143
_cell_angle_alpha 90.000000
_cell_angle_beta 30.093892
_cell_angle_gamma 90.000000
_cell_volume 1637.496198
_symmetry_space_group_name_H-M "P 2/M"
_symmetry_group_IT_number 10
_symmetry_cell_setting 'monoclinic'
loop_
_space_group_symop_operation_xyz
x,y,z
-x,y,-z
-x,-y,-z
x,-y,z
loop_
_atom_site_type_symbol
_atom_site_label
_atom_site_fract_x
_atom_site_fract_y
_atom_site_fract_z
Si Si1 0.615963 0.111303 0.749829
Si Si2 0.716768 0.607429 0.218574
Si Si3 0.508105 0.388159 0.146756
Si Si4 0.199064 0.770756 0.189993
Si Si5 0.025706 0.258844 0.270854
Si Si6 0.172646 0.609820 0.753258
Si Si7 0.200409 0.889839 0.915155
Si Si8 0.693544 0.265391 0.777865
O O1 0.688666 0.130256 0.430714
O O2 0.665109 0.168451 0.763443
O O3 0.614556 0.000000 0.799524
O O4 0.500000 0.147183 0.000000
O O5 0.740968 0.500000 0.102061
O O6 0.595798 0.630708 0.505646
O O7 0.741938 0.616358 0.329355
O O8 0.785285 0.678754 0.954522
O O9 0.537438 0.500000 0.067336
O O10 0.500000 0.347368 0.000000
O O11 0.596043 0.335553 0.022713
O O12 0.279025 0.767980 0.125727
O O13 0.081692 0.773890 0.539678
O O14 0.215879 0.865396 0.049050
O O15 0.000000 0.290848 0.500000
O O16 0.065134 0.350119 0.081347
O O17 0.110572 0.173609 0.060491
O O18 0.156638 0.500000 0.739119
O O19 0.210043 0.676634 0.527535
O O20 0.166066 0.000000 0.982236
#
# Coordination Sequence:
#
# PCOD8064501 Si02
#       8
#     4   4   4   4   4   4   4   4
#     4  10  22  41  67  91 113 151 198 241 290 358
#     4  10  20  37  59  84 117 157 208 246 282 345
#     4  10  20  35  60  87 112 157 208 247 285 345
#     4  11  25  38  55  91 124 157 193 247 303 352
#     4  10  20  39  62  87 117 153 207 246 290 342
#     4  11  21  37  62  88 116 158 208 245 286 347
#     4  10  21  43  69  89 114 152 203 248 292 356
#     4  12  23  37  59  87 129 153 188 247 305 358
#
# _framework density 19.542031000000001
#
# number of rings (size 3 to 8) (size 9 to 14) (size 15 to 20)
#    0.000    1.500    5.000    0.750    1.750    5.500 
#    0.000    1.875    0.000    3.750    0.000    0.000 
#    0.000    0.000    0.000    0.000    0.000    0.000 
#
# Total GULP energy -396840.465382 kJ/mol
# GULP energy per Si atom -12401.264543 kJ/mol
# Density = 1.949755 g / cm^3
# Si number density = 19.542031 Si / 1000 Ang^3
#
#
#
# Elastic Constant Matrix: (Units=GPa)
#
#
# Indices 1 2 3 4 5 6 
#
# 1 83.1730 27.4281 22.1266 0.0000 -13.6386 0.0000
# 2 27.4281 89.4555 40.8892 0.0000 -2.6089 0.0000
# 3 22.1266 40.8892 106.6477 0.0000 -15.2858 0.0000
# 4 0.0000 0.0000 0.0000 31.5982 0.0000 -2.1661
# 5 -13.6386 -2.6089 -15.2858 0.0000 22.5862 0.0000
# 6 0.0000 0.0000 0.0000 -2.1661 0.0000 16.8577
#
#
#
# Elastic Compliance Matrix: (Units=1/GPa)
#
#
# Indices 1 2 3 4 5 6 
#
# 1 0.014835 -0.004174 -0.000291 0.000000 0.008279 0.000000
# 2 -0.004174 0.014824 -0.005464 0.000000 -0.004506 0.000000
# 3 -0.000291 -0.005464 0.012643 0.000000 0.007749 0.000000
# 4 0.000000 0.000000 0.000000 0.031929 0.000000 0.004103
# 5 0.008279 -0.004506 0.007749 0.000000 0.053998 0.000000
# 6 0.000000 0.000000 0.000000 0.004103 0.000000 0.059847
#
#
# Mechanical properties :
#
#
# Convention : Reuss Voigt Hill
#
# Bulk Modulus (GPa) = 44.55415 51.12933 47.84174
# Shear Modulus (GPa) = 23.21113 26.79724 25.00418
#
# Velocity S-wave (km/s) = 3.45012 3.70707 3.58090
# Velocity P-wave (km/s) = 6.22252 6.67411 6.45227
#
# Compressibility (1/GPa) = 0.02244460
#
# Stress axis : x y z
#
# Youngs Moduli (GPa) = 67.41030 67.45593 79.09826
#
# Poissons Ratio (x) = 0.28157 0.02300
# Poissons Ratio (y) = 0.28137 0.43216
# Poissons Ratio (z) = 0.01960 0.36855
#
# Static dielectric constant tensor:
#      x y z
#    x 3.282330 0.000000 -0.157460 
#    y 0.000000 3.631860 0.000000 
#    z -0.157460 0.000000 3.739090 
# 
# 
# High freq. dielectric constant tensor:
#      x y z
#    x 1.727530 0.000000 -0.009930 
#    y 0.000000 1.764600 0.000000 
#    z -0.009930 0.000000 1.775230 
# 
# From -- ./inp_files/36346.got.cif
#   From: 2010.06.25/outbox.cif.g09.slc.cpg/sg10_19_cif.got.tgz:36346.got - 2010.06.27 22:07:45.
