data_PCOD8064867
_publ_section_title
;
Structure prediction by ZEFSAII (Michael W. Deem and Ramdas Pophale) SiO2 
 PCOD8064867
Probable space group: P 2/M
;
_chemical_formula_sum "Si O2"
_cell_formula_units_Z 30
_cell_length_a 13.642943
_cell_length_b 16.970685
_cell_length_c 17.999325
_cell_angle_alpha 90.000000
_cell_angle_beta 21.494726
_cell_angle_gamma 90.000000
_cell_volume 1526.994909
_symmetry_space_group_name_H-M "P 2/M"
_symmetry_group_IT_number 10
_symmetry_cell_setting 'monoclinic'
loop_
_space_group_symop_operation_xyz
x,y,z
-x,y,-z
-x,-y,-z
x,-y,z
loop_
_atom_site_type_symbol
_atom_site_label
_atom_site_fract_x
_atom_site_fract_y
_atom_site_fract_z
Si Si1 0.985848 0.761537 0.423759
Si Si2 0.246327 0.406785 0.043138
Si Si3 0.500000 0.682327 0.000000
Si Si4 0.743842 0.089292 0.532953
Si Si5 0.630269 0.407025 0.484829
Si Si6 0.217273 0.908679 0.666903
Si Si7 0.455123 0.321958 0.751369
Si Si8 0.176961 0.841370 0.944927
O O1 0.930529 0.854046 0.449995
O O2 0.752997 0.708586 0.554222
O O3 0.000000 0.743429 0.500000
O O4 0.260777 0.739783 0.190620
O O5 0.275029 0.500000 0.025064
O O6 0.939051 0.380206 0.269342
O O7 0.422149 0.372231 0.985784
O O8 0.360688 0.377852 0.884166
O O9 0.794657 0.108290 0.411396
O O10 0.433699 0.102913 0.769012
O O11 0.820464 0.000000 0.499196
O O12 0.500000 0.377381 0.500000
O O13 0.605011 0.500000 0.510742
O O14 0.457958 0.369696 0.672688
O O15 0.500000 0.880284 0.500000
O O16 0.168575 0.000000 0.720873
O O17 0.987752 0.854846 0.863795
O O18 0.251019 0.249968 0.886972
O O19 0.000000 0.868410 0.000000
#
# Coordination Sequence:
#
# PCOD8064867 Si02
#       8
#     4   4   2   4   4   4   4   4
#     4  11  24  43  65  91 124 163 203 266 332 371
#     4  11  24  42  69  96 124 168 219 266 316 376
#     4  12  23  44  67  94 128 160 214 274 323 378
#     4  10  23  41  63  92 125 165 212 256 310 380
#     4  10  23  43  65  93 132 172 209 256 316 382
#     4  10  20  36  59  88 125 165 207 257 310 369
#     4  11  24  41  60  95 128 166 210 261 317 384
#     4  11  23  36  58  92 127 169 208 253 308 365
#
# _framework density 19.646431
#
# number of rings (size 3 to 8) (size 9 to 14) (size 15 to 20)
#    0.000    1.333    4.000    1.000    3.733    0.800 
#    0.000    3.000    0.000    0.000    0.000    0.000 
#    0.000    0.000    0.000    0.000    0.000    0.000 
#
# Total GULP energy -372171.814240 kJ/mol
# GULP energy per Si atom -12405.727141 kJ/mol
# Density = 1.960171 g / cm^3
# Si number density = 19.646431 Si / 1000 Ang^3
#
#
#
# Elastic Constant Matrix: (Units=GPa)
#
#
# Indices 1 2 3 4 5 6 
#
# 1 90.1986 29.3567 35.6932 0.0000 13.8994 0.0000
# 2 29.3567 71.8344 50.1822 0.0000 3.9804 0.0000
# 3 35.6932 50.1822 142.8491 0.0000 13.7065 0.0000
# 4 0.0000 0.0000 0.0000 26.4518 0.0000 19.9271
# 5 13.8994 3.9804 13.7065 0.0000 34.6664 0.0000
# 6 0.0000 0.0000 0.0000 19.9271 0.0000 6.1496
#
#
#
# Elastic Compliance Matrix: (Units=1/GPa)
#
#
# Indices 1 2 3 4 5 6 
#
# 1 0.013773 -0.004341 -0.001491 0.000000 -0.004434 0.000000
# 2 -0.004341 0.019824 -0.006058 0.000000 0.001860 0.000000
# 3 -0.001491 -0.006058 0.009747 0.000000 -0.002560 0.000000
# 4 0.000000 0.000000 0.000000 -0.026233 0.000000 0.085005
# 5 -0.004434 0.001860 -0.002560 0.000000 0.031423 0.000000
# 6 0.000000 0.000000 0.000000 0.085005 0.000000 -0.112838
#
#
# Mechanical properties :
#
#
# Convention : Reuss Voigt Hill
#
# Bulk Modulus (GPa) = 51.11553 59.48292 55.29922
# Shear Modulus (GPa) = -147.04608 26.09688 -60.47460
#
# Velocity S-wave (km/s) = -8.66076 3.64858 -5.55412
# Velocity P-wave (km/s) = 8.59869 6.93483 3.59482
#
# Compressibility (1/GPa) = 0.01956353
#
# Stress axis : x y z
#
# Youngs Moduli (GPa) = 72.60636 50.44422 102.59993
#
# Poissons Ratio (x) = 0.21900 0.15295
# Poissons Ratio (y) = 0.31522 0.62152
# Poissons Ratio (z) = 0.10824 0.30558
#
# Static dielectric constant tensor:
#      x y z
#    x 3.628680 0.000000 -0.000870 
#    y 0.000000 3.524690 0.000000 
#    z -0.000870 0.000000 3.664500 
# 
# 
# High freq. dielectric constant tensor:
#      x y z
#    x 1.769090 0.000000 0.005800 
#    y 0.000000 1.767900 0.000000 
#    z 0.005800 0.000000 1.778680 
# 
# From -- ./inp_files/78368.got.cif
#   From: 2010.06.25/outbox.cif.g09.slc.cpg/sg10_40_cif.got.tgz:78368.got - 2010.06.27 22:07:45.
