data_PCOD8064783
_publ_section_title
;
Structure prediction by ZEFSAII (Michael W. Deem and Ramdas Pophale) SiO2 
 PCOD8064783
Probable space group: P 2/M
;
_chemical_formula_sum "Si O2"
_cell_formula_units_Z 28
_cell_length_a 29.130927
_cell_length_b 9.070185
_cell_length_c 9.336873
_cell_angle_alpha 90.000000
_cell_angle_beta 143.028409
_cell_angle_gamma 90.000000
_cell_volume 1483.709980
_symmetry_space_group_name_H-M "P 2/M"
_symmetry_group_IT_number 10
_symmetry_cell_setting 'monoclinic'
loop_
_space_group_symop_operation_xyz
x,y,z
-x,y,-z
-x,-y,-z
x,-y,z
loop_
_atom_site_type_symbol
_atom_site_label
_atom_site_fract_x
_atom_site_fract_y
_atom_site_fract_z
Si Si1 0.923867 0.327810 0.394962
Si Si2 0.637407 0.328830 0.487594
Si Si3 0.507879 0.668951 0.684183
Si Si4 0.801143 0.831154 0.590987
Si Si5 0.793585 0.826033 0.897482
Si Si6 0.374098 0.828824 0.831655
Si Si7 0.927630 0.673523 0.733523
O O1 0.904316 0.500000 0.330197
O O2 0.935657 0.280722 0.588440
O O3 0.000000 0.285868 0.500000
O O4 0.854900 0.233456 0.161349
O O5 0.655859 0.500000 0.509830
O O6 0.573424 0.302756 0.446507
O O7 0.712817 0.247731 0.731729
O O8 0.606459 0.261710 0.262559
O O9 0.500000 0.711404 0.500000
O O10 0.534056 0.500000 0.770384
O O11 0.571857 0.775309 0.907215
O O12 0.819060 0.785313 0.799518
O O13 0.712744 0.801273 0.336455
O O14 0.849507 0.734230 0.602942
O O15 0.823138 0.000000 0.619968
O O16 0.783825 0.000000 0.890843
O O17 0.388142 0.000000 0.833265
O O18 0.925028 0.500000 0.745272
O O19 0.000000 0.739426 0.000000
#
# Coordination Sequence:
#
# PCOD8064783 Si02
#       7
#     4   4   4   4   4   4   4
#     4  10  21  37  57  81 110 144 182 223 269 322
#     4  10  20  36  59  83 108 142 183 224 269 322
#     4  10  22  38  55  79 111 145 183 227 273 322
#     4   9  20  37  55  79 109 141 177 218 267 322
#     4  10  21  37  57  82 111 142 180 224 271 323
#     4  10  21  37  57  82 111 143 182 224 269 325
#     4  10  21  36  56  82 108 139 181 224 266 315
#
# _framework density 18.871611999999999
#
# number of rings (size 3 to 8) (size 9 to 14) (size 15 to 20)
#    0.000    2.143    0.000    3.429    0.000   10.000 
#    0.000    4.286    0.000    0.000    0.000    0.000 
#    0.000    0.000    0.000    0.000    0.000    0.000 
#
# Total GULP energy -347333.514046 kJ/mol
# GULP energy per Si atom -12404.768359 kJ/mol
# Density = 1.882866 g / cm^3
# Si number density = 18.871612 Si / 1000 Ang^3
#
#
#
# Elastic Constant Matrix: (Units=GPa)
#
#
# Indices 1 2 3 4 5 6 
#
# 1 140.9839 59.1524 74.5952 0.0000 -9.3831 0.0000
# 2 59.1524 81.2765 70.3709 0.0000 -2.5338 0.0000
# 3 74.5952 70.3709 143.4402 0.0000 -7.2142 0.0000
# 4 0.0000 0.0000 0.0000 32.7460 0.0000 0.0601
# 5 -9.3831 -2.5338 -7.2142 0.0000 19.8391 0.0000
# 6 0.0000 0.0000 0.0000 0.0601 0.0000 20.5536
#
#
#
# Elastic Compliance Matrix: (Units=1/GPa)
#
#
# Indices 1 2 3 4 5 6 
#
# 1 0.011187 -0.005473 -0.002956 0.000000 0.003517 0.000000
# 2 -0.005473 0.024090 -0.009114 0.000000 -0.002826 0.000000
# 3 -0.002956 -0.009114 0.013091 0.000000 0.002198 0.000000
# 4 0.000000 0.000000 0.000000 0.030538 0.000000 -0.000089
# 5 0.003517 -0.002826 0.002198 0.000000 0.052507 0.000000
# 6 0.000000 0.000000 0.000000 -0.000089 0.000000 0.048654
#
#
# Mechanical properties :
#
#
# Convention : Reuss Voigt Hill
#
# Bulk Modulus (GPa) = 75.29263 85.99306 80.64285
# Shear Modulus (GPa) = 22.77049 25.39986 24.08518
#
# Velocity S-wave (km/s) = 3.47738 3.67267 3.57636
# Velocity P-wave (km/s) = 7.49045 7.97816 7.73815
#
# Compressibility (1/GPa) = 0.01328151
#
# Stress axis : x y z
#
# Youngs Moduli (GPa) = 89.38551 41.51035 76.38924
#
# Poissons Ratio (x) = 0.22719 0.22581
# Poissons Ratio (y) = 0.48922 0.69625
# Poissons Ratio (z) = 0.26422 0.37834
#
# Static dielectric constant tensor:
#      x y z
#    x 3.437300 0.000000 -0.033840 
#    y 0.000000 3.445710 0.000000 
#    z -0.033840 0.000000 3.519130 
# 
# 
# High freq. dielectric constant tensor:
#      x y z
#    x 1.735840 0.000000 0.003280 
#    y 0.000000 1.735480 0.000000 
#    z 0.003280 0.000000 1.739760 
# 
# From -- ./inp_files/31514.got.cif
#   From: 2010.06.25/outbox.cif.g09.slc.cpg/sg10_16_cif.got.tgz:31514.got - 2010.06.27 22:07:45.
