data_PCOD8064801
_publ_section_title
;
Structure prediction by ZEFSAII (Michael W. Deem and Ramdas Pophale) SiO2 
 PCOD8064801
Probable space group: P 2/M
;
_chemical_formula_sum "Si O2"
_cell_formula_units_Z 24
_cell_length_a 15.424242
_cell_length_b 8.445897
_cell_length_c 17.999645
_cell_angle_alpha 90.000000
_cell_angle_beta 30.991070
_cell_angle_gamma 90.000000
_cell_volume 1207.369540
_symmetry_space_group_name_H-M "P 2/M"
_symmetry_group_IT_number 10
_symmetry_cell_setting 'monoclinic'
loop_
_space_group_symop_operation_xyz
x,y,z
-x,y,-z
-x,-y,-z
x,-y,z
loop_
_atom_site_type_symbol
_atom_site_label
_atom_site_fract_x
_atom_site_fract_y
_atom_site_fract_z
Si Si1 0.163193 0.683236 0.099947
Si Si2 0.855352 0.184190 0.415476
Si Si3 0.002800 0.811761 0.914166
Si Si4 0.502210 0.816177 0.084039
Si Si5 0.820662 0.683770 0.600575
Si Si6 0.669943 0.813596 0.407429
O O1 0.120636 0.500000 0.140854
O O2 0.144574 0.735931 0.027557
O O3 0.037100 0.780199 0.245916
O O4 0.355372 0.714667 0.980078
O O5 0.818302 0.288834 0.514326
O O6 0.705306 0.226340 0.467728
O O7 0.852134 0.000000 0.439593
O O8 0.177499 0.747338 0.753198
O O9 0.983672 0.000000 0.924310
O O10 0.000000 0.748898 0.000000
O O11 0.322444 0.783260 0.253182
O O12 0.546316 0.000000 0.060288
O O13 0.500000 0.764529 0.000000
O O14 0.790765 0.500000 0.639783
O O15 0.000000 0.741856 0.500000
O O16 0.500000 0.733962 0.500000
O O17 0.660583 0.000000 0.402982
#
# Coordination Sequence:
#
# PCOD8064801 Si02
#       6
#     4   4   4   4   4   4
#     4  11  22  37  58  83 116 153 189 236 292 344
#     4  10  20  36  59  84 112 149 193 236 278 332
#     4   9  18  33  54  79 109 147 191 236 280 332
#     4  11  24  41  62  86 112 146 191 238 282 337
#     4  11  24  40  59  85 117 150 183 226 285 344
#     4   8  15  29  50  77 106 138 179 226 273 319
#
# _framework density 19.877922999999999
#
# number of rings (size 3 to 8) (size 9 to 14) (size 15 to 20)
#    0.000    2.000    0.000    5.000    0.000    7.000 
#    0.000    3.333    0.000   12.500    0.000    0.000 
#    0.000    0.000    0.000    0.000    0.000    0.000 
#
# Total GULP energy -297638.921971 kJ/mol
# GULP energy per Si atom -12401.621749 kJ/mol
# Density = 1.983268 g / cm^3
# Si number density = 19.877923 Si / 1000 Ang^3
#
#
#
# Elastic Constant Matrix: (Units=GPa)
#
#
# Indices 1 2 3 4 5 6 
#
# 1 154.2305 29.3248 62.4814 0.0000 -1.5389 0.0000
# 2 29.3248 46.0606 9.8377 0.0000 -2.1819 0.0000
# 3 62.4814 9.8377 82.3828 0.0000 -1.5205 0.0000
# 4 0.0000 0.0000 0.0000 24.0820 0.0000 -0.0449
# 5 -1.5389 -2.1819 -1.5205 0.0000 41.6198 0.0000
# 6 0.0000 0.0000 0.0000 -0.0449 0.0000 20.4290
#
#
#
# Elastic Compliance Matrix: (Units=1/GPa)
#
#
# Indices 1 2 3 4 5 6 
#
# 1 0.010397 -0.005071 -0.007282 0.000000 -0.000147 0.000000
# 2 -0.005071 0.024800 0.000905 0.000000 0.001146 0.000000
# 3 -0.007282 0.000905 0.017561 0.000000 0.000420 0.000000
# 4 0.000000 0.000000 0.000000 0.041525 0.000000 0.000091
# 5 -0.000147 0.001146 0.000420 0.000000 0.024097 0.000000
# 6 0.000000 0.000000 0.000000 0.000091 0.000000 0.048950
#
#
# Mechanical properties :
#
#
# Convention : Reuss Voigt Hill
#
# Bulk Modulus (GPa) = 33.48692 53.99575 43.74133
# Shear Modulus (GPa) = 24.97764 29.29481 27.13622
#
# Velocity S-wave (km/s) = 3.54863 3.84309 3.69879
# Velocity P-wave (km/s) = 5.80287 6.84946 6.34777
#
# Compressibility (1/GPa) = 0.02986241
#
# Stress axis : x y z
#
# Youngs Moduli (GPa) = 96.18494 40.32308 56.94378
#
# Poissons Ratio (x) = 0.20447 0.41468
# Poissons Ratio (y) = 0.48773 -0.05156
# Poissons Ratio (z) = 0.70045 -0.03651
#
# Static dielectric constant tensor:
#      x y z
#    x 3.909880 0.000000 -0.067810 
#    y 0.000000 3.360290 0.000000 
#    z -0.067810 0.000000 3.618020 
# 
# 
# High freq. dielectric constant tensor:
#      x y z
#    x 1.792050 0.000000 -0.001510 
#    y 0.000000 1.760990 0.000000 
#    z -0.001510 0.000000 1.767920 
# 
# From -- ./inp_files/77664.got.cif
#   From: 2010.06.25/outbox.cif.g09.slc.cpg/sg10_39_cif.got.tgz:77664.got - 2010.06.27 22:07:45.
