data_PCOD8064848
_publ_section_title
;
Structure prediction by ZEFSAII (Michael W. Deem and Ramdas Pophale) SiO2 
 PCOD8064848
Probable space group: P 2/M
;
_chemical_formula_sum "Si O2"
_cell_formula_units_Z 32
_cell_length_a 12.427830
_cell_length_b 8.800901
_cell_length_c 28.767768
_cell_angle_alpha 90.000000
_cell_angle_beta 30.104322
_cell_angle_gamma 90.000000
_cell_volume 1578.212040
_symmetry_space_group_name_H-M "P 2/M"
_symmetry_group_IT_number 10
_symmetry_cell_setting 'monoclinic'
loop_
_space_group_symop_operation_xyz
x,y,z
-x,y,-z
-x,-y,-z
x,-y,z
loop_
_atom_site_type_symbol
_atom_site_label
_atom_site_fract_x
_atom_site_fract_y
_atom_site_fract_z
Si Si1 0.121750 0.829935 0.710845
Si Si2 0.248106 0.821578 0.218854
Si Si3 0.999542 0.171944 0.142465
Si Si4 0.249712 0.320411 0.319554
Si Si5 0.432908 0.677928 0.973003
Si Si6 0.182495 0.178120 0.495496
Si Si7 0.474944 0.819840 0.709427
Si Si8 0.536193 0.675388 0.539003
O O1 0.313373 0.711907 0.647824
O O2 0.979938 0.783327 0.719590
O O3 0.976604 0.823804 0.810826
O O4 0.217905 0.000000 0.669063
O O5 0.255062 0.736121 0.264923
O O6 0.433212 0.766534 0.115509
O O7 0.275030 0.000000 0.217468
O O8 0.765607 0.231409 0.213873
O O9 0.035872 0.000000 0.110725
O O10 0.185359 0.281626 0.054211
O O11 0.243583 0.500000 0.322048
O O12 0.463565 0.260509 0.265222
O O13 0.047306 0.257570 0.424758
O O14 0.471229 0.500000 0.952113
O O15 0.500000 0.729460 0.000000
O O16 0.355932 0.235360 0.393039
O O17 0.270909 0.223924 0.513116
O O18 0.142733 0.000000 0.507221
O O19 0.487691 0.000000 0.709970
O O20 0.500000 0.725694 0.500000
O O21 0.597530 0.500000 0.521844
#
# Coordination Sequence:
#
# PCOD8064848 Si02
#       8
#     4   4   4   4   4   4   4   4
#     4  10  20  36  59  87 117 156 202 248 300 359
#     4  11  23  41  66  91 122 165 210 254 301 364
#     4  10  20  39  64  92 121 155 204 253 298 359
#     4  12  26  42  61  90 127 162 204 257 313 368
#     4  11  23  38  61  96 132 164 197 246 311 371
#     4  11  22  40  64  89 119 161 213 259 299 359
#     4  10  22  42  66  90 120 161 211 259 301 355
#     4  11  23  35  51  82 124 165 201 247 308 367
#
# _framework density 20.276109000000002
#
# number of rings (size 3 to 8) (size 9 to 14) (size 15 to 20)
#    0.000    1.250    2.500    3.750    0.000    8.000 
#    0.000    0.625    0.000    3.750    0.000    0.000 
#    0.000    0.000    0.000    0.000    0.000    0.000 
#
# Total GULP energy -396873.670232 kJ/mol
# GULP energy per Si atom -12402.302195 kJ/mol
# Density = 2.022996 g / cm^3
# Si number density = 20.276109 Si / 1000 Ang^3
#
#
#
# Elastic Constant Matrix: (Units=GPa)
#
#
# Indices 1 2 3 4 5 6 
#
# 1 104.7706 29.9617 21.5003 0.0000 -16.6669 0.0000
# 2 29.9617 57.7145 20.9090 0.0000 -10.6084 0.0000
# 3 21.5003 20.9090 78.6822 0.0000 -16.1112 0.0000
# 4 0.0000 0.0000 0.0000 25.3087 0.0000 -2.6736
# 5 -16.6669 -10.6084 -16.1112 0.0000 24.6644 0.0000
# 6 0.0000 0.0000 0.0000 -2.6736 0.0000 27.8543
#
#
#
# Elastic Compliance Matrix: (Units=1/GPa)
#
#
# Indices 1 2 3 4 5 6 
#
# 1 0.011990 -0.004916 -0.000859 0.000000 0.005427 0.000000
# 2 -0.004916 0.021902 -0.003727 0.000000 0.003664 0.000000
# 3 -0.000859 -0.003727 0.015570 0.000000 0.007987 0.000000
# 4 0.000000 0.000000 0.000000 0.039917 0.000000 0.003831
# 5 0.005427 0.003664 0.007987 0.000000 0.051005 0.000000
# 6 0.000000 0.000000 0.000000 0.003831 0.000000 0.036269
#
#
# Mechanical properties :
#
#
# Convention : Reuss Voigt Hill
#
# Bulk Modulus (GPa) = 32.83050 42.87882 37.85466
# Shear Modulus (GPa) = 24.29440 26.81856 25.55648
#
# Velocity S-wave (km/s) = 3.46523 3.64080 3.55410
# Velocity P-wave (km/s) = 5.67779 6.23436 5.96257
#
# Compressibility (1/GPa) = 0.03045948
#
# Stress axis : x y z
#
# Youngs Moduli (GPa) = 83.40285 45.65731 64.22660
#
# Poissons Ratio (x) = 0.22444 0.05516
# Poissons Ratio (y) = 0.40999 0.23936
# Poissons Ratio (z) = 0.07162 0.17015
#
# Static dielectric constant tensor:
#      x y z
#    x 3.758760 0.000000 -0.070940 
#    y 0.000000 3.562560 0.000000 
#    z -0.070940 0.000000 3.639150 
# 
# 
# High freq. dielectric constant tensor:
#      x y z
#    x 1.795270 0.000000 -0.008420 
#    y 0.000000 1.788500 0.000000 
#    z -0.008420 0.000000 1.786880 
# 
# From -- ./inp_files/94983.got.cif
#   From: 2010.06.25/outbox.cif.g09.slc.cpg/sg10_48_cif.got.tgz:94983.got - 2010.06.27 22:07:45.
