data_PCOD8064684
_publ_section_title
;
Structure prediction by ZEFSAII (Michael W. Deem and Ramdas Pophale) SiO2 
 PCOD8064684
Probable space group: P 2/M
;
_chemical_formula_sum "Si O2"
_cell_formula_units_Z 28
_cell_length_a 21.920356
_cell_length_b 8.442838
_cell_length_c 23.285427
_cell_angle_alpha 90.000000
_cell_angle_beta 160.861249
_cell_angle_gamma 90.000000
_cell_volume 1412.877878
_symmetry_space_group_name_H-M "P 2/M"
_symmetry_group_IT_number 10
_symmetry_cell_setting 'monoclinic'
loop_
_space_group_symop_operation_xyz
x,y,z
-x,y,-z
-x,-y,-z
x,-y,z
loop_
_atom_site_type_symbol
_atom_site_label
_atom_site_fract_x
_atom_site_fract_y
_atom_site_fract_z
Si Si1 0.054554 0.689857 0.186502
Si Si2 0.205867 0.327746 0.206864
Si Si3 0.408981 0.815910 0.836926
Si Si4 0.272410 0.688474 0.489436
Si Si5 0.234465 0.314833 0.792490
Si Si6 0.167671 0.312320 0.521955
Si Si7 0.335244 0.689857 0.205129
O O1 0.061099 0.500000 0.189304
O O2 0.186958 0.758481 0.252312
O O3 0.131041 0.753259 0.315198
O O4 0.841990 0.749057 0.989671
O O5 0.296961 0.500000 0.298413
O O6 0.324364 0.241629 0.261463
O O7 0.000000 0.350322 0.000000
O O8 0.266153 0.776310 0.761092
O O9 0.320215 0.767826 0.697878
O O10 0.455588 0.000000 0.879280
O O11 0.602196 0.721987 0.016964
O O12 0.273009 0.500000 0.489616
O O13 0.205024 0.751280 0.491059
O O14 0.479078 0.754015 0.660159
O O15 0.232273 0.500000 0.776672
O O16 0.038977 0.257749 0.644522
O O17 0.189891 0.500000 0.546191
O O18 0.334087 0.500000 0.207514
#
# Coordination Sequence:
#
# PCOD8064684 Si02
#       7
#     4   4   4   4   4   4   4
#     4   8  13  21  32  48  74 109 152 198 237 277
#     4   7  10  17  29  46  69 102 146 193 239 281
#     4  11  22  36  57  82 105 130 165 209 253 297
#     4   9  17  26  37  57  83 118 163 197 229 281
#     4  10  20  36  58  81 106 134 165 204 250 299
#     4  10  21  35  51  74 105 139 172 206 247 297
#     4   8  13  21  33  49  74 109 150 198 241 279
#
# _framework density 19.817708
#
# number of rings (size 3 to 8) (size 9 to 14) (size 15 to 20)
#    0.000    3.000    0.000    4.714    0.000    4.571 
#    0.000    7.143    0.000    0.000    0.000    0.000 
#    0.000    0.000    0.000    2.571    0.000   20.571 
#
# Total GULP energy -346949.849284 kJ/mol
# GULP energy per Si atom -12391.066046 kJ/mol
# Density = 1.977260 g / cm^3
# Si number density = 19.817708 Si / 1000 Ang^3
#
#
#
# Elastic Constant Matrix: (Units=GPa)
#
#
# Indices 1 2 3 4 5 6 
#
# 1 127.9356 2.6652 63.5849 0.0000 -19.3871 0.0000
# 2 2.6652 18.2103 0.6885 0.0000 -3.1020 0.0000
# 3 63.5849 0.6885 108.9645 0.0000 -16.7186 0.0000
# 4 0.0000 0.0000 0.0000 4.3683 0.0000 -1.0072
# 5 -19.3871 -3.1020 -16.7186 0.0000 35.5972 0.0000
# 6 0.0000 0.0000 0.0000 -1.0072 0.0000 -1.8925
#
#
#
# Elastic Compliance Matrix: (Units=1/GPa)
#
#
# Indices 1 2 3 4 5 6 
#
# 1 0.011375 -0.000881 -0.006135 0.000000 0.003237 0.000000
# 2 -0.000881 0.055828 0.000899 0.000000 0.004807 0.000000
# 3 -0.006135 0.000899 0.013203 0.000000 0.002938 0.000000
# 4 0.000000 0.000000 0.000000 0.203900 0.000000 -0.108519
# 5 0.003237 0.004807 0.002938 0.000000 0.031653 0.000000
# 6 0.000000 0.000000 0.000000 -0.108519 0.000000 -0.470637
#
#
# Mechanical properties :
#
#
# Convention : Reuss Voigt Hill
#
# Bulk Modulus (GPa) = 14.66926 43.22084 28.94505
# Shear Modulus (GPa) = -41.76410 20.15939 -10.80236
#
# Velocity S-wave (km/s) = -4.59564 3.19288 -2.33724
# Velocity P-wave (km/s) = 4.55430 5.95392 2.71178
#
# Compressibility (1/GPa) = 0.06816977
#
# Stress axis : x y z
#
# Youngs Moduli (GPa) = 87.91560 17.91219 75.74305
#
# Poissons Ratio (x) = 0.01579 0.46471
# Poissons Ratio (y) = 0.07749 -0.06811
# Poissons Ratio (z) = 0.53939 -0.01611
#
# Static dielectric constant tensor:
#      x y z
#    x 3.954050 0.000000 -0.009960 
#    y 0.000000 2.922420 0.000000 
#    z -0.009960 0.000000 3.689330 
# 
# 
# High freq. dielectric constant tensor:
#      x y z
#    x 1.779130 0.000000 -0.002340 
#    y 0.000000 1.701380 0.000000 
#    z -0.002340 0.000000 1.776180 
# 
# From -- ./inp_files/90525.got.cif
#   From: 2010.06.25/outbox.cif.g09.slc.cpg/sg10_46_cif.got.tgz:90525.got - 2010.06.27 22:07:45.
