data_PCOD8064424
_publ_section_title
;
Structure prediction by ZEFSAII (Michael W. Deem and Ramdas Pophale) SiO2 
 PCOD8064424
Probable space group: P 2/M
;
_chemical_formula_sum "Si O2"
_cell_formula_units_Z 28
_cell_length_a 9.466790
_cell_length_b 13.868494
_cell_length_c 23.408281
_cell_angle_alpha 90.000000
_cell_angle_beta 152.051850
_cell_angle_gamma 90.000000
_cell_volume 1440.359481
_symmetry_space_group_name_H-M "P 2/M"
_symmetry_group_IT_number 10
_symmetry_cell_setting 'monoclinic'
loop_
_space_group_symop_operation_xyz
x,y,z
-x,y,-z
-x,-y,-z
x,-y,z
loop_
_atom_site_type_symbol
_atom_site_label
_atom_site_fract_x
_atom_site_fract_y
_atom_site_fract_z
Si Si1 0.800300 0.749230 0.984176
Si Si2 0.888600 0.258789 0.296262
Si Si3 0.197948 0.389759 0.195638
Si Si4 0.829568 0.893525 0.093374
Si Si5 0.710627 0.893525 0.520837
Si Si6 0.854411 0.390097 0.389484
Si Si7 0.239776 0.244441 0.309769
O O1 0.454586 0.730670 0.845399
O O2 0.835600 0.846123 0.033203
O O3 0.000000 0.763802 0.000000
O O4 0.917036 0.657977 0.062413
O O5 0.970085 0.331915 0.376210
O O6 0.962619 0.149690 0.344429
O O7 0.119603 0.283109 0.327583
O O8 0.111827 0.500000 0.178193
O O9 0.492288 0.382436 0.261274
O O10 0.273365 0.337332 0.281922
O O11 0.002142 0.831050 0.201041
O O12 0.975156 0.000000 0.140041
O O13 0.500000 0.902226 0.000000
O O14 0.500000 0.906470 0.500000
O O15 0.554785 0.814216 0.424141
O O16 0.757052 0.000000 0.509133
O O17 0.961874 0.500000 0.420193
O O18 0.000000 0.348492 0.500000
#
# Coordination Sequence:
#
# PCOD8064424 Si02
#       7
#     4   4   4   4   4   4   4
#     4  11  22  38  57  84 120 158 195 245 289 349
#     4  11  21  36  59  88 115 152 196 246 293 345
#     4  10  22  38  59  85 119 160 195 242 297 353
#     4  10  20  35  58  84 116 154 192 238 290 349
#     4   9  19  35  58  86 114 149 190 236 290 348
#     4  10  21  38  59  83 113 156 202 240 296 357
#     4  10  20  37  61  87 119 149 196 244 296 349
#
# _framework density 19.439592000000001
#
# number of rings (size 3 to 8) (size 9 to 14) (size 15 to 20)
#    0.000    1.857    2.857    1.286    0.000    2.857 
#    0.000    0.714    0.000    6.429    0.000    0.000 
#    0.000    0.000    0.000    0.000    0.000    0.000 
#
# Total GULP energy -347148.812490 kJ/mol
# GULP energy per Si atom -12398.171875 kJ/mol
# Density = 1.939535 g / cm^3
# Si number density = 19.439592 Si / 1000 Ang^3
#
#
#
# Elastic Constant Matrix: (Units=GPa)
#
#
# Indices 1 2 3 4 5 6 
#
# 1 90.1040 59.0528 22.5586 0.0000 -21.9644 0.0000
# 2 59.0528 146.6434 43.0807 0.0000 -15.6194 0.0000
# 3 22.5586 43.0807 101.5086 0.0000 -7.6520 0.0000
# 4 0.0000 0.0000 0.0000 18.3516 0.0000 1.7204
# 5 -21.9644 -15.6194 -7.6520 0.0000 31.1772 0.0000
# 6 0.0000 0.0000 0.0000 1.7204 0.0000 19.7442
#
#
#
# Elastic Compliance Matrix: (Units=1/GPa)
#
#
# Indices 1 2 3 4 5 6 
#
# 1 0.017285 -0.005785 -0.000700 0.000000 0.009107 0.000000
# 2 -0.005785 0.010043 -0.002959 0.000000 0.000229 0.000000
# 3 -0.000700 -0.002959 0.011323 0.000000 0.000804 0.000000
# 4 0.000000 0.000000 0.000000 0.054940 0.000000 -0.004787
# 5 0.009107 0.000229 0.000804 0.000000 0.038803 0.000000
# 6 0.000000 0.000000 0.000000 -0.004787 0.000000 0.051065
#
#
# Mechanical properties :
#
#
# Convention : Reuss Voigt Hill
#
# Bulk Modulus (GPa) = 50.59882 65.29336 57.94609
# Shear Modulus (GPa) = 23.93098 28.09220 26.01159
#
# Velocity S-wave (km/s) = 3.51243 3.80557 3.66194
# Velocity P-wave (km/s) = 6.52187 7.27809 6.91033
#
# Compressibility (1/GPa) = 0.01976331
#
# Stress axis : x y z
#
# Youngs Moduli (GPa) = 57.85387 99.57524 88.31307
#
# Poissons Ratio (x) = 0.57604 0.06178
# Poissons Ratio (y) = 0.33469 0.26134
# Poissons Ratio (z) = 0.04047 0.29467
#
# Static dielectric constant tensor:
#      x y z
#    x 3.392600 0.000000 -0.095060 
#    y 0.000000 3.742540 0.000000 
#    z -0.095060 0.000000 3.695360 
# 
# 
# High freq. dielectric constant tensor:
#      x y z
#    x 1.740430 0.000000 -0.007100 
#    y 0.000000 1.757800 0.000000 
#    z -0.007100 0.000000 1.770470 
# 
# From -- ./inp_files/25179.got.cif
#   From: 2010.06.25/outbox.cif.g09.slc.cpg/sg10_13_cif.got.tgz:25179.got - 2010.06.27 22:07:45.
