data_PCOD8064627
_publ_section_title
;
Structure prediction by ZEFSAII (Michael W. Deem and Ramdas Pophale) SiO2 
 PCOD8064627
Probable space group: P 2/M
;
_chemical_formula_sum "Si O2"
_cell_formula_units_Z 32
_cell_length_a 13.556396
_cell_length_b 12.513877
_cell_length_c 9.187657
_cell_angle_alpha 90.000000
_cell_angle_beta 77.406750
_cell_angle_gamma 90.000000
_cell_volume 1521.125731
_symmetry_space_group_name_H-M "P 2/M"
_symmetry_group_IT_number 10
_symmetry_cell_setting 'monoclinic'
loop_
_space_group_symop_operation_xyz
x,y,z
-x,y,-z
-x,-y,-z
x,-y,z
loop_
_atom_site_type_symbol
_atom_site_label
_atom_site_fract_x
_atom_site_fract_y
_atom_site_fract_z
Si Si1 0.237726 0.257976 0.171493
Si Si2 0.908878 0.379259 0.442724
Si Si3 0.029314 0.320182 0.143575
Si Si4 0.687404 0.373942 0.596324
Si Si5 0.802035 0.120982 0.547396
Si Si6 0.387366 0.808322 0.555718
Si Si7 0.284215 0.124572 0.877431
Si Si8 0.918410 0.879136 0.231638
O O1 0.147259 0.337194 0.145924
O O2 0.320002 0.331746 0.233252
O O3 0.187262 0.174866 0.299482
O O4 0.292640 0.194092 0.023181
O O5 0.896911 0.500000 0.504930
O O6 0.798281 0.329508 0.508190
O O7 0.000000 0.320253 0.500000
O O8 0.944239 0.379154 0.265772
O O9 0.011879 0.191978 0.150103
O O10 0.000000 0.370947 0.000000
O O11 0.668689 0.500000 0.590954
O O12 0.612822 0.314370 0.507281
O O13 0.687922 0.123316 0.520929
O O14 0.879524 0.167942 0.400024
O O15 0.833960 0.000000 0.560493
O O16 0.500000 0.853976 0.500000
O O17 0.357522 0.819411 0.735243
O O18 0.170086 0.130257 0.858398
O O19 0.315812 0.000000 0.892823
O O20 0.956616 0.000000 0.232528
#
# Coordination Sequence:
#
# PCOD8064627 Si02
#       8
#     4   4   4   4   4   4   4   4
#     4  11  21  34  54  81 118 156 194 234 290 347
#     4  10  20  36  57  81 108 147 196 239 282 332
#     4  12  22  31  50  77 114 154 192 239 281 330
#     4  10  22  41  63  84 116 155 194 245 293 341
#     4   9  19  35  54  77 110 150 192 236 284 340
#     4  10  21  39  66  90 111 144 193 242 294 358
#     4  10  20  36  57  85 122 153 185 235 292 344
#     4   9  19  33  48  73 109 152 196 231 269 328
#
# _framework density 21.037051000000002
#
# number of rings (size 3 to 8) (size 9 to 14) (size 15 to 20)
#    0.000    1.875    2.500    3.750    0.000    2.750 
#    0.000    4.375    0.000    4.500    0.000    0.000 
#    0.000    0.000    0.000    0.000    0.000    0.000 
#
# Total GULP energy -396576.936333 kJ/mol
# GULP energy per Si atom -12393.029260 kJ/mol
# Density = 2.098917 g / cm^3
# Si number density = 21.037051 Si / 1000 Ang^3
#
#
#
# Elastic Constant Matrix: (Units=GPa)
#
#
# Indices 1 2 3 4 5 6 
#
# 1 57.7827 -8.0140 18.1505 0.0000 -3.3406 0.0000
# 2 -8.0140 67.9952 26.3657 0.0000 1.9641 0.0000
# 3 18.1505 26.3657 141.3680 0.0000 6.4563 0.0000
# 4 0.0000 0.0000 0.0000 20.7190 0.0000 5.0615
# 5 -3.3406 1.9641 6.4563 0.0000 18.8479 0.0000
# 6 0.0000 0.0000 0.0000 5.0615 0.0000 16.5408
#
#
#
# Elastic Compliance Matrix: (Units=1/GPa)
#
#
# Indices 1 2 3 4 5 6 
#
# 1 0.019042 0.003391 -0.003266 0.000000 0.004140 0.000000
# 2 0.003391 0.016465 -0.003510 0.000000 0.000088 0.000000
# 3 -0.003266 -0.003510 0.008287 0.000000 -0.003052 0.000000
# 4 0.000000 0.000000 0.000000 0.052164 0.000000 -0.015962
# 5 0.004140 0.000088 -0.003052 0.000000 0.054826 0.000000
# 6 0.000000 0.000000 0.000000 -0.015962 0.000000 0.065341
#
#
# Mechanical properties :
#
#
# Convention : Reuss Voigt Hill
#
# Bulk Modulus (GPa) = 27.00979 37.79448 32.40213
# Shear Modulus (GPa) = 21.25506 26.59778 23.92642
#
# Velocity S-wave (km/s) = 3.18207 3.55960 3.37612
# Velocity P-wave (km/s) = 5.13496 5.90754 5.53474
#
# Compressibility (1/GPa) = 0.03702362
#
# Stress axis : x y z
#
# Youngs Moduli (GPa) = 52.51554 60.73407 120.66844
#
# Poissons Ratio (x) = -0.20597 0.39415
# Poissons Ratio (y) = -0.17810 0.42358
# Poissons Ratio (z) = 0.17154 0.21319
#
# Static dielectric constant tensor:
#      x y z
#    x 3.409990 0.000000 0.097180 
#    y 0.000000 3.825410 0.000000 
#    z 0.097180 0.000000 3.932400 
# 
# 
# High freq. dielectric constant tensor:
#      x y z
#    x 1.783830 0.000000 0.010380 
#    y 0.000000 1.828350 0.000000 
#    z 0.010380 0.000000 1.829010 
# 
# From -- ./inp_files/29037.got.cif
#   From: 2010.06.25/outbox.cif.g09.slc.cpg/sg10_15_cif.got.tgz:29037.got - 2010.06.27 22:07:45.
