data_PCOD8064083
_publ_section_title
;
Structure prediction by ZEFSAII (Michael W. Deem and Ramdas Pophale) SiO2 
 PCOD8064083
Probable space group: P 2/M
;
_chemical_formula_sum "Si O2"
_cell_formula_units_Z 28
_cell_length_a 30.351841
_cell_length_b 7.865509
_cell_length_c 9.346729
_cell_angle_alpha 90.000000
_cell_angle_beta 39.658525
_cell_angle_gamma 90.000000
_cell_volume 1424.083988
_symmetry_space_group_name_H-M "P 2/M"
_symmetry_group_IT_number 10
_symmetry_cell_setting 'monoclinic'
loop_
_space_group_symop_operation_xyz
x,y,z
-x,y,-z
-x,-y,-z
x,-y,z
loop_
_atom_site_type_symbol
_atom_site_label
_atom_site_fract_x
_atom_site_fract_y
_atom_site_fract_z
Si Si1 0.331398 0.693302 0.504879
Si Si2 0.802143 0.302319 0.349540
Si Si3 0.208016 0.188818 0.308182
Si Si4 0.428550 0.000000 0.597177
Si Si5 0.078361 0.701086 0.464241
Si Si6 0.570863 0.000000 0.740234
Si Si7 0.924023 0.298252 0.850126
Si Si8 0.333285 0.311653 0.829464
O O1 0.358228 0.500000 0.410740
O O2 0.263475 0.731191 0.585129
O O3 0.311944 0.721647 0.719004
O O4 0.389025 0.828862 0.313580
O O5 0.812592 0.500000 0.357401
O O6 0.791911 0.205013 0.522083
O O7 0.868869 0.225376 0.101029
O O8 0.131187 0.219577 0.443591
O O9 0.231410 0.000000 0.208661
O O10 0.263633 0.312518 0.096969
O O11 0.500000 0.000000 0.500000
O O12 0.443910 0.000000 0.391002
O O13 0.387101 0.169330 0.747659
O O14 0.085229 0.500000 0.453210
O O15 0.093444 0.768515 0.265919
O O16 0.001075 0.758130 0.703091
O O17 0.500000 0.000000 0.000000
O O18 0.918798 0.500000 0.859132
O O19 0.366726 0.500000 0.763130
#
# Coordination Sequence:
#
# PCOD8064083 Si02
#       8
#     4   4   4   2   4   2   4   4
#     4   9  20  38  63  87 112 148 196 236 276 335
#     4  10  20  35  54  81 110 145 189 239 291 341
#     4  12  24  35  50  80 116 151 190 239 289 342
#     4  10  22  40  60  92 125 150 189 230 272 341
#     4   9  17  34  58  80 103 142 189 240 291 344
#     4  10  22  38  60  88 121 156 183 224 280 329
#     4   8  16  33  58  81 103 137 192 242 287 345
#     4  10  20  40  64  86 114 154 195 238 282 332
#
# _framework density 19.661764000000002
#
# number of rings (size 3 to 8) (size 9 to 14) (size 15 to 20)
#    0.000    2.286    0.714    3.000    1.000    4.571 
#    0.000    5.714    0.000    0.000    0.000    0.000 
#    0.000    0.000    0.000    0.000    0.000    0.000 
#
# Total GULP energy -347193.385766 kJ/mol
# GULP energy per Si atom -12399.763777 kJ/mol
# Density = 1.961701 g / cm^3
# Si number density = 19.661764 Si / 1000 Ang^3
#
#
#
# Elastic Constant Matrix: (Units=GPa)
#
#
# Indices 1 2 3 4 5 6 
#
# 1 116.3775 45.9808 49.3663 0.0000 -16.0574 0.0000
# 2 45.9808 99.5858 47.2049 0.0000 -10.7901 0.0000
# 3 49.3663 47.2049 140.1872 0.0000 -7.9719 0.0000
# 4 0.0000 0.0000 0.0000 23.9213 0.0000 -3.2896
# 5 -16.0574 -10.7901 -7.9719 0.0000 25.6229 0.0000
# 6 0.0000 0.0000 0.0000 -3.2896 0.0000 19.0962
#
#
#
# Elastic Compliance Matrix: (Units=1/GPa)
#
#
# Indices 1 2 3 4 5 6 
#
# 1 0.011869 -0.003673 -0.002655 0.000000 0.005065 0.000000
# 2 -0.003673 0.013470 -0.003106 0.000000 0.002404 0.000000
# 3 -0.002655 -0.003106 0.009106 0.000000 -0.000138 0.000000
# 4 0.000000 0.000000 0.000000 0.042818 0.000000 0.007376
# 5 0.005065 0.002404 -0.000138 0.000000 0.043171 0.000000
# 6 0.000000 0.000000 0.000000 0.007376 0.000000 0.053637
#
#
# Mechanical properties :
#
#
# Convention : Reuss Voigt Hill
#
# Bulk Modulus (GPa) = 64.19114 71.25050 67.72082
# Shear Modulus (GPa) = 25.23581 27.96796 26.60189
#
# Velocity S-wave (km/s) = 3.58648 3.77564 3.68227
# Velocity P-wave (km/s) = 7.06180 7.43801 7.25235
#
# Compressibility (1/GPa) = 0.01557848
#
# Stress axis : x y z
#
# Youngs Moduli (GPa) = 84.25355 74.23865 109.81690
#
# Poissons Ratio (x) = 0.27267 0.29154
# Poissons Ratio (y) = 0.30946 0.34105
# Poissons Ratio (z) = 0.22367 0.23056
#
# Static dielectric constant tensor:
#      x y z
#    x 3.497250 0.000000 0.011040 
#    y 0.000000 3.576820 0.000000 
#    z 0.011040 0.000000 3.569130 
# 
# 
# High freq. dielectric constant tensor:
#      x y z
#    x 1.759780 0.000000 0.000530 
#    y 0.000000 1.763790 0.000000 
#    z 0.000530 0.000000 1.760400 
# 
# From -- ./inp_files/37169.got.cif
#   From: 2010.06.25/outbox.cif.g09.slc.cpg/sg10_19_cif.got.tgz:37169.got - 2010.06.27 22:07:45.
