data_PCOD8064769
_publ_section_title
;
Structure prediction by ZEFSAII (Michael W. Deem and Ramdas Pophale) SiO2 
 PCOD8064769
Probable space group: P 2/M
;
_chemical_formula_sum "Si O2"
_cell_formula_units_Z 24
_cell_length_a 20.236544
_cell_length_b 10.430828
_cell_length_c 15.852217
_cell_angle_alpha 90.000000
_cell_angle_beta 161.119844
_cell_angle_gamma 90.000000
_cell_volume 1082.779105
_symmetry_space_group_name_H-M "P 2/M"
_symmetry_group_IT_number 10
_symmetry_cell_setting 'monoclinic'
loop_
_space_group_symop_operation_xyz
x,y,z
-x,y,-z
-x,-y,-z
x,-y,z
loop_
_atom_site_type_symbol
_atom_site_label
_atom_site_fract_x
_atom_site_fract_y
_atom_site_fract_z
Si Si1 0.130203 0.355862 0.538018
Si Si2 0.137452 0.141652 0.240298
Si Si3 0.699749 0.640846 0.944690
Si Si4 0.348752 0.278009 0.632607
Si Si5 0.563744 0.858865 0.669324
Si Si6 0.649003 0.861391 0.102654
O O1 0.165168 0.500000 0.615512
O O2 0.261726 0.346973 0.610484
O O3 0.195650 0.254400 0.688749
O O4 0.891448 0.328561 0.236132
O O5 0.149534 0.225119 0.340612
O O6 0.368250 0.129117 0.490996
O O7 0.045133 0.000000 0.148149
O O8 0.000000 0.206441 0.000000
O O9 0.730141 0.500000 0.939657
O O10 0.486728 0.631627 0.739434
O O11 0.707643 0.749404 0.881738
O O12 0.509390 0.166517 0.852281
O O13 0.500000 0.812842 0.500000
O O14 0.671864 0.000000 0.796051
O O15 0.760261 0.000000 0.222591
O O16 0.500000 0.876322 0.000000
#
# Coordination Sequence:
#
# PCOD8064769 Si02
#       6
#     4   4   4   4   4   4
#     4  10  22  38  58  84 112 148 190 228 275 335
#     4   9  18  32  53  82 111 143 183 226 277 331
#     4  10  22  38  56  82 113 146 187 228 277 332
#     4  10  20  36  59  80 113 149 183 231 279 327
#     4   9  19  35  55  80 110 143 185 231 278 330
#     4   9  19  36  58  86 115 147 187 230 280 331
#
# _framework density 22.165187
#
# number of rings (size 3 to 8) (size 9 to 14) (size 15 to 20)
#    0.000    2.500    0.000    1.000    2.333    6.667 
#    0.000    2.500    0.000    2.500    0.000    0.000 
#    0.000    0.000    0.000    0.000    0.000    0.000 
#
# Total GULP energy -297369.015665 kJ/mol
# GULP energy per Si atom -12390.375653 kJ/mol
# Density = 2.211474 g / cm^3
# Si number density = 22.165187 Si / 1000 Ang^3
#
#
#
# Elastic Constant Matrix: (Units=GPa)
#
#
# Indices 1 2 3 4 5 6 
#
# 1 44.0014 8.3400 14.0094 0.0000 -8.8417 0.0000
# 2 8.3400 159.5660 80.1923 0.0000 -29.6604 0.0000
# 3 14.0094 80.1923 130.5059 0.0000 -26.4794 0.0000
# 4 0.0000 0.0000 0.0000 40.8433 0.0000 -7.3379
# 5 -8.8417 -29.6604 -26.4794 0.0000 40.1240 0.0000
# 6 0.0000 0.0000 0.0000 -7.3379 0.0000 0.0947
#
#
#
# Elastic Compliance Matrix: (Units=1/GPa)
#
#
# Indices 1 2 3 4 5 6 
#
# 1 0.024155 0.000593 -0.002065 0.000000 0.004398 0.000000
# 2 0.000593 0.009526 -0.005152 0.000000 0.003773 0.000000
# 3 -0.002065 -0.005152 0.011759 0.000000 0.003497 0.000000
# 4 0.000000 0.000000 0.000000 -0.001894 0.000000 -0.146820
# 5 0.004398 0.003773 0.003497 0.000000 0.030989 0.000000
# 6 0.000000 0.000000 0.000000 -0.146820 0.000000 -0.817209
#
#
# Mechanical properties :
#
#
# Convention : Reuss Voigt Hill
#
# Bulk Modulus (GPa) = 31.06222 59.90627 45.48425
# Shear Modulus (GPa) = -6.95707 31.64785 12.34539
#
# Velocity S-wave (km/s) = -1.77357 3.78275 2.36259
# Velocity P-wave (km/s) = 3.13852 6.79447 5.29222
#
# Compressibility (1/GPa) = 0.03219345
#
# Stress axis : x y z
#
# Youngs Moduli (GPa) = 41.39852 104.97058 85.03847
#
# Poissons Ratio (x) = -0.06222 0.17559
# Poissons Ratio (y) = -0.02454 0.43811
# Poissons Ratio (z) = 0.08548 0.54080
#
# Static dielectric constant tensor:
#      x y z
#    x 4.058080 0.000000 -0.242130 
#    y 0.000000 4.302580 0.000000 
#    z -0.242130 0.000000 4.029580 
# 
# 
# High freq. dielectric constant tensor:
#      x y z
#    x 1.863530 0.000000 -0.004610 
#    y 0.000000 1.864240 0.000000 
#    z -0.004610 0.000000 1.867770 
# 
# From -- ./inp_files/70580.got.cif
#   From: 2010.06.25/outbox.cif.g09.slc.cpg/sg10_36_cif.got.tgz:70580.got - 2010.06.27 22:07:45.
