data_PCOD8064527
_publ_section_title
;
Structure prediction by ZEFSAII (Michael W. Deem and Ramdas Pophale) SiO2 
 PCOD8064527
Probable space group: P 2/M
;
_chemical_formula_sum "Si O2"
_cell_formula_units_Z 32
_cell_length_a 23.920776
_cell_length_b 8.777700
_cell_length_c 14.229153
_cell_angle_alpha 90.000000
_cell_angle_beta 32.956077
_cell_angle_gamma 90.000000
_cell_volume 1625.289438
_symmetry_space_group_name_H-M "P 2/M"
_symmetry_group_IT_number 10
_symmetry_cell_setting 'monoclinic'
loop_
_space_group_symop_operation_xyz
x,y,z
-x,y,-z
-x,-y,-z
x,-y,z
loop_
_atom_site_type_symbol
_atom_site_label
_atom_site_fract_x
_atom_site_fract_y
_atom_site_fract_z
Si Si1 0.664862 0.180317 0.159768
Si Si2 0.861405 0.818828 0.771916
Si Si3 0.475809 0.679556 0.321231
Si Si4 0.444426 0.822538 0.172870
Si Si5 0.916358 0.819088 0.491041
Si Si6 0.794735 0.821144 0.482202
Si Si7 0.291828 0.179324 0.688477
Si Si8 0.117598 0.320747 0.827890
O O1 0.562381 0.257291 0.267779
O O2 0.677870 0.227006 0.249477
O O3 0.654547 0.000000 0.162431
O O4 0.762075 0.246801 0.965237
O O5 0.861425 0.760456 0.664101
O O6 0.965289 0.762059 0.677553
O O7 0.858619 0.000000 0.779007
O O8 0.474891 0.500000 0.328367
O O9 0.495602 0.732144 0.186799
O O10 0.366427 0.743132 0.508166
O O11 0.324372 0.786513 0.332720
O O12 0.465458 0.000000 0.160838
O O13 0.500000 0.766279 0.000000
O O14 0.855925 0.756723 0.486244
O O15 0.913071 0.000000 0.495872
O O16 0.834880 0.727362 0.337900
O O17 0.814442 0.000000 0.437548
O O18 0.176986 0.236943 0.828936
O O19 0.297867 0.000000 0.664939
O O20 0.129151 0.500000 0.824831
O O21 0.000000 0.267720 0.000000
#
# Coordination Sequence:
#
# PCOD8064527 Si02
#       8
#     4   4   4   4   4   4   4   4
#     4  10  22  37  61  89 115 148 196 251 300 351
#     4   8  15  30  52  84 119 148 180 235 292 342
#     4  12  25  41  61  85 119 160 196 240 300 367
#     4  10  22  39  62  92 123 158 201 252 304 352
#     4   8  15  28  52  85 119 148 184 230 289 347
#     4  10  20  35  61  92 119 155 199 247 296 352
#     4  11  23  41  64  90 116 150 199 255 304 349
#     4  11  25  42  60  86 123 167 203 241 301 365
#
# _framework density 19.688801999999999
#
# number of rings (size 3 to 8) (size 9 to 14) (size 15 to 20)
#    0.000    2.000    1.250    3.000    3.500    3.750 
#    0.000    0.000    0.000    0.000    0.000    1.750 
#    0.000    0.000    0.000    0.000    0.000    0.000 
#
# Total GULP energy -396871.946490 kJ/mol
# GULP energy per Si atom -12402.248328 kJ/mol
# Density = 1.964399 g / cm^3
# Si number density = 19.688802 Si / 1000 Ang^3
#
#
#
# Elastic Constant Matrix: (Units=GPa)
#
#
# Indices 1 2 3 4 5 6 
#
# 1 156.0313 47.2045 45.7176 0.0000 -11.6820 0.0000
# 2 47.2045 38.1479 24.0635 0.0000 3.7099 0.0000
# 3 45.7176 24.0635 110.0811 0.0000 -1.0430 0.0000
# 4 0.0000 0.0000 0.0000 14.2919 0.0000 -8.1369
# 5 -11.6820 3.7099 -1.0430 0.0000 25.5994 0.0000
# 6 0.0000 0.0000 0.0000 -8.1369 0.0000 7.5596
#
#
#
# Elastic Compliance Matrix: (Units=1/GPa)
#
#
# Indices 1 2 3 4 5 6 
#
# 1 0.011748 -0.014171 -0.001711 0.000000 0.007345 0.000000
# 2 -0.014171 0.048072 -0.004752 0.000000 -0.013627 0.000000
# 3 -0.001711 -0.004752 0.010837 0.000000 0.000349 0.000000
# 4 0.000000 0.000000 0.000000 0.180718 0.000000 0.194520
# 5 0.007345 -0.013627 0.000349 0.000000 0.044404 0.000000
# 6 0.000000 0.000000 0.000000 0.194520 0.000000 0.341657
#
#
# Mechanical properties :
#
#
# Convention : Reuss Voigt Hill
#
# Bulk Modulus (GPa) = 34.02849 59.80349 46.91599
# Shear Modulus (GPa) = 7.26215 21.97516 14.61865
#
# Velocity S-wave (km/s) = 1.92262 3.34447 2.72782
# Velocity P-wave (km/s) = 4.71692 6.73456 5.81393
#
# Compressibility (1/GPa) = 0.02938714
#
# Stress axis : x y z
#
# Youngs Moduli (GPa) = 85.12382 20.80207 92.27542
#
# Poissons Ratio (x) = 0.29479 0.15793
# Poissons Ratio (y) = 1.20631 0.43851
# Poissons Ratio (z) = 0.14569 0.09885
#
# Static dielectric constant tensor:
#      x y z
#    x 3.884270 0.000000 -0.050140 
#    y 0.000000 3.234150 0.000000 
#    z -0.050140 0.000000 3.874100 
# 
# 
# High freq. dielectric constant tensor:
#      x y z
#    x 1.785030 0.000000 -0.002280 
#    y 0.000000 1.732130 0.000000 
#    z -0.002280 0.000000 1.775980 
# 
# From -- ./inp_files/66573.got.cif
#   From: 2010.06.25/outbox.cif.g09.slc.cpg/sg10_34_cif.got.tgz:66573.got - 2010.06.27 22:07:45.
