data_PCOD8064452
_publ_section_title
;
Structure prediction by ZEFSAII (Michael W. Deem and Ramdas Pophale) SiO2 
 PCOD8064452
Probable space group: P 2/M
;
_chemical_formula_sum "Si O2"
_cell_formula_units_Z 28
_cell_length_a 24.752572
_cell_length_b 8.827545
_cell_length_c 22.462550
_cell_angle_alpha 90.000000
_cell_angle_beta 162.960062
_cell_angle_gamma 90.000000
_cell_volume 1438.280542
_symmetry_space_group_name_H-M "P 2/M"
_symmetry_group_IT_number 10
_symmetry_cell_setting 'monoclinic'
loop_
_space_group_symop_operation_xyz
x,y,z
-x,y,-z
-x,-y,-z
x,-y,z
loop_
_atom_site_type_symbol
_atom_site_label
_atom_site_fract_x
_atom_site_fract_y
_atom_site_fract_z
Si Si1 0.043781 0.318123 0.631319
Si Si2 0.714658 0.819448 0.214661
Si Si3 0.136842 0.321172 0.320660
Si Si4 0.546956 0.678827 0.730774
Si Si5 0.887890 0.320315 0.163691
Si Si6 0.505962 0.167676 0.441083
Si Si7 0.929157 0.167680 0.864278
O O1 0.040667 0.500000 0.621962
O O2 0.213101 0.251598 0.771135
O O3 0.078122 0.259148 0.734346
O O4 0.844936 0.251627 0.402971
O O5 0.739168 0.000000 0.239175
O O6 0.500000 0.775337 0.000000
O O7 0.126895 0.500000 0.306366
O O8 0.347173 0.262995 0.541537
O O9 0.017958 0.260998 0.139020
O O10 0.047894 0.260843 0.288166
O O11 0.552560 0.500000 0.732027
O O12 0.603092 0.738996 0.724155
O O13 0.692357 0.739160 0.932629
O O14 0.888738 0.500000 0.166207
O O15 0.500000 0.247294 0.500000
O O16 0.712023 0.157182 0.636069
O O17 0.416971 0.000000 0.352719
O O18 0.018771 0.000000 0.954522
O O19 0.000000 0.247293 0.000000
#
# Coordination Sequence:
#
# PCOD8064452 Si02
#       7
#     4   4   4   4   4   4   4
#     4  10  20  35  58  88 116 144 188 234 270 320
#     4  10  21  38  59  83 118 156 185 221 270 319
#     4   9  18  33  50  69  96 129 165 206 254 309
#     4   9  18  33  50  69  96 129 165 206 254 309
#     4   9  19  34  53  78 106 136 170 214 264 312
#     4   9  18  31  46  66  92 121 159 208 259 310
#     4   9  18  31  46  66  92 121 159 208 259 310
#
# _framework density 19.467690000000001
#
# number of rings (size 3 to 8) (size 9 to 14) (size 15 to 20)
#    0.000    2.714    0.000    1.714    2.000    2.857 
#    0.000    5.714    0.000    3.429    0.000    0.000 
#    0.000    0.000    0.000    0.000    0.000    0.000 
#
# Total GULP energy -346987.205795 kJ/mol
# GULP energy per Si atom -12392.400207 kJ/mol
# Density = 1.942338 g / cm^3
# Si number density = 19.467690 Si / 1000 Ang^3
#
#
#
# Elastic Constant Matrix: (Units=GPa)
#
#
# Indices 1 2 3 4 5 6 
#
# 1 177.8311 38.3687 94.6117 0.0000 -28.8808 0.0000
# 2 38.3687 49.9579 36.3414 0.0000 -1.9151 0.0000
# 3 94.6117 36.3414 133.7370 0.0000 -12.7608 0.0000
# 4 0.0000 0.0000 0.0000 15.5489 0.0000 6.0072
# 5 -28.8808 -1.9151 -12.7608 0.0000 41.5457 0.0000
# 6 0.0000 0.0000 0.0000 6.0072 0.0000 9.1857
#
#
#
# Elastic Compliance Matrix: (Units=1/GPa)
#
#
# Indices 1 2 3 4 5 6 
#
# 1 0.010350 -0.003471 -0.005880 0.000000 0.005229 0.000000
# 2 -0.003471 0.026150 -0.004909 0.000000 -0.002716 0.000000
# 3 -0.005880 -0.004909 0.012939 0.000000 -0.000339 0.000000
# 4 0.000000 0.000000 0.000000 0.086056 0.000000 -0.056278
# 5 0.005229 -0.002716 -0.000339 0.000000 0.027475 0.000000
# 6 0.000000 0.000000 0.000000 -0.056278 0.000000 0.145670
#
#
# Mechanical properties :
#
#
# Convention : Reuss Voigt Hill
#
# Bulk Modulus (GPa) = 47.80624 77.79663 62.80143
# Shear Modulus (GPa) = 14.52930 26.06965 20.29948
#
# Velocity S-wave (km/s) = 2.73487 3.66337 3.23263
# Velocity P-wave (km/s) = 5.88070 7.61199 6.80166
#
# Compressibility (1/GPa) = 0.02091777
#
# Stress axis : x y z
#
# Youngs Moduli (GPa) = 96.62256 38.24093 77.28852
#
# Poissons Ratio (x) = 0.13274 0.45443
# Poissons Ratio (y) = 0.33539 0.37944
# Poissons Ratio (z) = 0.56810 0.18774
#
# Static dielectric constant tensor:
#      x y z
#    x 3.807730 0.000000 -0.078110 
#    y 0.000000 3.494020 0.000000 
#    z -0.078110 0.000000 3.724990 
# 
# 
# High freq. dielectric constant tensor:
#      x y z
#    x 1.762740 0.000000 -0.001090 
#    y 0.000000 1.732730 0.000000 
#    z -0.001090 0.000000 1.761580 
# 
# From -- ./inp_files/86546.got.cif
#   From: 2010.06.25/outbox.cif.g09.slc.cpg/sg10_44_cif.got.tgz:86546.got - 2010.06.27 22:07:45.
