data_PCOD8064907
_publ_section_title
;
Structure prediction by ZEFSAII (Michael W. Deem and Ramdas Pophale) SiO2 
 PCOD8064907
Probable space group: P 2/M
;
_chemical_formula_sum "Si O2"
_cell_formula_units_Z 32
_cell_length_a 25.779170
_cell_length_b 8.786247
_cell_length_c 20.930824
_cell_angle_alpha 90.000000
_cell_angle_beta 20.233226
_cell_angle_gamma 90.000000
_cell_volume 1639.596077
_symmetry_space_group_name_H-M "P 2/M"
_symmetry_group_IT_number 10
_symmetry_cell_setting 'monoclinic'
loop_
_space_group_symop_operation_xyz
x,y,z
-x,y,-z
-x,-y,-z
x,-y,z
loop_
_atom_site_type_symbol
_atom_site_label
_atom_site_fract_x
_atom_site_fract_y
_atom_site_fract_z
Si Si1 0.361103 0.678130 0.965020
Si Si2 0.643979 0.178808 0.295345
Si Si3 0.548301 0.822064 0.264242
Si Si4 0.656009 0.176618 0.677269
Si Si5 0.046612 0.679146 0.016019
Si Si6 0.325491 0.330746 0.213991
Si Si7 0.162993 0.176744 0.290692
Si Si8 0.780515 0.175243 0.397030
O O1 0.391496 0.500000 0.936817
O O2 0.355233 0.725527 0.897732
O O3 0.489570 0.770545 0.852805
O O4 0.206503 0.725017 0.177919
O O5 0.500000 0.241534 0.500000
O O6 0.616876 0.220709 0.253046
O O7 0.660314 0.000000 0.286873
O O8 0.794423 0.253706 0.147215
O O9 0.372320 0.777227 0.463311
O O10 0.564920 0.000000 0.228753
O O11 0.717987 0.271362 0.665330
O O12 0.763445 0.204881 0.492375
O O13 0.649967 0.000000 0.702666
O O14 0.064040 0.500000 0.994940
O O15 0.917916 0.723605 0.214672
O O16 0.000000 0.741490 0.000000
O O17 0.255520 0.500000 0.286542
O O18 0.268167 0.211259 0.228843
O O19 0.500000 0.340295 0.000000
O O20 0.000000 0.229714 0.500000
O O21 0.170976 0.000000 0.263458
O O22 0.818422 0.000000 0.339033
#
# Coordination Sequence:
#
# PCOD8064907 Si02
#       8
#     4   4   4   4   4   4   4   4
#     4  11  21  35  58  86 117 153 192 236 292 350
#     4  10  21  39  64  90 115 150 197 242 283 334
#     4   9  19  37  61  88 115 148 191 240 287 341
#     4  10  20  36  60  87 115 151 196 243 288 340
#     4  11  24  39  57  86 123 158 190 231 288 344
#     4  11  22  36  59  90 118 149 192 242 295 350
#     4  11  24  41  60  83 112 153 199 243 293 347
#     4   9  19  37  61  87 114 149 194 239 285 338
#
# _framework density 19.517002000000002
#
# number of rings (size 3 to 8) (size 9 to 14) (size 15 to 20)
#    0.000    1.750    1.250    4.125    0.000    6.750 
#    2.250    0.000    0.000    0.000    0.000    0.000 
#    0.000    0.000    0.000    0.000    0.000    0.000 
#
# Total GULP energy -396877.979393 kJ/mol
# GULP energy per Si atom -12402.436856 kJ/mol
# Density = 1.947258 g / cm^3
# Si number density = 19.517002 Si / 1000 Ang^3
#
#
#
# Elastic Constant Matrix: (Units=GPa)
#
#
# Indices 1 2 3 4 5 6 
#
# 1 111.6356 36.7286 61.7516 0.0000 7.6017 0.0000
# 2 36.7286 58.0006 43.6772 0.0000 7.3338 0.0000
# 3 61.7516 43.6772 130.4915 0.0000 9.2135 0.0000
# 4 0.0000 0.0000 0.0000 16.6768 0.0000 3.1018
# 5 7.6017 7.3338 9.2135 0.0000 27.9544 0.0000
# 6 0.0000 0.0000 0.0000 3.1018 0.0000 22.9604
#
#
#
# Elastic Compliance Matrix: (Units=1/GPa)
#
#
# Indices 1 2 3 4 5 6 
#
# 1 0.013095 -0.004768 -0.004544 0.000000 -0.000813 0.000000
# 2 -0.004768 0.025145 -0.005923 0.000000 -0.003348 0.000000
# 3 -0.004544 -0.005923 0.011876 0.000000 -0.001124 0.000000
# 4 0.000000 0.000000 0.000000 0.061509 0.000000 -0.008310
# 5 -0.000813 -0.003348 -0.001124 0.000000 0.037242 0.000000
# 6 0.000000 0.000000 0.000000 -0.008310 0.000000 0.044676
#
#
# Mechanical properties :
#
#
# Convention : Reuss Voigt Hill
#
# Bulk Modulus (GPa) = 50.90395 64.93804 57.92100
# Shear Modulus (GPa) = 21.68622 24.04967 22.86795
#
# Velocity S-wave (km/s) = 3.33700 3.51414 3.42671
# Velocity P-wave (km/s) = 6.40202 7.05764 6.73781
#
# Compressibility (1/GPa) = 0.01964484
#
# Stress axis : x y z
#
# Youngs Moduli (GPa) = 76.36468 39.77004 84.20692
#
# Poissons Ratio (x) = 0.18963 0.38260
# Poissons Ratio (y) = 0.36412 0.49880
# Poissons Ratio (z) = 0.34697 0.23558
#
# Static dielectric constant tensor:
#      x y z
#    x 3.624640 0.000000 0.242440 
#    y 0.000000 3.537680 0.000000 
#    z 0.242440 0.000000 3.541450 
# 
# 
# High freq. dielectric constant tensor:
#      x y z
#    x 1.760830 0.000000 0.016640 
#    y 0.000000 1.761530 0.000000 
#    z 0.016640 0.000000 1.758130 
# 
# From -- ./inp_files/86739.got.cif
#   From: 2010.06.25/outbox.cif.g09.slc.cpg/sg10_44_cif.got.tgz:86739.got - 2010.06.27 22:07:45.
