data_PCOD8064431
_publ_section_title
;
Structure prediction by ZEFSAII (Michael W. Deem and Ramdas Pophale) SiO2 
 PCOD8064431
Probable space group: P 2/M
;
_chemical_formula_sum "Si O2"
_cell_formula_units_Z 32
_cell_length_a 19.049879
_cell_length_b 9.033363
_cell_length_c 24.161852
_cell_angle_alpha 90.000000
_cell_angle_beta 156.544342
_cell_angle_gamma 90.000000
_cell_volume 1654.999148
_symmetry_space_group_name_H-M "P 2/M"
_symmetry_group_IT_number 10
_symmetry_cell_setting 'monoclinic'
loop_
_space_group_symop_operation_xyz
x,y,z
-x,y,-z
-x,-y,-z
x,-y,z
loop_
_atom_site_type_symbol
_atom_site_label
_atom_site_fract_x
_atom_site_fract_y
_atom_site_fract_z
Si Si1 0.369827 0.671110 0.523587
Si Si2 0.582863 0.671127 0.316932
Si Si3 0.094850 0.325271 0.231536
Si Si4 0.283411 0.823960 0.042057
Si Si5 0.564119 0.824745 0.962193
Si Si6 0.228416 0.175066 0.782549
Si Si7 0.069303 0.673775 0.491313
Si Si8 0.639474 0.834488 0.649543
O O1 0.411338 0.500000 0.541715
O O2 0.333897 0.702442 0.562264
O O3 0.199439 0.718234 0.363703
O O4 0.544629 0.762368 0.633839
O O5 0.529582 0.500000 0.272937
O O6 0.406200 0.767902 0.181117
O O7 0.727741 0.714769 0.375025
O O8 0.068290 0.500000 0.207234
O O9 0.198057 0.267105 0.252155
O O10 0.908432 0.245459 0.095673
O O11 0.266293 0.000000 0.031814
O O12 0.379494 0.763323 0.056348
O O13 0.703706 0.769250 0.108837
O O14 0.565953 0.000000 0.963979
O O15 0.367912 0.771139 0.836474
O O16 0.043200 0.252268 0.638521
O O17 0.203433 0.000000 0.762902
O O18 0.039199 0.500000 0.466520
O O19 0.000000 0.737194 0.500000
O O20 0.500000 0.841866 0.500000
O O21 0.706008 0.000000 0.712729
#
# Coordination Sequence:
#
# PCOD8064431 Si02
#       8
#     4   4   4   4   4   4   4   4
#     4   9  19  36  58  82 110 146 185 225 269 326
#     4  10  22  39  55  76 112 151 186 227 277 331
#     4  10  20  35  58  85 112 147 185 220 268 333
#     4  11  22  36  54  79 111 145 184 231 279 326
#     4   8  17  33  52  75 106 139 175 227 281 325
#     4   9  17  33  55  76  99 136 184 227 273 330
#     4  10  21  35  52  76 109 144 182 230 279 322
#     4   9  17  32  56  86 116 143 175 223 274 321
#
# _framework density 19.335356999999998
#
# number of rings (size 3 to 8) (size 9 to 14) (size 15 to 20)
#    0.000    2.500    0.000    2.625    1.750    3.250 
#    0.000    3.125    0.000    3.750    0.000    0.000 
#    0.000    0.000    0.000    0.000    0.000    0.000 
#
# Total GULP energy -396737.154662 kJ/mol
# GULP energy per Si atom -12398.036083 kJ/mol
# Density = 1.929135 g / cm^3
# Si number density = 19.335357 Si / 1000 Ang^3
#
#
#
# Elastic Constant Matrix: (Units=GPa)
#
#
# Indices 1 2 3 4 5 6 
#
# 1 87.0569 34.6451 40.0198 0.0000 9.9526 0.0000
# 2 34.6451 69.2593 49.6783 0.0000 8.2223 0.0000
# 3 40.0198 49.6783 121.6886 0.0000 8.4772 0.0000
# 4 0.0000 0.0000 0.0000 34.4323 0.0000 2.7324
# 5 9.9526 8.2223 8.4772 0.0000 21.6656 0.0000
# 6 0.0000 0.0000 0.0000 2.7324 0.0000 22.7667
#
#
#
# Elastic Compliance Matrix: (Units=1/GPa)
#
#
# Indices 1 2 3 4 5 6 
#
# 1 0.015233 -0.005307 -0.002566 0.000000 -0.003980 0.000000
# 2 -0.005307 0.022724 -0.007300 0.000000 -0.003330 0.000000
# 3 -0.002566 -0.007300 0.012096 0.000000 -0.000784 0.000000
# 4 0.000000 0.000000 0.000000 0.029322 0.000000 -0.003519
# 5 -0.003980 -0.003330 -0.000784 0.000000 0.049555 0.000000
# 6 0.000000 0.000000 0.000000 -0.003519 0.000000 0.044346
#
#
# Mechanical properties :
#
#
# Convention : Reuss Voigt Hill
#
# Bulk Modulus (GPa) = 50.73971 58.52125 54.63048
# Shear Modulus (GPa) = 23.78779 26.01702 24.90240
#
# Velocity S-wave (km/s) = 3.51133 3.67218 3.59265
# Velocity P-wave (km/s) = 6.53744 6.95068 6.74723
#
# Compressibility (1/GPa) = 0.01970843
#
# Stress axis : x y z
#
# Youngs Moduli (GPa) = 65.64576 44.00539 82.67026
#
# Poissons Ratio (x) = 0.23354 0.21213
# Poissons Ratio (y) = 0.34838 0.60347
# Poissons Ratio (z) = 0.16845 0.32123
#
# Static dielectric constant tensor:
#      x y z
#    x 3.763240 0.000000 0.081130 
#    y 0.000000 3.407030 0.000000 
#    z 0.081130 0.000000 3.418130 
# 
# 
# High freq. dielectric constant tensor:
#      x y z
#    x 1.749970 0.000000 0.005960 
#    y 0.000000 1.741020 0.000000 
#    z 0.005960 0.000000 1.745600 
# 
# From -- ./inp_files/93810.got.cif
#   From: 2010.06.25/outbox.cif.g09.slc.cpg/sg10_47_cif.got.tgz:93810.got - 2010.06.27 22:07:45.
