data_PCOD8064510
_publ_section_title
;
Structure prediction by ZEFSAII (Michael W. Deem and Ramdas Pophale) SiO2 
 PCOD8064510
Probable space group: P 2/M
;
_chemical_formula_sum "Si O2"
_cell_formula_units_Z 28
_cell_length_a 15.846985
_cell_length_b 8.874356
_cell_length_c 19.917059
_cell_angle_alpha 90.000000
_cell_angle_beta 29.927925
_cell_angle_gamma 90.000000
_cell_volume 1397.433271
_symmetry_space_group_name_H-M "P 2/M"
_symmetry_group_IT_number 10
_symmetry_cell_setting 'monoclinic'
loop_
_space_group_symop_operation_xyz
x,y,z
-x,y,-z
-x,-y,-z
x,-y,z
loop_
_atom_site_type_symbol
_atom_site_label
_atom_site_fract_x
_atom_site_fract_y
_atom_site_fract_z
Si Si1 0.907243 0.826179 0.883867
Si Si2 0.534039 0.177108 0.400226
Si Si3 0.984508 0.176866 0.677392
Si Si4 0.111700 0.324075 0.858938
Si Si5 0.484066 0.824683 0.821096
Si Si6 0.331511 0.322519 0.426282
Si Si7 0.637985 0.178856 0.853725
O O1 0.956914 0.783985 0.774157
O O2 0.016244 0.722114 0.857220
O O3 0.949569 0.000000 0.870387
O O4 0.710532 0.792192 0.029050
O O5 0.500000 0.223131 0.500000
O O6 0.715525 0.234008 0.251237
O O7 0.386233 0.253527 0.459534
O O8 0.523792 0.000000 0.395918
O O9 0.145013 0.263915 0.537090
O O10 0.823887 0.235965 0.745777
O O11 0.012646 0.000000 0.647410
O O12 0.153346 0.500000 0.827473
O O13 0.000000 0.280993 0.000000
O O14 0.536320 0.727157 0.721432
O O15 0.595377 0.770207 0.807644
O O16 0.515100 0.000000 0.783974
O O17 0.331682 0.500000 0.431808
O O18 0.629667 0.000000 0.865555
O O19 0.500000 0.248536 0.000000
#
# Coordination Sequence:
#
# PCOD8064510 Si02
#       7
#     4   4   4   4   4   4   4
#     4  10  20  35  60  90 116 148 194 248 298 348
#     4  11  24  43  66  89 114 149 199 253 300 348
#     4  10  20  37  62  90 119 150 194 248 297 348
#     4  11  24  39  57  85 121 158 194 236 290 355
#     4  10  20  37  63  91 120 156 198 248 301 346
#     4  12  26  41  57  84 124 164 199 237 290 356
#     4   9  16  33  63  95 120 147 194 252 300 344
#
# _framework density 20.036733999999999
#
# number of rings (size 3 to 8) (size 9 to 14) (size 15 to 20)
#    0.000    1.571    1.429    3.857    0.000    9.714 
#    0.000    3.571    0.000    0.857    0.000    0.000 
#    0.000    0.000    0.000    0.000    0.000    0.000 
#
# Total GULP energy -347360.747666 kJ/mol
# GULP energy per Si atom -12405.740988 kJ/mol
# Density = 1.999113 g / cm^3
# Si number density = 20.036734 Si / 1000 Ang^3
#
#
#
# Elastic Constant Matrix: (Units=GPa)
#
#
# Indices 1 2 3 4 5 6 
#
# 1 85.9804 24.1820 13.6433 0.0000 -14.5618 0.0000
# 2 24.1820 61.2435 29.6492 0.0000 1.8694 0.0000
# 3 13.6433 29.6492 87.6269 0.0000 -5.1487 0.0000
# 4 0.0000 0.0000 0.0000 10.7172 0.0000 -0.5570
# 5 -14.5618 1.8694 -5.1487 0.0000 34.4606 0.0000
# 6 0.0000 0.0000 0.0000 -0.5570 0.0000 -2.8809
#
#
#
# Elastic Compliance Matrix: (Units=1/GPa)
#
#
# Indices 1 2 3 4 5 6 
#
# 1 0.014364 -0.005940 0.000150 0.000000 0.006414 0.000000
# 2 -0.005940 0.022130 -0.006841 0.000000 -0.004733 0.000000
# 3 0.000150 -0.006841 0.013850 0.000000 0.002504 0.000000
# 4 0.000000 0.000000 0.000000 0.092379 0.000000 -0.017862
# 5 0.006414 -0.004733 0.002504 0.000000 0.032360 0.000000
# 6 0.000000 0.000000 0.000000 -0.017862 0.000000 -0.343661
#
#
# Mechanical properties :
#
#
# Convention : Reuss Voigt Hill
#
# Bulk Modulus (GPa) = 39.86827 41.08887 40.47857
# Shear Modulus (GPa) = -37.04947 19.61780 -8.71584
#
# Velocity S-wave (km/s) = -4.30476 3.13244 -2.08791
# Velocity P-wave (km/s) = 2.18337 5.79950 3.79915
#
# Compressibility (1/GPa) = 0.02508260
#
# Stress axis : x y z
#
# Youngs Moduli (GPa) = 69.62002 45.18732 72.19963
#
# Poissons Ratio (x) = 0.26842 -0.01086
# Poissons Ratio (y) = 0.41355 0.49393
# Poissons Ratio (z) = -0.01047 0.30913
#
# Static dielectric constant tensor:
#      x y z
#    x 3.857930 0.000000 -0.114180 
#    y 0.000000 3.389140 0.000000 
#    z -0.114180 0.000000 3.747530 
# 
# 
# High freq. dielectric constant tensor:
#      x y z
#    x 1.795260 0.000000 -0.004650 
#    y 0.000000 1.757640 0.000000 
#    z -0.004650 0.000000 1.795550 
# 
# From -- ./inp_files/84913.got.cif
#   From: 2010.06.25/outbox.cif.g09.slc.cpg/sg10_43_cif.got.tgz:84913.got - 2010.06.27 22:07:45.
