data_PCOD8064680
_publ_section_title
;
Structure prediction by ZEFSAII (Michael W. Deem and Ramdas Pophale) SiO2 
 PCOD8064680
Probable space group: P 2/M
;
_chemical_formula_sum "Si O2"
_cell_formula_units_Z 32
_cell_length_a 21.943335
_cell_length_b 8.919696
_cell_length_c 14.337164
_cell_angle_alpha 90.000000
_cell_angle_beta 142.865143
_cell_angle_gamma 90.000000
_cell_volume 1694.073125
_symmetry_space_group_name_H-M "P 2/M"
_symmetry_group_IT_number 10
_symmetry_cell_setting 'monoclinic'
loop_
_space_group_symop_operation_xyz
x,y,z
-x,y,-z
-x,-y,-z
x,-y,z
loop_
_atom_site_type_symbol
_atom_site_label
_atom_site_fract_x
_atom_site_fract_y
_atom_site_fract_z
Si Si1 0.258971 0.327089 0.029756
Si Si2 0.072731 0.672592 0.935068
Si Si3 0.611624 0.825481 0.660624
Si Si4 0.724409 0.675991 0.329017
Si Si5 0.467213 0.164400 0.853916
Si Si6 0.204022 0.828326 0.241219
Si Si7 0.685457 0.822679 0.085568
Si Si8 0.865147 0.826274 0.641495
O O1 0.281361 0.500000 0.037729
O O2 0.152843 0.301958 0.950758
O O3 0.250139 0.240688 0.921279
O O4 0.350008 0.262829 0.202500
O O5 0.039171 0.500000 0.901808
O O6 0.978863 0.777297 0.798911
O O7 0.121753 0.721522 0.092742
O O8 0.500000 0.766998 0.500000
O O9 0.683895 0.793398 0.660218
O O10 0.609812 0.000000 0.684837
O O11 0.726742 0.500000 0.318184
O O12 0.625160 0.720658 0.268178
O O13 0.726318 0.751555 0.230457
O O14 0.822552 0.729080 0.504526
O O15 0.431957 0.000000 0.774220
O O16 0.500000 0.148623 0.000000
O O17 0.567466 0.219966 0.922041
O O18 0.202896 0.796571 0.349920
O O19 0.173746 0.000000 0.182360
O O20 0.698624 0.000000 0.110003
O O21 0.863529 0.000000 0.611281
#
# Coordination Sequence:
#
# PCOD8064680 Si02
#       8
#     4   4   4   4   4   4   4   4
#     4  10  21  36  55  80 109 141 178 223 273 323
#     4  10  21  37  56  79 107 137 174 223 275 325
#     4   9  18  34  55  80 111 146 182 218 259 313
#     4  11  22  35  53  80 113 143 176 222 271 317
#     4   8  16  32  52  74 102 137 175 213 254 304
#     4   9  19  35  55  79 106 139 179 219 262 317
#     4  10  20  36  58  80 106 144 185 221 260 315
#     4  11  22  36  55  78 107 142 180 224 271 319
#
# _framework density 18.889385999999998
#
# number of rings (size 3 to 8) (size 9 to 14) (size 15 to 20)
#    0.000    2.250    0.000    3.750    0.000    8.000 
#    0.000    3.125    0.000    3.750    0.000    0.000 
#    0.000    0.000    0.000    0.000    0.000    0.000 
#
# Total GULP energy -396847.941203 kJ/mol
# GULP energy per Si atom -12401.498163 kJ/mol
# Density = 1.884639 g / cm^3
# Si number density = 18.889386 Si / 1000 Ang^3
#
#
#
# Elastic Constant Matrix: (Units=GPa)
#
#
# Indices 1 2 3 4 5 6 
#
# 1 80.5962 44.2882 42.4754 0.0000 -10.6613 0.0000
# 2 44.2882 99.6016 42.8910 0.0000 -7.2320 0.0000
# 3 42.4754 42.8910 94.2075 0.0000 2.6446 0.0000
# 4 0.0000 0.0000 0.0000 24.3502 0.0000 -5.1273
# 5 -10.6613 -7.2320 2.6446 0.0000 24.0107 0.0000
# 6 0.0000 0.0000 0.0000 -5.1273 0.0000 24.7224
#
#
#
# Elastic Compliance Matrix: (Units=1/GPa)
#
#
# Indices 1 2 3 4 5 6 
#
# 1 0.020008 -0.005391 -0.006792 0.000000 0.008009 0.000000
# 2 -0.005391 0.014422 -0.004203 0.000000 0.002413 0.000000
# 3 -0.006792 -0.004203 0.015760 0.000000 -0.006018 0.000000
# 4 0.000000 0.000000 0.000000 0.042943 0.000000 0.008906
# 5 0.008009 0.002413 -0.006018 0.000000 0.046594 0.000000
# 6 0.000000 0.000000 0.000000 0.008906 0.000000 0.042296
#
#
# Mechanical properties :
#
#
# Convention : Reuss Voigt Hill
#
# Bulk Modulus (GPa) = 57.40941 59.30162 58.35552
# Shear Modulus (GPa) = 22.66530 24.26670 23.46600
#
# Velocity S-wave (km/s) = 3.46771 3.58812 3.52843
# Velocity P-wave (km/s) = 6.81849 6.97341 6.89638
#
# Compressibility (1/GPa) = 0.01741875
#
# Stress axis : x y z
#
# Youngs Moduli (GPa) = 49.97879 69.33692 63.45258
#
# Poissons Ratio (x) = 0.37377 0.43096
# Poissons Ratio (y) = 0.26942 0.26672
# Poissons Ratio (z) = 0.33945 0.29146
#
# Static dielectric constant tensor:
#      x y z
#    x 3.614170 0.000000 0.136890 
#    y 0.000000 3.487890 0.000000 
#    z 0.136890 0.000000 3.316610 
# 
# 
# High freq. dielectric constant tensor:
#      x y z
#    x 1.732910 0.000000 0.003800 
#    y 0.000000 1.738220 0.000000 
#    z 0.003800 0.000000 1.721830 
# 
# From -- ./inp_files/71571.got.cif
#   From: 2010.06.25/outbox.cif.g09.slc.cpg/sg10_36_cif.got.tgz:71571.got - 2010.06.27 22:07:45.
