data_PCOD8064790
_publ_section_title
;
Structure prediction by ZEFSAII (Michael W. Deem and Ramdas Pophale) SiO2 
 PCOD8064790
Probable space group: P 2/M
;
_chemical_formula_sum "Si O2"
_cell_formula_units_Z 32
_cell_length_a 15.131533
_cell_length_b 9.125569
_cell_length_c 12.008250
_cell_angle_alpha 90.000000
_cell_angle_beta 86.423426
_cell_angle_gamma 90.000000
_cell_volume 1654.915833
_symmetry_space_group_name_H-M "P 2/M"
_symmetry_group_IT_number 10
_symmetry_cell_setting 'monoclinic'
loop_
_space_group_symop_operation_xyz
x,y,z
-x,y,-z
-x,-y,-z
x,-y,z
loop_
_atom_site_type_symbol
_atom_site_label
_atom_site_fract_x
_atom_site_fract_y
_atom_site_fract_z
Si Si1 0.748385 0.831090 0.081293
Si Si2 0.970584 0.170169 0.322429
Si Si3 0.927718 0.327857 0.097548
Si Si4 0.861174 0.830030 0.546642
Si Si5 0.685721 0.327315 0.532363
Si Si6 0.352996 0.165952 0.684061
Si Si7 0.556004 0.168787 0.699070
Si Si8 0.409436 0.827669 0.055302
O O1 0.836442 0.737981 0.060440
O O2 0.712453 0.814561 0.208357
O O3 0.769724 0.000000 0.051977
O O4 0.676234 0.764178 0.001226
O O5 0.067962 0.203466 0.362665
O O6 0.955413 0.264463 0.214420
O O7 0.899274 0.213005 0.422444
O O8 0.960430 0.000000 0.292080
O O9 0.916930 0.500000 0.112291
O O10 0.000000 0.285659 0.000000
O O11 0.774610 0.735765 0.581143
O O12 0.835054 0.000000 0.549622
O O13 0.687907 0.500000 0.539754
O O14 0.680195 0.278251 0.405437
O O15 0.599157 0.269434 0.602172
O O16 0.452137 0.203320 0.714800
O O17 0.348114 0.000000 0.637721
O O18 0.599849 0.207588 0.813817
O O19 0.572702 0.000000 0.666046
O O20 0.413080 0.000000 0.030565
O O21 0.500000 0.756865 0.000000
#
# Coordination Sequence:
#
# PCOD8064790 Si02
#       8
#     4   4   4   4   4   4   4   4
#     4  10  20  36  63  92 113 142 188 242 291 340
#     4   9  19  38  65  89 108 137 185 241 289 337
#     4  11  25  41  55  79 120 162 193 229 279 338
#     4   9  19  38  62  87 112 139 179 236 294 342
#     4  12  25  36  50  79 119 156 191 228 272 335
#     4  10  20  36  59  84 111 145 188 236 288 339
#     4  10  20  36  59  83 111 148 187 234 288 337
#     4   9  16  33  61  90 113 136 181 240 289 335
#
# _framework density 19.33633
#
# number of rings (size 3 to 8) (size 9 to 14) (size 15 to 20)
#    0.000    2.000    1.250    3.375    0.000    8.500 
#    0.000    5.625    0.000    0.750    0.000    0.000 
#    0.000    0.000    0.000    0.000    0.000    0.000 
#
# Total GULP energy -396898.353591 kJ/mol
# GULP energy per Si atom -12403.073550 kJ/mol
# Density = 1.929232 g / cm^3
# Si number density = 19.336330 Si / 1000 Ang^3
#
#
#
# Elastic Constant Matrix: (Units=GPa)
#
#
# Indices 1 2 3 4 5 6 
#
# 1 131.6611 55.2640 47.4289 0.0000 3.7277 0.0000
# 2 55.2640 76.0938 28.6350 0.0000 0.6967 0.0000
# 3 47.4289 28.6350 65.9670 0.0000 14.3059 0.0000
# 4 0.0000 0.0000 0.0000 9.5017 0.0000 -6.9656
# 5 3.7277 0.6967 14.3059 0.0000 30.3727 0.0000
# 6 0.0000 0.0000 0.0000 -6.9656 0.0000 3.9975
#
#
#
# Elastic Compliance Matrix: (Units=1/GPa)
#
#
# Indices 1 2 3 4 5 6 
#
# 1 0.012787 -0.006818 -0.006602 0.000000 0.001697 0.000000
# 2 -0.006818 0.019623 -0.004121 0.000000 0.002328 0.000000
# 3 -0.006602 -0.004121 0.023944 0.000000 -0.010373 0.000000
# 4 0.000000 0.000000 0.000000 -0.379401 0.000000 -0.661101
# 5 0.001697 0.002328 -0.010373 0.000000 0.037549 0.000000
# 6 0.000000 0.000000 0.000000 -0.661101 0.000000 -0.901803
#
#
# Mechanical properties :
#
#
# Convention : Reuss Voigt Hill
#
# Bulk Modulus (GPa) = 47.00886 59.59754 53.30320
# Shear Modulus (GPa) = -4.36632 18.26730 6.95049
#
# Velocity S-wave (km/s) = -1.50433 3.07695 1.89798
# Velocity P-wave (km/s) = 4.62024 6.59636 5.69467
#
# Compressibility (1/GPa) = 0.02127258
#
# Stress axis : x y z
#
# Youngs Moduli (GPa) = 78.20191 50.96153 41.76377
#
# Poissons Ratio (x) = 0.34746 0.27574
# Poissons Ratio (y) = 0.53318 0.17209
# Poissons Ratio (z) = 0.51631 0.20999
#
# Static dielectric constant tensor:
#      x y z
#    x 3.694770 0.000000 0.107310 
#    y 0.000000 3.247830 0.000000 
#    z 0.107310 0.000000 3.500750 
# 
# 
# High freq. dielectric constant tensor:
#      x y z
#    x 1.767880 0.000000 0.006990 
#    y 0.000000 1.722370 0.000000 
#    z 0.006990 0.000000 1.756210 
# 
# From -- ./inp_files/49950.got.cif
#   From: 2010.06.25/outbox.cif.g09.slc.cpg/sg10_25_cif.got.tgz:49950.got - 2010.06.27 22:07:45.
