data_PCOD8064102
_publ_section_title
;
Structure prediction by ZEFSAII (Michael W. Deem and Ramdas Pophale) SiO2 
 PCOD8064102
Probable space group: P 2/M
;
_chemical_formula_sum "Si O2"
_cell_formula_units_Z 32
_cell_length_a 11.929316
_cell_length_b 8.915398
_cell_length_c 28.112549
_cell_angle_alpha 90.000000
_cell_angle_beta 37.182134
_cell_angle_gamma 90.000000
_cell_volume 1806.947529
_symmetry_space_group_name_H-M "P 2/M"
_symmetry_group_IT_number 10
_symmetry_cell_setting 'monoclinic'
loop_
_space_group_symop_operation_xyz
x,y,z
-x,y,-z
-x,-y,-z
x,-y,z
loop_
_atom_site_type_symbol
_atom_site_label
_atom_site_fract_x
_atom_site_fract_y
_atom_site_fract_z
Si Si1 0.555512 0.177255 0.126306
Si Si2 0.217463 0.177832 0.858218
Si Si3 0.804051 0.822286 0.395823
Si Si4 0.824410 0.674834 0.761993
Si Si5 0.319427 0.823423 0.722146
Si Si6 0.514952 0.177415 0.567121
Si Si7 0.163639 0.325558 0.034955
Si Si8 0.048240 0.328663 0.177858
O O1 0.664396 0.229045 0.136664
O O2 0.347521 0.235828 0.201535
O O3 0.555134 0.000000 0.120806
O O4 0.652193 0.249750 0.047802
O O5 0.326427 0.237264 0.773970
O O6 0.016176 0.252677 0.928804
O O7 0.187596 0.000000 0.867047
O O8 0.659989 0.765445 0.404569
O O9 0.711993 0.774178 0.477924
O O10 0.993561 0.732625 0.326349
O O11 0.842993 0.000000 0.379900
O O12 0.799788 0.500000 0.759668
O O13 0.831059 0.706785 0.816337
O O14 0.488205 0.765197 0.630992
O O15 0.128561 0.778188 0.761494
O O16 0.326335 0.000000 0.721765
O O17 0.505272 0.000000 0.567884
O O18 0.164469 0.500000 0.022055
O O19 0.169285 0.297250 0.089761
O O20 0.977501 0.500000 0.202007
#
# Coordination Sequence:
#
# PCOD8064102 Si02
#       8
#     4   4   4   4   4   4   4   4
#     4  11  23  37  51  70  97 131 168 207 247 286
#     4   9  19  34  53  76 100 125 162 209 247 281
#     4   9  16  29  48  74 104 132 159 194 240 289
#     4  11  22  35  50  70 100 135 168 201 239 292
#     4   9  15  28  52  77  99 127 161 198 240 290
#     4   8  14  25  48  78 104 127 157 195 239 289
#     4  10  20  35  55  76  98 125 159 203 251 297
#     4   9  19  33  48  71 102 130 157 197 248 291
#
# _framework density 17.709423999999999
#
# number of rings (size 3 to 8) (size 9 to 14) (size 15 to 20)
#    0.000    2.500    1.250    2.250    0.000    4.000 
#    0.000    4.375    0.000    0.750    0.000    5.250 
#    0.000    0.000    0.000    0.000    0.000    0.000 
#
# Total GULP energy -396642.032985 kJ/mol
# GULP energy per Si atom -12395.063531 kJ/mol
# Density = 1.766912 g / cm^3
# Si number density = 17.709424 Si / 1000 Ang^3
#
#
#
# Elastic Constant Matrix: (Units=GPa)
#
#
# Indices 1 2 3 4 5 6 
#
# 1 47.9327 18.9539 41.3054 0.0000 -3.3885 0.0000
# 2 18.9539 30.4815 24.3526 0.0000 0.6191 0.0000
# 3 41.3054 24.3526 131.2465 0.0000 5.8699 0.0000
# 4 0.0000 0.0000 0.0000 4.8047 0.0000 7.5967
# 5 -3.3885 0.6191 5.8699 0.0000 24.1396 0.0000
# 6 0.0000 0.0000 0.0000 7.5967 0.0000 16.6395
#
#
#
# Elastic Compliance Matrix: (Units=1/GPa)
#
#
# Indices 1 2 3 4 5 6 
#
# 1 0.034526 -0.014882 -0.008430 0.000000 0.007278 0.000000
# 2 -0.014882 0.044944 -0.003550 0.000000 -0.002378 0.000000
# 3 -0.008430 -0.003550 0.011101 0.000000 -0.003792 0.000000
# 4 0.000000 0.000000 0.000000 0.748261 0.000000 -0.341616
# 5 0.007278 -0.002378 -0.003792 0.000000 0.043430 0.000000
# 6 0.000000 0.000000 0.000000 -0.341616 0.000000 0.216061
#
#
# Mechanical properties :
#
#
# Convention : Reuss Voigt Hill
#
# Bulk Modulus (GPa) = 27.13808 42.09827 34.61817
# Shear Modulus (GPa) = 4.29432 17.45335 10.87383
#
# Velocity S-wave (km/s) = 1.55889 3.14274 2.48062
# Velocity P-wave (km/s) = 4.31249 6.08213 5.27209
#
# Compressibility (1/GPa) = 0.03684860
#
# Stress axis : x y z
#
# Youngs Moduli (GPa) = 28.96340 22.24967 90.08553
#
# Poissons Ratio (x) = 0.33111 0.75944
# Poissons Ratio (y) = 0.43102 0.31976
# Poissons Ratio (z) = 0.24417 0.07898
#
# Static dielectric constant tensor:
#      x y z
#    x 3.279940 0.000000 0.432480 
#    y 0.000000 3.154650 0.000000 
#    z 0.432480 0.000000 3.628260 
# 
# 
# High freq. dielectric constant tensor:
#      x y z
#    x 1.661290 0.000000 0.023140 
#    y 0.000000 1.674020 0.000000 
#    z 0.023140 0.000000 1.691340 
# 
# From -- ./inp_files/54850.got.cif
#   From: 2010.06.25/outbox.cif.g09.slc.cpg/sg10_28_cif.got.tgz:54850.got - 2010.06.27 22:07:45.
