data_PCOD8064906
_publ_section_title
;
Structure prediction by ZEFSAII (Michael W. Deem and Ramdas Pophale) SiO2 
 PCOD8064906
Probable space group: P 2/M
;
_chemical_formula_sum "Si O2"
_cell_formula_units_Z 28
_cell_length_a 22.324044
_cell_length_b 8.791965
_cell_length_c 8.918449
_cell_angle_alpha 90.000000
_cell_angle_beta 53.148099
_cell_angle_gamma 90.000000
_cell_volume 1400.684801
_symmetry_space_group_name_H-M "P 2/M"
_symmetry_group_IT_number 10
_symmetry_cell_setting 'monoclinic'
loop_
_space_group_symop_operation_xyz
x,y,z
-x,y,-z
-x,-y,-z
x,-y,z
loop_
_atom_site_type_symbol
_atom_site_label
_atom_site_fract_x
_atom_site_fract_y
_atom_site_fract_z
Si Si1 0.426373 0.319141 0.028823
Si Si2 0.579618 0.325846 0.303366
Si Si3 0.138884 0.175789 0.118536
Si Si4 0.138690 0.822098 0.463906
Si Si5 0.001343 0.676801 0.172077
Si Si6 0.289342 0.825020 0.718720
Si Si7 0.279095 0.320683 0.415229
O O1 0.428399 0.500000 0.034482
O O2 0.352660 0.254212 0.222139
O O3 0.500000 0.251869 0.000000
O O4 0.426012 0.264563 0.857682
O O5 0.500000 0.311803 0.500000
O O6 0.608333 0.500000 0.264202
O O7 0.635624 0.219149 0.308553
O O8 0.138714 0.226504 0.291043
O O9 0.082487 0.282187 0.113078
O O10 0.114806 0.000000 0.136605
O O11 0.221096 0.206426 0.932562
O O12 0.059706 0.776816 0.651944
O O13 0.204934 0.738513 0.448711
O O14 0.151266 0.000000 0.464892
O O15 0.984245 0.500000 0.224917
O O16 0.000000 0.718734 0.000000
O O17 0.279413 0.724121 0.587333
O O18 0.293274 0.000000 0.663888
O O19 0.278903 0.500000 0.403720
#
# Coordination Sequence:
#
# PCOD8064906 Si02
#       7
#     4   4   4   4   4   4   4
#     4   9  18  34  57  85 115 148 188 236 288 338
#     4  10  20  36  60  87 115 150 193 239 287 340
#     4  10  23  41  60  84 115 153 192 233 285 342
#     4  11  23  40  61  85 116 151 189 233 285 343
#     4  11  24  40  60  88 118 149 190 237 282 333
#     4  11  23  39  59  84 117 154 192 235 285 340
#     4  11  22  37  59  86 116 150 192 238 284 338
#
# _framework density 19.990221999999999
#
# number of rings (size 3 to 8) (size 9 to 14) (size 15 to 20)
#    0.000    1.571    0.000    4.714    0.000   10.000 
#    0.000    0.714    0.000    3.000    0.000    0.000 
#    0.000    0.000    0.000    0.000    0.000    0.000 
#
# Total GULP energy -347371.808644 kJ/mol
# GULP energy per Si atom -12406.136023 kJ/mol
# Density = 1.994472 g / cm^3
# Si number density = 19.990222 Si / 1000 Ang^3
#
#
#
# Elastic Constant Matrix: (Units=GPa)
#
#
# Indices 1 2 3 4 5 6 
#
# 1 129.6420 28.4317 38.2845 0.0000 9.7753 0.0000
# 2 28.4317 37.7186 27.4132 0.0000 1.5616 0.0000
# 3 38.2845 27.4132 116.3142 0.0000 13.5394 0.0000
# 4 0.0000 0.0000 0.0000 29.5108 0.0000 0.2795
# 5 9.7753 1.5616 13.5394 0.0000 41.1622 0.0000
# 6 0.0000 0.0000 0.0000 0.2795 0.0000 29.4107
#
#
#
# Elastic Compliance Matrix: (Units=1/GPa)
#
#
# Indices 1 2 3 4 5 6 
#
# 1 0.009618 -0.006052 -0.001560 0.000000 -0.001541 0.000000
# 2 -0.006052 0.035869 -0.006728 0.000000 0.002290 0.000000
# 3 -0.001560 -0.006728 0.011047 0.000000 -0.003008 0.000000
# 4 0.000000 0.000000 0.000000 0.033889 0.000000 -0.000322
# 5 -0.001541 0.002290 -0.003008 0.000000 0.025563 0.000000
# 6 0.000000 0.000000 0.000000 -0.000322 0.000000 0.034004
#
#
# Mechanical properties :
#
#
# Convention : Reuss Voigt Hill
#
# Bulk Modulus (GPa) = 35.90253 52.43707 44.16980
# Shear Modulus (GPa) = 26.60216 32.65309 29.62763
#
# Velocity S-wave (km/s) = 3.65191 4.04598 3.85399
# Velocity P-wave (km/s) = 5.98172 6.93649 6.47673
#
# Compressibility (1/GPa) = 0.02785319
#
# Stress axis : x y z
#
# Youngs Moduli (GPa) = 103.97481 27.87895 90.52504
#
# Poissons Ratio (x) = 0.16873 0.14120
# Poissons Ratio (y) = 0.62928 0.60907
# Poissons Ratio (z) = 0.16218 0.18758
#
# Static dielectric constant tensor:
#      x y z
#    x 3.649230 0.000000 -0.043680 
#    y 0.000000 3.508250 0.000000 
#    z -0.043680 0.000000 3.796460 
# 
# 
# High freq. dielectric constant tensor:
#      x y z
#    x 1.796280 0.000000 0.001220 
#    y 0.000000 1.767170 0.000000 
#    z 0.001220 0.000000 1.800030 
# 
# From -- ./inp_files/34180.got.cif
#   From: 2010.06.25/outbox.cif.g09.slc.cpg/sg10_18_cif.got.tgz:34180.got - 2010.06.27 22:07:45.
