data_PCOD8064101
_publ_section_title
;
Structure prediction by ZEFSAII (Michael W. Deem and Ramdas Pophale) SiO2 
 PCOD8064101
Probable space group: P 2/M
;
_chemical_formula_sum "Si O2"
_cell_formula_units_Z 32
_cell_length_a 24.335907
_cell_length_b 9.005258
_cell_length_c 16.060504
_cell_angle_alpha 90.000000
_cell_angle_beta 28.579567
_cell_angle_gamma 90.000000
_cell_volume 1683.738792
_symmetry_space_group_name_H-M "P 2/M"
_symmetry_group_IT_number 10
_symmetry_cell_setting 'monoclinic'
loop_
_space_group_symop_operation_xyz
x,y,z
-x,y,-z
-x,-y,-z
x,-y,z
loop_
_atom_site_type_symbol
_atom_site_label
_atom_site_fract_x
_atom_site_fract_y
_atom_site_fract_z
Si Si1 0.499054 0.663838 0.410521
Si Si2 0.665721 0.173667 0.070697
Si Si3 0.902115 0.325217 0.347687
Si Si4 0.656133 0.678162 0.742522
Si Si5 0.115642 0.160422 0.797915
Si Si6 0.438985 0.823174 0.966822
Si Si7 0.760329 0.338681 0.233587
Si Si8 0.848032 0.674047 0.936223
O O1 0.500000 0.738666 0.500000
O O2 0.561285 0.500000 0.328407
O O3 0.558597 0.772681 0.267230
O O4 0.367784 0.639735 0.564355
O O5 0.681148 0.000000 0.061499
O O6 0.634290 0.215278 0.017752
O O7 0.784418 0.249100 0.942803
O O8 0.907596 0.500000 0.337975
O O9 0.786462 0.272693 0.548024
O O10 0.898237 0.273743 0.258289
O O11 0.019858 0.265834 0.234271
O O12 0.641518 0.500000 0.763191
O O13 0.630774 0.748265 0.865658
O O14 0.566550 0.748805 0.794721
O O15 0.200663 0.216570 0.754459
O O16 0.158330 0.000000 0.707281
O O17 0.000000 0.139699 0.000000
O O18 0.451568 0.000000 0.962989
O O19 0.823447 0.500000 0.158475
O O20 0.778409 0.285466 0.113777
O O21 0.847464 0.500000 0.919588
#
# Coordination Sequence:
#
# PCOD8064101 Si02
#       8
#     4   4   4   4   4   4   4   4
#     4  10  20  36  55  79 109 148 196 235 277 330
#     4  11  24  38  56  85 117 151 191 232 281 341
#     4  10  22  39  60  86 114 148 193 239 287 338
#     4  10  21  39  65  93 113 139 185 238 285 336
#     4  11  23  35  51  80 116 153 193 233 278 335
#     4  10  22  41  62  86 118 152 180 222 288 350
#     4  10  20  35  55  76 107 152 196 238 281 329
#     4  10  20  38  60  80 111 154 194 235 281 330
#
# _framework density 19.005324000000002
#
# number of rings (size 3 to 8) (size 9 to 14) (size 15 to 20)
#    0.000    1.750    2.500    2.250    1.750    5.250 
#    0.000    0.625    0.000    3.750    0.000    0.000 
#    0.000    0.000    0.000    0.000    0.000    0.000 
#
# Total GULP energy -396585.840095 kJ/mol
# GULP energy per Si atom -12393.307503 kJ/mol
# Density = 1.896207 g / cm^3
# Si number density = 19.005324 Si / 1000 Ang^3
#
#
#
# Elastic Constant Matrix: (Units=GPa)
#
#
# Indices 1 2 3 4 5 6 
#
# 1 137.8602 46.8456 48.0881 0.0000 -4.4542 0.0000
# 2 46.8456 49.8847 37.6320 0.0000 -4.0434 0.0000
# 3 48.0881 37.6320 97.3352 0.0000 -11.6838 0.0000
# 4 0.0000 0.0000 0.0000 18.0797 0.0000 0.0808
# 5 -4.4542 -4.0434 -11.6838 0.0000 24.0994 0.0000
# 6 0.0000 0.0000 0.0000 0.0808 0.0000 33.3406
#
#
#
# Elastic Compliance Matrix: (Units=1/GPa)
#
#
# Indices 1 2 3 4 5 6 
#
# 1 0.010932 -0.008735 -0.002078 0.000000 -0.000453 0.000000
# 2 -0.008735 0.035288 -0.009355 0.000000 -0.000229 0.000000
# 3 -0.002078 -0.009355 0.015590 0.000000 0.005605 0.000000
# 4 0.000000 0.000000 0.000000 0.055311 0.000000 -0.000134
# 5 -0.000453 -0.000229 0.005605 0.000000 0.044090 0.000000
# 6 0.000000 0.000000 0.000000 -0.000134 0.000000 0.029994
#
#
# Mechanical properties :
#
#
# Convention : Reuss Voigt Hill
#
# Bulk Modulus (GPa) = 46.56901 61.13462 53.85182
# Shear Modulus (GPa) = 20.94681 25.27157 23.10919
#
# Velocity S-wave (km/s) = 3.32347 3.65048 3.49081
# Velocity P-wave (km/s) = 6.26767 7.07141 6.68164
#
# Compressibility (1/GPa) = 0.02147351
#
# Stress axis : x y z
#
# Youngs Moduli (GPa) = 91.47232 28.33834 64.14330
#
# Poissons Ratio (x) = 0.24754 0.13330
# Poissons Ratio (y) = 0.79903 0.60006
# Poissons Ratio (z) = 0.19009 0.26511
#
# Static dielectric constant tensor:
#      x y z
#    x 3.564520 0.000000 -0.217750 
#    y 0.000000 4.025520 0.000000 
#    z -0.217750 0.000000 3.606040 
# 
# 
# High freq. dielectric constant tensor:
#      x y z
#    x 1.740740 0.000000 -0.013590 
#    y 0.000000 1.740010 0.000000 
#    z -0.013590 0.000000 1.731200 
# 
# From -- ./inp_files/71478.got.cif
#   From: 2010.06.25/outbox.cif.g09.slc.cpg/sg10_36_cif.got.tgz:71478.got - 2010.06.27 22:07:45.
