data_PCOD8064866
_publ_section_title
;
Structure prediction by ZEFSAII (Michael W. Deem and Ramdas Pophale) SiO2 
 PCOD8064866
Probable space group: P 2/M
;
_chemical_formula_sum "Si O2"
_cell_formula_units_Z 20
_cell_length_a 24.025729
_cell_length_b 8.982221
_cell_length_c 7.750787
_cell_angle_alpha 90.000000
_cell_angle_beta 143.607368
_cell_angle_gamma 90.000000
_cell_volume 992.411334
_symmetry_space_group_name_H-M "P 2/M"
_symmetry_group_IT_number 10
_symmetry_cell_setting 'monoclinic'
loop_
_space_group_symop_operation_xyz
x,y,z
-x,y,-z
-x,-y,-z
x,-y,z
loop_
_atom_site_type_symbol
_atom_site_label
_atom_site_fract_x
_atom_site_fract_y
_atom_site_fract_z
Si Si1 0.101771 0.175565 0.694684
Si Si2 0.095262 0.670091 0.325103
Si Si3 0.719598 0.326299 0.736922
Si Si4 0.609233 0.172986 0.766490
Si Si5 0.294450 0.667981 0.683588
O O1 0.121044 0.225300 0.548389
O O2 0.000000 0.231958 0.500000
O O3 0.111470 0.000000 0.733609
O O4 0.178924 0.249628 0.009098
O O5 0.081482 0.500000 0.353611
O O6 0.181604 0.684304 0.408736
O O7 0.000000 0.729539 0.000000
O O8 0.733291 0.500000 0.808027
O O9 0.651845 0.261139 0.712649
O O10 0.674698 0.297543 0.436077
O O11 0.500000 0.209304 0.500000
O O12 0.629905 0.000000 0.788957
O O13 0.654242 0.219955 0.060222
O O14 0.323428 0.500000 0.807722
#
# Coordination Sequence:
#
# PCOD8064866 Si02
#       5
#     4   4   4   4   4
#     4  11  23  37  56  88 128 169 211 255 310 372
#     4  10  20  36  59  88 123 164 210 257 308 368
#     4  11  23  41  66  94 126 164 210 262 315 374
#     4  11  25  44  66  93 127 167 209 260 322 380
#     4  10  22  40  64  94 125 164 210 260 315 369
#
# _framework density 20.152934999999999
#
# number of rings (size 3 to 8) (size 9 to 14) (size 15 to 20)
#    0.000    1.400    2.000    3.000    0.000    7.600 
#    0.000    4.000    0.000    0.000    0.000    0.000 
#    0.000    0.000    0.000    0.000    0.000    0.000 
#
# Total GULP energy -248090.513937 kJ/mol
# GULP energy per Si atom -12404.525697 kJ/mol
# Density = 2.010707 g / cm^3
# Si number density = 20.152935 Si / 1000 Ang^3
#
#
#
# Elastic Constant Matrix: (Units=GPa)
#
#
# Indices 1 2 3 4 5 6 
#
# 1 107.1225 50.3890 40.2180 0.0000 -10.3918 0.0000
# 2 50.3890 89.8698 40.3033 0.0000 2.8667 0.0000
# 3 40.2180 40.3033 99.9170 0.0000 0.7563 0.0000
# 4 0.0000 0.0000 0.0000 29.0725 0.0000 4.5136
# 5 -10.3918 2.8667 0.7563 0.0000 30.8011 0.0000
# 6 0.0000 0.0000 0.0000 4.5136 0.0000 5.1971
#
#
#
# Elastic Compliance Matrix: (Units=1/GPa)
#
#
# Indices 1 2 3 4 5 6 
#
# 1 0.014189 -0.006777 -0.003019 0.000000 0.005492 0.000000
# 2 -0.006777 0.016861 -0.004045 0.000000 -0.003756 0.000000
# 3 -0.003019 -0.004045 0.012862 0.000000 -0.000958 0.000000
# 4 0.000000 0.000000 0.000000 0.039757 0.000000 -0.034528
# 5 0.005492 -0.003756 -0.000958 0.000000 0.034692 0.000000
# 6 0.000000 0.000000 0.000000 -0.034528 0.000000 0.222402
#
#
# Mechanical properties :
#
#
# Convention : Reuss Voigt Hill
#
# Bulk Modulus (GPa) = 61.61337 62.08107 61.84722
# Shear Modulus (GPa) = 13.37412 24.08074 18.72743
#
# Velocity S-wave (km/s) = 2.57890 3.46048 3.05169
# Velocity P-wave (km/s) = 6.28545 6.84386 6.57059
#
# Compressibility (1/GPa) = 0.01623024
#
# Stress axis : x y z
#
# Youngs Moduli (GPa) = 70.47612 59.30954 77.74564
#
# Poissons Ratio (x) = 0.40193 0.23474
# Poissons Ratio (y) = 0.47761 0.31447
# Poissons Ratio (z) = 0.21279 0.23990
#
# Static dielectric constant tensor:
#      x y z
#    x 3.703270 0.000000 0.048430 
#    y 0.000000 3.644980 0.000000 
#    z 0.048430 0.000000 3.695510 
# 
# 
# High freq. dielectric constant tensor:
#      x y z
#    x 1.793910 0.000000 -0.000690 
#    y 0.000000 1.789280 0.000000 
#    z -0.000690 0.000000 1.787920 
# 
# From -- ./inp_files/26770.got.cif
#   From: 2010.06.25/outbox.cif.g09.slc.cpg/sg10_14_cif.got.tgz:26770.got - 2010.06.27 22:07:45.
