data_PCOD8064506
_publ_section_title
;
Structure prediction by ZEFSAII (Michael W. Deem and Ramdas Pophale) SiO2 
 PCOD8064506
Probable space group: P 2/M
;
_chemical_formula_sum "Si O2"
_cell_formula_units_Z 20
_cell_length_a 20.389854
_cell_length_b 8.756748
_cell_length_c 13.764907
_cell_angle_alpha 90.000000
_cell_angle_beta 155.817809
_cell_angle_gamma 90.000000
_cell_volume 1006.774207
_symmetry_space_group_name_H-M "P 2/M"
_symmetry_group_IT_number 10
_symmetry_cell_setting 'monoclinic'
loop_
_space_group_symop_operation_xyz
x,y,z
-x,y,-z
-x,-y,-z
x,-y,z
loop_
_atom_site_type_symbol
_atom_site_label
_atom_site_fract_x
_atom_site_fract_y
_atom_site_fract_z
Si Si1 0.827016 0.680613 0.304352
Si Si2 0.485443 0.819780 0.194050
Si Si3 0.968918 0.180598 0.063762
Si Si4 0.385717 0.180970 0.426656
Si Si5 0.766806 0.180515 0.431975
O O1 0.825593 0.500000 0.302216
O O2 0.785739 0.738601 0.355416
O O3 0.000000 0.741261 0.500000
O O4 0.687608 0.741039 0.045404
O O5 0.572550 0.758018 0.409298
O O6 0.596666 0.778334 0.251756
O O7 0.457995 0.000000 0.161898
O O8 0.091588 0.246459 0.308547
O O9 0.995682 0.000000 0.095246
O O10 0.789264 0.228163 0.847296
O O11 0.000000 0.251860 0.000000
O O12 0.500000 0.254048 0.500000
O O13 0.402020 0.000000 0.452225
O O14 0.781135 0.000000 0.435249
#
# Coordination Sequence:
#
# PCOD8064506 Si02
#       5
#     4   4   4   4   4
#     4  11  26  43  56  75 108 149 192 236 282 330
#     4  10  20  36  59  88 116 142 183 231 273 327
#     4   9  15  28  50  81 118 145 169 213 272 327
#     4   9  17  28  48  83 120 147 173 213 269 329
#     4  10  20  35  60  89 114 143 183 229 274 328
#
# _framework density 19.865427
#
# number of rings (size 3 to 8) (size 9 to 14) (size 15 to 20)
#    0.000    2.200    2.000    1.200    2.800    4.800 
#    0.000    0.000    0.000    2.400    0.000    0.000 
#    0.000    0.000    0.000    0.000    0.000    0.000 
#
# Total GULP energy -247933.862723 kJ/mol
# GULP energy per Si atom -12396.693136 kJ/mol
# Density = 1.982021 g / cm^3
# Si number density = 19.865427 Si / 1000 Ang^3
#
#
#
# Elastic Constant Matrix: (Units=GPa)
#
#
# Indices 1 2 3 4 5 6 
#
# 1 98.5958 20.4700 31.6801 0.0000 14.8128 0.0000
# 2 20.4700 29.6469 25.0890 0.0000 4.9917 0.0000
# 3 31.6801 25.0890 136.6917 0.0000 10.3467 0.0000
# 4 0.0000 0.0000 0.0000 11.5468 0.0000 13.1698
# 5 14.8128 4.9917 10.3467 0.0000 38.6661 0.0000
# 6 0.0000 0.0000 0.0000 13.1698 0.0000 -0.7836
#
#
#
# Elastic Compliance Matrix: (Units=1/GPa)
#
#
# Indices 1 2 3 4 5 6 
#
# 1 0.012551 -0.006907 -0.001372 0.000000 -0.003549 0.000000
# 2 -0.006907 0.044140 -0.006400 0.000000 -0.001340 0.000000
# 3 -0.001372 -0.006400 0.008886 0.000000 -0.001026 0.000000
# 4 0.000000 0.000000 0.000000 0.004294 0.000000 0.072167
# 5 -0.003549 -0.001340 -0.001026 0.000000 0.027670 0.000000
# 6 0.000000 0.000000 0.000000 0.072167 0.000000 -0.063273
#
#
# Mechanical properties :
#
#
# Convention : Reuss Voigt Hill
#
# Bulk Modulus (GPa) = 27.60928 46.60141 37.10534
# Shear Modulus (GPa) = 66.05213 22.39888 44.22550
#
# Velocity S-wave (km/s) = 5.77252 3.36152 4.72344
# Velocity P-wave (km/s) = 7.63922 6.21095 6.96181
#
# Compressibility (1/GPa) = 0.03621971
#
# Stress axis : x y z
#
# Youngs Moduli (GPa) = 79.67780 22.65499 112.53557
#
# Poissons Ratio (x) = 0.15647 0.15445
# Poissons Ratio (y) = 0.55030 0.72018
# Poissons Ratio (z) = 0.10935 0.14498
#
# Static dielectric constant tensor:
#      x y z
#    x 3.807920 0.000000 0.017760 
#    y 0.000000 3.053610 0.000000 
#    z 0.017760 0.000000 3.986760 
# 
# 
# High freq. dielectric constant tensor:
#      x y z
#    x 1.784440 0.000000 0.000410 
#    y 0.000000 1.713370 0.000000 
#    z 0.000410 0.000000 1.796810 
# 
# From -- ./inp_files/22155.got.cif
#   From: 2010.06.25/outbox.cif.g09.slc.cpg/sg10_12_cif.got.tgz:22155.got - 2010.06.27 22:07:45.
