data_PCOD8064850
_publ_section_title
;
Structure prediction by ZEFSAII (Michael W. Deem and Ramdas Pophale) SiO2 
 PCOD8064850
Probable space group: P 2/M
;
_chemical_formula_sum "Si O2"
_cell_formula_units_Z 28
_cell_length_a 15.109305
_cell_length_b 13.712187
_cell_length_c 8.783644
_cell_angle_alpha 90.000000
_cell_angle_beta 130.683314
_cell_angle_gamma 90.000000
_cell_volume 1380.005646
_symmetry_space_group_name_H-M "P 2/M"
_symmetry_group_IT_number 10
_symmetry_cell_setting 'monoclinic'
loop_
_space_group_symop_operation_xyz
x,y,z
-x,y,-z
-x,-y,-z
x,-y,z
loop_
_atom_site_type_symbol
_atom_site_label
_atom_site_fract_x
_atom_site_fract_y
_atom_site_fract_z
Si Si1 0.270256 0.757254 0.347772
Si Si2 0.746629 0.895027 0.240403
Si Si3 0.087140 0.106872 0.306886
Si Si4 0.112939 0.387615 0.022594
Si Si5 0.605706 0.107661 0.732708
Si Si6 0.087977 0.234117 0.740584
Si Si7 0.550566 0.202655 0.204382
O O1 0.167984 0.821642 0.302063
O O2 0.222486 0.652644 0.243091
O O3 0.306033 0.813701 0.235270
O O4 0.378296 0.737122 0.587248
O O5 0.861913 0.907713 0.469241
O O6 0.783841 0.809012 0.164010
O O7 0.639362 0.874799 0.232849
O O8 0.723948 0.000000 0.133094
O O9 0.962089 0.157645 0.191034
O O10 0.073592 0.000000 0.212808
O O11 0.136759 0.500000 0.014298
O O12 0.103609 0.335671 0.847744
O O13 0.000000 0.372022 0.000000
O O14 0.500000 0.100193 0.500000
O O15 0.559981 0.144506 0.846986
O O16 0.662205 0.000000 0.810878
O O17 0.000000 0.253868 0.500000
O O18 0.500000 0.263828 0.000000
#
# Coordination Sequence:
#
# PCOD8064850 Si02
#       7
#     4   4   4   4   4   4   4
#     4  10  20  38  59  82 115 159 198 239 294 343
#     4   9  18  31  52  84 123 162 192 225 273 338
#     4   9  16  31  54  84 123 159 189 224 273 346
#     4  11  24  43  64  86 113 147 194 248 306 361
#     4   9  18  33  54  84 121 159 199 238 276 334
#     4  10  20  36  59  87 119 152 192 236 286 349
#     4  10  21  35  55  84 118 161 199 240 278 331
#
# _framework density 20.289771999999999
#
# number of rings (size 3 to 8) (size 9 to 14) (size 15 to 20)
#    0.000    2.286    1.429    1.286    2.000    6.571 
#    0.000    2.857    0.000    4.286    0.000    0.000 
#    0.000    0.000    0.000    0.000    0.000    0.000 
#
# Total GULP energy -346872.201972 kJ/mol
# GULP energy per Si atom -12388.292928 kJ/mol
# Density = 2.024359 g / cm^3
# Si number density = 20.289772 Si / 1000 Ang^3
#
#
#
# Elastic Constant Matrix: (Units=GPa)
#
#
# Indices 1 2 3 4 5 6 
#
# 1 122.5676 50.3380 17.2139 0.0000 -8.5545 0.0000
# 2 50.3380 127.5273 36.2177 0.0000 -3.0317 0.0000
# 3 17.2139 36.2177 98.6106 0.0000 -16.7820 0.0000
# 4 0.0000 0.0000 0.0000 37.0663 0.0000 -3.6685
# 5 -8.5545 -3.0317 -16.7820 0.0000 24.6065 0.0000
# 6 0.0000 0.0000 0.0000 -3.6685 0.0000 15.9191
#
#
#
# Elastic Compliance Matrix: (Units=1/GPa)
#
#
# Indices 1 2 3 4 5 6 
#
# 1 0.009955 -0.003922 0.000237 0.000000 0.003139 0.000000
# 2 -0.003922 0.010335 -0.003537 0.000000 -0.002502 0.000000
# 3 0.000237 -0.003537 0.012827 0.000000 0.008395 0.000000
# 4 0.000000 0.000000 0.000000 0.027608 0.000000 0.006362
# 5 0.003139 -0.002502 0.008395 0.000000 0.047148 0.000000
# 6 0.000000 0.000000 0.000000 0.006362 0.000000 0.064284
#
#
# Mechanical properties :
#
#
# Convention : Reuss Voigt Hill
#
# Bulk Modulus (GPa) = 53.55348 61.80496 57.67922
# Shear Modulus (GPa) = 25.93005 31.84745 28.88875
#
# Velocity S-wave (km/s) = 3.57877 3.96615 3.77743
# Velocity P-wave (km/s) = 6.59761 7.17643 6.89310
#
# Compressibility (1/GPa) = 0.01867292
#
# Stress axis : x y z
#
# Youngs Moduli (GPa) = 100.44720 96.76150 77.95903
#
# Poissons Ratio (x) = 0.37953 -0.01848
# Poissons Ratio (y) = 0.39399 0.27573
# Poissons Ratio (z) = -0.02381 0.34224
#
# Static dielectric constant tensor:
#      x y z
#    x 3.875640 0.000000 -0.098960 
#    y 0.000000 3.370740 0.000000 
#    z -0.098960 0.000000 4.114730 
# 
# 
# High freq. dielectric constant tensor:
#      x y z
#    x 1.803470 0.000000 -0.004250 
#    y 0.000000 1.735430 0.000000 
#    z -0.004250 0.000000 1.818520 
# 
# From -- ./inp_files/28667.got.cif
#   From: 2010.06.25/outbox.cif.g09.slc.cpg/sg10_15_cif.got.tgz:28667.got - 2010.06.27 22:07:45.
