data_PCOD8064999
_publ_section_title
;
Structure prediction by ZEFSAII (Michael W. Deem and Ramdas Pophale) SiO2 
 PCOD8064999
Probable space group: P 2/M
;
_chemical_formula_sum "Si O2"
_cell_formula_units_Z 28
_cell_length_a 6.809882
_cell_length_b 22.577015
_cell_length_c 10.203140
_cell_angle_alpha 90.000000
_cell_angle_beta 110.777259
_cell_angle_gamma 90.000000
_cell_volume 1466.682215
_symmetry_space_group_name_H-M "P 2/M"
_symmetry_group_IT_number 10
_symmetry_cell_setting 'monoclinic'
loop_
_space_group_symop_operation_xyz
x,y,z
-x,y,-z
-x,-y,-z
x,-y,z
loop_
_atom_site_type_symbol
_atom_site_label
_atom_site_fract_x
_atom_site_fract_y
_atom_site_fract_z
Si Si1 0.650086 0.853654 0.657041
Si Si2 0.637483 0.152858 0.155958
Si Si3 0.525974 0.433692 0.354977
Si Si4 0.981651 0.069742 0.148177
Si Si5 0.998471 0.226067 0.646282
Si Si6 0.889594 0.637080 0.347626
Si Si7 0.063033 0.565858 0.154610
O O1 0.500000 0.870917 0.500000
O O2 0.509247 0.850531 0.752499
O O3 0.828292 0.903361 0.721000
O O4 0.771976 0.791180 0.656699
O O5 0.816784 0.201285 0.219902
O O6 0.756328 0.091079 0.151588
O O7 0.500000 0.173293 0.000000
O O8 0.500000 0.415732 0.500000
O O9 0.630186 0.500000 0.370459
O O10 0.647458 0.380120 0.311630
O O11 0.310380 0.435393 0.227202
O O12 0.992249 0.000000 0.167064
O O13 0.000000 0.088883 0.000000
O O14 0.044831 0.295061 0.646454
O O15 0.000000 0.198189 0.500000
O O16 0.000000 0.607455 0.500000
O O17 0.961012 0.608726 0.232393
O O18 0.968331 0.500000 0.149431
O O19 0.000000 0.592262 0.000000
#
# Coordination Sequence:
#
# PCOD8064999 Si02
#       7
#     4   4   4   4   4   4   4
#     4  11  22  41  66  87 124 168 204 249 305 360
#     4  11  22  41  64  92 120 167 207 246 304 362
#     4  10  20  36  62  90 116 153 199 244 299 367
#     4  10  22  39  63  98 131 158 203 254 298 361
#     4  10  23  41  60  89 118 158 211 257 304 357
#     4  11  22  39  61  89 116 158 205 253 301 358
#     4  10  22  40  59  87 124 157 192 246 311 368
#
# _framework density 19.090705
#
# number of rings (size 3 to 8) (size 9 to 14) (size 15 to 20)
#    0.000    1.571    4.286    0.429    0.000    3.429 
#    5.143    2.857    0.000    0.000    0.000    0.000 
#    0.000    0.000    0.000    0.000    0.000    0.000 
#
# Total GULP energy -347073.837562 kJ/mol
# GULP energy per Si atom -12395.494199 kJ/mol
# Density = 1.904725 g / cm^3
# Si number density = 19.090705 Si / 1000 Ang^3
#
#
#
# Elastic Constant Matrix: (Units=GPa)
#
#
# Indices 1 2 3 4 5 6 
#
# 1 126.5766 57.6383 51.9556 0.0000 -10.0848 0.0000
# 2 57.6383 91.9560 52.6634 0.0000 -11.2620 0.0000
# 3 51.9556 52.6634 158.7984 0.0000 6.9509 0.0000
# 4 0.0000 0.0000 0.0000 24.5808 0.0000 -4.4437
# 5 -10.0848 -11.2620 6.9509 0.0000 33.8658 0.0000
# 6 0.0000 0.0000 0.0000 -4.4437 0.0000 29.9829
#
#
#
# Elastic Compliance Matrix: (Units=1/GPa)
#
#
# Indices 1 2 3 4 5 6 
#
# 1 0.011514 -0.005908 -0.001889 0.000000 0.001851 0.000000
# 2 -0.005908 0.017523 -0.004093 0.000000 0.004908 0.000000
# 3 -0.001889 -0.004093 0.008433 0.000000 -0.003654 0.000000
# 4 0.000000 0.000000 0.000000 0.041802 0.000000 0.006195
# 5 0.001851 0.004908 -0.003654 0.000000 0.032462 0.000000
# 6 0.000000 0.000000 0.000000 0.006195 0.000000 0.034271
#
#
# Mechanical properties :
#
#
# Convention : Reuss Voigt Hill
#
# Bulk Modulus (GPa) = 73.04970 77.98284 75.51627
# Shear Modulus (GPa) = 28.67837 32.02413 30.35125
#
# Velocity S-wave (km/s) = 3.88005 4.10014 3.99161
# Velocity P-wave (km/s) = 7.64334 7.95940 7.80297
#
# Compressibility (1/GPa) = 0.01368931
#
# Stress axis : x y z
#
# Youngs Moduli (GPa) = 86.85442 57.06660 118.58739
#
# Poissons Ratio (x) = 0.33717 0.22396
# Poissons Ratio (y) = 0.51317 0.48539
# Poissons Ratio (z) = 0.16403 0.23358
#
# Static dielectric constant tensor:
#      x y z
#    x 3.636270 0.000000 0.038870 
#    y 0.000000 3.381940 0.000000 
#    z 0.038870 0.000000 3.824000 
# 
# 
# High freq. dielectric constant tensor:
#      x y z
#    x 1.748980 0.000000 0.002840 
#    y 0.000000 1.725780 0.000000 
#    z 0.002840 0.000000 1.758750 
# 
# From -- ./inp_files/39763.got.cif
#   From: 2010.06.25/outbox.cif.g09.slc.cpg/sg10_20_cif.got.tgz:39763.got - 2010.06.27 22:07:45.
