data_PCOD8064875
_publ_section_title
;
Structure prediction by ZEFSAII (Michael W. Deem and Ramdas Pophale) SiO2 
 PCOD8064875
Probable space group: P 2/M
;
_chemical_formula_sum "Si O2"
_cell_formula_units_Z 26
_cell_length_a 8.343252
_cell_length_b 9.943483
_cell_length_c 18.855156
_cell_angle_alpha 90.000000
_cell_angle_beta 123.456646
_cell_angle_gamma 90.000000
_cell_volume 1305.052387
_symmetry_space_group_name_H-M "P 2/M"
_symmetry_group_IT_number 10
_symmetry_cell_setting 'monoclinic'
loop_
_space_group_symop_operation_xyz
x,y,z
-x,y,-z
-x,-y,-z
x,-y,z
loop_
_atom_site_type_symbol
_atom_site_label
_atom_site_fract_x
_atom_site_fract_y
_atom_site_fract_z
Si Si1 0.617716 0.846800 0.459011
Si Si2 0.710891 0.845108 0.044734
Si Si3 0.247534 0.354629 0.186478
Si Si4 0.029436 0.847279 0.226031
Si Si5 0.000000 0.269660 0.000000
Si Si6 0.642238 0.655579 0.338527
Si Si7 0.022879 0.151458 0.624656
O O1 0.500000 0.809535 0.500000
O O2 0.561889 0.735646 0.387370
O O3 0.845156 0.836744 0.528139
O O4 0.566340 0.000000 0.421961
O O5 0.817665 0.810698 0.144713
O O6 0.668899 0.000000 0.024588
O O7 0.500000 0.772545 0.000000
O O8 0.850040 0.810552 0.012666
O O9 0.200874 0.500000 0.209440
O O10 0.142153 0.354091 0.084816
O O11 0.479107 0.339649 0.237176
O O12 0.185562 0.240315 0.224770
O O13 0.048561 0.821313 0.313507
O O14 0.078909 0.000000 0.218358
O O15 0.693550 0.500000 0.369898
O O16 0.827596 0.733089 0.356286
O O17 0.112435 0.000000 0.640891
#
# Coordination Sequence:
#
# PCOD8064875 Si02
#       7
#     4   4   4   4   2   4   4
#     4  10  21  39  62  86 112 146 189 235 281 336
#     4   9  18  32  53  85 120 147 187 244 298 352
#     4  10  22  39  58  81 114 151 193 240 288 342
#     4   9  19  36  58  84 111 145 189 234 287 342
#     4  10  20  36  60  80 111 158 203 240 297 350
#     4  11  24  38  55  84 117 151 189 231 285 344
#     4  10  21  37  59  86 116 149 188 233 281 337
#
# _framework density 19.922571999999999
#
# number of rings (size 3 to 8) (size 9 to 14) (size 15 to 20)
#    0.000    2.154    0.000    2.308    2.154    6.462 
#    0.000    0.000    0.000    2.308    0.000    0.000 
#    0.000    0.000    0.000    0.000    0.000    0.000 
#
# Total GULP energy -322152.854059 kJ/mol
# GULP energy per Si atom -12390.494387 kJ/mol
# Density = 1.987723 g / cm^3
# Si number density = 19.922572 Si / 1000 Ang^3
#
#
#
# Elastic Constant Matrix: (Units=GPa)
#
#
# Indices 1 2 3 4 5 6 
#
# 1 70.1346 19.7193 18.4495 0.0000 15.5486 0.0000
# 2 19.7193 81.7084 34.5840 0.0000 8.4561 0.0000
# 3 18.4495 34.5840 94.5233 0.0000 10.6821 0.0000
# 4 0.0000 0.0000 0.0000 20.1786 0.0000 16.0748
# 5 15.5486 8.4561 10.6821 0.0000 29.7260 0.0000
# 6 0.0000 0.0000 0.0000 16.0748 0.0000 -25.1555
#
#
#
# Elastic Compliance Matrix: (Units=1/GPa)
#
#
# Indices 1 2 3 4 5 6 
#
# 1 0.017105 -0.002709 -0.001484 0.000000 -0.007643 0.000000
# 2 -0.002709 0.015064 -0.004856 0.000000 -0.001123 0.000000
# 3 -0.001484 -0.004856 0.012927 0.000000 -0.002488 0.000000
# 4 0.000000 0.000000 0.000000 0.032840 0.000000 0.020985
# 5 -0.007643 -0.001123 -0.002488 0.000000 0.038852 0.000000
# 6 0.000000 0.000000 0.000000 0.020985 0.000000 -0.026343
#
#
# Mechanical properties :
#
#
# Convention : Reuss Voigt Hill
#
# Bulk Modulus (GPa) = 37.03929 43.54133 40.29031
# Shear Modulus (GPa) = 42.53819 16.52403 29.53111
#
# Velocity S-wave (km/s) = 4.62581 2.88308 3.85423
# Velocity P-wave (km/s) = 6.86752 5.74331 6.33042
#
# Compressibility (1/GPa) = 0.02699836
#
# Stress axis : x y z
#
# Youngs Moduli (GPa) = 58.46337 66.38353 77.35866
#
# Poissons Ratio (x) = 0.17984 0.11477
# Poissons Ratio (y) = 0.15838 0.37564
# Poissons Ratio (z) = 0.08674 0.32235
#
# Static dielectric constant tensor:
#      x y z
#    x 3.546120 0.000000 0.088840 
#    y 0.000000 3.581760 0.000000 
#    z 0.088840 0.000000 3.935560 
# 
# 
# High freq. dielectric constant tensor:
#      x y z
#    x 1.769820 0.000000 0.011700 
#    y 0.000000 1.767480 0.000000 
#    z 0.011700 0.000000 1.792360 
# 
# From -- ./inp_files/34276.got.cif
#   From: 2010.06.25/outbox.cif.g09.slc.cpg/sg10_18_cif.got.tgz:34276.got - 2010.06.27 22:07:45.
