data_PCOD8064376
_publ_section_title
;
Structure prediction by ZEFSAII (Michael W. Deem and Ramdas Pophale) SiO2 
 PCOD8064376
Probable space group: P 2/M
;
_chemical_formula_sum "Si O2"
_cell_formula_units_Z 24
_cell_length_a 13.890394
_cell_length_b 8.937477
_cell_length_c 17.110859
_cell_angle_alpha 90.000000
_cell_angle_beta 143.666134
_cell_angle_gamma 90.000000
_cell_volume 1258.583191
_symmetry_space_group_name_H-M "P 2/M"
_symmetry_group_IT_number 10
_symmetry_cell_setting 'monoclinic'
loop_
_space_group_symop_operation_xyz
x,y,z
-x,y,-z
-x,-y,-z
x,-y,z
loop_
_atom_site_type_symbol
_atom_site_label
_atom_site_fract_x
_atom_site_fract_y
_atom_site_fract_z
Si Si1 0.940443 0.823478 0.878561
Si Si2 0.534608 0.322043 0.282168
Si Si3 0.425961 0.176515 0.368523
Si Si4 0.221162 0.331016 0.980356
Si Si5 0.813510 0.824270 0.365288
Si Si6 0.319062 0.329759 0.869499
O O1 0.758501 0.765777 0.747209
O O2 0.060640 0.763009 0.891847
O O3 0.947069 0.000000 0.879465
O O4 0.000000 0.760020 0.000000
O O5 0.545667 0.500000 0.290966
O O6 0.519099 0.260511 0.359892
O O7 0.700198 0.259478 0.353628
O O8 0.381602 0.266979 0.129161
O O9 0.500000 0.220999 0.500000
O O10 0.437718 0.000000 0.359805
O O11 0.195616 0.500000 0.992312
O O12 0.230992 0.321350 0.894215
O O13 0.771140 0.777031 0.249714
O O14 0.000000 0.777973 0.500000
O O15 0.786761 0.000000 0.358319
O O16 0.323234 0.500000 0.839295
O O17 0.500000 0.269149 0.000000
#
# Coordination Sequence:
#
# PCOD8064376 Si02
#       6
#     4   4   4   4   4   4
#     4  10  20  35  57  85 114 150 196 239 284 346
#     4  11  22  39  63  88 117 156 199 245 301 359
#     4  10  22  40  60  85 121 158 193 243 300 351
#     4  10  21  36  59  89 119 153 193 247 299 345
#     4  11  25  42  61  89 124 160 201 247 298 359
#     4  10  20  39  62  88 121 154 198 249 299 354
#
# _framework density 19.069061000000001
#
# number of rings (size 3 to 8) (size 9 to 14) (size 15 to 20)
#    0.000    1.667    3.333    1.000    0.000    5.667 
#    0.000    5.000    0.000    0.000    0.000    0.000 
#    0.000    0.000    0.000    0.000    0.000    0.000 
#
# Total GULP energy -297662.192505 kJ/mol
# GULP energy per Si atom -12402.591354 kJ/mol
# Density = 1.902566 g / cm^3
# Si number density = 19.069061 Si / 1000 Ang^3
#
#
#
# Elastic Constant Matrix: (Units=GPa)
#
#
# Indices 1 2 3 4 5 6 
#
# 1 136.6204 48.5215 74.5327 0.0000 8.0232 0.0000
# 2 48.5215 53.6275 46.7816 0.0000 2.3974 0.0000
# 3 74.5327 46.7816 147.7040 0.0000 5.1621 0.0000
# 4 0.0000 0.0000 0.0000 26.1567 0.0000 7.5452
# 5 8.0232 2.3974 5.1621 0.0000 34.1563 0.0000
# 6 0.0000 0.0000 0.0000 7.5452 0.0000 41.1068
#
#
#
# Elastic Compliance Matrix: (Units=1/GPa)
#
#
# Indices 1 2 3 4 5 6 
#
# 1 0.012151 -0.007766 -0.003610 0.000000 -0.001763 0.000000
# 2 -0.007766 0.030741 -0.005837 0.000000 0.000549 0.000000
# 3 -0.003610 -0.005837 0.010452 0.000000 -0.000322 0.000000
# 4 0.000000 0.000000 0.000000 0.040369 0.000000 -0.007410
# 5 -0.001763 0.000549 -0.000322 0.000000 0.029702 0.000000
# 6 0.000000 0.000000 0.000000 -0.007410 0.000000 0.025687
#
#
# Mechanical properties :
#
#
# Convention : Reuss Voigt Hill
#
# Bulk Modulus (GPa) = 52.85997 75.29149 64.07573
# Shear Modulus (GPa) = 26.33918 31.49172 28.91545
#
# Velocity S-wave (km/s) = 3.72055 4.06822 3.89826
# Velocity P-wave (km/s) = 6.79979 7.85089 7.34417
#
# Compressibility (1/GPa) = 0.01891791
#
# Stress axis : x y z
#
# Youngs Moduli (GPa) = 82.30053 32.53027 95.67615
#
# Poissons Ratio (x) = 0.25262 0.34540
# Poissons Ratio (y) = 0.63911 0.55845
# Poissons Ratio (z) = 0.29711 0.18988
#
# Static dielectric constant tensor:
#      x y z
#    x 3.578690 0.000000 -0.011760 
#    y 0.000000 3.415480 0.000000 
#    z -0.011760 0.000000 3.622270 
# 
# 
# High freq. dielectric constant tensor:
#      x y z
#    x 1.755060 0.000000 0.002110 
#    y 0.000000 1.734470 0.000000 
#    z 0.002110 0.000000 1.741860 
# 
# From -- ./inp_files/77852.got.cif
#   From: 2010.06.25/outbox.cif.g09.slc.cpg/sg10_39_cif.got.tgz:77852.got - 2010.06.27 22:07:45.
