data_PCOD8064478
_publ_section_title
;
Structure prediction by ZEFSAII (Michael W. Deem and Ramdas Pophale) SiO2 
 PCOD8064478
Probable space group: P 2/M
;
_chemical_formula_sum "Si O2"
_cell_formula_units_Z 28
_cell_length_a 9.735100
_cell_length_b 9.037917
_cell_length_c 27.167410
_cell_angle_alpha 90.000000
_cell_angle_beta 141.888456
_cell_angle_gamma 90.000000
_cell_volume 1475.295406
_symmetry_space_group_name_H-M "P 2/M"
_symmetry_group_IT_number 10
_symmetry_cell_setting 'monoclinic'
loop_
_space_group_symop_operation_xyz
x,y,z
-x,y,-z
-x,-y,-z
x,-y,z
loop_
_atom_site_type_symbol
_atom_site_label
_atom_site_fract_x
_atom_site_fract_y
_atom_site_fract_z
Si Si1 0.154293 0.672012 0.698246
Si Si2 0.019444 0.674531 0.142325
Si Si3 0.696615 0.325043 0.520737
Si Si4 0.490280 0.825389 0.265359
Si Si5 0.748916 0.173277 0.436370
Si Si6 0.763427 0.670302 0.167633
Si Si7 0.628534 0.834031 0.985248
O O1 0.196459 0.500000 0.698509
O O2 0.363827 0.765241 0.738617
O O3 0.122343 0.698095 0.747543
O O4 0.931804 0.730519 0.608828
O O5 0.043508 0.500000 0.142714
O O6 0.937188 0.718303 0.174092
O O7 0.848953 0.735217 0.053180
O O8 0.251910 0.750645 0.197119
O O9 0.500000 0.267610 0.500000
O O10 0.693723 0.500000 0.515341
O O11 0.645415 0.256886 0.453381
O O12 0.608851 0.780696 0.349462
O O13 0.463650 0.000000 0.252271
O O14 0.000000 0.228972 0.500000
O O15 0.740827 0.000000 0.444591
O O16 0.697139 0.500000 0.141072
O O17 0.534800 0.763079 0.101275
O O18 0.693871 0.000000 0.987182
O O19 0.500000 0.835994 0.000000
#
# Coordination Sequence:
#
# PCOD8064478 Si02
#       7
#     4   4   4   4   4   4   4
#     4  10  21  38  56  80 113 148 183 227 280 330
#     4  10  20  35  59  86 112 145 184 227 276 329
#     4  10  22  37  58  85 113 143 184 234 278 325
#     4  11  23  38  56  80 112 148 188 232 274 326
#     4  10  21  39  58  78 109 149 189 227 274 329
#     4   9  19  35  57  83 113 146 183 226 276 331
#     4   9  17  32  55  83 115 146 181 224 271 325
#
# _framework density 18.979248999999999
#
# number of rings (size 3 to 8) (size 9 to 14) (size 15 to 20)
#    0.000    2.143    1.429    1.286    2.000    4.571 
#    0.000    0.714    0.000    4.286    0.000    0.000 
#    0.000    0.000    0.000    0.000    0.000    0.000 
#
# Total GULP energy -347289.833698 kJ/mol
# GULP energy per Si atom -12403.208346 kJ/mol
# Density = 1.893605 g / cm^3
# Si number density = 18.979249 Si / 1000 Ang^3
#
#
#
# Elastic Constant Matrix: (Units=GPa)
#
#
# Indices 1 2 3 4 5 6 
#
# 1 87.9297 27.6182 20.5780 0.0000 14.8238 0.0000
# 2 27.6182 60.7004 26.4885 0.0000 9.1315 0.0000
# 3 20.5780 26.4885 72.0226 0.0000 18.5258 0.0000
# 4 0.0000 0.0000 0.0000 28.5606 0.0000 -3.5166
# 5 14.8238 9.1315 18.5258 0.0000 33.1078 0.0000
# 6 0.0000 0.0000 0.0000 -3.5166 0.0000 22.3862
#
#
#
# Elastic Compliance Matrix: (Units=1/GPa)
#
#
# Indices 1 2 3 4 5 6 
#
# 1 0.013980 -0.005306 -0.000945 0.000000 -0.004267 0.000000
# 2 -0.005306 0.021711 -0.006471 0.000000 0.000009 0.000000
# 3 -0.000945 -0.006471 0.018651 0.000000 -0.008228 0.000000
# 4 0.000000 0.000000 0.000000 0.035704 0.000000 0.005609
# 5 -0.004267 0.000009 -0.008228 0.000000 0.036717 0.000000
# 6 0.000000 0.000000 0.000000 0.005609 0.000000 0.045552
#
#
# Mechanical properties :
#
#
# Convention : Reuss Voigt Hill
#
# Bulk Modulus (GPa) = 34.60567 41.11356 37.85961
# Shear Modulus (GPa) = 24.10893 26.54212 25.32552
#
# Velocity S-wave (km/s) = 3.56796 3.74368 3.65688
# Velocity P-wave (km/s) = 5.93690 6.35581 6.14992
#
# Compressibility (1/GPa) = 0.02889700
#
# Stress axis : x y z
#
# Youngs Moduli (GPa) = 71.53077 46.05892 53.61640
#
# Poissons Ratio (x) = 0.24441 0.05067
# Poissons Ratio (y) = 0.37957 0.34696
# Poissons Ratio (z) = 0.06761 0.29805
#
# Static dielectric constant tensor:
#      x y z
#    x 3.351750 0.000000 0.039320 
#    y 0.000000 3.480830 0.000000 
#    z 0.039320 0.000000 3.576790 
# 
# 
# High freq. dielectric constant tensor:
#      x y z
#    x 1.725280 0.000000 0.002820 
#    y 0.000000 1.737800 0.000000 
#    z 0.002820 0.000000 1.744060 
# 
# From -- ./inp_files/36950.got.cif
#   From: 2010.06.25/outbox.cif.g09.slc.cpg/sg10_19_cif.got.tgz:36950.got - 2010.06.27 22:07:45.
