data_PCOD8064172
_publ_section_title
;
Structure prediction by ZEFSAII (Michael W. Deem and Ramdas Pophale) SiO2 
 PCOD8064172
Probable space group: P 2/M
;
_chemical_formula_sum "Si O2"
_cell_formula_units_Z 24
_cell_length_a 13.375187
_cell_length_b 7.640958
_cell_length_c 18.242013
_cell_angle_alpha 90.000000
_cell_angle_beta 43.654547
_cell_angle_gamma 90.000000
_cell_volume 1286.956175
_symmetry_space_group_name_H-M "P 2/M"
_symmetry_group_IT_number 10
_symmetry_cell_setting 'monoclinic'
loop_
_space_group_symop_operation_xyz
x,y,z
-x,y,-z
-x,-y,-z
x,-y,z
loop_
_atom_site_type_symbol
_atom_site_label
_atom_site_fract_x
_atom_site_fract_y
_atom_site_fract_z
Si Si1 0.497892 0.197526 0.383834
Si Si2 0.510276 0.000000 0.872785
Si Si3 0.433667 0.699425 0.811311
Si Si4 0.721274 0.300714 0.380009
Si Si5 0.887759 0.703846 0.003023
Si Si6 0.260192 0.000000 0.122786
Si Si7 0.953447 0.703969 0.801843
O O1 0.512591 0.302618 0.300759
O O2 0.644357 0.196662 0.354823
O O3 0.366565 0.283466 0.498140
O O4 0.457465 0.000000 0.385820
O O5 0.526496 0.174181 0.814468
O O6 0.646275 0.000000 0.853930
O O7 0.360445 0.000000 0.997551
O O8 0.442148 0.500000 0.837181
O O9 0.272045 0.780588 0.899780
O O10 0.724099 0.500000 0.351909
O O11 0.885102 0.237417 0.307542
O O12 0.877389 0.500000 0.025992
O O13 0.943946 0.742916 0.892645
O O14 0.000000 0.793464 0.000000
O O15 0.162415 0.174872 0.177745
O O16 0.921055 0.500000 0.800672
#
# Coordination Sequence:
#
# PCOD8064172 Si02
#       7
#     4   2   4   4   4   2   4
#     4  11  21  33  54  87 122 157 198 228 270 333
#     4  11  24  42  57  90 107 147 190 240 298 354
#     4  11  21  38  59  81 116 151 188 236 282 337
#     4  10  20  35  55  83 121 161 197 226 270 331
#     4   9  17  31  52  81 115 148 181 220 270 331
#     4  11  24  40  63  80 119 139 188 248 296 346
#     4  10  21  37  58  84 113 151 190 231 283 339
#
# _framework density 18.648652999999999
#
# number of rings (size 3 to 8) (size 9 to 14) (size 15 to 20)
#    0.000    1.667    2.500    4.000    2.333    3.333 
#    0.000    2.500    0.000    2.000    0.000    3.500 
#    0.000    0.000    0.000    0.000    0.000    0.000 
#
# Total GULP energy -297614.545455 kJ/mol
# GULP energy per Si atom -12400.606061 kJ/mol
# Density = 1.860621 g / cm^3
# Si number density = 18.648653 Si / 1000 Ang^3
#
#
#
# Elastic Constant Matrix: (Units=GPa)
#
#
# Indices 1 2 3 4 5 6 
#
# 1 116.1399 50.2607 58.7344 0.0000 -5.7968 0.0000
# 2 50.2607 90.5609 26.2007 0.0000 -2.0237 0.0000
# 3 58.7344 26.2007 106.1500 0.0000 -4.6116 0.0000
# 4 0.0000 0.0000 0.0000 18.8295 0.0000 -6.4111
# 5 -5.7968 -2.0237 -4.6116 0.0000 24.6137 0.0000
# 6 0.0000 0.0000 0.0000 -6.4111 0.0000 22.2576
#
#
#
# Elastic Compliance Matrix: (Units=1/GPa)
#
#
# Indices 1 2 3 4 5 6 
#
# 1 0.014685 -0.006227 -0.006514 0.000000 0.001726 0.000000
# 2 -0.006227 0.014537 -0.000155 0.000000 -0.000301 0.000000
# 3 -0.006514 -0.000155 0.013103 0.000000 0.000908 0.000000
# 4 0.000000 0.000000 0.000000 0.058883 0.000000 0.016961
# 5 0.001726 -0.000301 0.000908 0.000000 0.041180 0.000000
# 6 0.000000 0.000000 0.000000 0.016961 0.000000 0.049814
#
#
# Mechanical properties :
#
#
# Convention : Reuss Voigt Hill
#
# Bulk Modulus (GPa) = 60.48894 64.80469 62.64681
# Shear Modulus (GPa) = 22.37092 24.98383 23.67738
#
# Velocity S-wave (km/s) = 3.46728 3.66418 3.56709
# Velocity P-wave (km/s) = 6.96677 7.26136 7.11559
#
# Compressibility (1/GPa) = 0.01653195
#
# Stress axis : x y z
#
# Youngs Moduli (GPa) = 68.09461 68.79169 76.32104
#
# Poissons Ratio (x) = 0.42838 0.49713
# Poissons Ratio (y) = 0.42404 0.01186
# Poissons Ratio (z) = 0.44354 0.01069
#
# Static dielectric constant tensor:
#      x y z
#    x 3.215450 0.000000 -0.110820 
#    y 0.000000 3.591380 0.000000 
#    z -0.110820 0.000000 3.507120 
# 
# 
# High freq. dielectric constant tensor:
#      x y z
#    x 1.693310 0.000000 -0.003570 
#    y 0.000000 1.730780 0.000000 
#    z -0.003570 0.000000 1.725580 
# 
# From -- ./inp_files/75902.got.cif
#   From: 2010.06.25/outbox.cif.g09.slc.cpg/sg10_38_cif.got.tgz:75902.got - 2010.06.27 22:07:45.
