data_PCOD8064914
_publ_section_title
;
Structure prediction by ZEFSAII (Michael W. Deem and Ramdas Pophale) SiO2 
 PCOD8064914
Probable space group: P 2/M
;
_chemical_formula_sum "Si O2"
_cell_formula_units_Z 28
_cell_length_a 28.929337
_cell_length_b 8.789879
_cell_length_c 9.051911
_cell_angle_alpha 90.000000
_cell_angle_beta 38.695978
_cell_angle_gamma 90.000000
_cell_volume 1439.037781
_symmetry_space_group_name_H-M "P 2/M"
_symmetry_group_IT_number 10
_symmetry_cell_setting 'monoclinic'
loop_
_space_group_symop_operation_xyz
x,y,z
-x,y,-z
-x,-y,-z
x,-y,z
loop_
_atom_site_type_symbol
_atom_site_label
_atom_site_fract_x
_atom_site_fract_y
_atom_site_fract_z
Si Si1 0.427614 0.678404 0.092010
Si Si2 0.844705 0.678097 0.230192
Si Si3 0.428353 0.824758 0.778096
Si Si4 0.709667 0.180447 0.402193
Si Si5 0.153175 0.179990 0.456220
Si Si6 0.292358 0.180203 0.924349
Si Si7 0.992212 0.167663 0.844697
O O1 0.414161 0.500000 0.141354
O O2 0.356802 0.764265 0.330669
O O3 0.500000 0.731698 0.000000
O O4 0.439184 0.721683 0.893739
O O5 0.831880 0.500000 0.255319
O O6 0.787047 0.759565 0.268397
O O7 0.832586 0.734013 0.426697
O O8 0.927010 0.716864 0.964072
O O9 0.500000 0.807820 0.500000
O O10 0.358910 0.758970 0.859828
O O11 0.415693 0.000000 0.857016
O O12 0.699223 0.244870 0.262117
O O13 0.711362 0.000000 0.400487
O O14 0.072952 0.222490 0.585445
O O15 0.157410 0.000000 0.478483
O O16 0.214632 0.234621 0.186804
O O17 0.296374 0.000000 0.908525
O O18 0.972785 0.000000 0.829696
O O19 0.000000 0.157537 0.000000
#
# Coordination Sequence:
#
# PCOD8064914 Si02
#       7
#     4   4   4   4   4   4   4
#     4  11  24  40  58  84 117 149 181 219 268 325
#     4  11  21  33  52  80 112 144 180 222 274 333
#     4  10  20  36  60  88 114 143 185 230 270 319
#     4  11  22  38  59  80 107 144 185 227 271 320
#     4   9  17  33  56  80 106 139 184 233 277 326
#     4   9  19  35  56  81 106 137 181 232 278 319
#     4   8  15  29  51  77 104 138 182 229 274 322
#
# _framework density 19.457445
#
# number of rings (size 3 to 8) (size 9 to 14) (size 15 to 20)
#    0.000    2.143    0.000    4.714    0.000    6.286 
#    0.000    3.571    0.000    4.286    0.000    0.000 
#    0.000    0.000    0.000    0.000    0.000    0.000 
#
# Total GULP energy -347204.624746 kJ/mol
# GULP energy per Si atom -12400.165170 kJ/mol
# Density = 1.941316 g / cm^3
# Si number density = 19.457445 Si / 1000 Ang^3
#
#
#
# Elastic Constant Matrix: (Units=GPa)
#
#
# Indices 1 2 3 4 5 6 
#
# 1 122.9742 33.7229 53.3421 0.0000 -9.2246 0.0000
# 2 33.7229 58.3936 26.2336 0.0000 -3.9745 0.0000
# 3 53.3421 26.2336 109.6858 0.0000 -15.5976 0.0000
# 4 0.0000 0.0000 0.0000 8.9901 0.0000 -10.3668
# 5 -9.2246 -3.9745 -15.5976 0.0000 34.5086 0.0000
# 6 0.0000 0.0000 0.0000 -10.3668 0.0000 16.7110
#
#
#
# Elastic Compliance Matrix: (Units=1/GPa)
#
#
# Indices 1 2 3 4 5 6 
#
# 1 0.011296 -0.004541 -0.004331 0.000000 0.000539 0.000000
# 2 -0.004541 0.021013 -0.002827 0.000000 -0.000072 0.000000
# 3 -0.004331 -0.002827 0.012491 0.000000 0.004163 0.000000
# 4 0.000000 0.000000 0.000000 0.390770 0.000000 0.242416
# 5 0.000539 -0.000072 0.004163 0.000000 0.030996 0.000000
# 6 0.000000 0.000000 0.000000 0.242416 0.000000 0.210224
#
#
# Mechanical properties :
#
#
# Convention : Reuss Voigt Hill
#
# Bulk Modulus (GPa) = 46.72537 57.51675 52.12106
# Shear Modulus (GPa) = 7.06891 23.89228 15.48059
#
# Velocity S-wave (km/s) = 1.90811 3.50798 2.82372
# Velocity P-wave (km/s) = 5.37781 6.78471 6.12181
#
# Compressibility (1/GPa) = 0.02140165
#
# Stress axis : x y z
#
# Youngs Moduli (GPa) = 88.52615 47.58919 80.05637
#
# Poissons Ratio (x) = 0.21612 0.34670
# Poissons Ratio (y) = 0.40203 0.22635
# Poissons Ratio (z) = 0.38338 0.13455
#
# Static dielectric constant tensor:
#      x y z
#    x 3.669310 0.000000 -0.259310 
#    y 0.000000 3.340700 0.000000 
#    z -0.259310 0.000000 3.859540 
# 
# 
# High freq. dielectric constant tensor:
#      x y z
#    x 1.756400 0.000000 -0.018200 
#    y 0.000000 1.736420 0.000000 
#    z -0.018200 0.000000 1.767730 
# 
# From -- ./inp_files/37119.got.cif
#   From: 2010.06.25/outbox.cif.g09.slc.cpg/sg10_19_cif.got.tgz:37119.got - 2010.06.27 22:07:45.
