data_PCOD8064969
_publ_section_title
;
Structure prediction by ZEFSAII (Michael W. Deem and Ramdas Pophale) SiO2 
 PCOD8064969
Probable space group: P 2/M
;
_chemical_formula_sum "Si O2"
_cell_formula_units_Z 24
_cell_length_a 19.217540
_cell_length_b 7.774259
_cell_length_c 17.790498
_cell_angle_alpha 90.000000
_cell_angle_beta 151.605909
_cell_angle_gamma 90.000000
_cell_volume 1263.938694
_symmetry_space_group_name_H-M "P 2/M"
_symmetry_group_IT_number 10
_symmetry_cell_setting 'monoclinic'
loop_
_space_group_symop_operation_xyz
x,y,z
-x,y,-z
-x,-y,-z
x,-y,z
loop_
_atom_site_type_symbol
_atom_site_label
_atom_site_fract_x
_atom_site_fract_y
_atom_site_fract_z
Si Si1 0.219392 0.500000 0.652233
Si Si2 0.558686 0.197861 0.138821
Si Si3 0.208400 0.690721 0.044477
Si Si4 0.657186 0.204847 0.672390
Si Si5 0.102825 0.500000 0.708643
Si Si6 0.930799 0.811246 0.852801
Si Si7 0.262726 0.191895 0.937716
O O1 0.309010 0.327285 0.717187
O O2 0.181555 0.500000 0.703719
O O3 0.072416 0.500000 0.463410
O O4 0.613334 0.000000 0.198699
O O5 0.500000 0.234736 0.000000
O O6 0.428195 0.240064 0.072522
O O7 0.243828 0.500000 0.050516
O O8 0.305248 0.732779 0.208825
O O9 0.251838 0.814903 0.017708
O O10 0.034760 0.699492 0.898151
O O11 0.500000 0.278404 0.500000
O O12 0.771422 0.273775 0.717191
O O13 0.662774 0.000000 0.677427
O O14 0.148181 0.327711 0.795640
O O15 0.916257 0.000000 0.801550
O O16 0.000000 0.832226 0.000000
O O17 0.225624 0.000000 0.871599
#
# Coordination Sequence:
#
# PCOD8064969 Si02
#       7
#     2   4   4   4   2   4   4
#     4  11  22  37  62  85 126 146 184 254 283 349
#     4  10  20  36  61  89 114 156 199 233 284 341
#     4  11  21  33  54  81 109 144 189 234 282 337
#     4   9  18  34  55  79 107 142 184 229 283 339
#     4  11  23  38  57  92 115 155 190 229 310 337
#     4   8  15  30  51  74 101 137 179 221 268 324
#     4  11  22  39  61  84 117 153 200 244 280 346
#
# _framework density 18.988264000000001
#
# number of rings (size 3 to 8) (size 9 to 14) (size 15 to 20)
#    0.000    2.000    2.500    3.250    0.000    4.000 
#    0.000    3.333    0.000    2.000    0.000    0.000 
#    0.000    0.000    0.000    0.000    0.000    0.000 
#
# Total GULP energy -297502.692233 kJ/mol
# GULP energy per Si atom -12395.945510 kJ/mol
# Density = 1.894505 g / cm^3
# Si number density = 18.988264 Si / 1000 Ang^3
#
#
#
# Elastic Constant Matrix: (Units=GPa)
#
#
# Indices 1 2 3 4 5 6 
#
# 1 119.4183 30.0538 56.9155 0.0000 17.2567 0.0000
# 2 30.0538 104.3395 57.2579 0.0000 7.7828 0.0000
# 3 56.9155 57.2579 131.0220 0.0000 25.6044 0.0000
# 4 0.0000 0.0000 0.0000 16.0002 0.0000 -0.0062
# 5 17.2567 7.7828 25.6044 0.0000 26.1822 0.0000
# 6 0.0000 0.0000 0.0000 -0.0062 0.0000 24.7922
#
#
#
# Elastic Compliance Matrix: (Units=1/GPa)
#
#
# Indices 1 2 3 4 5 6 
#
# 1 0.010818 -0.000847 -0.003690 0.000000 -0.003270 0.000000
# 2 -0.000847 0.012762 -0.005658 0.000000 0.002298 0.000000
# 3 -0.003690 -0.005658 0.013480 0.000000 -0.009069 0.000000
# 4 0.000000 0.000000 0.000000 0.062499 0.000000 0.000016
# 5 -0.003270 0.002298 -0.009069 0.000000 0.048534 0.000000
# 6 0.000000 0.000000 0.000000 0.000016 0.000000 0.040335
#
#
# Mechanical properties :
#
#
# Convention : Reuss Voigt Hill
#
# Bulk Modulus (GPa) = 59.99072 71.47045 65.73059
# Shear Modulus (GPa) = 23.32345 27.43175 25.37760
#
# Velocity S-wave (km/s) = 3.50853 3.80500 3.65977
# Velocity P-wave (km/s) = 6.93363 7.55149 7.24915
#
# Compressibility (1/GPa) = 0.01666925
#
# Stress axis : x y z
#
# Youngs Moduli (GPa) = 92.43474 78.35980 74.18299
#
# Poissons Ratio (x) = 0.06638 0.27376
# Poissons Ratio (y) = 0.07830 0.41973
# Poissons Ratio (z) = 0.34111 0.44337
#
# Static dielectric constant tensor:
#      x y z
#    x 3.644880 0.000000 0.422800 
#    y 0.000000 3.506580 0.000000 
#    z 0.422800 0.000000 3.557010 
# 
# 
# High freq. dielectric constant tensor:
#      x y z
#    x 1.739520 0.000000 0.023020 
#    y 0.000000 1.744940 0.000000 
#    z 0.023020 0.000000 1.710680 
# 
# From -- ./inp_files/78675.got.cif
#   From: 2010.06.25/outbox.cif.g09.slc.cpg/sg10_40_cif.got.tgz:78675.got - 2010.06.27 22:07:45.
