data_PCOD8064722
_publ_section_title
;
Structure prediction by ZEFSAII (Michael W. Deem and Ramdas Pophale) SiO2 
 PCOD8064722
Probable space group: P 2/M
;
_chemical_formula_sum "Si O2"
_cell_formula_units_Z 32
_cell_length_a 12.101556
_cell_length_b 9.290566
_cell_length_c 31.637978
_cell_angle_alpha 90.000000
_cell_angle_beta 151.692297
_cell_angle_gamma 90.000000
_cell_volume 1686.784812
_symmetry_space_group_name_H-M "P 2/M"
_symmetry_group_IT_number 10
_symmetry_cell_setting 'monoclinic'
loop_
_space_group_symop_operation_xyz
x,y,z
-x,y,-z
-x,-y,-z
x,-y,z
loop_
_atom_site_type_symbol
_atom_site_label
_atom_site_fract_x
_atom_site_fract_y
_atom_site_fract_z
Si Si1 0.451969 0.332322 0.236769
Si Si2 0.728459 0.169687 0.905243
Si Si3 0.110787 0.664743 0.807584
Si Si4 0.281543 0.167573 0.482783
Si Si5 0.983144 0.667859 0.855222
Si Si6 0.805894 0.167265 0.641583
Si Si7 0.962274 0.330650 0.439632
Si Si8 0.379340 0.334317 0.049837
O O1 0.440479 0.500000 0.219803
O O2 0.380254 0.235179 0.173467
O O3 0.277891 0.300827 0.217099
O O4 0.706454 0.285635 0.337855
O O5 0.593982 0.239540 0.899230
O O6 0.685192 0.000000 0.890531
O O7 0.000000 0.209338 0.000000
O O8 0.030213 0.500000 0.776764
O O9 0.388806 0.678957 0.899921
O O10 0.019858 0.735011 0.820957
O O11 0.004523 0.746517 0.732201
O O12 0.554792 0.204463 0.576688
O O13 0.182732 0.211665 0.403692
O O14 0.156090 0.258480 0.476149
O O15 0.237998 0.000000 0.476588
O O16 0.040205 0.500000 0.870748
O O17 0.167825 0.731728 0.950953
O O18 0.858696 0.000000 0.664318
O O19 0.999283 0.500000 0.449159
O O20 0.000000 0.275838 0.500000
O O21 0.331455 0.500000 0.046849
#
# Coordination Sequence:
#
# PCOD8064722 Si02
#       8
#     4   4   4   4   4   4   4   4
#     4  10  21  38  60  84 113 154 193 227 285 350
#     4  11  23  38  57  84 116 150 194 243 284 328
#     4  10  21  34  57  89 113 140 187 236 280 332
#     4   9  20  40  61  79 109 152 191 225 276 344
#     4   9  18  35  58  81 111 150 188 227 275 337
#     4   9  20  39  59  81 110 148 189 230 280 336
#     4  10  23  39  59  89 120 146 185 242 293 338
#     4  10  20  36  58  83 114 150 188 229 279 338
#
# _framework density 18.971003
#
# number of rings (size 3 to 8) (size 9 to 14) (size 15 to 20)
#    0.000    2.250    1.250    1.500    3.500    4.250 
#    0.000    2.500    0.000    1.500    0.000    0.000 
#    0.000    0.000    0.000    0.000    0.000    0.000 
#
# Total GULP energy -396883.899520 kJ/mol
# GULP energy per Si atom -12402.621860 kJ/mol
# Density = 1.892782 g / cm^3
# Si number density = 18.971003 Si / 1000 Ang^3
#
#
#
# Elastic Constant Matrix: (Units=GPa)
#
#
# Indices 1 2 3 4 5 6 
#
# 1 123.2727 40.0825 32.5728 0.0000 -7.6249 0.0000
# 2 40.0825 50.4785 35.2051 0.0000 -5.8563 0.0000
# 3 32.5728 35.2051 92.6561 0.0000 -8.7195 0.0000
# 4 0.0000 0.0000 0.0000 7.8715 0.0000 10.2270
# 5 -7.6249 -5.8563 -8.7195 0.0000 27.6549 0.0000
# 6 0.0000 0.0000 0.0000 10.2270 0.0000 20.7981
#
#
#
# Elastic Compliance Matrix: (Units=1/GPa)
#
#
# Indices 1 2 3 4 5 6 
#
# 1 0.011005 -0.008143 -0.000672 0.000000 0.001098 0.000000
# 2 -0.008143 0.033154 -0.009569 0.000000 0.001759 0.000000
# 3 -0.000672 -0.009569 0.014898 0.000000 0.002486 0.000000
# 4 0.000000 0.000000 0.000000 0.351787 0.000000 -0.172983
# 5 0.001098 0.001759 0.002486 0.000000 0.037619 0.000000
# 6 0.000000 0.000000 0.000000 -0.172983 0.000000 0.133141
#
#
# Mechanical properties :
#
#
# Convention : Reuss Voigt Hill
#
# Bulk Modulus (GPa) = 44.86157 53.56980 49.21569
# Shear Modulus (GPa) = 7.98975 21.83469 14.91222
#
# Velocity S-wave (km/s) = 2.05443 3.39625 2.80671
# Velocity P-wave (km/s) = 5.41538 6.60896 6.04172
#
# Compressibility (1/GPa) = 0.02229079
#
# Stress axis : x y z
#
# Youngs Moduli (GPa) = 90.86654 30.16234 67.12150
#
# Poissons Ratio (x) = 0.24561 0.04507
# Poissons Ratio (y) = 0.73992 0.64228
# Poissons Ratio (z) = 0.06102 0.28862
#
# Static dielectric constant tensor:
#      x y z
#    x 3.560430 0.000000 -0.027200 
#    y 0.000000 3.226210 0.000000 
#    z -0.027200 0.000000 3.497750 
# 
# 
# High freq. dielectric constant tensor:
#      x y z
#    x 1.748860 0.000000 0.000220 
#    y 0.000000 1.713520 0.000000 
#    z 0.000220 0.000000 1.743670 
# 
# From -- ./inp_files/95020.got.cif
#   From: 2010.06.25/outbox.cif.g09.slc.cpg/sg10_48_cif.got.tgz:95020.got - 2010.06.27 22:07:45.
