data_PCOD8064707
_publ_section_title
;
Structure prediction by ZEFSAII (Michael W. Deem and Ramdas Pophale) SiO2 
 PCOD8064707
Probable space group: P 2/M
;
_chemical_formula_sum "Si O2"
_cell_formula_units_Z 32
_cell_length_a 14.196797
_cell_length_b 9.071549
_cell_length_c 23.727729
_cell_angle_alpha 90.000000
_cell_angle_beta 147.322399
_cell_angle_gamma 90.000000
_cell_volume 1649.872620
_symmetry_space_group_name_H-M "P 2/M"
_symmetry_group_IT_number 10
_symmetry_cell_setting 'monoclinic'
loop_
_space_group_symop_operation_xyz
x,y,z
-x,y,-z
-x,-y,-z
x,-y,z
loop_
_atom_site_type_symbol
_atom_site_label
_atom_site_fract_x
_atom_site_fract_y
_atom_site_fract_z
Si Si1 0.696395 0.330732 0.205379
Si Si2 0.696735 0.669189 0.982690
Si Si3 0.023779 0.171102 0.946487
Si Si4 0.196872 0.173427 0.850610
Si Si5 0.334893 0.325547 0.533774
Si Si6 0.793946 0.169764 0.639298
Si Si7 0.006696 0.324905 0.440307
Si Si8 0.682675 0.170851 0.709199
O O1 0.738904 0.500000 0.210737
O O2 0.699699 0.234174 0.150783
O O3 0.837479 0.268794 0.320908
O O4 0.505701 0.316768 0.137017
O O5 0.751222 0.500000 0.018466
O O6 0.808367 0.738811 0.988735
O O7 0.726200 0.753577 0.055370
O O8 0.853508 0.228613 0.827718
O O9 0.055740 0.000000 0.948620
O O10 0.000000 0.200696 0.000000
O O11 0.994925 0.215700 0.743580
O O12 0.225199 0.000000 0.869569
O O13 0.345701 0.500000 0.539115
O O14 0.302428 0.270880 0.454199
O O15 0.180748 0.267954 0.496841
O O16 0.516672 0.260857 0.648257
O O17 0.704509 0.199007 0.653981
O O18 0.772500 0.000000 0.610283
O O19 0.005904 0.500000 0.442741
O O20 0.000000 0.258240 0.500000
O O21 0.652029 0.000000 0.707386
#
# Coordination Sequence:
#
# PCOD8064707 Si02
#       8
#     4   4   4   4   4   4   4   4
#     4  10  21  38  58  85 118 153 191 235 294 349
#     4  11  23  37  59  88 120 154 189 239 293 345
#     4  10  22  42  64  84 113 156 201 241 286 342
#     4  11  21  36  60  87 116 152 193 237 286 348
#     4  11  22  35  58  89 114 146 191 238 282 337
#     4  10  20  36  58  82 113 153 187 226 287 348
#     4   9  19  37  58  79 110 152 192 231 279 337
#     4  10  21  39  59  82 115 153 186 229 288 344
#
# _framework density 19.395434999999999
#
# number of rings (size 3 to 8) (size 9 to 14) (size 15 to 20)
#    0.000    1.750    2.500    1.875    0.000    6.750 
#    0.000    1.250    0.000    3.375    0.000    0.000 
#    0.000    0.000    0.000    0.000    0.000    0.000 
#
# Total GULP energy -396946.637906 kJ/mol
# GULP energy per Si atom -12404.582435 kJ/mol
# Density = 1.935129 g / cm^3
# Si number density = 19.395435 Si / 1000 Ang^3
#
#
#
# Elastic Constant Matrix: (Units=GPa)
#
#
# Indices 1 2 3 4 5 6 
#
# 1 111.4672 45.1790 66.1604 0.0000 9.4987 0.0000
# 2 45.1790 68.4036 41.9421 0.0000 8.8370 0.0000
# 3 66.1604 41.9421 79.5682 0.0000 18.9313 0.0000
# 4 0.0000 0.0000 0.0000 26.8600 0.0000 7.5531
# 5 9.4987 8.8370 18.9313 0.0000 35.9923 0.0000
# 6 0.0000 0.0000 0.0000 7.5531 0.0000 24.6820
#
#
#
# Elastic Compliance Matrix: (Units=1/GPa)
#
#
# Indices 1 2 3 4 5 6 
#
# 1 0.018860 -0.004109 -0.014370 0.000000 0.003590 0.000000
# 2 -0.004109 0.022515 -0.008452 0.000000 0.000002 0.000000
# 3 -0.014370 -0.008452 0.031520 0.000000 -0.010711 0.000000
# 4 0.000000 0.000000 0.000000 0.040736 0.000000 -0.012466
# 5 0.003590 0.000002 -0.010711 0.000000 0.032470 0.000000
# 6 0.000000 0.000000 0.000000 -0.012466 0.000000 0.044330
#
#
# Mechanical properties :
#
#
# Convention : Reuss Voigt Hill
#
# Bulk Modulus (GPa) = 52.54038 62.88910 57.71474
# Shear Modulus (GPa) = 19.94909 24.58401 22.26655
#
# Velocity S-wave (km/s) = 3.21057 3.56408 3.39194
# Velocity P-wave (km/s) = 6.39465 7.03079 6.72025
#
# Compressibility (1/GPa) = 0.01903298
#
# Stress axis : x y z
#
# Youngs Moduli (GPa) = 53.02192 44.41426 31.72578
#
# Poissons Ratio (x) = 0.18251 0.45590
# Poissons Ratio (y) = 0.21789 0.26814
# Poissons Ratio (z) = 0.76193 0.37538
#
# Static dielectric constant tensor:
#      x y z
#    x 3.610210 0.000000 0.129950 
#    y 0.000000 3.410460 0.000000 
#    z 0.129950 0.000000 3.693980 
# 
# 
# High freq. dielectric constant tensor:
#      x y z
#    x 1.756850 0.000000 0.010930 
#    y 0.000000 1.740250 0.000000 
#    z 0.010930 0.000000 1.765080 
# 
# From -- ./inp_files/71436.got.cif
#   From: 2010.06.25/outbox.cif.g09.slc.cpg/sg10_36_cif.got.tgz:71436.got - 2010.06.27 22:07:45.
