data_PCOD8064879
_publ_section_title
;
Structure prediction by ZEFSAII (Michael W. Deem and Ramdas Pophale) SiO2 
 PCOD8064879
Probable space group: P 2/M
;
_chemical_formula_sum "Si O2"
_cell_formula_units_Z 32
_cell_length_a 22.510660
_cell_length_b 9.144364
_cell_length_c 12.646900
_cell_angle_alpha 90.000000
_cell_angle_beta 38.831442
_cell_angle_gamma 90.000000
_cell_volume 1632.356835
_symmetry_space_group_name_H-M "P 2/M"
_symmetry_group_IT_number 10
_symmetry_cell_setting 'monoclinic'
loop_
_space_group_symop_operation_xyz
x,y,z
-x,y,-z
-x,-y,-z
x,-y,z
loop_
_atom_site_type_symbol
_atom_site_label
_atom_site_fract_x
_atom_site_fract_y
_atom_site_fract_z
Si Si1 0.888151 0.837331 0.142126
Si Si2 0.125231 0.668708 0.634550
Si Si3 0.398765 0.327945 0.606688
Si Si4 0.378168 0.826353 0.987513
Si Si5 0.086259 0.331406 0.096702
Si Si6 0.569801 0.329757 0.669205
Si Si7 0.737860 0.329669 0.021137
Si Si8 0.681055 0.332172 0.726042
O O1 0.843884 0.756501 0.304209
O O2 0.845596 0.000000 0.195684
O O3 0.863801 0.754686 0.067912
O O4 0.000000 0.839491 0.000000
O O5 0.122809 0.500000 0.671662
O O6 0.205561 0.695264 0.434538
O O7 0.022554 0.718534 0.731100
O O8 0.500000 0.259865 0.500000
O O9 0.402465 0.500000 0.615203
O O10 0.377088 0.287089 0.514174
O O11 0.318343 0.269409 0.797763
O O12 0.366992 0.774295 0.123546
O O13 0.378239 0.000000 0.983813
O O14 0.475224 0.765488 0.806079
O O15 0.290323 0.764169 0.041759
O O16 0.088977 0.500000 0.059122
O O17 0.149828 0.305273 0.113080
O O18 0.539963 0.500000 0.709627
O O19 0.638873 0.293604 0.669924
O O20 0.716031 0.500000 0.028608
O O21 0.658336 0.500000 0.788231
#
# Coordination Sequence:
#
# PCOD8064879 Si02
#       8
#     4   4   4   4   4   4   4   4
#     4   9  17  29  47  73 110 153 185 216 268 332
#     4   9  18  34  54  82 113 142 186 240 282 319
#     4   9  16  30  56  85 111 140 178 227 271 324
#     4  12  25  40  57  79 113 148 186 235 287 337
#     4   9  18  32  55  83 112 146 186 235 281 323
#     4  10  20  37  61  86 111 144 187 227 275 338
#     4  10  20  36  60  84 112 150 191 228 276 336
#     4  10  22  38  61  84 109 146 192 237 278 331
#
# _framework density 19.603556999999999
#
# number of rings (size 3 to 8) (size 9 to 14) (size 15 to 20)
#    0.000    2.250    1.250    1.875    1.750    4.500 
#    0.000    1.875    0.000    3.750    0.000    0.000 
#    0.000    0.000    0.000    0.000    0.000    0.000 
#
# Total GULP energy -396739.530666 kJ/mol
# GULP energy per Si atom -12398.110333 kJ/mol
# Density = 1.955894 g / cm^3
# Si number density = 19.603557 Si / 1000 Ang^3
#
#
#
# Elastic Constant Matrix: (Units=GPa)
#
#
# Indices 1 2 3 4 5 6 
#
# 1 101.3311 29.8254 22.1739 0.0000 6.5251 0.0000
# 2 29.8254 74.0641 17.1491 0.0000 5.9190 0.0000
# 3 22.1739 17.1491 47.7410 0.0000 8.2608 0.0000
# 4 0.0000 0.0000 0.0000 9.4697 0.0000 -2.5891
# 5 6.5251 5.9190 8.2608 0.0000 30.3039 0.0000
# 6 0.0000 0.0000 0.0000 -2.5891 0.0000 10.4007
#
#
#
# Elastic Compliance Matrix: (Units=1/GPa)
#
#
# Indices 1 2 3 4 5 6 
#
# 1 0.011920 -0.003806 -0.004045 0.000000 -0.000721 0.000000
# 2 -0.003806 0.016008 -0.003761 0.000000 -0.001282 0.000000
# 3 -0.004045 -0.003761 0.025081 0.000000 -0.005232 0.000000
# 4 0.000000 0.000000 0.000000 0.113312 0.000000 0.028207
# 5 -0.000721 -0.001282 -0.005232 0.000000 0.034831 0.000000
# 6 0.000000 0.000000 0.000000 0.028207 0.000000 0.103169
#
#
# Mechanical properties :
#
#
# Convention : Reuss Voigt Hill
#
# Bulk Modulus (GPa) = 33.57228 40.15924 36.86576
# Shear Modulus (GPa) = 14.81602 20.30071 17.55837
#
# Velocity S-wave (km/s) = 2.75213 3.22151 2.99603
# Velocity P-wave (km/s) = 5.22128 5.86239 5.55110
#
# Compressibility (1/GPa) = 0.02978648
#
# Stress axis : x y z
#
# Youngs Moduli (GPa) = 83.88957 62.46978 39.87073
#
# Poissons Ratio (x) = 0.23777 0.16126
# Poissons Ratio (y) = 0.31930 0.14993
# Poissons Ratio (z) = 0.33930 0.23492
#
# Static dielectric constant tensor:
#      x y z
#    x 3.649850 0.000000 -0.096130 
#    y 0.000000 3.394620 0.000000 
#    z -0.096130 0.000000 3.542070 
# 
# 
# High freq. dielectric constant tensor:
#      x y z
#    x 1.766010 0.000000 -0.005760 
#    y 0.000000 1.734680 0.000000 
#    z -0.005760 0.000000 1.752700 
# 
# From -- ./inp_files/55262.got.cif
#   From: 2010.06.25/outbox.cif.g09.slc.cpg/sg10_28_cif.got.tgz:55262.got - 2010.06.27 22:07:45.
