data_PCOD8064746
_publ_section_title
;
Structure prediction by ZEFSAII (Michael W. Deem and Ramdas Pophale) SiO2 
 PCOD8064746
Probable space group: P 2/M
;
_chemical_formula_sum "Si O2"
_cell_formula_units_Z 28
_cell_length_a 14.382926
_cell_length_b 9.112289
_cell_length_c 21.280350
_cell_angle_alpha 90.000000
_cell_angle_beta 149.874727
_cell_angle_gamma 90.000000
_cell_volume 1399.793698
_symmetry_space_group_name_H-M "P 2/M"
_symmetry_group_IT_number 10
_symmetry_cell_setting 'monoclinic'
loop_
_space_group_symop_operation_xyz
x,y,z
-x,y,-z
-x,-y,-z
x,-y,z
loop_
_atom_site_type_symbol
_atom_site_label
_atom_site_fract_x
_atom_site_fract_y
_atom_site_fract_z
Si Si1 0.380283 0.669831 0.335015
Si Si2 0.161290 0.329432 0.547942
Si Si3 0.415970 0.170398 0.883214
Si Si4 0.454152 0.328051 0.160601
Si Si5 0.215212 0.827831 0.120020
Si Si6 0.225543 0.669046 0.376849
Si Si7 0.002180 0.827124 0.341618
O O1 0.372876 0.500000 0.309589
O O2 0.324643 0.770274 0.244504
O O3 0.240843 0.698952 0.311431
O O4 0.585168 0.712591 0.477236
O O5 0.139471 0.500000 0.518828
O O6 0.357199 0.292537 0.692657
O O7 0.000000 0.275833 0.500000
O O8 0.147822 0.238329 0.476213
O O9 0.531986 0.264171 0.901253
O O10 0.203521 0.224042 0.760027
O O11 0.430523 0.000000 0.873292
O O12 0.500000 0.201637 0.000000
O O13 0.414309 0.500000 0.132947
O O14 0.286334 0.251043 0.098711
O O15 0.250802 0.000000 0.134714
O O16 0.000000 0.789212 0.000000
O O17 0.180084 0.500000 0.362890
O O18 0.057137 0.766101 0.305128
O O19 0.017382 0.000000 0.348779
#
# Coordination Sequence:
#
# PCOD8064746 Si02
#       7
#     4   4   4   4   4   4   4
#     4   9  19  38  61  86 114 150 194 239 289 344
#     4  10  20  36  58  85 119 152 185 234 294 346
#     4  10  23  42  59  79 116 159 193 233 286 343
#     4  11  23  40  64  90 115 150 195 244 291 341
#     4  11  25  42  60  84 118 158 195 239 294 345
#     4   9  19  36  59  85 118 152 184 235 298 347
#     4  11  22  34  55  87 117 151 195 236 281 345
#
# _framework density 20.002946000000001
#
# number of rings (size 3 to 8) (size 9 to 14) (size 15 to 20)
#    0.000    1.857    1.429    3.000    0.000    9.143 
#    0.000    5.714    0.000    0.000    0.000    0.000 
#    0.000    0.000    0.000    0.000    0.000    0.000 
#
# Total GULP energy -347331.048588 kJ/mol
# GULP energy per Si atom -12404.680307 kJ/mol
# Density = 1.995742 g / cm^3
# Si number density = 20.002946 Si / 1000 Ang^3
#
#
#
# Elastic Constant Matrix: (Units=GPa)
#
#
# Indices 1 2 3 4 5 6 
#
# 1 151.9721 68.3885 35.6817 0.0000 6.4830 0.0000
# 2 68.3885 84.6039 39.4991 0.0000 4.9464 0.0000
# 3 35.6817 39.4991 59.2103 0.0000 -2.2494 0.0000
# 4 0.0000 0.0000 0.0000 23.0618 0.0000 0.4444
# 5 6.4830 4.9464 -2.2494 0.0000 25.4672 0.0000
# 6 0.0000 0.0000 0.0000 0.4444 0.0000 41.6589
#
#
#
# Elastic Compliance Matrix: (Units=1/GPa)
#
#
# Indices 1 2 3 4 5 6 
#
# 1 0.010416 -0.007836 -0.001096 0.000000 -0.001226 0.000000
# 2 -0.007836 0.023558 -0.011129 0.000000 -0.003564 0.000000
# 3 -0.001096 -0.011129 0.025150 0.000000 0.004662 0.000000
# 4 0.000000 0.000000 0.000000 0.043371 0.000000 -0.000463
# 5 -0.001226 -0.003564 0.004662 0.000000 0.040682 0.000000
# 6 0.000000 0.000000 0.000000 -0.000463 0.000000 0.024009
#
#
# Mechanical properties :
#
#
# Convention : Reuss Voigt Hill
#
# Bulk Modulus (GPa) = 52.62387 64.76943 58.69665
# Shear Modulus (GPa) = 23.40346 28.18539 25.79443
#
# Velocity S-wave (km/s) = 3.42424 3.75782 3.59490
# Velocity P-wave (km/s) = 6.48067 7.16090 6.82926
#
# Compressibility (1/GPa) = 0.01900278
#
# Stress axis : x y z
#
# Youngs Moduli (GPa) = 96.00357 42.44798 39.76085
#
# Poissons Ratio (x) = 0.33264 0.04358
# Poissons Ratio (y) = 0.75233 0.44248
# Poissons Ratio (z) = 0.10522 0.47238
#
# Static dielectric constant tensor:
#      x y z
#    x 3.833530 0.000000 0.072670 
#    y 0.000000 3.522830 0.000000 
#    z 0.072670 0.000000 3.506680 
# 
# 
# High freq. dielectric constant tensor:
#      x y z
#    x 1.799700 0.000000 0.000370 
#    y 0.000000 1.776110 0.000000 
#    z 0.000370 0.000000 1.768840 
# 
# From -- ./inp_files/49359.got.cif
#   From: 2010.06.25/outbox.cif.g09.slc.cpg/sg10_25_cif.got.tgz:49359.got - 2010.06.27 22:07:45.
