data_PCOD8064993
_publ_section_title
;
Structure prediction by ZEFSAII (Michael W. Deem and Ramdas Pophale) SiO2 
 PCOD8064993
Probable space group: P 2/M
;
_chemical_formula_sum "Si O2"
_cell_formula_units_Z 28
_cell_length_a 9.112998
_cell_length_b 17.649913
_cell_length_c 17.238962
_cell_angle_alpha 90.000000
_cell_angle_beta 148.732146
_cell_angle_gamma 90.000000
_cell_volume 1439.181201
_symmetry_space_group_name_H-M "P 2/M"
_symmetry_group_IT_number 10
_symmetry_cell_setting 'monoclinic'
loop_
_space_group_symop_operation_xyz
x,y,z
-x,y,-z
-x,-y,-z
x,-y,z
loop_
_atom_site_type_symbol
_atom_site_label
_atom_site_fract_x
_atom_site_fract_y
_atom_site_fract_z
Si Si1 0.679840 0.913778 0.195066
Si Si2 0.154763 0.789402 0.145804
Si Si3 0.832285 0.500000 0.000151
Si Si4 0.212584 0.351728 0.769034
Si Si5 0.264245 0.779420 0.671230
Si Si6 0.163644 0.500000 0.658069
Si Si7 0.137648 0.351106 0.904957
Si Si8 0.064174 0.913156 0.849428
O O1 0.736315 0.864208 0.296098
O O2 0.908100 0.897273 0.230063
O O3 0.705418 0.000000 0.233757
O O4 0.367451 0.895973 0.023600
O O5 0.466876 0.763275 0.262250
O O6 0.979050 0.717898 0.097011
O O7 0.162345 0.856174 0.214006
O O8 0.000000 0.822511 0.000000
O O9 0.506037 0.500000 0.821580
O O10 0.964539 0.430579 0.108387
O O11 0.000000 0.500000 0.000000
O O12 0.223432 0.276457 0.723931
O O13 0.069974 0.422696 0.659357
O O14 0.040563 0.338720 0.771690
O O15 0.530350 0.364791 0.937940
O O16 0.000000 0.765393 0.500000
O O17 0.000000 0.500000 0.500000
O O18 0.969955 0.000000 0.821718
#
# Coordination Sequence:
#
# PCOD8064993 Si02
#       8
#     4   4   2   4   4   2   4   4
#     4   9  18  36  59  83 113 149 187 230 283 337
#     4  12  21  35  58  87 113 144 189 239 282 327
#     4  10  21  35  61  89 116 142 182 246 281 314
#     4  10  20  38  60  85 112 150 190 232 275 334
#     4  12  25  38  55  82 119 153 185 227 287 342
#     4  10  21  37  61  85 116 155 186 218 279 346
#     4  10  20  36  62  87 111 142 194 238 279 322
#     4   9  18  34  60  88 110 141 190 241 281 324
#
# _framework density 19.455507000000001
#
# number of rings (size 3 to 8) (size 9 to 14) (size 15 to 20)
#    0.000    1.714    2.857    3.000    2.000    5.143 
#    0.000    2.857    0.000    2.571    0.000    0.000 
#    0.000    0.000    0.000    0.000    0.000    0.000 
#
# Total GULP energy -346929.495190 kJ/mol
# GULP energy per Si atom -12390.339114 kJ/mol
# Density = 1.941123 g / cm^3
# Si number density = 19.455507 Si / 1000 Ang^3
#
#
#
# Elastic Constant Matrix: (Units=GPa)
#
#
# Indices 1 2 3 4 5 6 
#
# 1 108.7227 49.7212 29.3205 0.0000 -19.8898 0.0000
# 2 49.7212 112.9372 5.1063 0.0000 -15.3932 0.0000
# 3 29.3205 5.1063 40.3313 0.0000 -6.1967 0.0000
# 4 0.0000 0.0000 0.0000 14.9887 0.0000 -13.5884
# 5 -19.8898 -15.3932 -6.1967 0.0000 23.5874 0.0000
# 6 0.0000 0.0000 0.0000 -13.5884 0.0000 26.6019
#
#
#
# Elastic Compliance Matrix: (Units=1/GPa)
#
#
# Indices 1 2 3 4 5 6 
#
# 1 0.015553 -0.005455 -0.009533 0.000000 0.007050 0.000000
# 2 -0.005455 0.011635 0.003077 0.000000 0.003801 0.000000
# 3 -0.009533 0.003077 0.031688 0.000000 0.002294 0.000000
# 4 0.000000 0.000000 0.000000 0.124259 0.000000 0.063472
# 5 0.007050 0.003801 0.002294 0.000000 0.051424 0.000000
# 6 0.000000 0.000000 0.000000 0.063472 0.000000 0.070013
#
#
# Mechanical properties :
#
#
# Convention : Reuss Voigt Hill
#
# Bulk Modulus (GPa) = 28.52786 47.80970 38.16878
# Shear Modulus (GPa) = 14.70237 24.89180 19.79709
#
# Velocity S-wave (km/s) = 2.75197 3.58078 3.19338
# Velocity P-wave (km/s) = 4.97923 6.45935 5.76697
#
# Compressibility (1/GPa) = 0.03505345
#
# Stress axis : x y z
#
# Youngs Moduli (GPa) = 64.29486 85.94568 31.55759
#
# Poissons Ratio (x) = 0.46887 0.30084
# Poissons Ratio (y) = 0.35076 -0.09710
# Poissons Ratio (z) = 0.61293 -0.26445
#
# Static dielectric constant tensor:
#      x y z
#    x 4.137380 0.000000 -1.108480 
#    y 0.000000 3.703120 0.000000 
#    z -1.108480 0.000000 5.263310 
# 
# 
# High freq. dielectric constant tensor:
#      x y z
#    x 1.761430 0.000000 -0.025340 
#    y 0.000000 1.772770 0.000000 
#    z -0.025340 0.000000 1.719380 
# 
# From -- ./inp_files/62409.got.cif
#   From: 2010.06.25/outbox.cif.g09.slc.cpg/sg10_32_cif.got.tgz:62409.got - 2010.06.27 22:07:45.
