data_PCOD8064950
_publ_section_title
;
Structure prediction by ZEFSAII (Michael W. Deem and Ramdas Pophale) SiO2 
 PCOD8064950
Probable space group: P 2/M
;
_chemical_formula_sum "Si O2"
_cell_formula_units_Z 28
_cell_length_a 16.768356
_cell_length_b 9.193458
_cell_length_c 14.113580
_cell_angle_alpha 90.000000
_cell_angle_beta 41.359299
_cell_angle_gamma 90.000000
_cell_volume 1437.681558
_symmetry_space_group_name_H-M "P 2/M"
_symmetry_group_IT_number 10
_symmetry_cell_setting 'monoclinic'
loop_
_space_group_symop_operation_xyz
x,y,z
-x,y,-z
-x,-y,-z
x,-y,z
loop_
_atom_site_type_symbol
_atom_site_label
_atom_site_fract_x
_atom_site_fract_y
_atom_site_fract_z
Si Si1 0.492406 0.331397 0.399872
Si Si2 0.303043 0.330765 0.416034
Si Si3 0.612413 0.170330 0.834501
Si Si4 0.306011 0.168041 0.893390
Si Si5 0.055188 0.827116 0.658913
Si Si6 0.197891 0.829198 0.182415
Si Si7 0.952857 0.831721 0.946367
O O1 0.500000 0.266193 0.500000
O O2 0.526319 0.500000 0.373289
O O3 0.360758 0.306722 0.469242
O O4 0.586467 0.255669 0.247853
O O5 0.286930 0.500000 0.408329
O O6 0.392331 0.261496 0.257906
O O7 0.175134 0.252684 0.519238
O O8 0.737031 0.210784 0.777657
O O9 0.606365 0.000000 0.815102
O O10 0.500000 0.215473 0.000000
O O11 0.345109 0.000000 0.864663
O O12 0.274452 0.233948 0.025353
O O13 0.190002 0.189920 0.930393
O O14 0.942478 0.779337 0.691784
O O15 0.021227 0.768604 0.793803
O O16 0.077226 0.000000 0.634624
O O17 0.196906 0.000000 0.163827
O O18 0.987352 0.000000 0.918147
O O19 0.000000 0.753395 0.000000
#
# Coordination Sequence:
#
# PCOD8064950 Si02
#       7
#     4   4   4   4   4   4   4
#     4  10  23  40  53  69 104 149 181 216 273 327
#     4  11  24  39  54  77 111 144 181 229 272 317
#     4  10  20  36  61  86 109 140 181 224 267 323
#     4   9  17  32  56  83 106 131 174 224 264 314
#     4   9  18  34  56  79 110 147 180 215 265 327
#     4   8  16  33  56  84 113 140 171 217 273 320
#     4   8  15  28  50  81 111 135 166 220 276 311
#
# _framework density 19.4758
#
# number of rings (size 3 to 8) (size 9 to 14) (size 15 to 20)
#    0.000    2.714    0.000    3.000    2.000    3.429 
#    0.000    7.143    0.000    0.857    0.000    0.000 
#    0.000    0.000    0.000    0.000    0.000    0.000 
#
# Total GULP energy -347063.838416 kJ/mol
# GULP energy per Si atom -12395.137086 kJ/mol
# Density = 1.943147 g / cm^3
# Si number density = 19.475800 Si / 1000 Ang^3
#
#
#
# Elastic Constant Matrix: (Units=GPa)
#
#
# Indices 1 2 3 4 5 6 
#
# 1 104.2800 32.8867 38.0476 0.0000 5.6625 0.0000
# 2 32.8867 50.1792 37.1044 0.0000 -2.8499 0.0000
# 3 38.0476 37.1044 95.4676 0.0000 -10.7509 0.0000
# 4 0.0000 0.0000 0.0000 -44.2442 0.0000 18.9551
# 5 5.6625 -2.8499 -10.7509 0.0000 25.9446 0.0000
# 6 0.0000 0.0000 0.0000 18.9551 0.0000 15.1420
#
#
#
# Elastic Compliance Matrix: (Units=1/GPa)
#
#
# Indices 1 2 3 4 5 6 
#
# 1 0.013077 -0.006436 -0.003263 0.000000 -0.004913 0.000000
# 2 -0.006436 0.031189 -0.009454 0.000000 0.000913 0.000000
# 3 -0.003263 -0.009454 0.016167 0.000000 0.006373 0.000000
# 4 0.000000 0.000000 0.000000 -0.014712 0.000000 0.018417
# 5 -0.004913 0.000913 0.006373 0.000000 0.042357 0.000000
# 6 0.000000 0.000000 0.000000 0.018417 0.000000 0.042987
#
#
# Mechanical properties :
#
#
# Convention : Reuss Voigt Hill
#
# Bulk Modulus (GPa) = 45.19554 51.77826 48.48690
# Shear Modulus (GPa) = 28.28863 8.82771 18.55817
#
# Velocity S-wave (km/s) = 3.81530 2.13131 3.09023
# Velocity P-wave (km/s) = 6.53185 5.71842 6.13862
#
# Compressibility (1/GPa) = 0.02212608
#
# Stress axis : x y z
#
# Youngs Moduli (GPa) = 76.47093 32.06214 61.85254
#
# Poissons Ratio (x) = 0.20636 0.20185
# Poissons Ratio (y) = 0.49219 0.58476
# Poissons Ratio (z) = 0.24956 0.30312
#
# Static dielectric constant tensor:
#      x y z
#    x 4.127500 0.000000 0.114680 
#    y 0.000000 3.117600 0.000000 
#    z 0.114680 0.000000 3.486790 
# 
# 
# High freq. dielectric constant tensor:
#      x y z
#    x 1.775880 0.000000 -0.001800 
#    y 0.000000 1.711080 0.000000 
#    z -0.001800 0.000000 1.757000 
# 
# From -- ./inp_files/68586.got.cif
#   From: 2010.06.25/outbox.cif.g09.slc.cpg/sg10_35_cif.got.tgz:68586.got - 2010.06.27 22:07:45.
