data_PCOD8064393
_publ_section_title
;
Structure prediction by ZEFSAII (Michael W. Deem and Ramdas Pophale) SiO2 
 PCOD8064393
Probable space group: P 2/M
;
_chemical_formula_sum "Si O2"
_cell_formula_units_Z 22
_cell_length_a 10.713102
_cell_length_b 7.918600
_cell_length_c 13.763550
_cell_angle_alpha 90.000000
_cell_angle_beta 100.401498
_cell_angle_gamma 90.000000
_cell_volume 1148.412602
_symmetry_space_group_name_H-M "P 2/M"
_symmetry_group_IT_number 10
_symmetry_cell_setting 'monoclinic'
loop_
_space_group_symop_operation_xyz
x,y,z
-x,y,-z
-x,-y,-z
x,-y,z
loop_
_atom_site_type_symbol
_atom_site_label
_atom_site_fract_x
_atom_site_fract_y
_atom_site_fract_z
Si Si1 0.992033 0.500000 0.386267
Si Si2 0.780250 0.191884 0.158316
Si Si3 0.289151 0.500000 0.727025
Si Si4 0.477168 0.500000 0.381320
Si Si5 0.381391 0.193278 0.042587
Si Si6 0.050770 0.813647 0.276185
Si Si7 0.706680 0.681742 0.768682
O O1 0.846740 0.500000 0.340175
O O2 0.000000 0.500000 0.500000
O O3 0.061879 0.669246 0.358904
O O4 0.698891 0.328036 0.208244
O O5 0.931088 0.224346 0.189308
O O6 0.744718 0.000000 0.187278
O O7 0.745646 0.214797 0.040102
O O8 0.388802 0.500000 0.654122
O O9 0.500000 0.500000 0.500000
O O10 0.397016 0.666126 0.334274
O O11 0.368316 0.284473 0.143007
O O12 0.411350 0.000000 0.070534
O O13 0.500000 0.272023 0.000000
O O14 0.182707 0.817194 0.234730
O O15 0.035097 0.000000 0.321497
O O16 0.775473 0.500000 0.790250
#
# Coordination Sequence:
#
# PCOD8064393 Si02
#       7
#     2   4   2   2   4   4   4
#     4  10  21  36  61  90 113 145 199 248 299 355
#     4   9  20  36  58  91 122 151 194 234 289 358
#     4  10  20  35  63  81 112 158 184 244 300 338
#     4  10  23  39  60  82 112 157 198 244 305 346
#     4  10  20  35  57  86 121 158 195 241 288 344
#     4  10  20  39  60  85 123 158 193 241 296 349
#     4  10  22  36  58  84 117 151 202 242 283 352
#
# _framework density 19.156877999999999
#
# number of rings (size 3 to 8) (size 9 to 14) (size 15 to 20)
#    0.545    1.636    0.909    1.636    3.818    1.455 
#    0.000    4.545    0.000    2.727    0.000    0.000 
#    0.000    0.000    0.000    0.000    0.000    0.000 
#
# Total GULP energy -272614.925606 kJ/mol
# GULP energy per Si atom -12391.587528 kJ/mol
# Density = 1.911328 g / cm^3
# Si number density = 19.156878 Si / 1000 Ang^3
#
#
#
# Elastic Constant Matrix: (Units=GPa)
#
#
# Indices 1 2 3 4 5 6 
#
# 1 100.2270 33.0584 45.6870 0.0000 -15.3329 0.0000
# 2 33.0584 108.3504 50.7517 0.0000 -4.0741 0.0000
# 3 45.6870 50.7517 140.0409 0.0000 -7.4419 0.0000
# 4 0.0000 0.0000 0.0000 13.4716 0.0000 0.7327
# 5 -15.3329 -4.0741 -7.4419 0.0000 18.4764 0.0000
# 6 0.0000 0.0000 0.0000 0.7327 0.0000 22.2213
#
#
#
# Elastic Compliance Matrix: (Units=1/GPa)
#
#
# Indices 1 2 3 4 5 6 
#
# 1 0.013618 -0.002352 -0.003083 0.000000 0.009541 0.000000
# 2 -0.002352 0.011536 -0.003456 0.000000 -0.000800 0.000000
# 3 -0.003083 -0.003456 0.009424 0.000000 0.000475 0.000000
# 4 0.000000 0.000000 0.000000 0.074364 0.000000 -0.002452
# 5 0.009541 -0.000800 0.000475 0.000000 0.062056 0.000000
# 6 0.000000 0.000000 0.000000 -0.002452 0.000000 0.045083
#
#
# Mechanical properties :
#
#
# Convention : Reuss Voigt Hill
#
# Bulk Modulus (GPa) = 59.53891 67.51252 63.52571
# Shear Modulus (GPa) = 20.88023 25.44193 23.16108
#
# Velocity S-wave (km/s) = 3.30504 3.64824 3.48087
# Velocity P-wave (km/s) = 6.76103 7.28455 7.02766
#
# Compressibility (1/GPa) = 0.01679574
#
# Stress axis : x y z
#
# Youngs Moduli (GPa) = 73.43116 86.68878 106.10816
#
# Poissons Ratio (x) = 0.20389 0.32718
# Poissons Ratio (y) = 0.17271 0.36668
# Poissons Ratio (z) = 0.22642 0.29958
#
# Static dielectric constant tensor:
#      x y z
#    x 3.257460 0.000000 -0.242070 
#    y 0.000000 3.664550 0.000000 
#    z -0.242070 0.000000 2.785230 
# 
# 
# High freq. dielectric constant tensor:
#      x y z
#    x 1.749240 0.000000 0.009810 
#    y 0.000000 1.746730 0.000000 
#    z 0.009810 0.000000 1.723640 
# 
# From -- ./inp_files/60385.got.cif
#   From: 2010.06.25/outbox.cif.g09.slc.cpg/sg10_31_cif.got.tgz:60385.got - 2010.06.27 22:07:45.
