data_PCOD8064423
_publ_section_title
;
Structure prediction by ZEFSAII (Michael W. Deem and Ramdas Pophale) SiO2 
 PCOD8064423
Probable space group: P 2/M
;
_chemical_formula_sum "Si O2"
_cell_formula_units_Z 32
_cell_length_a 23.432350
_cell_length_b 9.057489
_cell_length_c 14.441481
_cell_angle_alpha 90.000000
_cell_angle_beta 31.924323
_cell_angle_gamma 90.000000
_cell_volume 1620.786327
_symmetry_space_group_name_H-M "P 2/M"
_symmetry_group_IT_number 10
_symmetry_cell_setting 'monoclinic'
loop_
_space_group_symop_operation_xyz
x,y,z
-x,y,-z
-x,-y,-z
x,-y,z
loop_
_atom_site_type_symbol
_atom_site_label
_atom_site_fract_x
_atom_site_fract_y
_atom_site_fract_z
Si Si1 0.169688 0.675795 0.507076
Si Si2 0.598675 0.826331 0.425746
Si Si3 0.797860 0.670030 0.065342
Si Si4 0.740644 0.330175 0.939145
Si Si5 0.506392 0.326705 0.721297
Si Si6 0.009167 0.326147 0.883622
Si Si7 0.586348 0.675200 0.809119
Si Si8 0.107025 0.825629 0.408197
O O1 0.161580 0.500000 0.505777
O O2 0.292942 0.733723 0.337370
O O3 0.105613 0.750279 0.510743
O O4 0.115487 0.724307 0.679937
O O5 0.500000 0.768618 0.500000
O O6 0.708130 0.776735 0.228290
O O7 0.587453 0.753791 0.540939
O O8 0.598157 0.000000 0.437521
O O9 0.769354 0.500000 0.127790
O O10 0.807367 0.691933 0.941857
O O11 0.908048 0.722015 0.960714
O O12 0.743964 0.500000 0.900823
O O13 0.789738 0.229775 0.791311
O O14 0.617386 0.279991 0.125292
O O15 0.521565 0.500000 0.687237
O O16 0.545049 0.271111 0.767325
O O17 0.011918 0.500000 0.891891
O O18 0.000000 0.254917 0.000000
O O19 0.587901 0.500000 0.813540
O O20 0.500000 0.741943 0.000000
O O21 0.000000 0.777969 0.500000
O O22 0.114153 0.000000 0.411207
#
# Coordination Sequence:
#
# PCOD8064423 Si02
#       8
#     4   4   4   4   4   4   4   4
#     4  10  20  37  61  86 115 151 190 239 290 339
#     4  11  23  37  54  81 118 157 191 229 284 348
#     4  10  20  35  58  84 113 146 191 244 288 337
#     4  10  20  35  58  88 114 143 186 238 288 341
#     4  10  20  35  59  88 115 145 187 235 286 340
#     4   9  19  34  56  87 115 144 190 243 294 340
#     4   9  18  33  57  89 119 147 184 231 286 343
#     4  11  24  39  57  82 113 151 191 233 284 342
#
# _framework density 19.743504000000001
#
# number of rings (size 3 to 8) (size 9 to 14) (size 15 to 20)
#    0.000    2.000    1.250    2.250    1.750    5.500 
#    0.000    1.250    0.000    2.250    0.000    0.000 
#    0.000    0.000    0.000    0.000    0.000    0.000 
#
# Total GULP energy -396840.644674 kJ/mol
# GULP energy per Si atom -12401.270146 kJ/mol
# Density = 1.969857 g / cm^3
# Si number density = 19.743504 Si / 1000 Ang^3
#
#
#
# Elastic Constant Matrix: (Units=GPa)
#
#
# Indices 1 2 3 4 5 6 
#
# 1 135.7804 27.5432 52.1220 0.0000 5.8667 0.0000
# 2 27.5432 36.5440 27.5797 0.0000 5.5931 0.0000
# 3 52.1220 27.5797 125.5393 0.0000 10.5169 0.0000
# 4 0.0000 0.0000 0.0000 17.0923 0.0000 -3.5287
# 5 5.8667 5.5931 10.5169 0.0000 36.0564 0.0000
# 6 0.0000 0.0000 0.0000 -3.5287 0.0000 11.9218
#
#
#
# Elastic Compliance Matrix: (Units=1/GPa)
#
#
# Indices 1 2 3 4 5 6 
#
# 1 0.009466 -0.005004 -0.002836 0.000000 0.000063 0.000000
# 2 -0.005004 0.035781 -0.005521 0.000000 -0.003126 0.000000
# 3 -0.002836 -0.005521 0.010502 0.000000 -0.001745 0.000000
# 4 0.000000 0.000000 0.000000 0.062314 0.000000 0.018444
# 5 0.000063 -0.003126 -0.001745 0.000000 0.028718 0.000000
# 6 0.000000 0.000000 0.000000 0.018444 0.000000 0.089339
#
#
# Mechanical properties :
#
#
# Convention : Reuss Voigt Hill
#
# Bulk Modulus (GPa) = 34.45095 56.92817 45.68956
# Shear Modulus (GPa) = 18.34744 25.72202 22.03473
#
# Velocity S-wave (km/s) = 3.05173 3.61336 3.34436
# Velocity P-wave (km/s) = 5.46851 6.80478 6.17291
#
# Compressibility (1/GPa) = 0.02902677
#
# Stress axis : x y z
#
# Youngs Moduli (GPa) = 105.64358 27.94785 95.21673
#
# Poissons Ratio (x) = 0.13984 0.27004
# Poissons Ratio (y) = 0.52860 0.52573
# Poissons Ratio (z) = 0.29962 0.15431
#
# Static dielectric constant tensor:
#      x y z
#    x 3.924880 0.000000 0.011420 
#    y 0.000000 3.172690 0.000000 
#    z 0.011420 0.000000 3.713500 
# 
# 
# High freq. dielectric constant tensor:
#      x y z
#    x 1.781900 0.000000 0.003860 
#    y 0.000000 1.727860 0.000000 
#    z 0.003860 0.000000 1.781590 
# 
# From -- ./inp_files/71500.got.cif
#   From: 2010.06.25/outbox.cif.g09.slc.cpg/sg10_36_cif.got.tgz:71500.got - 2010.06.27 22:07:45.
