data_PCOD8064010
_publ_section_title
;
Structure prediction by ZEFSAII (Michael W. Deem and Ramdas Pophale) SiO2 
 PCOD8064010
Probable space group: P 2/M
;
_chemical_formula_sum "Si O2"
_cell_formula_units_Z 32
_cell_length_a 27.868683
_cell_length_b 8.805846
_cell_length_c 22.588438
_cell_angle_alpha 90.000000
_cell_angle_beta 161.696226
_cell_angle_gamma 90.000000
_cell_volume 1740.922483
_symmetry_space_group_name_H-M "P 2/M"
_symmetry_group_IT_number 10
_symmetry_cell_setting 'monoclinic'
loop_
_space_group_symop_operation_xyz
x,y,z
-x,y,-z
-x,-y,-z
x,-y,z
loop_
_atom_site_type_symbol
_atom_site_label
_atom_site_fract_x
_atom_site_fract_y
_atom_site_fract_z
Si Si1 0.957586 0.678978 0.591985
Si Si2 0.827206 0.666895 0.318605
Si Si3 0.741800 0.822609 0.106966
Si Si4 0.557914 0.679994 0.295434
Si Si5 0.981838 0.331049 0.114749
Si Si6 0.142165 0.821661 0.404476
Si Si7 0.160124 0.830774 0.153692
Si Si8 0.700894 0.332415 0.581840
O O1 0.957874 0.500000 0.607576
O O2 0.833503 0.716169 0.394927
O O3 0.910274 0.780984 0.591451
O O4 0.127131 0.725295 0.770806
O O5 0.750772 0.500000 0.222744
O O6 0.734917 0.784977 0.169442
O O7 0.000000 0.657188 0.500000
O O8 0.773140 0.000000 0.135012
O O9 0.582845 0.777285 0.891874
O O10 0.532131 0.500000 0.257222
O O11 0.706097 0.726927 0.431731
O O12 0.579985 0.723301 0.390748
O O13 0.936268 0.500000 0.082581
O O14 0.005748 0.224501 0.199861
O O15 0.135316 0.335777 0.256983
O O16 0.847178 0.267268 0.915013
O O17 0.174974 0.000000 0.437145
O O18 0.294599 0.773368 0.354940
O O19 0.202061 0.000000 0.183761
O O20 0.000000 0.823951 0.000000
O O21 0.656898 0.500000 0.552433
#
# Coordination Sequence:
#
# PCOD8064010 Si02
#       8
#     4   4   4   4   4   4   4   4
#     4  10  20  36  56  76 100 133 170 203 243 299
#     4   8  16  32  53  74  97 128 165 203 244 294
#     4  11  21  33  53  80 105 129 163 209 253 290
#     4  10  20  35  52  71 101 139 172 202 246 304
#     4   9  16  27  42  61  90 128 165 198 239 294
#     4  11  21  33  50  75 105 132 164 209 257 298
#     4   9  15  22  36  60  89 120 156 201 247 286
#     4   8  15  26  41  61  87 123 163 200 239 288
#
# _framework density 18.381060999999999
#
# number of rings (size 3 to 8) (size 9 to 14) (size 15 to 20)
#    0.000    2.500    0.000    5.250    0.000    7.750 
#    0.000    0.625    0.000    3.750    0.000    0.875 
#    0.000    7.000    0.000    0.000    0.000    0.000 
#
# Total GULP energy -396652.718095 kJ/mol
# GULP energy per Si atom -12395.397440 kJ/mol
# Density = 1.833922 g / cm^3
# Si number density = 18.381061 Si / 1000 Ang^3
#
#
#
# Elastic Constant Matrix: (Units=GPa)
#
#
# Indices 1 2 3 4 5 6 
#
# 1 -77.4915 11.7528 64.8220 0.0000 15.4602 0.0000
# 2 11.7528 94.0512 31.4389 0.0000 -16.0849 0.0000
# 3 64.8220 31.4389 76.7724 0.0000 -41.5955 0.0000
# 4 0.0000 0.0000 0.0000 23.8880 0.0000 -5.2315
# 5 15.4602 -16.0849 -41.5955 0.0000 15.7869 0.0000
# 6 0.0000 0.0000 0.0000 -5.2315 0.0000 25.7808
#
#
#
# Elastic Compliance Matrix: (Units=1/GPa)
#
#
# Indices 1 2 3 4 5 6 
#
# 1 0.004063 0.000384 0.012939 0.000000 0.030505 0.000000
# 2 0.000384 0.012335 -0.002877 0.000000 0.004611 0.000000
# 3 0.012939 -0.002877 0.012105 0.000000 0.016291 0.000000
# 4 0.000000 0.000000 0.000000 0.043809 0.000000 0.008890
# 5 0.030505 0.004611 0.016291 0.000000 0.081091 0.000000
# 6 0.000000 0.000000 0.000000 0.008890 0.000000 0.040592
#
#
# Mechanical properties :
#
#
# Convention : Reuss Voigt Hill
#
# Bulk Modulus (GPa) = 20.24475 34.37328 27.30901
# Shear Modulus (GPa) = 26.37572 12.11237 19.24405
#
# Velocity S-wave (km/s) = 3.79217 2.56980 3.23917
# Velocity P-wave (km/s) = 5.49654 5.24844 5.37392
#
# Compressibility (1/GPa) = 0.04939552
#
# Stress axis : x y z
#
# Youngs Moduli (GPa) = 246.09518 81.07104 82.61184
#
# Poissons Ratio (x) = -0.03112 -1.06895
# Poissons Ratio (y) = -0.09448 0.23769
# Poissons Ratio (z) = -3.18434 0.23326
#
# Static dielectric constant tensor:
#      x y z
#    x 3.270790 0.000000 -0.546490 
#    y 0.000000 3.486220 0.000000 
#    z -0.546490 0.000000 3.357640 
# 
# 
# High freq. dielectric constant tensor:
#      x y z
#    x 1.682900 0.000000 -0.045860 
#    y 0.000000 1.722080 0.000000 
#    z -0.045860 0.000000 1.693170 
# 
# From -- ./inp_files/87031.got.cif
#   From: 2010.06.25/outbox.cif.g09.slc.cpg/sg10_44_cif.got.tgz:87031.got - 2010.06.27 22:07:45.
