data_PCOD8064747
_publ_section_title
;
Structure prediction by ZEFSAII (Michael W. Deem and Ramdas Pophale) SiO2 
 PCOD8064747
Probable space group: P 2/M
;
_chemical_formula_sum "Si O2"
_cell_formula_units_Z 30
_cell_length_a 11.303236
_cell_length_b 18.784615
_cell_length_c 10.464629
_cell_angle_alpha 90.000000
_cell_angle_beta 138.808201
_cell_angle_gamma 90.000000
_cell_volume 1463.317701
_symmetry_space_group_name_H-M "P 2/M"
_symmetry_group_IT_number 10
_symmetry_cell_setting 'monoclinic'
loop_
_space_group_symop_operation_xyz
x,y,z
-x,y,-z
-x,-y,-z
x,-y,z
loop_
_atom_site_type_symbol
_atom_site_label
_atom_site_fract_x
_atom_site_fract_y
_atom_site_fract_z
Si Si1 0.678091 0.225895 0.085158
Si Si2 0.844045 0.197390 0.773209
Si Si3 0.200247 0.323140 0.426649
Si Si4 0.246073 0.920919 0.791541
Si Si5 0.295539 0.577457 0.297196
Si Si6 0.619348 0.286626 0.772605
Si Si7 0.000000 0.286964 0.500000
Si Si8 0.155092 0.920917 0.434440
O O1 0.643631 0.140514 0.044695
O O2 0.853429 0.236287 0.315135
O O3 0.500000 0.261859 0.000000
O O4 0.710357 0.261409 0.976010
O O5 0.911816 0.260742 0.735265
O O6 0.668099 0.227964 0.704076
O O7 0.793772 0.131016 0.641327
O O8 0.000000 0.176142 0.000000
O O9 0.189192 0.395950 0.336913
O O10 0.405680 0.295803 0.608518
O O11 0.104621 0.337341 0.484542
O O12 0.257389 0.902276 0.649364
O O13 0.051585 0.918474 0.696088
O O14 0.327763 0.000000 0.881394
O O15 0.500000 0.567886 0.500000
O O16 0.218162 0.500000 0.190475
O O17 0.282368 0.637848 0.177716
O O18 0.208121 0.000000 0.430932
#
# Coordination Sequence:
#
# PCOD8064747 Si02
#       8
#     4   4   4   4   4   4   2   4
#     4  12  23  37  61  90 118 154 200 249 299 358
#     4  11  20  32  54  81 115 155 196 245 301 354
#     4  10  20  36  58  85 119 157 198 246 298 350
#     4   9  18  34  54  80 115 153 200 250 294 354
#     4   8  16  34  62  89 120 161 199 236 287 350
#     4  10  21  37  56  90 121 154 200 246 292 356
#     4  12  22  38  60  88 124 156 198 256 302 344
#     4   9  18  33  55  81 112 157 203 243 301 360
#
# _framework density 20.501359000000001
#
# number of rings (size 3 to 8) (size 9 to 14) (size 15 to 20)
#    0.000    2.000    1.333    6.000    0.000    0.533 
#    0.000    1.000    0.000   17.200    0.000    0.000 
#    0.000    0.000    0.000    0.000    0.000    0.000 
#
# Total GULP energy -371696.206653 kJ/mol
# GULP energy per Si atom -12389.873555 kJ/mol
# Density = 2.045470 g / cm^3
# Si number density = 20.501359 Si / 1000 Ang^3
#
#
#
# Elastic Constant Matrix: (Units=GPa)
#
#
# Indices 1 2 3 4 5 6 
#
# 1 146.1220 71.2844 34.6732 0.0000 -14.2333 0.0000
# 2 71.2844 163.7783 40.6093 0.0000 -27.5217 0.0000
# 3 34.6732 40.6093 69.8176 0.0000 -8.5576 0.0000
# 4 0.0000 0.0000 0.0000 -12.1929 0.0000 -55.1681
# 5 -14.2333 -27.5217 -8.5576 0.0000 32.6431 0.0000
# 6 0.0000 0.0000 0.0000 -55.1681 0.0000 9.2117
#
#
#
# Elastic Compliance Matrix: (Units=1/GPa)
#
#
# Indices 1 2 3 4 5 6 
#
# 1 0.009079 -0.003219 -0.002566 0.000000 0.000572 0.000000
# 2 -0.003219 0.009201 -0.003073 0.000000 0.005548 0.000000
# 3 -0.002566 -0.003073 0.017492 0.000000 0.000876 0.000000
# 4 0.000000 0.000000 0.000000 -0.002919 0.000000 -0.017481
# 5 0.000572 0.005548 0.000876 0.000000 0.035791 0.000000
# 6 0.000000 0.000000 0.000000 -0.017481 0.000000 0.003864
#
#
# Mechanical properties :
#
#
# Convention : Reuss Voigt Hill
#
# Bulk Modulus (GPa) = 55.38535 74.76129 65.07332
# Shear Modulus (GPa) = 51.95158 21.47578 36.71368
#
# Velocity S-wave (km/s) = 5.03940 3.24007 4.23637
# Velocity P-wave (km/s) = 7.80608 7.10936 7.46585
#
# Compressibility (1/GPa) = 0.01805532
#
# Stress axis : x y z
#
# Youngs Moduli (GPa) = 110.14879 108.68040 57.16793
#
# Poissons Ratio (x) = 0.34985 0.14671
# Poissons Ratio (y) = 0.35458 0.17569
# Poissons Ratio (z) = 0.28267 0.33399
#
# Static dielectric constant tensor:
#      x y z
#    x 3.818810 0.000000 -0.120900 
#    y 0.000000 4.095270 0.000000 
#    z -0.120900 0.000000 3.549490 
# 
# 
# High freq. dielectric constant tensor:
#      x y z
#    x 1.803400 0.000000 0.002750 
#    y 0.000000 1.783790 0.000000 
#    z 0.002750 0.000000 1.788610 
# 
# From -- ./inp_files/47928.got.cif
#   From: 2010.06.25/outbox.cif.g09.slc.cpg/sg10_24_cif.got.tgz:47928.got - 2010.06.27 22:07:45.
