data_PCOD8064008
_publ_section_title
;
Structure prediction by ZEFSAII (Michael W. Deem and Ramdas Pophale) SiO2 
 PCOD8064008
Probable space group: P 2/M
;
_chemical_formula_sum "Si O2"
_cell_formula_units_Z 24
_cell_length_a 15.050720
_cell_length_b 7.871181
_cell_length_c 12.488630
_cell_angle_alpha 90.000000
_cell_angle_beta 109.653198
_cell_angle_gamma 90.000000
_cell_volume 1393.302987
_symmetry_space_group_name_H-M "P 2/M"
_symmetry_group_IT_number 10
_symmetry_cell_setting 'monoclinic'
loop_
_space_group_symop_operation_xyz
x,y,z
-x,y,-z
-x,-y,-z
x,-y,z
loop_
_atom_site_type_symbol
_atom_site_label
_atom_site_fract_x
_atom_site_fract_y
_atom_site_fract_z
Si Si1 0.149654 0.500000 0.012692
Si Si2 0.490401 0.198036 0.116280
Si Si3 0.284153 0.807078 0.014077
Si Si4 0.041298 0.801552 0.347426
Si Si5 0.316609 0.312492 0.797392
Si Si6 0.146265 0.804728 0.603240
Si Si7 0.040393 0.500000 0.186936
O O1 0.207859 0.673084 0.022559
O O2 0.109221 0.500000 0.114704
O O3 0.068443 0.500000 0.891086
O O4 0.384291 0.242718 0.112348
O O5 0.579387 0.282169 0.214342
O O6 0.506680 0.000000 0.129295
O O7 0.500000 0.267529 0.000000
O O8 0.254299 0.000000 0.034273
O O9 0.296136 0.810533 0.889748
O O10 0.119623 0.766447 0.469874
O O11 0.062603 0.673419 0.259727
O O12 0.939354 0.754011 0.353540
O O13 0.044672 0.000000 0.311808
O O14 0.310158 0.500000 0.843091
O O15 0.239903 0.296418 0.672358
O O16 0.169589 0.000000 0.628104
#
# Coordination Sequence:
#
# PCOD8064008 Si02
#       7
#     2   4   4   4   4   4   2
#     4  11  24  38  51  77  95 127 178 210 253 290
#     4   8  16  29  45  68 100 139 167 193 242 296
#     4  10  20  35  52  70 103 140 169 205 245 292
#     4   9  20  36  54  74 101 137 167 201 250 295
#     4  11  19  25  46  81 110 136 163 197 245 299
#     4   9  18  32  50  76 106 135 167 197 238 305
#     4  11  24  37  54  73 101 128 166 220 249 293
#
# _framework density 17.225255000000001
#
# number of rings (size 3 to 8) (size 9 to 14) (size 15 to 20)
#    0.000    2.333    0.833    4.500    3.500    4.333 
#    0.000    1.667    0.000    0.000    0.000    2.333 
#    0.000    5.333    0.000    0.000    0.000    0.000 
#
# Total GULP energy -297412.334790 kJ/mol
# GULP energy per Si atom -12392.180616 kJ/mol
# Density = 1.718605 g / cm^3
# Si number density = 17.225255 Si / 1000 Ang^3
#
#
#
# Elastic Constant Matrix: (Units=GPa)
#
#
# Indices 1 2 3 4 5 6 
#
# 1 97.2253 52.0833 46.8103 0.0000 26.0927 0.0000
# 2 52.0833 99.1868 39.3172 0.0000 6.3724 0.0000
# 3 46.8103 39.3172 75.3361 0.0000 17.5626 0.0000
# 4 0.0000 0.0000 0.0000 20.5343 0.0000 5.1859
# 5 26.0927 6.3724 17.5626 0.0000 30.3318 0.0000
# 6 0.0000 0.0000 0.0000 5.1859 0.0000 24.5519
#
#
#
# Elastic Compliance Matrix: (Units=1/GPa)
#
#
# Indices 1 2 3 4 5 6 
#
# 1 0.020650 -0.007712 -0.005829 0.000000 -0.012769 0.000000
# 2 -0.007712 0.015640 -0.004799 0.000000 0.006127 0.000000
# 3 -0.005829 -0.004799 0.020805 0.000000 -0.006023 0.000000
# 4 0.000000 0.000000 0.000000 0.051443 0.000000 -0.010866
# 5 -0.012769 0.006127 -0.006023 0.000000 0.046153 0.000000
# 6 0.000000 0.000000 0.000000 -0.010866 0.000000 0.043025
#
#
# Mechanical properties :
#
#
# Convention : Reuss Voigt Hill
#
# Bulk Modulus (GPa) = 48.98610 60.90773 54.94691
# Shear Modulus (GPa) = 20.72943 23.98608 22.35776
#
# Velocity S-wave (km/s) = 3.47282 3.73566 3.60663
# Velocity P-wave (km/s) = 6.67689 7.35141 7.02225
#
# Compressibility (1/GPa) = 0.02041395
#
# Stress axis : x y z
#
# Youngs Moduli (GPa) = 48.42541 63.93697 48.06625
#
# Poissons Ratio (x) = 0.49311 0.28020
# Poissons Ratio (y) = 0.37348 0.23066
# Poissons Ratio (z) = 0.28229 0.30682
#
# Static dielectric constant tensor:
#      x y z
#    x 3.240410 0.000000 0.413410 
#    y 0.000000 3.206590 0.000000 
#    z 0.413410 0.000000 3.001820 
# 
# 
# High freq. dielectric constant tensor:
#      x y z
#    x 1.648900 0.000000 0.042390 
#    y 0.000000 1.679710 0.000000 
#    z 0.042390 0.000000 1.628520 
# 
# From -- ./inp_files/48903.got.cif
#   From: 2010.06.25/outbox.cif.g09.slc.cpg/sg10_25_cif.got.tgz:48903.got - 2010.06.27 22:07:45.
