data_PCOD8064612
_publ_section_title
;
Structure prediction by ZEFSAII (Michael W. Deem and Ramdas Pophale) SiO2 
 PCOD8064612
Probable space group: P 2/M
;
_chemical_formula_sum "Si O2"
_cell_formula_units_Z 32
_cell_length_a 24.925110
_cell_length_b 8.811593
_cell_length_c 15.567529
_cell_angle_alpha 90.000000
_cell_angle_beta 149.670356
_cell_angle_gamma 90.000000
_cell_volume 1726.555096
_symmetry_space_group_name_H-M "P 2/M"
_symmetry_group_IT_number 10
_symmetry_cell_setting 'monoclinic'
loop_
_space_group_symop_operation_xyz
x,y,z
-x,y,-z
-x,-y,-z
x,-y,z
loop_
_atom_site_type_symbol
_atom_site_label
_atom_site_fract_x
_atom_site_fract_y
_atom_site_fract_z
Si Si1 0.182281 0.178255 0.577382
Si Si2 0.438019 0.323632 0.329153
Si Si3 0.731261 0.176136 0.486212
Si Si4 0.066073 0.322327 0.171120
Si Si5 0.976264 0.678130 0.231872
Si Si6 0.289246 0.676393 0.886303
Si Si7 0.525811 0.327616 0.268685
Si Si8 0.230537 0.178524 0.980163
O O1 0.248437 0.224555 0.584149
O O2 0.251388 0.226841 0.753658
O O3 0.071033 0.268078 0.425226
O O4 0.158452 0.000000 0.548020
O O5 0.500000 0.275267 0.500000
O O6 0.403584 0.500000 0.282914
O O7 0.514686 0.291938 0.354387
O O8 0.332740 0.222783 0.177849
O O9 0.815390 0.255526 0.665532
O O10 0.612143 0.218608 0.346599
O O11 0.747523 0.000000 0.521166
O O12 0.079175 0.500000 0.177937
O O13 0.005267 0.279949 0.174312
O O14 0.000000 0.253521 0.000000
O O15 0.956069 0.500000 0.216875
O O16 0.872035 0.772760 0.108680
O O17 0.262190 0.500000 0.835887
O O18 0.229390 0.733948 0.888273
O O19 0.414665 0.703769 0.068192
O O20 0.562710 0.500000 0.305293
O O21 0.229987 0.000000 0.962099
#
# Coordination Sequence:
#
# PCOD8064612 Si02
#       8
#     4   4   4   4   4   4   4   4
#     4  10  21  37  55  79 109 139 174 218 268 316
#     4   9  19  37  58  79 106 142 183 224 264 310
#     4  10  21  35  53  78 110 143 173 213 265 319
#     4   9  19  36  57  79 104 138 180 222 262 307
#     4  10  20  36  57  79 106 141 180 220 262 314
#     4  10  21  38  58  80 105 138 180 221 263 312
#     4   9  19  35  55  78 105 138 178 221 260 307
#     4  11  22  36  55  80 111 142 174 218 269 319
#
# _framework density 18.534016000000001
#
# number of rings (size 3 to 8) (size 9 to 14) (size 15 to 20)
#    0.000    2.250    0.000    3.375    0.000    7.000 
#    0.000   10.000    0.000    0.000    0.000    0.000 
#    0.000    0.000    0.000    0.000    0.000    0.000 
#
# Total GULP energy -396927.219446 kJ/mol
# GULP energy per Si atom -12403.975608 kJ/mol
# Density = 1.849183 g / cm^3
# Si number density = 18.534016 Si / 1000 Ang^3
#
#
#
# Elastic Constant Matrix: (Units=GPa)
#
#
# Indices 1 2 3 4 5 6 
#
# 1 76.2819 27.3949 56.8119 0.0000 5.7822 0.0000
# 2 27.3949 49.6403 28.7206 0.0000 5.8553 0.0000
# 3 56.8119 28.7206 102.0389 0.0000 -11.7783 0.0000
# 4 0.0000 0.0000 0.0000 21.1567 0.0000 0.8944
# 5 5.7822 5.8553 -11.7783 0.0000 35.1528 0.0000
# 6 0.0000 0.0000 0.0000 0.8944 0.0000 29.4863
#
#
#
# Elastic Compliance Matrix: (Units=1/GPa)
#
#
# Indices 1 2 3 4 5 6 
#
# 1 0.025985 -0.005358 -0.013887 0.000000 -0.008035 0.000000
# 2 -0.005358 0.026701 -0.005143 0.000000 -0.005289 0.000000
# 3 -0.013887 -0.005143 0.020120 0.000000 0.009882 0.000000
# 4 0.000000 0.000000 0.000000 0.047327 0.000000 -0.001436
# 5 -0.008035 -0.005289 0.009882 0.000000 0.033961 0.000000
# 6 0.000000 0.000000 0.000000 -0.001436 0.000000 0.033958
#
#
# Mechanical properties :
#
#
# Convention : Reuss Voigt Hill
#
# Bulk Modulus (GPa) = 41.61315 50.42397 46.01856
# Shear Modulus (GPa) = 20.42165 24.82806 22.62486
#
# Velocity S-wave (km/s) = 3.32301 3.66402 3.49767
# Velocity P-wave (km/s) = 6.10117 6.72051 6.41831
#
# Compressibility (1/GPa) = 0.02403087
#
# Stress axis : x y z
#
# Youngs Moduli (GPa) = 38.48387 37.45135 49.70113
#
# Poissons Ratio (x) = 0.20066 0.69020
# Poissons Ratio (y) = 0.20619 0.25561
# Poissons Ratio (z) = 0.53442 0.19261
#
# Static dielectric constant tensor:
#      x y z
#    x 3.401440 0.000000 -0.074530 
#    y 0.000000 3.387250 0.000000 
#    z -0.074530 0.000000 3.452620 
# 
# 
# High freq. dielectric constant tensor:
#      x y z
#    x 1.717200 0.000000 -0.000660 
#    y 0.000000 1.723720 0.000000 
#    z -0.000660 0.000000 1.723420 
# 
# From -- ./inp_files/71448.got.cif
#   From: 2010.06.25/outbox.cif.g09.slc.cpg/sg10_36_cif.got.tgz:71448.got - 2010.06.27 22:07:45.
