data_PCOD8064078
_publ_section_title
;
Structure prediction by ZEFSAII (Michael W. Deem and Ramdas Pophale) SiO2 
 PCOD8064078
Probable space group: P 2/M
;
_chemical_formula_sum "Si O2"
_cell_formula_units_Z 24
_cell_length_a 12.384041
_cell_length_b 8.957831
_cell_length_c 23.588814
_cell_angle_alpha 90.000000
_cell_angle_beta 153.126605
_cell_angle_gamma 90.000000
_cell_volume 1182.849634
_symmetry_space_group_name_H-M "P 2/M"
_symmetry_group_IT_number 10
_symmetry_cell_setting 'monoclinic'
loop_
_space_group_symop_operation_xyz
x,y,z
-x,y,-z
-x,-y,-z
x,-y,z
loop_
_atom_site_type_symbol
_atom_site_label
_atom_site_fract_x
_atom_site_fract_y
_atom_site_fract_z
Si Si1 0.480828 0.673473 0.426684
Si Si2 0.159845 0.674333 0.501202
Si Si3 0.432767 0.171710 0.093624
Si Si4 0.309980 0.826801 0.677424
Si Si5 0.730511 0.665400 0.146748
Si Si6 0.011567 0.175776 0.186258
O O1 0.500000 0.734776 0.500000
O O2 0.415144 0.500000 0.396339
O O3 0.726055 0.703448 0.507284
O O4 0.270522 0.757282 0.294200
O O5 0.104221 0.500000 0.484190
O O6 0.344599 0.729429 0.636798
O O7 0.921878 0.771317 0.396388
O O8 0.457650 0.193567 0.173106
O O9 0.652874 0.261642 0.169337
O O10 0.466187 0.000000 0.091318
O O11 0.174129 0.227128 0.950116
O O12 0.275877 0.000000 0.645515
O O13 0.835464 0.500000 0.207863
O O14 0.931308 0.762956 0.209989
O O15 0.500000 0.656315 0.000000
O O16 0.030793 0.000000 0.198537
#
# Coordination Sequence:
#
# PCOD8064078 Si02
#       6
#     4   4   4   4   4   4
#     4  10  23  41  58  79 111 149 187 229 276 332
#     4  10  21  38  58  82 112 145 185 233 278 325
#     4   9  19  34  53  81 113 144 181 229 279 325
#     4  10  20  36  60  85 112 144 183 230 277 329
#     4   9  17  29  48  75 108 145 181 220 268 321
#     4  10  20  35  54  79 112 146 184 228 274 331
#
# _framework density 20.289982999999999
#
# number of rings (size 3 to 8) (size 9 to 14) (size 15 to 20)
#    0.000    2.333    0.000    3.000    2.333    5.667 
#    0.000    0.833    0.000    5.000    0.000    0.000 
#    0.000    0.000    0.000    0.000    0.000    0.000 
#
# Total GULP energy -297532.799269 kJ/mol
# GULP energy per Si atom -12397.199970 kJ/mol
# Density = 2.024380 g / cm^3
# Si number density = 20.289983 Si / 1000 Ang^3
#
#
#
# Elastic Constant Matrix: (Units=GPa)
#
#
# Indices 1 2 3 4 5 6 
#
# 1 86.3250 17.6572 18.8059 0.0000 -10.2546 0.0000
# 2 17.6572 69.0344 15.0396 0.0000 -1.6824 0.0000
# 3 18.8059 15.0396 61.8393 0.0000 -12.4803 0.0000
# 4 0.0000 0.0000 0.0000 26.7822 0.0000 4.0070
# 5 -10.2546 -1.6824 -12.4803 0.0000 31.3922 0.0000
# 6 0.0000 0.0000 0.0000 4.0070 0.0000 26.2273
#
#
#
# Elastic Compliance Matrix: (Units=1/GPa)
#
#
# Indices 1 2 3 4 5 6 
#
# 1 0.013086 -0.002682 -0.002711 0.000000 0.003053 0.000000
# 2 -0.002682 0.015861 -0.003313 0.000000 -0.001343 0.000000
# 3 -0.002711 -0.003313 0.019121 0.000000 0.006538 0.000000
# 4 0.000000 0.000000 0.000000 0.038212 0.000000 -0.005838
# 5 0.003053 -0.001343 0.006538 0.000000 0.035380 0.000000
# 6 0.000000 0.000000 0.000000 -0.005838 0.000000 0.039020
#
#
# Mechanical properties :
#
#
# Convention : Reuss Voigt Hill
#
# Bulk Modulus (GPa) = 32.62073 35.57824 34.09948
# Shear Modulus (GPa) = 26.55207 27.92674 27.23940
#
# Velocity S-wave (km/s) = 3.62142 3.71399 3.66800
# Velocity P-wave (km/s) = 5.79642 5.99704 5.89758
#
# Compressibility (1/GPa) = 0.03065535
#
# Stress axis : x y z
#
# Youngs Moduli (GPa) = 76.41740 63.04970 52.29939
#
# Poissons Ratio (x) = 0.16910 0.14179
# Poissons Ratio (y) = 0.20495 0.17326
# Poissons Ratio (z) = 0.20718 0.20887
#
# Static dielectric constant tensor:
#      x y z
#    x 3.580660 0.000000 -0.210450 
#    y 0.000000 3.731080 0.000000 
#    z -0.210450 0.000000 3.713540 
# 
# 
# High freq. dielectric constant tensor:
#      x y z
#    x 1.770450 0.000000 -0.016240 
#    y 0.000000 1.795980 0.000000 
#    z -0.016240 0.000000 1.790550 
# 
# From -- ./inp_files/88753.got.cif
#   From: 2010.06.25/outbox.cif.g09.slc.cpg/sg10_45_cif.got.tgz:88753.got - 2010.06.27 22:07:45.
