data_PCOD8064547
_publ_section_title
;
Structure prediction by ZEFSAII (Michael W. Deem and Ramdas Pophale) SiO2 
 PCOD8064547
Probable space group: P 2/M
;
_chemical_formula_sum "Si O2"
_cell_formula_units_Z 32
_cell_length_a 19.283355
_cell_length_b 17.703869
_cell_length_c 14.001544
_cell_angle_alpha 90.000000
_cell_angle_beta 160.312395
_cell_angle_gamma 90.000000
_cell_volume 1610.337360
_symmetry_space_group_name_H-M "P 2/M"
_symmetry_group_IT_number 10
_symmetry_cell_setting 'monoclinic'
loop_
_space_group_symop_operation_xyz
x,y,z
-x,y,-z
-x,-y,-z
x,-y,z
loop_
_atom_site_type_symbol
_atom_site_label
_atom_site_fract_x
_atom_site_fract_y
_atom_site_fract_z
Si Si1 0.287614 0.582925 0.175395
Si Si2 0.573562 0.586392 0.853263
Si Si3 0.992165 0.202821 0.658936
Si Si4 0.672113 0.306450 0.149422
Si Si5 0.321536 0.721333 0.458004
Si Si6 0.389515 0.177347 0.068933
Si Si7 0.914079 0.276723 0.034617
Si Si8 0.345988 0.083223 0.713711
O O1 0.500000 0.612758 0.500000
O O2 0.243808 0.500000 0.159544
O O3 0.285794 0.582883 0.058061
O O4 0.094595 0.634098 0.953918
O O5 0.511500 0.500000 0.802599
O O6 0.376835 0.636083 0.564076
O O7 0.696984 0.627910 0.100712
O O8 0.884601 0.279116 0.475910
O O9 0.834014 0.140572 0.491359
O O10 0.130363 0.228694 0.928101
O O11 0.148693 0.164869 0.784292
O O12 0.500000 0.336409 0.000000
O O13 0.584900 0.230238 0.990375
O O14 0.509991 0.778678 0.712591
O O15 0.135742 0.747436 0.284372
O O16 0.263273 0.733934 0.273146
O O17 0.520686 0.103907 0.208962
O O18 0.250246 0.000000 0.570299
O O19 0.500000 0.078845 0.000000
#
# Coordination Sequence:
#
# PCOD8064547 Si02
#       8
#     4   4   4   4   4   4   4   4
#     4  10  20  36  54  80 120 155 201 264 315 355
#     4  10  21  37  58  82 116 159 205 260 311 363
#     4  12  22  37  65  91 125 162 198 248 304 358
#     4  11  20  38  59  83 123 160 203 254 306 355
#     4  10  21  36  58  87 120 153 207 263 297 354
#     4  11  21  38  62  90 123 159 196 250 299 352
#     4  11  21  35  59  88 115 160 212 250 305 364
#     4  11  23  42  64  93 129 158 194 241 295 365
#
# _framework density 19.871611000000001
#
# number of rings (size 3 to 8) (size 9 to 14) (size 15 to 20)
#    0.000    1.250    5.000    2.625    0.000    1.250 
#    0.000    3.125    0.000   10.500    0.000    1.750 
#    0.000    0.000    0.000    0.000    0.000    0.000 
#
# Total GULP energy -396420.740054 kJ/mol
# GULP energy per Si atom -12388.148127 kJ/mol
# Density = 1.982638 g / cm^3
# Si number density = 19.871611 Si / 1000 Ang^3
#
#
#
# Elastic Constant Matrix: (Units=GPa)
#
#
# Indices 1 2 3 4 5 6 
#
# 1 92.7694 33.8163 49.1404 0.0000 -7.1861 0.0000
# 2 33.8163 95.7943 43.1857 0.0000 -7.6162 0.0000
# 3 49.1404 43.1857 79.9051 0.0000 -3.1516 0.0000
# 4 0.0000 0.0000 0.0000 19.6056 0.0000 1.9637
# 5 -7.1861 -7.6162 -3.1516 0.0000 31.5718 0.0000
# 6 0.0000 0.0000 0.0000 1.9637 0.0000 22.9034
#
#
#
# Elastic Compliance Matrix: (Units=1/GPa)
#
#
# Indices 1 2 3 4 5 6 
#
# 1 0.016361 -0.001438 -0.009187 0.000000 0.002460 0.000000
# 2 -0.001438 0.014143 -0.006664 0.000000 0.002419 0.000000
# 3 -0.009187 -0.006664 0.021706 0.000000 -0.001532 0.000000
# 4 0.000000 0.000000 0.000000 0.051448 0.000000 -0.004411
# 5 0.002460 0.002419 -0.001532 0.000000 0.032664 0.000000
# 6 0.000000 0.000000 0.000000 -0.004411 0.000000 0.044040
#
#
# Mechanical properties :
#
#
# Convention : Reuss Voigt Hill
#
# Bulk Modulus (GPa) = 56.71778 57.86153 57.28966
# Shear Modulus (GPa) = 22.64306 24.30461 23.47383
#
# Velocity S-wave (km/s) = 3.37926 3.50105 3.44070
# Velocity P-wave (km/s) = 6.62042 6.74715 6.68409
#
# Compressibility (1/GPa) = 0.01763116
#
# Stress axis : x y z
#
# Youngs Moduli (GPa) = 61.12184 70.70467 46.06978
#
# Poissons Ratio (x) = 0.10168 0.42326
# Poissons Ratio (y) = 0.08790 0.30701
# Poissons Ratio (z) = 0.56155 0.47118
#
# Static dielectric constant tensor:
#      x y z
#    x 3.696110 0.000000 -0.139420 
#    y 0.000000 3.729570 0.000000 
#    z -0.139420 0.000000 3.887190 
# 
# 
# High freq. dielectric constant tensor:
#      x y z
#    x 1.785760 0.000000 -0.006620 
#    y 0.000000 1.746390 0.000000 
#    z -0.006620 0.000000 1.763310 
# 
# From -- ./inp_files/70886.got.cif
#   From: 2010.06.25/outbox.cif.g09.slc.cpg/sg10_36_cif.got.tgz:70886.got - 2010.06.27 22:07:45.
