data_PCOD8064576
_publ_section_title
;
Structure prediction by ZEFSAII (Michael W. Deem and Ramdas Pophale) SiO2 
 PCOD8064576
Probable space group: P 2/M
;
_chemical_formula_sum "Si O2"
_cell_formula_units_Z 32
_cell_length_a 20.816850
_cell_length_b 8.852535
_cell_length_c 23.010288
_cell_angle_alpha 90.000000
_cell_angle_beta 24.107936
_cell_angle_gamma 90.000000
_cell_volume 1732.012208
_symmetry_space_group_name_H-M "P 2/M"
_symmetry_group_IT_number 10
_symmetry_cell_setting 'monoclinic'
loop_
_space_group_symop_operation_xyz
x,y,z
-x,y,-z
-x,-y,-z
x,-y,z
loop_
_atom_site_type_symbol
_atom_site_label
_atom_site_fract_x
_atom_site_fract_y
_atom_site_fract_z
Si Si1 0.156796 0.821343 0.838597
Si Si2 0.473612 0.329030 0.590101
Si Si3 0.226148 0.329240 0.241601
Si Si4 0.315290 0.675961 0.038758
Si Si5 0.786862 0.175071 0.338381
Si Si6 0.116197 0.673550 0.521442
Si Si7 0.362058 0.175976 0.239342
Si Si8 0.996958 0.175967 0.733165
O O1 0.312412 0.754819 0.741311
O O2 0.153623 0.768024 0.773888
O O3 0.165235 0.000000 0.837376
O O4 0.000000 0.759232 0.000000
O O5 0.500000 0.314897 0.500000
O O6 0.459433 0.500000 0.623277
O O7 0.627716 0.255921 0.492226
O O8 0.266735 0.500000 0.228188
O O9 0.311798 0.291166 0.110508
O O10 0.286634 0.213658 0.239477
O O11 0.040125 0.309935 0.387970
O O12 0.286113 0.500000 0.050381
O O13 0.183070 0.771119 0.114412
O O14 0.481730 0.728858 0.877412
O O15 0.925782 0.209527 0.268538
O O16 0.744792 0.000000 0.369631
O O17 0.172657 0.500000 0.475213
O O18 0.245575 0.781504 0.387175
O O19 0.088025 0.726532 0.610153
O O20 0.401399 0.000000 0.208950
O O21 0.005293 0.000000 0.709648
#
# Coordination Sequence:
#
# PCOD8064576 Si02
#       8
#     4   4   4   4   4   4   4   4
#     4   9  17  31  52  78 108 140 171 204 250 305
#     4   9  17  29  48  75 104 134 170 211 248 286
#     4   9  19  35  54  75 100 133 171 210 259 320
#     4  10  21  37  55  74 102 140 176 211 258 316
#     4   9  18  33  54  77 102 136 172 208 252 303
#     4  10  21  37  55  74 101 136 171 210 260 316
#     4  12  23  33  51  79 106 132 168 217 266 309
#     4  10  20  36  56  77 101 131 174 221 261 305
#
# _framework density 18.475621
#
# number of rings (size 3 to 8) (size 9 to 14) (size 15 to 20)
#    0.000    2.250    0.000    4.125    0.000    8.750 
#    0.000    1.250    0.000    6.000    0.000    0.000 
#    0.000    0.000    0.000    0.000    0.000    0.000 
#
# Total GULP energy -396871.690802 kJ/mol
# GULP energy per Si atom -12402.240338 kJ/mol
# Density = 1.843357 g / cm^3
# Si number density = 18.475621 Si / 1000 Ang^3
#
#
#
# Elastic Constant Matrix: (Units=GPa)
#
#
# Indices 1 2 3 4 5 6 
#
# 1 72.3529 29.2624 34.4166 0.0000 -12.4544 0.0000
# 2 29.2624 62.4257 26.7426 0.0000 -3.8658 0.0000
# 3 34.4166 26.7426 120.7854 0.0000 -6.2793 0.0000
# 4 0.0000 0.0000 0.0000 29.1387 0.0000 -0.6292
# 5 -12.4544 -3.8658 -6.2793 0.0000 12.2361 0.0000
# 6 0.0000 0.0000 0.0000 -0.6292 0.0000 19.6376
#
#
#
# Elastic Compliance Matrix: (Units=1/GPa)
#
#
# Indices 1 2 3 4 5 6 
#
# 1 0.021619 -0.007501 -0.003574 0.000000 0.017801 0.000000
# 2 -0.007501 0.020463 -0.002521 0.000000 -0.002463 0.000000
# 3 -0.003574 -0.002521 0.009889 0.000000 0.000641 0.000000
# 4 0.000000 0.000000 0.000000 0.034342 0.000000 0.001100
# 5 0.017801 -0.002463 0.000641 0.000000 0.099394 0.000000
# 6 0.000000 0.000000 0.000000 0.001100 0.000000 0.050958
#
#
# Mechanical properties :
#
#
# Convention : Reuss Voigt Hill
#
# Bulk Modulus (GPa) = 40.35746 48.48970 44.42358
# Shear Modulus (GPa) = 18.37454 23.21199 20.79327
#
# Velocity S-wave (km/s) = 3.15704 3.54836 3.35840
# Velocity P-wave (km/s) = 5.93129 6.56430 6.25581
#
# Compressibility (1/GPa) = 0.02477856
#
# Stress axis : x y z
#
# Youngs Moduli (GPa) = 46.25597 48.86976 101.12169
#
# Poissons Ratio (x) = 0.36655 0.36141
# Poissons Ratio (y) = 0.34695 0.25497
# Poissons Ratio (z) = 0.16532 0.12322
#
# Static dielectric constant tensor:
#      x y z
#    x 3.197680 0.000000 -0.084490 
#    y 0.000000 3.435170 0.000000 
#    z -0.084490 0.000000 3.530500 
# 
# 
# High freq. dielectric constant tensor:
#      x y z
#    x 1.690660 0.000000 -0.011060 
#    y 0.000000 1.721160 0.000000 
#    z -0.011060 0.000000 1.722180 
# 
# From -- ./inp_files/93866.got.cif
#   From: 2010.06.25/outbox.cif.g09.slc.cpg/sg10_47_cif.got.tgz:93866.got - 2010.06.27 22:07:45.
