data_PCOD8064447
_publ_section_title
;
Structure prediction by ZEFSAII (Michael W. Deem and Ramdas Pophale) SiO2 
 PCOD8064447
Probable space group: P 2/M
;
_chemical_formula_sum "Si O2"
_cell_formula_units_Z 28
_cell_length_a 15.982267
_cell_length_b 8.968666
_cell_length_c 11.239475
_cell_angle_alpha 90.000000
_cell_angle_beta 119.183858
_cell_angle_gamma 90.000000
_cell_volume 1406.552978
_symmetry_space_group_name_H-M "P 2/M"
_symmetry_group_IT_number 10
_symmetry_cell_setting 'monoclinic'
loop_
_space_group_symop_operation_xyz
x,y,z
-x,y,-z
-x,-y,-z
x,-y,z
loop_
_atom_site_type_symbol
_atom_site_label
_atom_site_fract_x
_atom_site_fract_y
_atom_site_fract_z
Si Si1 0.124332 0.672247 0.334338
Si Si2 0.627287 0.169386 0.856736
Si Si3 0.906216 0.327803 0.156346
Si Si4 0.739237 0.827776 0.163439
Si Si5 0.283025 0.173472 0.582121
Si Si6 0.465812 0.675220 0.606067
Si Si7 0.829110 0.171975 0.877707
O O1 0.153432 0.500000 0.359147
O O2 0.180349 0.759463 0.476076
O O3 0.153120 0.733293 0.226360
O O4 0.012141 0.695427 0.281477
O O5 0.542884 0.277724 0.758183
O O6 0.718427 0.191564 0.835350
O O7 0.589301 0.000000 0.823883
O O8 0.655823 0.212286 0.011578
O O9 0.885733 0.500000 0.112179
O O10 0.832760 0.272154 0.205837
O O11 0.896446 0.233257 0.029092
O O12 0.698355 0.795956 0.265767
O O13 0.769843 0.000000 0.167489
O O14 0.364624 0.249038 0.560447
O O15 0.282737 0.000000 0.551854
O O16 0.500000 0.728397 0.500000
O O17 0.451316 0.500000 0.601759
O O18 0.855322 0.000000 0.873638
#
# Coordination Sequence:
#
# PCOD8064447 Si02
#       7
#     4   4   4   4   4   4   4
#     4  11  23  37  54  82 119 154 191 237 289 341
#     4   9  19  37  60  84 112 146 185 232 282 333
#     4  10  21  36  57  84 116 154 190 233 289 341
#     4   9  21  41  61  84 113 147 192 240 283 334
#     4  11  24  41  61  83 111 150 193 238 286 337
#     4  11  24  40  59  86 118 149 182 226 282 344
#     4  10  20  35  58  87 117 151 193 238 283 336
#
# _framework density 19.906821999999998
#
# number of rings (size 3 to 8) (size 9 to 14) (size 15 to 20)
#    0.000    1.857    0.000    4.286    0.000   12.571 
#    0.000    5.714    0.000    0.000    0.000    0.000 
#    0.000    0.000    0.000    0.000    0.000    0.000 
#
# Total GULP energy -347355.328906 kJ/mol
# GULP energy per Si atom -12405.547461 kJ/mol
# Density = 1.986151 g / cm^3
# Si number density = 19.906822 Si / 1000 Ang^3
#
#
#
# Elastic Constant Matrix: (Units=GPa)
#
#
# Indices 1 2 3 4 5 6 
#
# 1 58.3266 43.0866 49.5904 0.0000 -0.2791 0.0000
# 2 43.0866 84.7995 45.1725 0.0000 5.0411 0.0000
# 3 49.5904 45.1725 103.1190 0.0000 5.9767 0.0000
# 4 0.0000 0.0000 0.0000 32.4358 0.0000 12.5622
# 5 -0.2791 5.0411 5.9767 0.0000 31.3207 0.0000
# 6 0.0000 0.0000 0.0000 12.5622 0.0000 15.7939
#
#
#
# Elastic Compliance Matrix: (Units=1/GPa)
#
#
# Indices 1 2 3 4 5 6 
#
# 1 0.037101 -0.012368 -0.012699 0.000000 0.004745 0.000000
# 2 -0.012368 0.019550 -0.002455 0.000000 -0.002788 0.000000
# 3 -0.012699 -0.002455 0.017052 0.000000 -0.002972 0.000000
# 4 0.000000 0.000000 0.000000 0.044555 0.000000 -0.035439
# 5 0.004745 -0.002788 -0.002972 0.000000 0.032986 0.000000
# 6 0.000000 0.000000 0.000000 -0.035439 0.000000 0.091503
#
#
# Mechanical properties :
#
#
# Convention : Reuss Voigt Hill
#
# Bulk Modulus (GPa) = 53.59197 57.99377 55.79287
# Shear Modulus (GPa) = 16.44674 23.13644 19.79159
#
# Velocity S-wave (km/s) = 2.87746 3.41286 3.15653
# Velocity P-wave (km/s) = 6.16600 6.68775 6.43217
#
# Compressibility (1/GPa) = 0.01865951
#
# Stress axis : x y z
#
# Youngs Moduli (GPa) = 26.95332 51.15037 58.64405
#
# Poissons Ratio (x) = 0.63265 0.74472
# Poissons Ratio (y) = 0.33337 0.14394
# Poissons Ratio (z) = 0.34228 0.12555
#
# Static dielectric constant tensor:
#      x y z
#    x 3.524850 0.000000 0.012260 
#    y 0.000000 3.713750 0.000000 
#    z 0.012260 0.000000 3.714540 
# 
# 
# High freq. dielectric constant tensor:
#      x y z
#    x 1.772740 0.000000 0.002700 
#    y 0.000000 1.785260 0.000000 
#    z 0.002700 0.000000 1.781640 
# 
# From -- ./inp_files/50048.got.cif
#   From: 2010.06.25/outbox.cif.g09.slc.cpg/sg10_26_cif.got.tgz:50048.got - 2010.06.27 22:07:45.
