data_PCOD8064317
_publ_section_title
;
Structure prediction by ZEFSAII (Michael W. Deem and Ramdas Pophale) SiO2 
 PCOD8064317
Probable space group: P 2/M
;
_chemical_formula_sum "Si O2"
_cell_formula_units_Z 32
_cell_length_a 25.158419
_cell_length_b 9.195800
_cell_length_c 19.602205
_cell_angle_alpha 90.000000
_cell_angle_beta 21.626439
_cell_angle_gamma 90.000000
_cell_volume 1671.392297
_symmetry_space_group_name_H-M "P 2/M"
_symmetry_group_IT_number 10
_symmetry_cell_setting 'monoclinic'
loop_
_space_group_symop_operation_xyz
x,y,z
-x,y,-z
-x,-y,-z
x,-y,z
loop_
_atom_site_type_symbol
_atom_site_label
_atom_site_fract_x
_atom_site_fract_y
_atom_site_fract_z
Si Si1 0.492506 0.331363 0.692342
Si Si2 0.201477 0.171189 0.075868
Si Si3 0.047563 0.172507 0.730593
Si Si4 0.660242 0.668182 0.627901
Si Si5 0.613993 0.836675 0.423312
Si Si6 0.845169 0.828722 0.712921
Si Si7 0.427685 0.670787 0.015429
Si Si8 0.932277 0.828837 0.011706
O O1 0.453849 0.500000 0.732071
O O2 0.604671 0.301154 0.618618
O O3 0.572335 0.277932 0.529934
O O4 0.345719 0.245982 0.878225
O O5 0.165819 0.220379 0.195271
O O6 0.072164 0.221453 0.181122
O O7 0.226317 0.000000 0.041102
O O8 0.197437 0.239819 0.527534
O O9 0.005534 0.234850 0.855739
O O10 0.063275 0.000000 0.712952
O O11 0.696846 0.500000 0.596923
O O12 0.535736 0.721608 0.827318
O O13 0.500000 0.832408 0.500000
O O14 0.624837 0.000000 0.441687
O O15 0.764405 0.788932 0.210396
O O16 0.723718 0.751859 0.812480
O O17 0.000000 0.778811 0.500000
O O18 0.824005 0.000000 0.730242
O O19 0.396341 0.500000 0.049239
O O20 0.500000 0.716748 0.000000
O O21 0.958264 0.000000 0.980427
O O22 0.000000 0.760374 0.000000
#
# Coordination Sequence:
#
# PCOD8064317 Si02
#       8
#     4   4   4   4   4   4   4   4
#     4  11  22  37  58  83 115 153 193 239 287 341
#     4  10  21  38  58  83 116 152 192 237 288 347
#     4  10  21  36  58  85 111 146 193 238 285 342
#     4  10  22  39  56  82 117 150 192 239 284 335
#     4  10  20  35  57  82 110 146 189 237 288 341
#     4  10  22  39  60  88 120 150 186 239 294 341
#     4  10  22  41  62  85 116 156 198 237 279 340
#     4   9  17  31  51  77 107 139 180 229 277 332
#
# _framework density 19.145716
#
# number of rings (size 3 to 8) (size 9 to 14) (size 15 to 20)
#    0.000    2.000    1.250    1.875    1.750    5.750 
#    0.000    0.625    0.000    2.250    0.000    0.000 
#    0.000    0.000    0.000    0.000    0.000    0.000 
#
# Total GULP energy -396904.818072 kJ/mol
# GULP energy per Si atom -12403.275565 kJ/mol
# Density = 1.910214 g / cm^3
# Si number density = 19.145716 Si / 1000 Ang^3
#
#
#
# Elastic Constant Matrix: (Units=GPa)
#
#
# Indices 1 2 3 4 5 6 
#
# 1 106.6096 29.8803 45.0341 0.0000 -4.6917 0.0000
# 2 29.8803 27.0679 26.1582 0.0000 -8.2550 0.0000
# 3 45.0341 26.1582 115.1926 0.0000 -13.6312 0.0000
# 4 0.0000 0.0000 0.0000 21.6825 0.0000 5.6600
# 5 -4.6917 -8.2550 -13.6312 0.0000 36.0340 0.0000
# 6 0.0000 0.0000 0.0000 5.6600 0.0000 21.3377
#
#
#
# Elastic Compliance Matrix: (Units=1/GPa)
#
#
# Indices 1 2 3 4 5 6 
#
# 1 0.014321 -0.013895 -0.002721 0.000000 -0.002348 0.000000
# 2 -0.013895 0.062611 -0.007645 0.000000 0.009643 0.000000
# 3 -0.002721 -0.007645 0.011758 0.000000 0.002342 0.000000
# 4 0.000000 0.000000 0.000000 0.049551 0.000000 -0.013144
# 5 -0.002348 0.009643 0.002342 0.000000 0.030541 0.000000
# 6 0.000000 0.000000 0.000000 -0.013144 0.000000 0.050352
#
#
# Mechanical properties :
#
#
# Convention : Reuss Voigt Hill
#
# Bulk Modulus (GPa) = 24.89513 50.11280 37.50397
# Shear Modulus (GPa) = 17.79073 25.66400 21.72737
#
# Velocity S-wave (km/s) = 3.05163 3.66520 3.37240
# Velocity P-wave (km/s) = 5.04458 6.64400 5.89875
#
# Compressibility (1/GPa) = 0.04016849
#
# Stress axis : x y z
#
# Youngs Moduli (GPa) = 69.82956 15.97153 85.04780
#
# Poissons Ratio (x) = 0.22192 0.23143
# Poissons Ratio (y) = 0.97028 0.65017
# Poissons Ratio (z) = 0.19002 0.12210
#
# Static dielectric constant tensor:
#      x y z
#    x 3.715010 0.000000 0.085320 
#    y 0.000000 3.283680 0.000000 
#    z 0.085320 0.000000 3.565890 
# 
# 
# High freq. dielectric constant tensor:
#      x y z
#    x 1.758630 0.000000 -0.001050 
#    y 0.000000 1.719630 0.000000 
#    z -0.001050 0.000000 1.758380 
# 
# From -- ./inp_files/86813.got.cif
#   From: 2010.06.25/outbox.cif.g09.slc.cpg/sg10_44_cif.got.tgz:86813.got - 2010.06.27 22:07:45.
