data_PCOD8064108
_publ_section_title
;
Structure prediction by ZEFSAII (Michael W. Deem and Ramdas Pophale) SiO2 
 PCOD8064108
Probable space group: P 2/M
;
_chemical_formula_sum "Si O2"
_cell_formula_units_Z 32
_cell_length_a 14.568534
_cell_length_b 9.597096
_cell_length_c 14.616136
_cell_angle_alpha 90.000000
_cell_angle_beta 118.997874
_cell_angle_gamma 90.000000
_cell_volume 1787.378202
_symmetry_space_group_name_H-M "P 2/M"
_symmetry_group_IT_number 10
_symmetry_cell_setting 'monoclinic'
loop_
_space_group_symop_operation_xyz
x,y,z
-x,y,-z
-x,-y,-z
x,-y,z
loop_
_atom_site_type_symbol
_atom_site_label
_atom_site_fract_x
_atom_site_fract_y
_atom_site_fract_z
Si Si1 0.179566 0.162692 0.836896
Si Si2 0.894555 0.337628 0.502062
Si Si3 0.766800 0.159427 0.751837
Si Si4 0.514569 0.659923 0.788405
Si Si5 0.578611 0.339493 0.615063
Si Si6 0.941148 0.838985 0.696248
Si Si7 0.719732 0.337231 0.271332
Si Si8 0.293278 0.161146 0.076551
O O1 0.250859 0.249757 0.803048
O O2 0.059699 0.211419 0.768997
O O3 0.192844 0.000000 0.820956
O O4 0.215099 0.197896 0.956761
O O5 0.895549 0.500000 0.528228
O O6 0.886142 0.250619 0.590864
O O7 0.794876 0.297862 0.392093
O O8 0.000000 0.294570 0.500000
O O9 0.684647 0.252633 0.656890
O O10 0.880914 0.184798 0.763090
O O11 0.767965 0.201266 0.859557
O O12 0.731447 0.000000 0.723423
O O13 0.536874 0.500000 0.824546
O O14 0.522785 0.685871 0.684570
O O15 0.398430 0.704903 0.761160
O O16 0.599610 0.752043 0.883149
O O17 0.500000 0.284732 0.500000
O O18 0.608109 0.500000 0.613354
O O19 0.936909 0.000000 0.664371
O O20 0.731028 0.500000 0.253597
O O21 0.325734 0.000000 0.091241
#
# Coordination Sequence:
#
# PCOD8064108 Si02
#       8
#     4   4   4   4   4   4   4   4
#     4  10  21  36  55  78 104 137 177 219 262 308
#     4  10  20  35  55  77 105 141 176 214 259 309
#     4   9  19  35  53  76 106 137 172 213 259 310
#     4   9  19  35  53  76 105 136 173 215 261 311
#     4   9  18  32  52  76 102 135 174 215 257 305
#     4  10  21  35  53  80 109 138 174 215 261 311
#     4  10  21  36  54  78 107 139 175 213 259 314
#     4   9  19  37  57  76 103 138 175 218 263 308
#
# _framework density 17.903317999999999
#
# number of rings (size 3 to 8) (size 9 to 14) (size 15 to 20)
#    0.000    2.500    1.250    0.000    1.750    3.500 
#    0.000    5.000    0.000    0.000    0.000    5.250 
#    0.000    0.000    0.000    0.000    0.000    0.000 
#
# Total GULP energy -396888.490046 kJ/mol
# GULP energy per Si atom -12402.765314 kJ/mol
# Density = 1.786257 g / cm^3
# Si number density = 17.903318 Si / 1000 Ang^3
#
#
#
# Elastic Constant Matrix: (Units=GPa)
#
#
# Indices 1 2 3 4 5 6 
#
# 1 103.7562 36.0990 32.2182 0.0000 -4.0658 0.0000
# 2 36.0990 48.2518 40.2148 0.0000 -3.5480 0.0000
# 3 32.2182 40.2148 102.1951 0.0000 -4.4925 0.0000
# 4 0.0000 0.0000 0.0000 30.5350 0.0000 0.1615
# 5 -4.0658 -3.5480 -4.4925 0.0000 16.1072 0.0000
# 6 0.0000 0.0000 0.0000 0.1615 0.0000 27.0237
#
#
#
# Elastic Compliance Matrix: (Units=1/GPa)
#
#
# Indices 1 2 3 4 5 6 
#
# 1 0.013061 -0.009371 -0.000380 0.000000 0.001126 0.000000
# 2 -0.009371 0.037754 -0.011785 0.000000 0.002664 0.000000
# 3 -0.000380 -0.011785 0.014603 0.000000 0.001381 0.000000
# 4 0.000000 0.000000 0.000000 0.032750 0.000000 -0.000196
# 5 0.001126 0.002664 0.001381 0.000000 0.063340 0.000000
# 6 0.000000 0.000000 0.000000 -0.000196 0.000000 0.037006
#
#
# Mechanical properties :
#
#
# Convention : Reuss Voigt Hill
#
# Bulk Modulus (GPa) = 44.75396 52.36300 48.55848
# Shear Modulus (GPa) = 20.07748 24.44459 22.26103
#
# Velocity S-wave (km/s) = 3.35242 3.69910 3.53002
# Velocity P-wave (km/s) = 6.32747 6.89605 6.61787
#
# Compressibility (1/GPa) = 0.02234439
#
# Stress axis : x y z
#
# Youngs Moduli (GPa) = 76.56538 26.48756 68.47783
#
# Poissons Ratio (x) = 0.24823 0.02604
# Poissons Ratio (y) = 0.71753 0.80700
# Poissons Ratio (z) = 0.02911 0.31215
#
# Static dielectric constant tensor:
#      x y z
#    x 3.366080 0.000000 0.033060 
#    y 0.000000 3.301470 0.000000 
#    z 0.033060 0.000000 3.324700 
# 
# 
# High freq. dielectric constant tensor:
#      x y z
#    x 1.696350 0.000000 -0.000280 
#    y 0.000000 1.688720 0.000000 
#    z -0.000280 0.000000 1.693040 
# 
# From -- ./inp_files/66486.got.cif
#   From: 2010.06.25/outbox.cif.g09.slc.cpg/sg10_34_cif.got.tgz:66486.got - 2010.06.27 22:07:45.
