data_PCOD8064909
_publ_section_title
;
Structure prediction by ZEFSAII (Michael W. Deem and Ramdas Pophale) SiO2 
 PCOD8064909
Probable space group: P 2/M
;
_chemical_formula_sum "Si O2"
_cell_formula_units_Z 28
_cell_length_a 8.283389
_cell_length_b 13.613250
_cell_length_c 13.865606
_cell_angle_alpha 90.000000
_cell_angle_beta 56.480177
_cell_angle_gamma 90.000000
_cell_volume 1303.514399
_symmetry_space_group_name_H-M "P 2/M"
_symmetry_group_IT_number 10
_symmetry_cell_setting 'monoclinic'
loop_
_space_group_symop_operation_xyz
x,y,z
-x,y,-z
-x,-y,-z
x,-y,z
loop_
_atom_site_type_symbol
_atom_site_label
_atom_site_fract_x
_atom_site_fract_y
_atom_site_fract_z
Si Si1 0.706846 0.237973 0.200833
Si Si2 0.142263 0.393132 0.364755
Si Si3 0.957769 0.111334 0.379892
Si Si4 0.693416 0.716282 0.991967
Si Si5 0.703179 0.801074 0.619548
Si Si6 0.956159 0.112480 0.868019
Si Si7 0.035747 0.386041 0.779767
O O1 0.525490 0.175621 0.304235
O O2 0.877061 0.159344 0.119331
O O3 0.778680 0.320505 0.252805
O O4 0.650396 0.290590 0.119554
O O5 0.240661 0.500000 0.311908
O O6 0.297339 0.312256 0.344969
O O7 0.000000 0.404506 0.500000
O O8 0.026095 0.357369 0.308378
O O9 0.799842 0.183171 0.482328
O O10 0.953072 0.126275 0.267937
O O11 0.174890 0.133244 0.345828
O O12 0.903638 0.000000 0.425534
O O13 0.757228 0.827023 0.941703
O O14 0.859782 0.638419 0.910245
O O15 0.500000 0.686985 0.000000
O O16 0.914518 0.000000 0.908766
O O17 0.091896 0.500000 0.769749
#
# Coordination Sequence:
#
# PCOD8064909 Si02
#       7
#     4   4   4   4   4   4   4
#     4  11  24  37  59  91 121 156 199 244 296 359
#     4  10  20  36  60  87 115 155 198 236 286 350
#     4  10  21  38  60  86 114 157 207 247 292 351
#     4  11  23  40  63  90 118 152 204 250 292 352
#     4  11  20  36  60  85 120 156 193 252 294 342
#     4  10  22  40  59  83 121 158 196 246 300 354
#     4  10  22  41  62  87 124 159 194 243 296 350
#
# _framework density 21.480391999999998
#
# number of rings (size 3 to 8) (size 9 to 14) (size 15 to 20)
#    0.000    1.571    1.429    6.000    0.000    5.143 
#    0.000    1.429    0.000    2.571    0.000    0.000 
#    0.000    0.000    0.000    0.000    0.000    0.000 
#
# Total GULP energy -347165.305003 kJ/mol
# GULP energy per Si atom -12398.760893 kJ/mol
# Density = 2.143150 g / cm^3
# Si number density = 21.480392 Si / 1000 Ang^3
#
#
#
# Elastic Constant Matrix: (Units=GPa)
#
#
# Indices 1 2 3 4 5 6 
#
# 1 71.3020 9.7142 26.0429 0.0000 -13.1394 0.0000
# 2 9.7142 97.3978 8.4090 0.0000 -2.2234 0.0000
# 3 26.0429 8.4090 74.3972 0.0000 -6.7314 0.0000
# 4 0.0000 0.0000 0.0000 30.6127 0.0000 9.9313
# 5 -13.1394 -2.2234 -6.7314 0.0000 38.5020 0.0000
# 6 0.0000 0.0000 0.0000 9.9313 0.0000 23.3777
#
#
#
# Elastic Compliance Matrix: (Units=1/GPa)
#
#
# Indices 1 2 3 4 5 6 
#
# 1 0.017036 -0.001123 -0.005402 0.000000 0.004805 0.000000
# 2 -0.001123 0.010448 -0.000780 0.000000 0.000084 0.000000
# 3 -0.005402 -0.000780 0.015495 0.000000 0.000820 0.000000
# 4 0.000000 0.000000 0.000000 0.037888 0.000000 -0.016095
# 5 0.004805 0.000084 0.000820 0.000000 0.027761 0.000000
# 6 0.000000 0.000000 0.000000 -0.016095 0.000000 0.049613
#
#
# Mechanical properties :
#
#
# Convention : Reuss Voigt Hill
#
# Bulk Modulus (GPa) = 35.24983 36.82547 36.03765
# Shear Modulus (GPa) = 27.42606 31.76053 29.59330
#
# Velocity S-wave (km/s) = 3.57710 3.84941 3.71575
# Velocity P-wave (km/s) = 5.78850 6.07768 5.93485
#
# Compressibility (1/GPa) = 0.02836893
#
# Stress axis : x y z
#
# Youngs Moduli (GPa) = 58.69819 95.70789 64.53804
#
# Poissons Ratio (x) = 0.10749 0.34863
# Poissons Ratio (y) = 0.06592 0.05036
# Poissons Ratio (z) = 0.31708 0.07468
#
# Static dielectric constant tensor:
#      x y z
#    x 3.773820 0.000000 0.219220 
#    y 0.000000 4.248540 0.000000 
#    z 0.219220 0.000000 3.778120 
# 
# 
# High freq. dielectric constant tensor:
#      x y z
#    x 1.831640 0.000000 0.018240 
#    y 0.000000 1.844810 0.000000 
#    z 0.018240 0.000000 1.844440 
# 
# From -- ./inp_files/61773.got.cif
#   From: 2010.06.25/outbox.cif.g09.slc.cpg/sg10_31_cif.got.tgz:61773.got - 2010.06.27 22:07:45.
