data_PCOD8064654
_publ_section_title
;
Structure prediction by ZEFSAII (Michael W. Deem and Ramdas Pophale) SiO2 
 PCOD8064654
Probable space group: P 2/M
;
_chemical_formula_sum "Si O2"
_cell_formula_units_Z 24
_cell_length_a 8.522300
_cell_length_b 17.120534
_cell_length_c 11.894613
_cell_angle_alpha 90.000000
_cell_angle_beta 50.483649
_cell_angle_gamma 90.000000
_cell_volume 1338.838831
_symmetry_space_group_name_H-M "P 2/M"
_symmetry_group_IT_number 10
_symmetry_cell_setting 'monoclinic'
loop_
_space_group_symop_operation_xyz
x,y,z
-x,y,-z
-x,-y,-z
x,-y,z
loop_
_atom_site_type_symbol
_atom_site_label
_atom_site_fract_x
_atom_site_fract_y
_atom_site_fract_z
Si Si1 0.551325 0.910843 0.349263
Si Si2 0.081049 0.588245 0.338215
Si Si3 0.433172 0.289902 0.157594
Si Si4 0.269658 0.308596 0.586788
Si Si5 0.226477 0.816584 0.406856
Si Si6 0.216316 0.767511 0.843839
O O1 0.500000 0.884972 0.500000
O O2 0.341106 0.897259 0.379297
O O3 0.712144 0.856277 0.211591
O O4 0.625450 0.000000 0.308245
O O5 0.119716 0.500000 0.279927
O O6 0.299856 0.631111 0.229388
O O7 0.000000 0.592631 0.500000
O O8 0.895976 0.623221 0.350454
O O9 0.287321 0.218252 0.257897
O O10 0.628902 0.285038 0.151496
O O11 0.500000 0.278336 0.000000
O O12 0.500000 0.341090 0.500000
O O13 0.271604 0.249605 0.480198
O O14 0.189991 0.267710 0.733935
O O15 0.000000 0.843454 0.500000
O O16 0.000000 0.770342 0.000000
#
# Coordination Sequence:
#
# PCOD8064654 Si02
#       6
#     4   4   4   4   4   4
#     4  10  20  36  57  84 116 148 185 232 286 334
#     4  11  22  37  58  84 115 150 185 229 289 339
#     4  11  21  37  57  84 112 149 189 232 277 339
#     4  12  18  37  60  86 110 142 193 237 271 331
#     4  11  19  35  61  84 108 150 187 238 270 329
#     4  11  22  35  60  86 111 150 190 236 277 329
#
# _framework density 17.925981
#
# number of rings (size 3 to 8) (size 9 to 14) (size 15 to 20)
#    0.000    1.000    8.333    1.000    0.000    1.333 
#    0.000    0.833    0.000   10.000    0.000    0.000 
#    0.000    0.000    0.000    0.000    0.000    0.000 
#
# Total GULP energy -297381.783635 kJ/mol
# GULP energy per Si atom -12390.907651 kJ/mol
# Density = 1.788518 g / cm^3
# Si number density = 17.925981 Si / 1000 Ang^3
#
#
#
# Elastic Constant Matrix: (Units=GPa)
#
#
# Indices 1 2 3 4 5 6 
#
# 1 97.2708 50.6029 44.1244 0.0000 -22.9358 0.0000
# 2 50.6029 90.6590 42.8605 0.0000 -6.8843 0.0000
# 3 44.1244 42.8605 125.1189 0.0000 -9.9021 0.0000
# 4 0.0000 0.0000 0.0000 20.0559 0.0000 -1.2083
# 5 -22.9358 -6.8843 -9.9021 0.0000 39.3158 0.0000
# 6 0.0000 0.0000 0.0000 -1.2083 0.0000 23.5085
#
#
#
# Elastic Compliance Matrix: (Units=1/GPa)
#
#
# Indices 1 2 3 4 5 6 
#
# 1 0.017585 -0.007839 -0.002870 0.000000 0.008163 0.000000
# 2 -0.007839 0.016711 -0.003153 0.000000 -0.002441 0.000000
# 3 -0.002870 -0.003153 0.010110 0.000000 0.000320 0.000000
# 4 0.000000 0.000000 0.000000 0.050016 0.000000 0.002571
# 5 0.008163 -0.002441 0.000320 0.000000 0.029850 0.000000
# 6 0.000000 0.000000 0.000000 0.002571 0.000000 0.042670
#
#
# Mechanical properties :
#
#
# Convention : Reuss Voigt Hill
#
# Bulk Modulus (GPa) = 59.94534 65.35825 62.65179
# Shear Modulus (GPa) = 24.97154 28.27344 26.62249
#
# Velocity S-wave (km/s) = 3.73639 3.97575 3.85792
# Velocity P-wave (km/s) = 7.21992 7.59043 7.40749
#
# Compressibility (1/GPa) = 0.01668187
#
# Stress axis : x y z
#
# Youngs Moduli (GPa) = 56.86533 59.84063 98.91034
#
# Poissons Ratio (x) = 0.46907 0.28391
# Poissons Ratio (y) = 0.44575 0.31189
# Poissons Ratio (z) = 0.16323 0.18870
#
# Static dielectric constant tensor:
#      x y z
#    x 3.642020 0.000000 -0.090940 
#    y 0.000000 3.223000 0.000000 
#    z -0.090940 0.000000 3.480820 
# 
# 
# High freq. dielectric constant tensor:
#      x y z
#    x 1.706980 0.000000 -0.003210 
#    y 0.000000 1.670700 0.000000 
#    z -0.003210 0.000000 1.700640 
# 
# From -- ./inp_files/25642.got.cif
#   From: 2010.06.25/outbox.cif.g09.slc.cpg/sg10_13_cif.got.tgz:25642.got - 2010.06.27 22:07:45.
