data_PCOD8064000
_publ_section_title
;
Structure prediction by ZEFSAII (Michael W. Deem and Ramdas Pophale) SiO2 
 PCOD8064000
Probable space group: P 2/M
;
_chemical_formula_sum "Si O2"
_cell_formula_units_Z 28
_cell_length_a 11.353216
_cell_length_b 7.821760
_cell_length_c 17.327188
_cell_angle_alpha 90.000000
_cell_angle_beta 109.626041
_cell_angle_gamma 90.000000
_cell_volume 1449.300783
_symmetry_space_group_name_H-M "P 2/M"
_symmetry_group_IT_number 10
_symmetry_cell_setting 'monoclinic'
loop_
_space_group_symop_operation_xyz
x,y,z
-x,y,-z
-x,-y,-z
x,-y,z
loop_
_atom_site_type_symbol
_atom_site_label
_atom_site_fract_x
_atom_site_fract_y
_atom_site_fract_z
Si Si1 0.211527 0.303394 0.187152
Si Si2 0.943664 0.303364 0.407431
Si Si3 0.621369 0.194639 0.490987
Si Si4 0.324143 0.805832 0.663587
Si Si5 0.418782 0.000000 0.060527
Si Si6 0.172816 0.695180 0.351959
Si Si7 0.857276 0.000000 0.938058
Si Si8 0.525372 0.311108 0.819699
O O1 0.167999 0.500000 0.160814
O O2 0.171196 0.242361 0.263387
O O3 0.361252 0.287528 0.215610
O O4 0.150068 0.173664 0.113074
O O5 0.906977 0.500000 0.413081
O O6 0.823413 0.198722 0.353874
O O7 0.000000 0.228775 0.500000
O O8 0.036123 0.279828 0.356375
O O9 0.500000 0.288385 0.500000
O O10 0.654654 0.280058 0.416217
O O11 0.733671 0.195787 0.576033
O O12 0.587792 0.000000 0.464750
O O13 0.396867 0.699877 0.744185
O O14 0.371879 0.000000 0.679260
O O15 0.466533 0.170314 0.112545
O O16 0.262822 0.000000 0.026693
O O17 0.500000 0.000000 0.000000
O O18 0.217950 0.500000 0.366299
O O19 0.000000 0.000000 0.000000
O O20 0.531268 0.500000 0.859487
#
# Coordination Sequence:
#
# PCOD8064000 Si02
#       8
#     4   4   4   4   2   4   2   4
#     4   9  20  38  61  89 118 150 192 241 288 344
#     4  10  20  35  51  70 108 158 200 240 287 340
#     4  10  21  32  48  75 108 146 190 240 286 332
#     4  11  21  34  52  79 114 151 199 246 287 339
#     4  10  22  44  68  93 128 149 185 238 287 368
#     4  10  20  35  53  76 107 147 196 240 285 334
#     4  10  22  42  68  95 118 155 189 226 299 360
#     4  10  20  38  64  88 117 155 191 237 294 342
#
# _framework density 19.319661
#
# number of rings (size 3 to 8) (size 9 to 14) (size 15 to 20)
#    0.000    2.000    2.143    1.286    1.000    2.286 
#    2.571    0.000    0.000    0.000    0.000    0.000 
#    0.000    0.000    0.000    0.000    0.000    0.000 
#
# Total GULP energy -347058.691688 kJ/mol
# GULP energy per Si atom -12394.953275 kJ/mol
# Density = 1.927569 g / cm^3
# Si number density = 19.319661 Si / 1000 Ang^3
#
#
#
# Elastic Constant Matrix: (Units=GPa)
#
#
# Indices 1 2 3 4 5 6 
#
# 1 117.8961 31.9701 65.6706 0.0000 -1.2632 0.0000
# 2 31.9701 85.3338 43.8629 0.0000 -2.4719 0.0000
# 3 65.6706 43.8629 105.1876 0.0000 -4.3339 0.0000
# 4 0.0000 0.0000 0.0000 13.3631 0.0000 -2.5673
# 5 -1.2632 -2.4719 -4.3339 0.0000 42.2776 0.0000
# 6 0.0000 0.0000 0.0000 -2.5673 0.0000 21.6203
#
#
#
# Elastic Compliance Matrix: (Units=1/GPa)
#
#
# Indices 1 2 3 4 5 6 
#
# 1 0.013067 -0.000898 -0.007802 0.000000 -0.000462 0.000000
# 2 -0.000898 0.014980 -0.005675 0.000000 0.000267 0.000000
# 3 -0.007802 -0.005675 0.016792 0.000000 0.001156 0.000000
# 4 0.000000 0.000000 0.000000 0.076580 0.000000 0.009093
# 5 -0.000462 0.000267 0.001156 0.000000 0.023774 0.000000
# 6 0.000000 0.000000 0.000000 0.009093 0.000000 0.047333
#
#
# Mechanical properties :
#
#
# Convention : Reuss Voigt Hill
#
# Bulk Modulus (GPa) = 62.15832 65.71385 63.93608
# Shear Modulus (GPa) = 22.06165 26.57980 24.32072
#
# Velocity S-wave (km/s) = 3.38291 3.71319 3.55189
# Velocity P-wave (km/s) = 6.89218 7.24372 7.07014
#
# Compressibility (1/GPa) = 0.01608795
#
# Stress axis : x y z
#
# Youngs Moduli (GPa) = 76.53043 66.75622 59.55255
#
# Poissons Ratio (x) = 0.05997 0.46464
# Poissons Ratio (y) = 0.06875 0.33794
# Poissons Ratio (z) = 0.59711 0.37882
#
# Static dielectric constant tensor:
#      x y z
#    x 3.645570 0.000000 -0.147750 
#    y 0.000000 3.706030 0.000000 
#    z -0.147750 0.000000 3.252820 
# 
# 
# High freq. dielectric constant tensor:
#      x y z
#    x 1.757880 0.000000 -0.005360 
#    y 0.000000 1.756320 0.000000 
#    z -0.005360 0.000000 1.722800 
# 
# From -- ./inp_files/49423.got.cif
#   From: 2010.06.25/outbox.cif.g09.slc.cpg/sg10_25_cif.got.tgz:49423.got - 2010.06.27 22:07:45.
