data_PCOD8064532
_publ_section_title
;
Structure prediction by ZEFSAII (Michael W. Deem and Ramdas Pophale) SiO2 
 PCOD8064532
Probable space group: P 2/M
;
_chemical_formula_sum "Si O2"
_cell_formula_units_Z 24
_cell_length_a 11.626347
_cell_length_b 20.202249
_cell_length_c 14.119190
_cell_angle_alpha 90.000000
_cell_angle_beta 160.619680
_cell_angle_gamma 90.000000
_cell_volume 1100.468881
_symmetry_space_group_name_H-M "P 2/M"
_symmetry_group_IT_number 10
_symmetry_cell_setting 'monoclinic'
loop_
_space_group_symop_operation_xyz
x,y,z
-x,y,-z
-x,-y,-z
x,-y,z
loop_
_atom_site_type_symbol
_atom_site_label
_atom_site_fract_x
_atom_site_fract_y
_atom_site_fract_z
Si Si1 0.910738 0.500000 0.041033
Si Si2 0.979369 0.389814 0.735500
Si Si3 0.585998 0.728649 0.958189
Si Si4 0.894981 0.500000 0.528635
Si Si5 0.106624 0.927189 0.689513
Si Si6 0.242505 0.799588 0.528243
Si Si7 0.390628 0.290885 0.309190
O O1 0.082979 0.434651 0.220133
O O2 0.511406 0.500000 0.762486
O O3 0.000000 0.500000 0.000000
O O4 0.054678 0.434544 0.701277
O O5 0.631015 0.347306 0.449106
O O6 0.313534 0.342169 0.010053
O O7 0.923113 0.774254 0.217869
O O8 0.500000 0.716971 0.000000
O O9 0.279467 0.765016 0.661162
O O10 0.000000 0.500000 0.500000
O O11 0.000000 0.936086 0.500000
O O12 0.822432 0.878255 0.515154
O O13 0.094345 0.000000 0.729878
O O14 0.500000 0.897895 0.000000
O O15 0.579564 0.777458 0.729401
O O16 0.500000 0.274996 0.500000
O O17 0.000000 0.316945 0.000000
#
# Coordination Sequence:
#
# PCOD8064532 Si02
#       7
#     2   4   4   2   4   4   4
#     4  11  28  47  69  91 125 169 223 271 336 408
#     4  10  27  42  63  96 119 167 214 274 332 409
#     4  11  23  37  64  91 127 166 207 263 326 393
#     4  11  28  45  68  95 132 173 212 280 347 417
#     4  10  20  35  61  95 136 176 210 256 313 387
#     4  11  22  39  59  96 125 171 214 262 321 379
#     4  11  25  42  67  92 125 163 220 283 330 382
#
# _framework density 21.808886000000001
#
# number of rings (size 3 to 8) (size 9 to 14) (size 15 to 20)
#    0.000    1.333    0.000    5.000   11.667    1.333 
#    0.000    1.250    0.000    1.000    0.000    0.000 
#    0.000    0.000    0.000    0.000    0.000    0.000 
#
# Total GULP energy -297474.183870 kJ/mol
# GULP energy per Si atom -12394.757661 kJ/mol
# Density = 2.175925 g / cm^3
# Si number density = 21.808886 Si / 1000 Ang^3
#
#
#
# Elastic Constant Matrix: (Units=GPa)
#
#
# Indices 1 2 3 4 5 6 
#
# 1 134.7543 52.1009 21.3473 0.0000 -9.4453 0.0000
# 2 52.1009 152.1802 33.2575 0.0000 0.9868 0.0000
# 3 21.3473 33.2575 86.3511 0.0000 -8.1560 0.0000
# 4 0.0000 0.0000 0.0000 34.2126 0.0000 7.6941
# 5 -9.4453 0.9868 -8.1560 0.0000 34.0071 0.0000
# 6 0.0000 0.0000 0.0000 7.6941 0.0000 35.1990
#
#
#
# Elastic Compliance Matrix: (Units=1/GPa)
#
#
# Indices 1 2 3 4 5 6 
#
# 1 0.008821 -0.002846 -0.000865 0.000000 0.002325 0.000000
# 2 -0.002846 0.008120 -0.002579 0.000000 -0.001645 0.000000
# 3 -0.000865 -0.002579 0.013068 0.000000 0.002969 0.000000
# 4 0.000000 0.000000 0.000000 0.030740 0.000000 -0.006719
# 5 0.002325 -0.001645 0.002969 0.000000 0.030811 0.000000
# 6 0.000000 0.000000 0.000000 -0.006719 0.000000 0.029879
#
#
# Mechanical properties :
#
#
# Convention : Reuss Voigt Hill
#
# Bulk Modulus (GPa) = 57.37547 65.18854 61.28201
# Shear Modulus (GPa) = 35.75787 38.45574 37.10680
#
# Velocity S-wave (km/s) = 4.05359 4.20373 4.12934
# Velocity P-wave (km/s) = 6.94796 7.31557 7.13413
#
# Compressibility (1/GPa) = 0.01742905
#
# Stress axis : x y z
#
# Youngs Moduli (GPa) = 113.36133 123.15479 76.52187
#
# Poissons Ratio (x) = 0.35052 0.06619
# Poissons Ratio (y) = 0.32264 0.19735
# Poissons Ratio (z) = 0.09806 0.31762
#
# Static dielectric constant tensor:
#      x y z
#    x 3.866150 0.000000 0.144870 
#    y 0.000000 4.365000 0.000000 
#    z 0.144870 0.000000 3.759530 
# 
# 
# High freq. dielectric constant tensor:
#      x y z
#    x 1.844970 0.000000 -0.017100 
#    y 0.000000 1.848100 0.000000 
#    z -0.017100 0.000000 1.865370 
# 
# From -- ./inp_files/65495.got.cif
#   From: 2010.06.25/outbox.cif.g09.slc.cpg/sg10_33_cif.got.tgz:65495.got - 2010.06.27 22:07:45.
