data_PCOD8064509
_publ_section_title
;
Structure prediction by ZEFSAII (Michael W. Deem and Ramdas Pophale) SiO2 
 PCOD8064509
Probable space group: P 2/M
;
_chemical_formula_sum "Si O2"
_cell_formula_units_Z 32
_cell_length_a 11.624622
_cell_length_b 14.277078
_cell_length_c 10.548470
_cell_angle_alpha 90.000000
_cell_angle_beta 70.883585
_cell_angle_gamma 90.000000
_cell_volume 1654.142301
_symmetry_space_group_name_H-M "P 2/M"
_symmetry_group_IT_number 10
_symmetry_cell_setting 'monoclinic'
loop_
_space_group_symop_operation_xyz
x,y,z
-x,y,-z
-x,-y,-z
x,-y,z
loop_
_atom_site_type_symbol
_atom_site_label
_atom_site_fract_x
_atom_site_fract_y
_atom_site_fract_z
Si Si1 0.232442 0.765485 0.821572
Si Si2 0.967353 0.895234 0.159454
Si Si3 0.421671 0.889076 0.151398
Si Si4 0.128240 0.395224 0.725339
Si Si5 0.303098 0.606233 0.435372
Si Si6 0.201494 0.209608 0.118384
Si Si7 0.501327 0.232040 0.355991
Si Si8 0.859015 0.604633 0.744472
O O1 0.166073 0.850189 0.769076
O O2 0.142532 0.675383 0.839261
O O3 0.361409 0.736252 0.719293
O O4 0.246424 0.801744 0.959036
O O5 0.068355 0.832981 0.193727
O O6 0.966713 0.000000 0.215525
O O7 0.000000 0.895447 0.000000
O O8 0.288028 0.847505 0.180847
O O9 0.471354 0.848763 0.265815
O O10 0.416562 0.000000 0.166725
O O11 0.500000 0.858945 0.000000
O O12 0.131675 0.500000 0.779595
O O13 0.242586 0.375795 0.592782
O O14 0.003996 0.379083 0.692065
O O15 0.355202 0.500000 0.407160
O O16 0.413756 0.677928 0.372251
O O17 0.193442 0.620771 0.376331
O O18 0.205719 0.320506 0.141735
O O19 0.500000 0.191952 0.500000
O O20 0.827042 0.500000 0.805150
#
# Coordination Sequence:
#
# PCOD8064509 Si02
#       8
#     4   4   4   4   4   4   4   4
#     4  11  22  35  56  90 120 157 195 245 303 355
#     4   9  19  35  57  85 114 150 196 247 297 354
#     4  11  24  43  66  89 117 160 206 253 303 357
#     4  10  20  36  58  87 121 159 201 244 299 360
#     4  10  21  38  61  86 115 158 207 249 291 357
#     4  11  20  37  63  87 120 153 202 244 299 363
#     4  12  24  40  63  89 123 160 202 250 303 357
#     4  10  20  35  60  89 119 155 198 248 301 359
#
# _framework density 19.345372000000001
#
# number of rings (size 3 to 8) (size 9 to 14) (size 15 to 20)
#    0.000    1.500    5.000    0.750    0.000    4.000 
#    0.000    1.250    0.000    2.250    0.000    3.500 
#    0.000    0.000    0.000    0.000    0.000    0.000 
#
# Total GULP energy -396680.645527 kJ/mol
# GULP energy per Si atom -12396.270173 kJ/mol
# Density = 1.930134 g / cm^3
# Si number density = 19.345372 Si / 1000 Ang^3
#
#
#
# Elastic Constant Matrix: (Units=GPa)
#
#
# Indices 1 2 3 4 5 6 
#
# 1 116.5638 52.6462 33.3892 0.0000 6.0933 0.0000
# 2 52.6462 125.9623 33.1738 0.0000 8.5698 0.0000
# 3 33.3892 33.1738 55.8722 0.0000 9.5578 0.0000
# 4 0.0000 0.0000 0.0000 27.9481 0.0000 0.0532
# 5 6.0933 8.5698 9.5578 0.0000 30.8973 0.0000
# 6 0.0000 0.0000 0.0000 0.0532 0.0000 26.1329
#
#
#
# Elastic Compliance Matrix: (Units=1/GPa)
#
#
# Indices 1 2 3 4 5 6 
#
# 1 0.011566 -0.003578 -0.004822 0.000000 0.000203 0.000000
# 2 -0.003578 0.010543 -0.003951 0.000000 -0.000996 0.000000
# 3 -0.004822 -0.003951 0.024048 0.000000 -0.005392 0.000000
# 4 0.000000 0.000000 0.000000 0.035781 0.000000 -0.000073
# 5 0.000203 -0.000996 -0.005392 0.000000 0.034270 0.000000
# 6 0.000000 0.000000 0.000000 -0.000073 0.000000 0.038266
#
#
# Mechanical properties :
#
#
# Convention : Reuss Voigt Hill
#
# Bulk Modulus (GPa) = 46.61058 59.64627 53.12843
# Shear Modulus (GPa) = 26.83474 28.94160 27.88817
#
# Velocity S-wave (km/s) = 3.72847 3.87207 3.80095
# Velocity P-wave (km/s) = 6.53311 7.13371 6.84001
#
# Compressibility (1/GPa) = 0.02145435
#
# Stress axis : x y z
#
# Youngs Moduli (GPa) = 86.46404 94.85372 41.58346
#
# Poissons Ratio (x) = 0.33936 0.20052
# Poissons Ratio (y) = 0.30934 0.16430
# Poissons Ratio (z) = 0.41693 0.37478
#
# Static dielectric constant tensor:
#      x y z
#    x 3.698090 0.000000 0.090780 
#    y 0.000000 3.630680 0.000000 
#    z 0.090780 0.000000 3.222850 
# 
# 
# High freq. dielectric constant tensor:
#      x y z
#    x 1.770450 0.000000 0.007370 
#    y 0.000000 1.758860 0.000000 
#    z 0.007370 0.000000 1.719210 
# 
# From -- ./inp_files/46962.got.cif
#   From: 2010.06.25/outbox.cif.g09.slc.cpg/sg10_24_cif.got.tgz:46962.got - 2010.06.27 22:07:45.
