data_PCOD8064456
_publ_section_title
;
Structure prediction by ZEFSAII (Michael W. Deem and Ramdas Pophale) SiO2 
 PCOD8064456
Probable space group: P 2/M
;
_chemical_formula_sum "Si O2"
_cell_formula_units_Z 20
_cell_length_a 10.168625
_cell_length_b 7.743120
_cell_length_c 31.110076
_cell_angle_alpha 90.000000
_cell_angle_beta 154.626119
_cell_angle_gamma 90.000000
_cell_volume 1049.672275
_symmetry_space_group_name_H-M "P 2/M"
_symmetry_group_IT_number 10
_symmetry_cell_setting 'monoclinic'
loop_
_space_group_symop_operation_xyz
x,y,z
-x,y,-z
-x,-y,-z
x,-y,z
loop_
_atom_site_type_symbol
_atom_site_label
_atom_site_fract_x
_atom_site_fract_y
_atom_site_fract_z
Si Si1 0.756468 0.193426 0.693920
Si Si2 0.824210 0.500000 0.573573
Si Si3 0.307937 0.799547 0.069712
Si Si4 0.075450 0.196988 0.699631
Si Si5 0.635782 0.696814 0.084404
Si Si6 0.308727 0.500000 0.564840
O O1 0.504142 0.330111 0.634788
O O2 0.846361 0.237039 0.671397
O O3 0.061754 0.197572 0.813220
O O4 0.619808 0.000000 0.657021
O O5 0.500000 0.500000 0.500000
O O6 0.791692 0.500000 0.513627
O O7 0.006009 0.326840 0.640457
O O8 0.578319 0.768626 0.183460
O O9 0.378356 0.705762 0.045563
O O10 0.266858 0.000000 0.046753
O O11 0.000000 0.722036 0.000000
O O12 0.032742 0.000000 0.670961
O O13 0.736224 0.500000 0.106977
O O14 0.500000 0.774155 0.000000
O O15 0.000000 0.500000 0.500000
#
# Coordination Sequence:
#
# PCOD8064456 Si02
#       6
#     4   2   4   4   4   2
#     4  10  20  39  65  86 114 155 193 238 292 344
#     4  12  22  38  65  84 106 154 191 240 294 334
#     4   9  19  36  56  83 121 153 182 234 288 334
#     4   9  19  36  61  91 114 142 196 241 276 342
#     4  10  20  35  58  88 118 153 196 233 274 344
#     4  12  26  44  59  84 122 148 191 250 294 346
#
# _framework density 19.053566
#
# number of rings (size 3 to 8) (size 9 to 14) (size 15 to 20)
#    0.000    2.000    3.000    1.800    4.200    3.600 
#    3.600    0.000    0.000    0.000    0.000    0.000 
#    0.000    0.000    0.000    0.000    0.000    0.000 
#
# Total GULP energy -248031.604773 kJ/mol
# GULP energy per Si atom -12401.580239 kJ/mol
# Density = 1.901020 g / cm^3
# Si number density = 19.053566 Si / 1000 Ang^3
#
#
#
# Elastic Constant Matrix: (Units=GPa)
#
#
# Indices 1 2 3 4 5 6 
#
# 1 102.0832 36.8638 66.1695 0.0000 8.5776 0.0000
# 2 36.8638 106.9525 49.7438 0.0000 4.0551 0.0000
# 3 66.1695 49.7438 94.7110 -0.0006 0.3750 0.0002
# 4 0.0000 0.0000 -0.0006 26.7688 0.0000 5.4126
# 5 8.5776 4.0551 0.3750 0.0000 41.9215 0.0001
# 6 0.0000 0.0000 0.0002 5.4126 0.0001 0.9539
#
#
#
# Elastic Compliance Matrix: (Units=1/GPa)
#
#
# Indices 1 2 3 4 5 6 
#
# 1 0.018456 -0.000309 -0.012718 0.000005 -0.003633 -0.000024
# 2 -0.000309 0.012432 -0.006310 0.000003 -0.001083 -0.000013
# 3 -0.012718 -0.006310 0.022746 -0.000009 0.003009 0.000045
# 4 0.000005 0.000003 -0.000009 -0.253547 -0.000003 1.438710
# 5 -0.003633 -0.001083 0.003009 -0.000003 0.024675 0.000016
# 6 -0.000024 -0.000013 0.000045 1.438710 0.000016 -7.115374
#
#
# Mechanical properties :
#
#
# Convention : Reuss Voigt Hill
#
# Bulk Modulus (GPa) = 66.83700 67.70011 67.26856
# Shear Modulus (GPa) = -0.68995 23.99349 11.65177
#
# Velocity S-wave (km/s) = -0.60241 3.55246 2.47559
# Velocity P-wave (km/s) = 5.88819 7.24122 6.59947
#
# Compressibility (1/GPa) = 0.01496177
#
# Stress axis : x y z
#
# Youngs Moduli (GPa) = 54.18214 80.43783 43.96414
#
# Poissons Ratio (x) = 0.02482 0.55913
# Poissons Ratio (y) = 0.01672 0.27740
# Poissons Ratio (z) = 0.68909 0.50753
#
# Static dielectric constant tensor:
#      x y z
#    x 3.212910 0.000000 0.031350 
#    y 0.000000 3.579500 0.000000 
#    z 0.031350 0.000000 3.515730 
# 
# 
# High freq. dielectric constant tensor:
#      x y z
#    x 1.709820 0.000000 -0.002520 
#    y 0.000000 1.752220 0.000000 
#    z -0.002520 0.000000 1.742380 
# 
# From -- ./inp_files/31461.got.cif
#   From: 2010.06.25/outbox.cif.g09.slc.cpg/sg10_16_cif.got.tgz:31461.got - 2010.06.27 22:07:45.
