data_PCOD8064331
_publ_section_title
;
Structure prediction by ZEFSAII (Michael W. Deem and Ramdas Pophale) SiO2 
 PCOD8064331
Probable space group: P 2/M
;
_chemical_formula_sum "Si O2"
_cell_formula_units_Z 32
_cell_length_a 27.709979
_cell_length_b 9.404621
_cell_length_c 10.782243
_cell_angle_alpha 90.000000
_cell_angle_beta 144.844603
_cell_angle_gamma 90.000000
_cell_volume 1617.913388
_symmetry_space_group_name_H-M "P 2/M"
_symmetry_group_IT_number 10
_symmetry_cell_setting 'monoclinic'
loop_
_space_group_symop_operation_xyz
x,y,z
-x,y,-z
-x,-y,-z
x,-y,z
loop_
_atom_site_type_symbol
_atom_site_label
_atom_site_fract_x
_atom_site_fract_y
_atom_site_fract_z
Si Si1 0.637223 0.161752 0.000466
Si Si2 0.540763 0.166374 0.290472
Si Si3 0.348641 0.160487 0.247978
Si Si4 0.772549 0.668198 0.409912
Si Si5 0.786886 0.664404 0.924254
Si Si6 0.045213 0.163182 0.725236
Si Si7 0.056938 0.163783 0.239045
Si Si8 0.324685 0.662553 0.549596
O O1 0.716440 0.264568 0.183519
O O2 0.662357 0.000000 0.088002
O O3 0.556792 0.212199 0.911750
O O4 0.610043 0.170691 0.800074
O O5 0.581618 0.210503 0.507541
O O6 0.589945 0.246943 0.284342
O O7 0.548747 0.000000 0.281718
O O8 0.266242 0.259480 0.079581
O O9 0.319260 0.000000 0.215894
O O10 0.780101 0.500000 0.408340
O O11 0.864207 0.733481 0.602325
O O12 0.725324 0.713353 0.435636
O O13 0.797424 0.500000 0.980470
O O14 0.738497 0.689422 0.695045
O O15 0.877227 0.732624 0.101166
O O16 0.000000 0.196080 0.500000
O O17 0.987579 0.195431 0.723390
O O18 0.075677 0.000000 0.792539
O O19 0.086121 0.000000 0.294615
O O20 0.000000 0.199864 0.000000
O O21 0.352652 0.500000 0.618155
#
# Coordination Sequence:
#
# PCOD8064331 Si02
#       8
#     4   4   4   4   4   4   4   4
#     4  10  21  36  55  81 115 149 185 233 284 332
#     4   9  18  34  58  85 108 142 192 237 277 329
#     4   9  18  34  57  81 111 149 186 228 281 337
#     4  11  24  39  57  82 114 151 189 228 280 339
#     4  10  20  35  57  83 110 142 185 230 274 330
#     4  10  22  38  57  83 115 148 182 228 290 345
#     4  10  22  41  64  87 112 148 195 240 283 340
#     4   9  20  38  56  78 111 149 185 227 278 332
#
# _framework density 19.778562000000001
#
# number of rings (size 3 to 8) (size 9 to 14) (size 15 to 20)
#    0.000    2.250    0.000    1.875    1.750    5.500 
#    0.000    2.500    0.000    3.750    0.000    0.000 
#    0.000    0.000    0.000    0.000    0.000    0.000 
#
# Total GULP energy -396820.797899 kJ/mol
# GULP energy per Si atom -12400.649934 kJ/mol
# Density = 1.973354 g / cm^3
# Si number density = 19.778562 Si / 1000 Ang^3
#
#
#
# Elastic Constant Matrix: (Units=GPa)
#
#
# Indices 1 2 3 4 5 6 
#
# 1 97.5876 41.6386 40.8784 0.0000 5.9131 0.0000
# 2 41.6386 90.8534 50.2007 0.0000 21.5628 0.0000
# 3 40.8784 50.2007 81.6446 0.0000 17.7027 0.0000
# 4 0.0000 0.0000 0.0000 16.1568 0.0000 1.7931
# 5 5.9131 21.5628 17.7027 0.0000 32.1858 0.0000
# 6 0.0000 0.0000 0.0000 1.7931 0.0000 28.1113
#
#
#
# Elastic Compliance Matrix: (Units=1/GPa)
#
#
# Indices 1 2 3 4 5 6 
#
# 1 0.014031 -0.004416 -0.004987 0.000000 0.003124 0.000000
# 2 -0.004416 0.019259 -0.007958 0.000000 -0.007714 0.000000
# 3 -0.004987 -0.007958 0.020759 0.000000 -0.005170 0.000000
# 4 0.000000 0.000000 0.000000 0.062335 0.000000 -0.003976
# 5 0.003124 -0.007714 -0.005170 0.000000 0.038507 0.000000
# 6 0.000000 0.000000 0.000000 -0.003976 0.000000 0.035827
#
#
# Mechanical properties :
#
#
# Convention : Reuss Voigt Hill
#
# Bulk Modulus (GPa) = 51.74195 59.50234 55.62215
# Shear Modulus (GPa) = 21.56264 24.44864 23.00564
#
# Velocity S-wave (km/s) = 3.30540 3.51966 3.41421
# Velocity P-wave (km/s) = 6.38631 6.83132 6.61256
#
# Compressibility (1/GPa) = 0.01932668
#
# Stress axis : x y z
#
# Youngs Moduli (GPa) = 71.26875 51.92485 48.17144
#
# Poissons Ratio (x) = 0.22932 0.24024
# Poissons Ratio (y) = 0.31476 0.38333
# Poissons Ratio (z) = 0.35543 0.41320
#
# Static dielectric constant tensor:
#      x y z
#    x 3.795190 0.000000 -0.063770 
#    y 0.000000 3.560440 0.000000 
#    z -0.063770 0.000000 3.513720 
# 
# 
# High freq. dielectric constant tensor:
#      x y z
#    x 1.780200 0.000000 0.000530 
#    y 0.000000 1.765930 0.000000 
#    z 0.000530 0.000000 1.769350 
# 
# From -- ./inp_files/58317.got.cif
#   From: 2010.06.25/outbox.cif.g09.slc.cpg/sg10_30_cif.got.tgz:58317.got - 2010.06.27 22:07:45.
