data_PCOD8064708
_publ_section_title
;
Structure prediction by ZEFSAII (Michael W. Deem and Ramdas Pophale) SiO2 
 PCOD8064708
Probable space group: P 2/M
;
_chemical_formula_sum "Si O2"
_cell_formula_units_Z 30
_cell_length_a 10.745813
_cell_length_b 15.636970
_cell_length_c 9.425261
_cell_angle_alpha 90.000000
_cell_angle_beta 85.326301
_cell_angle_gamma 90.000000
_cell_volume 1578.478918
_symmetry_space_group_name_H-M "P 2/M"
_symmetry_group_IT_number 10
_symmetry_cell_setting 'monoclinic'
loop_
_space_group_symop_operation_xyz
x,y,z
-x,y,-z
-x,-y,-z
x,-y,z
loop_
_atom_site_type_symbol
_atom_site_label
_atom_site_fract_x
_atom_site_fract_y
_atom_site_fract_z
Si Si1 0.296124 0.400758 0.989341
Si Si2 0.510817 0.904008 0.154771
Si Si3 0.702767 0.805145 0.330310
Si Si4 0.146481 0.238651 0.953592
Si Si5 0.500000 0.693651 0.500000
Si Si6 0.520036 0.597022 0.775132
Si Si7 0.765463 0.097137 0.842418
Si Si8 0.134593 0.100798 0.459175
O O1 0.253891 0.500000 0.967136
O O2 0.394287 0.366764 0.861491
O O3 0.180643 0.334829 0.001238
O O4 0.360818 0.393336 0.135572
O O5 0.599104 0.853347 0.249488
O O6 0.369446 0.902627 0.222784
O O7 0.565324 0.000000 0.135137
O O8 0.500000 0.861268 0.000000
O O9 0.623626 0.739331 0.430797
O O10 0.765015 0.865424 0.439798
O O11 0.811534 0.768311 0.215923
O O12 0.221037 0.163315 0.029016
O O13 0.000000 0.224947 0.000000
O O14 0.554729 0.640120 0.624859
O O15 0.489583 0.500000 0.746045
O O16 0.850685 0.127745 0.705865
O O17 0.796344 0.000000 0.893274
O O18 0.000000 0.140768 0.500000
O O19 0.138272 0.000000 0.476132
#
# Coordination Sequence:
#
# PCOD8064708 Si02
#       8
#     4   4   4   4   2   4   4   4
#     4   9  20  40  65  89 116 155 199 245 297 356
#     4  10  20  36  58  82 114 152 193 255 307 343
#     4  12  24  36  57  93 119 153 203 243 306 364
#     4  12  25  39  60  87 121 164 206 250 289 348
#     4  12  23  34  57  94 124 150 172 242 313 360
#     4   9  19  38  64  91 118 148 187 240 304 362
#     4  10  22  39  60  87 118 159 202 249 308 352
#     4  10  22  41  59  77 115 167 210 250 291 347
#
# _framework density 19.00564
#
# number of rings (size 3 to 8) (size 9 to 14) (size 15 to 20)
#    0.000    1.600    2.667    3.000    3.733    1.067 
#    0.000    2.667    0.000    0.000    0.000    1.867 
#    0.000    0.000    0.000    0.000    0.000    0.000 
#
# Total GULP energy -371730.139176 kJ/mol
# GULP energy per Si atom -12391.004639 kJ/mol
# Density = 1.896238 g / cm^3
# Si number density = 19.005640 Si / 1000 Ang^3
#
#
#
# Elastic Constant Matrix: (Units=GPa)
#
#
# Indices 1 2 3 4 5 6 
#
# 1 71.1972 20.2507 31.5665 0.0000 -10.0962 0.0000
# 2 20.2507 66.5022 47.6248 0.0000 5.2290 0.0000
# 3 31.5665 47.6248 112.7500 0.0000 -12.7106 0.0000
# 4 0.0000 0.0000 0.0000 33.1964 0.0000 -4.2325
# 5 -10.0962 5.2290 -12.7106 0.0000 34.1335 0.0000
# 6 0.0000 0.0000 0.0000 -4.2325 0.0000 19.9275
#
#
#
# Elastic Compliance Matrix: (Units=1/GPa)
#
#
# Indices 1 2 3 4 5 6 
#
# 1 0.016906 -0.003557 -0.002720 0.000000 0.004532 0.000000
# 2 -0.003557 0.024030 -0.010113 0.000000 -0.008499 0.000000
# 3 -0.002720 -0.010113 0.014599 0.000000 0.006181 0.000000
# 4 0.000000 0.000000 0.000000 0.030962 0.000000 0.006576
# 5 0.004532 -0.008499 0.006181 0.000000 0.034241 0.000000
# 6 0.000000 0.000000 0.000000 0.006576 0.000000 0.051579
#
#
# Mechanical properties :
#
#
# Convention : Reuss Voigt Hill
#
# Bulk Modulus (GPa) = 43.94262 49.92592 46.93427
# Shear Modulus (GPa) = 23.50941 27.51864 25.51403
#
# Velocity S-wave (km/s) = 3.52087 3.80928 3.66791
# Velocity P-wave (km/s) = 6.30077 6.75822 6.53350
#
# Compressibility (1/GPa) = 0.02275695
#
# Stress axis : x y z
#
# Youngs Moduli (GPa) = 59.15161 41.61388 68.49800
#
# Poissons Ratio (x) = 0.14800 0.18630
# Poissons Ratio (y) = 0.21038 0.69270
# Poissons Ratio (z) = 0.16088 0.42083
#
# Static dielectric constant tensor:
#      x y z
#    x 3.493890 0.000000 -0.161600 
#    y 0.000000 3.443440 0.000000 
#    z -0.161600 0.000000 3.533580 
# 
# 
# High freq. dielectric constant tensor:
#      x y z
#    x 1.729850 0.000000 -0.009770 
#    y 0.000000 1.732430 0.000000 
#    z -0.009770 0.000000 1.748980 
# 
# From -- ./inp_files/25005.got.cif
#   From: 2010.06.25/outbox.cif.g09.slc.cpg/sg10_13_cif.got.tgz:25005.got - 2010.06.27 22:07:45.
