data_PCOD8064124
_publ_section_title
;
Structure prediction by ZEFSAII (Michael W. Deem and Ramdas Pophale) SiO2 
 PCOD8064124
Probable space group: P 2/M
;
_chemical_formula_sum "Si O2"
_cell_formula_units_Z 32
_cell_length_a 25.066950
_cell_length_b 8.964954
_cell_length_c 15.609547
_cell_angle_alpha 90.000000
_cell_angle_beta 29.727055
_cell_angle_gamma 90.000000
_cell_volume 1739.428677
_symmetry_space_group_name_H-M "P 2/M"
_symmetry_group_IT_number 10
_symmetry_cell_setting 'monoclinic'
loop_
_space_group_symop_operation_xyz
x,y,z
-x,y,-z
-x,-y,-z
x,-y,z
loop_
_atom_site_type_symbol
_atom_site_label
_atom_site_fract_x
_atom_site_fract_y
_atom_site_fract_z
Si Si1 0.274489 0.327213 0.977073
Si Si2 0.069985 0.826762 0.322785
Si Si3 0.184920 0.325781 0.915269
Si Si4 0.473971 0.827125 0.777438
Si Si5 0.537301 0.326760 0.855399
Si Si6 0.777832 0.674404 0.466634
Si Si7 0.021469 0.174419 0.734589
Si Si8 0.714804 0.825692 0.386068
O O1 0.284997 0.500000 0.983208
O O2 0.246564 0.295952 0.917608
O O3 0.387475 0.250015 0.837433
O O4 0.181988 0.261332 0.167043
O O5 0.000000 0.768513 0.500000
O O6 0.003175 0.794381 0.330200
O O7 0.098119 0.000000 0.293320
O O8 0.172051 0.500000 0.913374
O O9 0.255241 0.247306 0.745244
O O10 0.067316 0.251961 0.081566
O O11 0.469086 0.761560 0.879878
O O12 0.589105 0.795275 0.574854
O O13 0.447105 0.000000 0.820636
O O14 0.510634 0.500000 0.880455
O O15 0.663445 0.294297 0.669938
O O16 0.500000 0.268805 0.000000
O O17 0.802668 0.500000 0.423485
O O18 0.864004 0.752356 0.407242
O O19 0.783406 0.747431 0.365016
O O20 0.023855 0.000000 0.752736
O O21 0.742467 0.000000 0.347271
#
# Coordination Sequence:
#
# PCOD8064124 Si02
#       8
#     4   4   4   4   4   4   4   4
#     4  10  21  36  55  79 108 141 177 218 262 312
#     4   9  19  36  56  79 108 141 177 218 264 312
#     4  10  21  37  56  79 106 137 175 217 263 313
#     4  10  21  36  55  79 108 141 177 218 262 312
#     4   9  19  36  56  79 108 141 177 218 264 312
#     4  10  20  35  55  78 107 140 175 217 262 311
#     4  10  20  35  55  78 107 140 175 217 262 311
#     4  10  21  37  56  79 106 137 175 217 263 313
#
# _framework density 18.396844000000002
#
# number of rings (size 3 to 8) (size 9 to 14) (size 15 to 20)
#    0.000    2.250    0.000    2.250    0.000    6.500 
#    0.000    7.500    0.000    0.000    0.000    0.000 
#    0.000    0.000    0.000    0.000    0.000    0.000 
#
# Total GULP energy -396966.274813 kJ/mol
# GULP energy per Si atom -12405.196088 kJ/mol
# Density = 1.835497 g / cm^3
# Si number density = 18.396844 Si / 1000 Ang^3
#
#
#
# Elastic Constant Matrix: (Units=GPa)
#
#
# Indices 1 2 3 4 5 6 
#
# 1 74.0637 42.4896 52.9824 0.0000 -7.4815 0.0000
# 2 42.4896 87.9552 53.0721 0.0000 -5.1700 0.0000
# 3 52.9824 53.0721 91.9592 0.0000 15.1555 0.0000
# 4 0.0000 0.0000 0.0000 33.1435 0.0000 -4.1061
# 5 -7.4815 -5.1700 15.1555 0.0000 36.1227 0.0000
# 6 0.0000 0.0000 0.0000 -4.1061 0.0000 36.4364
#
#
#
# Elastic Compliance Matrix: (Units=1/GPa)
#
#
# Indices 1 2 3 4 5 6 
#
# 1 0.028413 -0.002866 -0.016778 0.000000 0.012514 0.000000
# 2 -0.002866 0.019682 -0.010822 0.000000 0.006764 0.000000
# 3 -0.016778 -0.010822 0.029666 0.000000 -0.017471 0.000000
# 4 0.000000 0.000000 0.000000 0.030599 0.000000 0.003448
# 5 0.012514 0.006764 -0.017471 0.000000 0.038573 0.000000
# 6 0.000000 0.000000 0.000000 0.003448 0.000000 0.027834
#
#
# Mechanical properties :
#
#
# Convention : Reuss Voigt Hill
#
# Bulk Modulus (GPa) = 59.42674 61.22961 60.32817
# Shear Modulus (GPa) = 20.72027 28.16944 24.44485
#
# Velocity S-wave (km/s) = 3.35967 3.91731 3.64916
# Velocity P-wave (km/s) = 6.88641 7.33590 7.11470
#
# Compressibility (1/GPa) = 0.01682744
#
# Stress axis : x y z
#
# Youngs Moduli (GPa) = 35.19525 50.80868 33.70825
#
# Poissons Ratio (x) = 0.14563 0.56557
# Poissons Ratio (y) = 0.10087 0.36480
# Poissons Ratio (z) = 0.59052 0.54986
#
# Static dielectric constant tensor:
#      x y z
#    x 3.362240 0.000000 0.021700 
#    y 0.000000 3.512280 0.000000 
#    z 0.021700 0.000000 3.383140 
# 
# 
# High freq. dielectric constant tensor:
#      x y z
#    x 1.714480 0.000000 -0.000530 
#    y 0.000000 1.726570 0.000000 
#    z -0.000530 0.000000 1.714170 
# 
# From -- ./inp_files/66463.got.cif
#   From: 2010.06.25/outbox.cif.g09.slc.cpg/sg10_34_cif.got.tgz:66463.got - 2010.06.27 22:07:45.
