data_PCOD8064669
_publ_section_title
;
Structure prediction by ZEFSAII (Michael W. Deem and Ramdas Pophale) SiO2 
 PCOD8064669
Probable space group: P 2/M
;
_chemical_formula_sum "Si O2"
_cell_formula_units_Z 20
_cell_length_a 24.954779
_cell_length_b 7.534546
_cell_length_c 9.489347
_cell_angle_alpha 90.000000
_cell_angle_beta 31.633586
_cell_angle_gamma 90.000000
_cell_volume 935.794069
_symmetry_space_group_name_H-M "P 2/M"
_symmetry_group_IT_number 10
_symmetry_cell_setting 'monoclinic'
loop_
_space_group_symop_operation_xyz
x,y,z
-x,y,-z
-x,-y,-z
x,-y,z
loop_
_atom_site_type_symbol
_atom_site_label
_atom_site_fract_x
_atom_site_fract_y
_atom_site_fract_z
Si Si1 0.084235 0.209902 0.706034
Si Si2 0.264342 0.801395 0.720394
Si Si3 0.643831 0.500000 0.298840
Si Si4 0.591456 0.500000 0.098318
Si Si5 0.958184 0.298664 0.736125
Si Si6 0.305028 0.209066 0.311902
O O1 0.195348 0.275401 0.502673
O O2 0.055559 0.288863 0.619785
O O3 0.080251 0.000000 0.711015
O O4 0.000000 0.288237 0.000000
O O5 0.301616 0.674263 0.761443
O O6 0.312437 0.746867 0.461710
O O7 0.299915 0.000000 0.679326
O O8 0.140963 0.803068 0.982394
O O9 0.653919 0.500000 0.106249
O O10 0.527379 0.500000 0.605095
O O11 0.613230 0.323302 0.958083
O O12 0.923941 0.500000 0.784737
O O13 0.000000 0.209277 0.500000
O O14 0.323661 0.000000 0.242210
#
# Coordination Sequence:
#
# PCOD8064669 Si02
#       6
#     4   4   2   2   4   4
#     4  10  20  36  57  88 129 167 206 250 300 364
#     4  11  23  43  69  97 132 170 216 268 318 381
#     4  11  27  49  65  97 125 164 214 268 340 395
#     4  11  27  47  71  89 129 165 208 277 336 391
#     4  11  24  37  57  94 136 175 215 251 305 377
#     4  10  23  41  67 101 129 169 221 263 317 383
#
# _framework density 21.372223999999999
#
# number of rings (size 3 to 8) (size 9 to 14) (size 15 to 20)
#    0.000    1.400    3.000    1.200    4.200    5.200 
#    0.000    4.000    0.000    0.000    0.000    0.000 
#    0.000    0.000    0.000    0.000    0.000    0.000 
#
# Total GULP energy -248031.623955 kJ/mol
# GULP energy per Si atom -12401.581198 kJ/mol
# Density = 2.132358 g / cm^3
# Si number density = 21.372224 Si / 1000 Ang^3
#
#
#
# Elastic Constant Matrix: (Units=GPa)
#
#
# Indices 1 2 3 4 5 6 
#
# 1 77.4608 16.1617 -5.8121 0.0000 13.7812 0.0000
# 2 16.1617 74.6928 11.3304 0.0000 4.8990 0.0000
# 3 -5.8121 11.3304 63.7123 0.0000 12.2415 0.0000
# 4 0.0000 0.0000 0.0000 12.6921 0.0000 5.8089
# 5 13.7812 4.8990 12.2415 0.0000 36.7286 0.0000
# 6 0.0000 0.0000 0.0000 5.8089 0.0000 22.2173
#
#
#
# Elastic Compliance Matrix: (Units=1/GPa)
#
#
# Indices 1 2 3 4 5 6 
#
# 1 0.014940 -0.003302 0.003144 0.000000 -0.006213 0.000000
# 2 -0.003302 0.014530 -0.002939 0.000000 0.000280 0.000000
# 3 0.003144 -0.002939 0.017796 0.000000 -0.006719 0.000000
# 4 0.000000 0.000000 0.000000 0.089499 0.000000 -0.023400
# 5 -0.006213 0.000280 -0.006719 0.000000 0.031760 0.000000
# 6 0.000000 0.000000 0.000000 -0.023400 0.000000 0.051128
#
#
# Mechanical properties :
#
#
# Convention : Reuss Voigt Hill
#
# Bulk Modulus (GPa) = 24.34777 28.80290 26.57534
# Shear Modulus (GPa) = 20.87348 27.27333 24.07340
#
# Velocity S-wave (km/s) = 3.12855 3.57615 3.35981
# Velocity P-wave (km/s) = 4.94646 5.52791 5.24525
#
# Compressibility (1/GPa) = 0.04107153
#
# Stress axis : x y z
#
# Youngs Moduli (GPa) = 66.93446 68.82267 56.19244
#
# Poissons Ratio (x) = 0.22726 -0.17666
# Poissons Ratio (y) = 0.22102 0.16516
# Poissons Ratio (z) = -0.21043 0.20228
#
# Static dielectric constant tensor:
#      x y z
#    x 3.884690 0.000000 0.110280 
#    y 0.000000 3.711440 0.000000 
#    z 0.110280 0.000000 3.845870 
# 
# 
# High freq. dielectric constant tensor:
#      x y z
#    x 1.838950 0.000000 0.010040 
#    y 0.000000 1.841470 0.000000 
#    z 0.010040 0.000000 1.834270 
# 
# From -- ./inp_files/31733.got.cif
#   From: 2010.06.25/outbox.cif.g09.slc.cpg/sg10_16_cif.got.tgz:31733.got - 2010.06.27 22:07:45.
