data_PCOD8064984
_publ_section_title
;
Structure prediction by ZEFSAII (Michael W. Deem and Ramdas Pophale) SiO2 
 PCOD8064984
Probable space group: P 2/M
;
_chemical_formula_sum "Si O2"
_cell_formula_units_Z 32
_cell_length_a 14.116133
_cell_length_b 8.875794
_cell_length_c 12.754306
_cell_angle_alpha 90.000000
_cell_angle_beta 86.334932
_cell_angle_gamma 90.000000
_cell_volume 1594.742797
_symmetry_space_group_name_H-M "P 2/M"
_symmetry_group_IT_number 10
_symmetry_cell_setting 'monoclinic'
loop_
_space_group_symop_operation_xyz
x,y,z
-x,y,-z
-x,-y,-z
x,-y,z
loop_
_atom_site_type_symbol
_atom_site_label
_atom_site_fract_x
_atom_site_fract_y
_atom_site_fract_z
Si Si1 0.108305 0.325766 0.696935
Si Si2 0.789867 0.822170 0.500481
Si Si3 0.440578 0.827822 0.101208
Si Si4 0.606822 0.828680 0.241444
Si Si5 0.230933 0.672991 0.884782
Si Si6 0.396370 0.323028 0.541301
Si Si7 0.240461 0.324330 0.118357
Si Si8 0.108323 0.678389 0.312685
O O1 0.120235 0.500000 0.662995
O O2 0.172147 0.225350 0.616087
O O3 0.142781 0.298296 0.813513
O O4 0.999913 0.273478 0.698661
O O5 0.682954 0.759788 0.523344
O O6 0.858208 0.754889 0.583188
O O7 0.788441 0.000000 0.510580
O O8 0.501431 0.814180 0.202875
O O9 0.344347 0.740793 0.128225
O O10 0.415716 0.000000 0.075758
O O11 0.500000 0.757242 0.000000
O O12 0.681542 0.782001 0.147174
O O13 0.619781 0.715404 0.336418
O O14 0.626917 0.000000 0.276470
O O15 0.265652 0.500000 0.874930
O O16 0.199081 0.712118 0.005685
O O17 0.500000 0.264751 0.500000
O O18 0.385363 0.500000 0.524547
O O19 0.249369 0.500000 0.136244
O O20 0.168880 0.257940 0.210409
O O21 0.117955 0.500000 0.324138
#
# Coordination Sequence:
#
# PCOD8064984 Si02
#       8
#     4   4   4   4   4   4   4   4
#     4  10  21  40  66  90 118 159 204 253 309 364
#     4  12  25  41  64  92 123 158 203 252 301 364
#     4  10  21  37  56  82 118 159 197 235 291 356
#     4  11  22  37  59  87 120 159 201 245 295 357
#     4  10  20  36  61  91 121 158 204 252 301 355
#     4  11  25  43  63  89 122 158 197 244 302 362
#     4  10  22  38  59  90 123 158 205 254 299 356
#     4  10  23  42  62  88 123 162 204 253 309 362
#
# _framework density 20.065930999999999
#
# number of rings (size 3 to 8) (size 9 to 14) (size 15 to 20)
#    0.000    1.500    2.500    2.250    1.750    5.250 
#    0.000    2.500    0.000    0.000    0.000    3.500 
#    0.000    0.000    0.000    0.000    0.000    0.000 
#
# Total GULP energy -396940.940189 kJ/mol
# GULP energy per Si atom -12404.404381 kJ/mol
# Density = 2.002026 g / cm^3
# Si number density = 20.065931 Si / 1000 Ang^3
#
#
#
# Elastic Constant Matrix: (Units=GPa)
#
#
# Indices 1 2 3 4 5 6 
#
# 1 128.3544 30.6611 30.2345 0.0000 7.0074 0.0000
# 2 30.6611 43.7809 16.9643 0.0000 4.7196 0.0000
# 3 30.2345 16.9643 76.9256 0.0000 9.7813 0.0000
# 4 0.0000 0.0000 0.0000 12.8118 0.0000 7.9975
# 5 7.0074 4.7196 9.7813 0.0000 36.7325 0.0000
# 6 0.0000 0.0000 0.0000 7.9975 0.0000 7.4053
#
#
#
# Elastic Compliance Matrix: (Units=1/GPa)
#
#
# Indices 1 2 3 4 5 6 
#
# 1 0.009802 -0.005845 -0.002506 0.000000 -0.000452 0.000000
# 2 -0.005845 0.028576 -0.003808 0.000000 -0.001542 0.000000
# 3 -0.002506 -0.003808 0.015217 0.000000 -0.003085 0.000000
# 4 0.000000 0.000000 0.000000 0.239535 0.000000 -0.258691
# 5 -0.000452 -0.001542 -0.003085 0.000000 0.028330 0.000000
# 6 0.000000 0.000000 0.000000 -0.258691 0.000000 0.414418
#
#
# Mechanical properties :
#
#
# Convention : Reuss Voigt Hill
#
# Bulk Modulus (GPa) = 34.15775 44.97562 39.56668
# Shear Modulus (GPa) = 6.49388 22.80334 14.64861
#
# Velocity S-wave (km/s) = 1.80092 3.37474 2.70483
# Velocity P-wave (km/s) = 4.62430 6.13578 5.43286
#
# Compressibility (1/GPa) = 0.02927594
#
# Stress axis : x y z
#
# Youngs Moduli (GPa) = 102.01828 34.99391 65.71733
#
# Poissons Ratio (x) = 0.20454 0.16470
# Poissons Ratio (y) = 0.59629 0.25028
# Poissons Ratio (z) = 0.25568 0.13327
#
# Static dielectric constant tensor:
#      x y z
#    x 3.780320 0.000000 0.012270 
#    y 0.000000 3.515530 0.000000 
#    z 0.012270 0.000000 3.747070 
# 
# 
# High freq. dielectric constant tensor:
#      x y z
#    x 1.788710 0.000000 0.009650 
#    y 0.000000 1.772550 0.000000 
#    z 0.009650 0.000000 1.789370 
# 
# From -- ./inp_files/49980.got.cif
#   From: 2010.06.25/outbox.cif.g09.slc.cpg/sg10_25_cif.got.tgz:49980.got - 2010.06.27 22:07:45.
