data_PCOD8064017
_publ_section_title
;
Structure prediction by ZEFSAII (Michael W. Deem and Ramdas Pophale) SiO2 
 PCOD8064017
Probable space group: P 2/M
;
_chemical_formula_sum "Si O2"
_cell_formula_units_Z 32
_cell_length_a 8.980244
_cell_length_b 13.836057
_cell_length_c 23.157845
_cell_angle_alpha 90.000000
_cell_angle_beta 144.929840
_cell_angle_gamma 90.000000
_cell_volume 1653.287679
_symmetry_space_group_name_H-M "P 2/M"
_symmetry_group_IT_number 10
_symmetry_cell_setting 'monoclinic'
loop_
_space_group_symop_operation_xyz
x,y,z
-x,y,-z
-x,-y,-z
x,-y,z
loop_
_atom_site_type_symbol
_atom_site_label
_atom_site_fract_x
_atom_site_fract_y
_atom_site_fract_z
Si Si1 0.388965 0.396072 0.403625
Si Si2 0.936261 0.387010 0.541125
Si Si3 0.183424 0.111794 0.222358
Si Si4 0.797176 0.613865 0.083402
Si Si5 0.232024 0.110830 0.614233
Si Si6 0.695115 0.262571 0.267941
Si Si7 0.030757 0.740409 0.759506
Si Si8 0.897942 0.255444 0.904356
O O1 0.500000 0.422027 0.500000
O O2 0.269608 0.500000 0.342828
O O3 0.633518 0.362392 0.444223
O O4 0.205235 0.303605 0.351526
O O5 0.992846 0.500000 0.562054
O O6 0.111442 0.344959 0.648186
O O7 0.000000 0.339977 0.500000
O O8 0.491433 0.124599 0.329797
O O9 0.092084 0.161350 0.133610
O O10 0.034974 0.158979 0.229817
O O11 0.102195 0.000000 0.193485
O O12 0.837822 0.500000 0.090784
O O13 0.938958 0.655652 0.184039
O O14 0.916995 0.661491 0.063571
O O15 0.500000 0.642274 0.000000
O O16 0.233234 0.164689 0.675846
O O17 0.000000 0.149929 0.500000
O O18 0.181200 0.000000 0.613788
O O19 0.734364 0.245219 0.211317
O O20 0.397634 0.293864 0.184530
O O21 0.000000 0.226122 0.000000
#
# Coordination Sequence:
#
# PCOD8064017 Si02
#       8
#     4   4   4   4   4   4   4   4
#     4  10  20  35  52  77 114 153 192 229 273 329
#     4  10  22  35  52  79 113 150 191 233 272 327
#     4   9  21  39  59  85 112 147 189 235 288 343
#     4  10  22  40  61  85 116 151 187 230 282 339
#     4   9  19  36  56  79 111 148 187 234 286 342
#     4  11  22  35  57  83 113 148 188 236 281 338
#     4  11  22  35  58  83 114 152 189 236 281 337
#     4  10  22  40  62  86 113 146 187 236 286 340
#
# _framework density 19.355373
#
# number of rings (size 3 to 8) (size 9 to 14) (size 15 to 20)
#    0.000    2.000    1.250    1.500    7.000    2.000 
#    0.000    0.000    0.000   15.375    0.000    0.000 
#    0.000    0.000    0.000    0.000    0.000    0.000 
#
# Total GULP energy -396573.104734 kJ/mol
# GULP energy per Si atom -12392.909523 kJ/mol
# Density = 1.931132 g / cm^3
# Si number density = 19.355373 Si / 1000 Ang^3
#
#
#
# Elastic Constant Matrix: (Units=GPa)
#
#
# Indices 1 2 3 4 5 6 
#
# 1 142.8892 49.6637 30.2928 0.0000 3.0612 0.0000
# 2 49.6637 104.9903 36.2824 0.0000 10.2764 0.0000
# 3 30.2928 36.2824 65.0814 0.0000 -3.7497 0.0000
# 4 0.0000 0.0000 0.0000 19.2750 0.0000 0.3739
# 5 3.0612 10.2764 -3.7497 0.0000 25.7788 0.0000
# 6 0.0000 0.0000 0.0000 0.3739 0.0000 18.2100
#
#
#
# Elastic Compliance Matrix: (Units=1/GPa)
#
#
# Indices 1 2 3 4 5 6 
#
# 1 0.008612 -0.003329 -0.002153 0.000000 -0.000009 0.000000
# 2 -0.003329 0.013980 -0.006598 0.000000 -0.006137 0.000000
# 3 -0.002153 -0.006598 0.020383 0.000000 0.005851 0.000000
# 4 0.000000 0.000000 0.000000 0.051901 0.000000 -0.001066
# 5 -0.000009 -0.006137 0.005851 0.000000 0.042090 0.000000
# 6 0.000000 0.000000 0.000000 -0.001066 0.000000 0.054937
#
#
# Mechanical properties :
#
#
# Convention : Reuss Voigt Hill
#
# Bulk Modulus (GPa) = 53.14884 60.60430 56.87657
# Shear Modulus (GPa) = 22.48851 25.76758 24.12805
#
# Velocity S-wave (km/s) = 3.41233 3.65264 3.53453
# Velocity P-wave (km/s) = 6.56082 7.01202 6.79017
#
# Compressibility (1/GPa) = 0.01881509
#
# Stress axis : x y z
#
# Youngs Moduli (GPa) = 116.11564 71.52983 49.06019
#
# Poissons Ratio (x) = 0.23811 0.10564
# Poissons Ratio (y) = 0.38652 0.32370
# Poissons Ratio (z) = 0.25004 0.47196
#
# Static dielectric constant tensor:
#      x y z
#    x 3.559120 0.000000 -0.019640 
#    y 0.000000 3.401810 0.000000 
#    z -0.019640 0.000000 3.452710 
# 
# 
# High freq. dielectric constant tensor:
#      x y z
#    x 1.761910 0.000000 0.004650 
#    y 0.000000 1.748580 0.000000 
#    z 0.004650 0.000000 1.747200 
# 
# From -- ./inp_files/65145.got.cif
#   From: 2010.06.25/outbox.cif.g09.slc.cpg/sg10_33_cif.got.tgz:65145.got - 2010.06.27 22:07:45.
