data_PCOD8064584
_publ_section_title
;
Structure prediction by ZEFSAII (Michael W. Deem and Ramdas Pophale) SiO2 
 PCOD8064584
Probable space group: P 2/M
;
_chemical_formula_sum "Si O2"
_cell_formula_units_Z 28
_cell_length_a 9.340910
_cell_length_b 9.184514
_cell_length_c 27.291586
_cell_angle_alpha 90.000000
_cell_angle_beta 141.859778
_cell_angle_gamma 90.000000
_cell_volume 1446.016011
_symmetry_space_group_name_H-M "P 2/M"
_symmetry_group_IT_number 10
_symmetry_cell_setting 'monoclinic'
loop_
_space_group_symop_operation_xyz
x,y,z
-x,y,-z
-x,-y,-z
x,-y,z
loop_
_atom_site_type_symbol
_atom_site_label
_atom_site_fract_x
_atom_site_fract_y
_atom_site_fract_z
Si Si1 0.148449 0.666014 0.699836
Si Si2 0.958496 0.672147 0.128729
Si Si3 0.731844 0.172493 0.537163
Si Si4 0.481485 0.668297 0.278800
Si Si5 0.729125 0.159958 0.429888
Si Si6 0.663225 0.669017 0.145162
Si Si7 0.810800 0.827231 0.990110
O O1 0.074983 0.500000 0.670472
O O2 0.395224 0.698698 0.740104
O O3 0.170814 0.697366 0.763639
O O4 0.953396 0.766859 0.624629
O O5 0.950497 0.500000 0.116236
O O6 0.802499 0.713432 0.133717
O O7 0.864075 0.755319 0.056418
O O8 0.220003 0.728527 0.207588
O O9 0.500000 0.224271 0.500000
O O10 0.690844 0.236034 0.471926
O O11 0.765833 0.000000 0.544385
O O12 0.475030 0.500000 0.290213
O O13 0.628617 0.742084 0.360523
O O14 0.000000 0.140973 0.500000
O O15 0.610940 0.000000 0.394728
O O16 0.586841 0.500000 0.122278
O O17 0.439369 0.768609 0.093196
O O18 0.801799 0.000000 0.993853
O O19 0.000000 0.781899 0.000000
#
# Coordination Sequence:
#
# PCOD8064584 Si02
#       7
#     4   4   4   4   4   4   4
#     4  10  21  37  57  84 115 149 190 235 283 337
#     4  10  22  40  62  89 119 152 190 235 287 343
#     4  10  22  38  55  78 111 150 192 236 287 344
#     4  10  21  36  57  85 115 148 190 236 283 337
#     4  10  20  36  56  79 109 149 193 236 283 337
#     4  10  22  40  62  88 119 153 191 235 286 343
#     4  11  24  41  62  90 120 152 192 234 280 338
#
# _framework density 19.363548000000002
#
# number of rings (size 3 to 8) (size 9 to 14) (size 15 to 20)
#    0.000    1.857    1.429    1.714    2.000    6.857 
#    0.000    0.000    0.000    0.000    0.000    0.000 
#    0.000    0.000    0.000    0.000    0.000    0.000 
#
# Total GULP energy -347175.180918 kJ/mol
# GULP energy per Si atom -12399.113604 kJ/mol
# Density = 1.931948 g / cm^3
# Si number density = 19.363548 Si / 1000 Ang^3
#
#
#
# Elastic Constant Matrix: (Units=GPa)
#
#
# Indices 1 2 3 4 5 6 
#
# 1 123.5475 28.3763 21.3629 0.0000 -12.8471 0.0000
# 2 28.3763 39.8155 21.3058 0.0000 -2.5500 0.0000
# 3 21.3629 21.3058 65.0116 0.0000 -9.3952 0.0000
# 4 0.0000 0.0000 0.0000 -5.1712 0.0000 17.1573
# 5 -12.8471 -2.5500 -9.3952 0.0000 41.5173 0.0000
# 6 0.0000 0.0000 0.0000 17.1573 0.0000 21.4224
#
#
#
# Elastic Compliance Matrix: (Units=1/GPa)
#
#
# Indices 1 2 3 4 5 6 
#
# 1 0.009993 -0.006546 -0.000775 0.000000 0.002515 0.000000
# 2 -0.006546 0.034752 -0.009534 0.000000 -0.002049 0.000000
# 3 -0.000775 -0.009534 0.019272 0.000000 0.003536 0.000000
# 4 0.000000 0.000000 0.000000 -0.052875 0.000000 0.042348
# 5 0.002515 -0.002049 0.003536 0.000000 0.025539 0.000000
# 6 0.000000 0.000000 0.000000 0.042348 0.000000 0.012764
#
#
# Mechanical properties :
#
#
# Convention : Reuss Voigt Hill
#
# Bulk Modulus (GPa) = 32.99612 41.16273 37.07942
# Shear Modulus (GPa) = 53.61524 22.04233 37.82879
#
# Velocity S-wave (km/s) = 5.26772 3.37759 4.42476
# Velocity P-wave (km/s) = 7.35362 6.04275 6.73018
#
# Compressibility (1/GPa) = 0.03030660
#
# Stress axis : x y z
#
# Youngs Moduli (GPa) = 100.06909 28.77544 51.88879
#
# Poissons Ratio (x) = 0.18837 0.04021
# Poissons Ratio (y) = 0.65508 0.49471
# Poissons Ratio (z) = 0.07755 0.27434
#
# Static dielectric constant tensor:
#      x y z
#    x 3.874070 0.000000 0.000980 
#    y 0.000000 3.472310 0.000000 
#    z 0.000980 0.000000 3.511860 
# 
# 
# High freq. dielectric constant tensor:
#      x y z
#    x 1.772440 0.000000 -0.005100 
#    y 0.000000 1.741630 0.000000 
#    z -0.005100 0.000000 1.759550 
# 
# From -- ./inp_files/36834.got.cif
#   From: 2010.06.25/outbox.cif.g09.slc.cpg/sg10_19_cif.got.tgz:36834.got - 2010.06.27 22:07:45.
