data_PCOD8064005
_publ_section_title
;
Structure prediction by ZEFSAII (Michael W. Deem and Ramdas Pophale) SiO2 
 PCOD8064005
Probable space group: P 2/M
;
_chemical_formula_sum "Si O2"
_cell_formula_units_Z 24
_cell_length_a 15.837033
_cell_length_b 7.919603
_cell_length_c 13.835092
_cell_angle_alpha 90.000000
_cell_angle_beta 49.594324
_cell_angle_gamma 90.000000
_cell_volume 1321.339505
_symmetry_space_group_name_H-M "P 2/M"
_symmetry_group_IT_number 10
_symmetry_cell_setting 'monoclinic'
loop_
_space_group_symop_operation_xyz
x,y,z
-x,y,-z
-x,-y,-z
x,-y,z
loop_
_atom_site_type_symbol
_atom_site_label
_atom_site_fract_x
_atom_site_fract_y
_atom_site_fract_z
Si Si1 0.650064 0.188543 0.749052
Si Si2 0.225130 0.690272 0.165671
Si Si3 0.328074 0.500000 0.570169
Si Si4 0.225003 0.800642 0.537777
Si Si5 0.414611 0.312593 0.892251
Si Si6 0.571388 0.500000 0.301618
Si Si7 0.995683 0.192043 0.396843
O O1 0.706291 0.309077 0.785487
O O2 0.692231 0.235939 0.611841
O O3 0.517200 0.198507 0.848486
O O4 0.686821 0.000000 0.749427
O O5 0.188926 0.500000 0.169529
O O6 0.112519 0.796743 0.255370
O O7 0.301751 0.764530 0.021865
O O8 0.262591 0.673430 0.594586
O O9 0.445603 0.500000 0.430030
O O10 0.342749 0.500000 0.674569
O O11 0.102600 0.736452 0.597156
O O12 0.229052 0.000000 0.566875
O O13 0.432185 0.500000 0.925041
O O14 0.407019 0.332427 0.780914
O O15 0.000000 0.281956 0.500000
O O16 0.961719 0.000000 0.440595
#
# Coordination Sequence:
#
# PCOD8064005 Si02
#       7
#     4   4   2   4   4   2   4
#     4  11  20  32  50  78 114 150 179 212 266 329
#     4  11  22  31  51  77 109 151 183 215 260 328
#     4  11  20  38  65  81 106 147 182 227 296 339
#     4  10  21  35  55  84 116 143 180 230 273 323
#     4   9  19  37  51  73 111 137 180 226 269 317
#     4   9  20  38  59  82 104 136 180 235 285 329
#     4  10  20  35  51  74 112 148 182 225 260 309
#
# _framework density 18.163385999999999
#
# number of rings (size 3 to 8) (size 9 to 14) (size 15 to 20)
#    0.500    1.333    3.333    1.500    2.333    3.667 
#    0.000    2.500    0.000    2.000    0.000    2.333 
#    0.000    0.000    0.000    0.000    0.000    0.000 
#
# Total GULP energy -297451.173047 kJ/mol
# GULP energy per Si atom -12393.798877 kJ/mol
# Density = 1.812205 g / cm^3
# Si number density = 18.163386 Si / 1000 Ang^3
#
#
#
# Elastic Constant Matrix: (Units=GPa)
#
#
# Indices 1 2 3 4 5 6 
#
# 1 114.0863 33.9953 41.4145 0.0000 -10.6302 0.0000
# 2 33.9953 50.4663 10.9223 0.0000 0.3610 0.0000
# 3 41.4145 10.9223 101.1305 0.0000 -21.9804 0.0000
# 4 0.0000 0.0000 0.0000 19.8391 0.0000 -6.5666
# 5 -10.6302 0.3610 -21.9804 0.0000 24.0261 0.0000
# 6 0.0000 0.0000 0.0000 -6.5666 0.0000 19.9346
#
#
#
# Elastic Compliance Matrix: (Units=1/GPa)
#
#
# Indices 1 2 3 4 5 6 
#
# 1 0.012677 -0.007714 -0.003887 0.000000 0.002169 0.000000
# 2 -0.007714 0.025144 -0.000475 0.000000 -0.004225 0.000000
# 3 -0.003887 -0.000475 0.013929 0.000000 0.011030 0.000000
# 4 0.000000 0.000000 0.000000 0.056574 0.000000 0.018636
# 5 0.002169 -0.004225 0.011030 0.000000 0.052735 0.000000
# 6 0.000000 0.000000 0.000000 0.018636 0.000000 0.056303
#
#
# Mechanical properties :
#
#
# Convention : Reuss Voigt Hill
#
# Bulk Modulus (GPa) = 36.23399 48.70526 42.46963
# Shear Modulus (GPa) = 19.94314 24.71671 22.32992
#
# Velocity S-wave (km/s) = 3.31718 3.69290 3.51007
# Velocity P-wave (km/s) = 5.88760 6.71243 6.31350
#
# Compressibility (1/GPa) = 0.02759839
#
# Stress axis : x y z
#
# Youngs Moduli (GPa) = 78.88369 39.77027 71.79467
#
# Poissons Ratio (x) = 0.30678 0.27906
# Poissons Ratio (y) = 0.60849 0.03411
# Poissons Ratio (z) = 0.30661 0.01890
#
# Static dielectric constant tensor:
#      x y z
#    x 3.164240 0.000000 -0.077750 
#    y 0.000000 3.146420 0.000000 
#    z -0.077750 0.000000 3.367390 
# 
# 
# High freq. dielectric constant tensor:
#      x y z
#    x 1.677060 0.000000 -0.018390 
#    y 0.000000 1.690910 0.000000 
#    z -0.018390 0.000000 1.702100 
# 
# From -- ./inp_files/63121.got.cif
#   From: 2010.06.25/outbox.cif.g09.slc.cpg/sg10_32_cif.got.tgz:63121.got - 2010.06.27 22:07:45.
