data_PCOD8064543
_publ_section_title
;
Structure prediction by ZEFSAII (Michael W. Deem and Ramdas Pophale) SiO2 
 PCOD8064543
Probable space group: P 2/M
;
_chemical_formula_sum "Si O2"
_cell_formula_units_Z 32
_cell_length_a 24.188408
_cell_length_b 9.384018
_cell_length_c 16.020534
_cell_angle_alpha 90.000000
_cell_angle_beta 151.573819
_cell_angle_gamma 90.000000
_cell_volume 1731.027152
_symmetry_space_group_name_H-M "P 2/M"
_symmetry_group_IT_number 10
_symmetry_cell_setting 'monoclinic'
loop_
_space_group_symop_operation_xyz
x,y,z
-x,y,-z
-x,-y,-z
x,-y,z
loop_
_atom_site_type_symbol
_atom_site_label
_atom_site_fract_x
_atom_site_fract_y
_atom_site_fract_z
Si Si1 0.009588 0.659164 0.420266
Si Si2 0.729666 0.657802 0.210395
Si Si3 0.603937 0.166586 0.366957
Si Si4 0.380010 0.151462 0.802117
Si Si5 0.657062 0.165989 0.955409
Si Si6 0.064564 0.335762 0.957906
Si Si7 0.144670 0.833131 0.907269
Si Si8 0.175200 0.336439 0.284210
O O1 0.951925 0.500000 0.337856
O O2 0.144419 0.649103 0.581590
O O3 0.000000 0.722597 0.500000
O O4 0.952893 0.768315 0.281651
O O5 0.682540 0.500000 0.126710
O O6 0.663292 0.721249 0.199727
O O7 0.720419 0.749825 0.113994
O O8 0.606949 0.209182 0.274211
O O9 0.477311 0.213622 0.234898
O O10 0.708193 0.246092 0.551423
O O11 0.622820 0.000000 0.406705
O O12 0.307361 0.000000 0.706559
O O13 0.500000 0.106411 0.000000
O O14 0.661853 0.000000 0.986930
O O15 0.727664 0.194980 0.963263
O O16 0.067372 0.500000 0.932070
O O17 0.131764 0.240023 0.979910
O O18 0.929615 0.288320 0.792524
O O19 0.133429 0.316062 0.134672
O O20 0.121118 0.000000 0.886295
O O21 0.205603 0.500000 0.342747
#
# Coordination Sequence:
#
# PCOD8064543 Si02
#       8
#     4   4   4   4   4   4   4   4
#     4  10  21  37  53  75 111 150 187 227 277 327
#     4  11  22  34  52  77 107 147 192 236 276 319
#     4  10  21  37  58  82 111 150 187 228 280 327
#     4  10  20  36  54  74 109 153 188 223 275 331
#     4  10  21  39  56  76 113 154 188 226 278 329
#     4   9  20  41  64  84 114 146 174 221 286 338
#     4  11  23  36  58  87 111 144 192 234 271 328
#     4   9  20  40  64  87 110 143 181 223 277 336
#
# _framework density 18.486134
#
# number of rings (size 3 to 8) (size 9 to 14) (size 15 to 20)
#    0.000    2.000    2.500    1.500    1.750    4.000 
#    0.000    1.875    0.000    3.750    0.000    0.000 
#    0.000    0.000    0.000    0.000    0.000    0.000 
#
# Total GULP energy -396577.276938 kJ/mol
# GULP energy per Si atom -12393.039904 kJ/mol
# Density = 1.844406 g / cm^3
# Si number density = 18.486134 Si / 1000 Ang^3
#
#
#
# Elastic Constant Matrix: (Units=GPa)
#
#
# Indices 1 2 3 4 5 6 
#
# 1 125.7926 63.9417 38.9341 0.0000 5.4803 0.0000
# 2 63.9417 96.1016 43.8645 0.0000 6.0764 0.0000
# 3 38.9341 43.8645 84.6744 0.0000 9.5911 0.0000
# 4 0.0000 0.0000 0.0000 33.9347 0.0000 -7.6782
# 5 5.4803 6.0764 9.5911 0.0000 23.0342 0.0000
# 6 0.0000 0.0000 0.0000 -7.6782 0.0000 48.0687
#
#
#
# Elastic Compliance Matrix: (Units=1/GPa)
#
#
# Indices 1 2 3 4 5 6 
#
# 1 0.012229 -0.007292 -0.001820 0.000000 -0.000228 0.000000
# 2 -0.007292 0.017986 -0.005902 0.000000 -0.000552 0.000000
# 3 -0.001820 -0.005902 0.016245 0.000000 -0.004774 0.000000
# 4 0.000000 0.000000 0.000000 0.030573 0.000000 0.004884
# 5 -0.000228 -0.000552 -0.004774 0.000000 0.045602 0.000000
# 6 0.000000 0.000000 0.000000 0.004884 0.000000 0.021584
#
#
# Mechanical properties :
#
#
# Convention : Reuss Voigt Hill
#
# Bulk Modulus (GPa) = 60.85325 66.67214 63.76269
# Shear Modulus (GPa) = 27.82039 31.66272 29.74156
#
# Velocity S-wave (km/s) = 3.88356 4.14307 4.01541
# Velocity P-wave (km/s) = 7.28691 7.68316 7.48766
#
# Compressibility (1/GPa) = 0.01643298
#
# Stress axis : x y z
#
# Youngs Moduli (GPa) = 81.77106 55.59846 61.55712
#
# Poissons Ratio (x) = 0.40541 0.11203
# Poissons Ratio (y) = 0.59625 0.36332
# Poissons Ratio (z) = 0.14882 0.32815
#
# Static dielectric constant tensor:
#      x y z
#    x 3.517520 0.000000 0.148350 
#    y 0.000000 3.556270 0.000000 
#    z 0.148350 0.000000 3.347360 
# 
# 
# High freq. dielectric constant tensor:
#      x y z
#    x 1.720250 0.000000 0.007390 
#    y 0.000000 1.721200 0.000000 
#    z 0.007390 0.000000 1.703040 
# 
# From -- ./inp_files/71608.got.cif
#   From: 2010.06.25/outbox.cif.g09.slc.cpg/sg10_36_cif.got.tgz:71608.got - 2010.06.27 22:07:45.
