data_PCOD8064556
_publ_section_title
;
Structure prediction by ZEFSAII (Michael W. Deem and Ramdas Pophale) SiO2 
 PCOD8064556
Probable space group: P 2/M
;
_chemical_formula_sum "Si O2"
_cell_formula_units_Z 28
_cell_length_a 9.751573
_cell_length_b 13.928234
_cell_length_c 17.209111
_cell_angle_alpha 90.000000
_cell_angle_beta 44.402424
_cell_angle_gamma 90.000000
_cell_volume 1635.449158
_symmetry_space_group_name_H-M "P 2/M"
_symmetry_group_IT_number 10
_symmetry_cell_setting 'monoclinic'
loop_
_space_group_symop_operation_xyz
x,y,z
-x,y,-z
-x,-y,-z
x,-y,z
loop_
_atom_site_type_symbol
_atom_site_label
_atom_site_fract_x
_atom_site_fract_y
_atom_site_fract_z
Si Si1 0.172778 0.393508 0.991382
Si Si2 0.788723 0.609628 0.558900
Si Si3 0.718140 0.609009 0.410291
Si Si4 0.511770 0.889324 0.866231
Si Si5 0.910366 0.729221 0.200681
Si Si6 0.812631 0.109633 0.876053
Si Si7 0.560290 0.724642 0.221303
O O1 0.227002 0.500000 0.000151
O O2 0.097952 0.327563 0.091538
O O3 0.366834 0.348003 0.874872
O O4 0.000000 0.401676 0.000000
O O5 0.746031 0.500000 0.602929
O O6 0.805383 0.615654 0.460073
O O7 0.621056 0.678026 0.660279
O O8 0.000000 0.646547 0.500000
O O9 0.500000 0.650995 0.500000
O O10 0.716124 0.500000 0.378916
O O11 0.845401 0.671953 0.301948
O O12 0.690288 0.857413 0.849831
O O13 0.507212 0.824052 0.790938
O O14 0.536456 0.000000 0.830038
O O15 0.311471 0.876662 0.995081
O O16 0.736270 0.744635 0.209938
O O17 0.986018 0.832216 0.198298
O O18 0.874577 0.000000 0.840876
#
# Coordination Sequence:
#
# PCOD8064556 Si02
#       7
#     4   4   4   4   4   4   4
#     4   9  18  30  47  77 113 143 167 208 271 327
#     4  10  22  38  55  78 108 148 193 227 262 312
#     4  10  20  36  55  76 107 149 190 224 257 310
#     4   9  19  36  56  78 109 146 180 217 270 332
#     4  11  20  32  55  84 110 140 181 223 270 322
#     4   9  19  36  56  79 109 144 180 219 270 331
#     4  11  20  33  55  82 111 140 178 227 273 321
#
# _framework density 17.120678999999999
#
# number of rings (size 3 to 8) (size 9 to 14) (size 15 to 20)
#    0.000    2.143    2.857    1.714    2.000    1.714 
#    0.000    1.429    0.000    2.571    0.000    0.000 
#    0.000    0.000    0.000    0.000    0.000    0.000 
#
# Total GULP energy -347196.204599 kJ/mol
# GULP energy per Si atom -12399.864450 kJ/mol
# Density = 1.708171 g / cm^3
# Si number density = 17.120679 Si / 1000 Ang^3
#
#
#
# Elastic Constant Matrix: (Units=GPa)
#
#
# Indices 1 2 3 4 5 6 
#
# 1 90.0781 47.3182 36.4728 0.0000 -7.3741 0.0000
# 2 47.3182 99.1155 47.4240 0.0000 -1.4595 0.0000
# 3 36.4728 47.4240 88.7115 0.0000 -1.0219 0.0000
# 4 0.0000 0.0000 0.0000 45.2717 0.0000 2.9552
# 5 -7.3741 -1.4595 -1.0219 0.0000 20.8142 0.0000
# 6 0.0000 0.0000 0.0000 2.9552 0.0000 28.8993
#
#
#
# Elastic Compliance Matrix: (Units=1/GPa)
#
#
# Indices 1 2 3 4 5 6 
#
# 1 0.016003 -0.005973 -0.003328 0.000000 0.005087 0.000000
# 2 -0.005973 0.015793 -0.006002 0.000000 -0.001303 0.000000
# 3 -0.003328 -0.006002 0.015840 0.000000 -0.000822 0.000000
# 4 0.000000 0.000000 0.000000 0.022237 0.000000 -0.002274
# 5 0.005087 -0.001303 -0.000822 0.000000 0.049715 0.000000
# 6 0.000000 0.000000 0.000000 -0.002274 0.000000 0.034835
#
#
# Mechanical properties :
#
#
# Convention : Reuss Voigt Hill
#
# Bulk Modulus (GPa) = 58.71824 60.03723 59.37773
# Shear Modulus (GPa) = 26.21831 28.77637 27.49734
#
# Velocity S-wave (km/s) = 3.91753 4.10420 4.01195
# Velocity P-wave (km/s) = 7.40499 7.58963 7.49788
#
# Compressibility (1/GPa) = 0.01703048
#
# Stress axis : x y z
#
# Youngs Moduli (GPa) = 62.48881 63.31768 63.13111
#
# Poissons Ratio (x) = 0.37817 0.21010
# Poissons Ratio (y) = 0.37322 0.37894
# Poissons Ratio (z) = 0.20796 0.38006
#
# Static dielectric constant tensor:
#      x y z
#    x 3.141320 0.000000 -0.004120 
#    y 0.000000 3.207220 0.000000 
#    z -0.004120 0.000000 3.164540 
# 
# 
# High freq. dielectric constant tensor:
#      x y z
#    x 1.657760 0.000000 0.001670 
#    y 0.000000 1.656700 0.000000 
#    z 0.001670 0.000000 1.649570 
# 
# From -- ./inp_files/25069.got.cif
#   From: 2010.06.25/outbox.cif.g09.slc.cpg/sg10_13_cif.got.tgz:25069.got - 2010.06.27 22:07:45.
