data_PCOD8064806
_publ_section_title
;
Structure prediction by ZEFSAII (Michael W. Deem and Ramdas Pophale) SiO2 
 PCOD8064806
Probable space group: P 2/M
;
_chemical_formula_sum "Si O2"
_cell_formula_units_Z 22
_cell_length_a 8.405845
_cell_length_b 26.795842
_cell_length_c 9.918843
_cell_angle_alpha 90.000000
_cell_angle_beta 30.470652
_cell_angle_gamma 90.000000
_cell_volume 1132.924069
_symmetry_space_group_name_H-M "P 2/M"
_symmetry_group_IT_number 10
_symmetry_cell_setting 'monoclinic'
loop_
_space_group_symop_operation_xyz
x,y,z
-x,y,-z
-x,-y,-z
x,-y,z
loop_
_atom_site_type_symbol
_atom_site_label
_atom_site_fract_x
_atom_site_fract_y
_atom_site_fract_z
Si Si1 0.220829 0.156218 0.596936
Si Si2 0.369159 0.391965 0.744457
Si Si3 0.370922 0.313678 0.236949
Si Si4 0.865867 0.946065 0.243103
Si Si5 0.635051 0.500000 0.254778
Si Si6 0.579039 0.797143 0.094373
O O1 0.500000 0.159353 0.500000
O O2 0.071715 0.100007 0.700269
O O3 0.948376 0.193290 0.846789
O O4 0.353890 0.170183 0.353703
O O5 0.500000 0.386085 0.500000
O O6 0.533563 0.352028 0.718287
O O7 0.458540 0.446824 0.744530
O O8 0.000000 0.383188 0.000000
O O9 0.000000 0.307734 0.500000
O O10 0.500000 0.333238 0.000000
O O11 0.521880 0.260853 0.165053
O O12 0.500000 0.953949 0.500000
O O13 0.012632 0.000000 0.182939
O O14 0.000000 0.930342 0.000000
O O15 0.500000 0.500000 0.500000
O O16 0.000000 0.500000 0.000000
O O17 0.500000 0.812422 0.000000
#
# Coordination Sequence:
#
# PCOD8064806 Si02
#       6
#     4   4   4   4   2   4
#     4  11  21  36  59  86 107 135 187 235 260 310
#     4  10  20  36  59  85 110 144 185 227 271 321
#     4  11  23  40  56  78 112 149 185 224 274 329
#     4   9  17  31  52  80 111 138 168 217 277 321
#     4   8  16  32  54  80 112 142 174 218 276 330
#     4  11  23  39  55  75 112 154 179 214 281 337
#
# _framework density 19.418778
#
# number of rings (size 3 to 8) (size 9 to 14) (size 15 to 20)
#    0.000    1.818    0.000    6.545    0.000    2.182 
#    0.000    0.909    0.000    3.273    0.000    0.000 
#    0.000    0.000    0.000    0.000    0.000    0.000 
#
# Total GULP energy -272615.000403 kJ/mol
# GULP energy per Si atom -12391.590927 kJ/mol
# Density = 1.937458 g / cm^3
# Si number density = 19.418778 Si / 1000 Ang^3
#
#
#
# Elastic Constant Matrix: (Units=GPa)
#
#
# Indices 1 2 3 4 5 6 
#
# 1 63.0084 78.8030 34.1276 0.0000 -0.9145 0.0000
# 2 78.8030 183.8440 67.8584 0.0000 11.6356 0.0000
# 3 34.1276 67.8584 154.3732 0.0000 1.2974 0.0000
# 4 0.0000 0.0000 0.0000 34.6790 0.0000 5.4504
# 5 -0.9145 11.6356 1.2974 0.0000 38.7438 0.0000
# 6 0.0000 0.0000 0.0000 5.4504 0.0000 -4.1647
#
#
#
# Elastic Compliance Matrix: (Units=1/GPa)
#
#
# Indices 1 2 3 4 5 6 
#
# 1 0.035522 -0.015104 -0.001259 0.000000 0.005417 0.000000
# 2 -0.015104 0.013051 -0.002363 0.000000 -0.004197 0.000000
# 3 -0.001259 -0.002363 0.007791 0.000000 0.000419 0.000000
# 4 0.000000 0.000000 0.000000 0.023916 0.000000 0.031300
# 5 0.005417 -0.004197 0.000419 0.000000 0.027185 0.000000
# 6 0.000000 0.000000 0.000000 0.031300 0.000000 -0.199151
#
#
# Mechanical properties :
#
#
# Convention : Reuss Voigt Hill
#
# Bulk Modulus (GPa) = 52.87448 84.75596 68.81522
# Shear Modulus (GPa) = -104.32077 28.54740 -37.88669
#
# Velocity S-wave (km/s) = -7.33745 3.83834 -4.42184
# Velocity P-wave (km/s) = 6.67058 7.96147 3.07313
#
# Compressibility (1/GPa) = 0.01891272
#
# Stress axis : x y z
#
# Youngs Moduli (GPa) = 28.15158 76.62004 128.35037
#
# Poissons Ratio (x) = 1.15729 0.16159
# Poissons Ratio (y) = 0.42521 0.30325
# Poissons Ratio (z) = 0.03544 0.18103
#
# Static dielectric constant tensor:
#      x y z
#    x 3.140280 0.000000 -0.029100 
#    y 0.000000 4.275510 0.000000 
#    z -0.029100 0.000000 3.852950 
# 
# 
# High freq. dielectric constant tensor:
#      x y z
#    x 1.706140 0.000000 -0.005550 
#    y 0.000000 1.777120 0.000000 
#    z -0.005550 0.000000 1.790420 
# 
# From -- ./inp_files/20888.got.cif
#   From: 2010.06.25/outbox.cif.g09.slc.cpg/sg10_11_cif.got.tgz:20888.got - 2010.06.27 22:07:45.
