data_PCOD8064807
_publ_section_title
;
Structure prediction by ZEFSAII (Michael W. Deem and Ramdas Pophale) SiO2 
 PCOD8064807
Probable space group: P 2/M
;
_chemical_formula_sum "Si O2"
_cell_formula_units_Z 28
_cell_length_a 12.310744
_cell_length_b 9.130278
_cell_length_c 12.942402
_cell_angle_alpha 90.000000
_cell_angle_beta 112.344832
_cell_angle_gamma 90.000000
_cell_volume 1345.500448
_symmetry_space_group_name_H-M "P 2/M"
_symmetry_group_IT_number 10
_symmetry_cell_setting 'monoclinic'
loop_
_space_group_symop_operation_xyz
x,y,z
-x,y,-z
-x,-y,-z
x,-y,z
loop_
_atom_site_type_symbol
_atom_site_label
_atom_site_fract_x
_atom_site_fract_y
_atom_site_fract_z
Si Si1 0.284791 0.173498 0.800414
Si Si2 0.654947 0.670080 0.747513
Si Si3 0.304867 0.661749 0.009850
Si Si4 0.210549 0.326940 0.404730
Si Si5 0.967394 0.661056 0.098001
Si Si6 0.984320 0.170779 0.298445
Si Si7 0.388712 0.669403 0.646641
O O1 0.342690 0.235701 0.927424
O O2 0.364119 0.232168 0.737189
O O3 0.149257 0.221912 0.726736
O O4 0.290767 0.000000 0.810504
O O5 0.682643 0.500000 0.770736
O O6 0.743753 0.731216 0.691442
O O7 0.522606 0.696866 0.660691
O O8 0.672122 0.738016 0.869486
O O9 0.366154 0.500000 0.025301
O O10 0.169061 0.639170 0.942847
O O11 0.193279 0.500000 0.397487
O O12 0.087356 0.253941 0.398883
O O13 0.307699 0.279972 0.523056
O O14 0.027456 0.500000 0.138294
O O15 0.015433 0.782221 0.193225
O O16 0.000000 0.726463 0.000000
O O17 0.000299 0.000000 0.322449
O O18 0.366948 0.500000 0.667943
#
# Coordination Sequence:
#
# PCOD8064807 Si02
#       7
#     4   4   4   4   4   4   4
#     4  10  22  39  55  76 111 149 184 223 270 320
#     4   9  18  35  59  86 112 139 175 222 276 326
#     4   9  17  31  54  80 107 140 178 220 266 322
#     4  10  20  36  59  85 111 140 178 225 275 325
#     4   9  16  28  49  77 107 139 176 220 270 322
#     4  10  21  35  52  76 108 146 183 222 269 321
#     4  10  21  37  59  83 108 142 184 227 268 320
#
# _framework density 20.810102000000001
#
# number of rings (size 3 to 8) (size 9 to 14) (size 15 to 20)
#    0.000    2.429    0.000    2.143    0.000    7.714 
#    0.000   10.714    0.000    1.714    0.000    0.000 
#    0.000    0.000    0.000    0.000    0.000    0.000 
#
# Total GULP energy -346937.577266 kJ/mol
# GULP energy per Si atom -12390.627759 kJ/mol
# Density = 2.076274 g / cm^3
# Si number density = 20.810102 Si / 1000 Ang^3
#
#
#
# Elastic Constant Matrix: (Units=GPa)
#
#
# Indices 1 2 3 4 5 6 
#
# 1 34.5895 5.9987 -3.9087 0.0000 -2.4541 0.0000
# 2 5.9987 35.8397 11.5881 0.0000 -3.0740 0.0000
# 3 -3.9087 11.5881 80.2686 0.0000 0.0742 0.0000
# 4 0.0000 0.0000 0.0000 15.1461 0.0000 3.2226
# 5 -2.4541 -3.0740 0.0742 0.0000 36.0620 0.0000
# 6 0.0000 0.0000 0.0000 3.2226 0.0000 21.0970
#
#
#
# Elastic Compliance Matrix: (Units=1/GPa)
#
#
# Indices 1 2 3 4 5 6 
#
# 1 0.030264 -0.005672 0.002291 0.000000 0.001571 0.000000
# 2 -0.005672 0.030559 -0.004690 0.000000 0.002229 0.000000
# 3 0.002291 -0.004690 0.013247 0.000000 -0.000271 0.000000
# 4 0.000000 0.000000 0.000000 0.068242 0.000000 -0.010424
# 5 0.001571 0.002229 -0.000271 0.000000 0.028027 0.000000
# 6 0.000000 0.000000 0.000000 -0.010424 0.000000 0.048992
#
#
# Mechanical properties :
#
#
# Convention : Reuss Voigt Hill
#
# Bulk Modulus (GPa) = 17.26233 19.78377 18.52305
# Shear Modulus (GPa) = 19.62460 23.59568 21.61014
#
# Velocity S-wave (km/s) = 3.07421 3.37093 3.22599
# Velocity P-wave (km/s) = 4.57321 4.96773 4.77455
#
# Compressibility (1/GPa) = 0.05792960
#
# Stress axis : x y z
#
# Youngs Moduli (GPa) = 33.04208 32.72380 75.48847
#
# Poissons Ratio (x) = 0.18559 -0.17295
# Poissons Ratio (y) = 0.18740 0.35403
# Poissons Ratio (z) = -0.07570 0.15347
#
# Static dielectric constant tensor:
#      x y z
#    x 3.675790 0.000000 0.304120 
#    y 0.000000 3.520140 0.000000 
#    z 0.304120 0.000000 3.457210 
# 
# 
# High freq. dielectric constant tensor:
#      x y z
#    x 1.816510 0.000000 0.008050 
#    y 0.000000 1.773530 0.000000 
#    z 0.008050 0.000000 1.819620 
# 
# From -- ./inp_files/49394.got.cif
#   From: 2010.06.25/outbox.cif.g09.slc.cpg/sg10_25_cif.got.tgz:49394.got - 2010.06.27 22:07:45.
