data_PCOD8064834
_publ_section_title
;
Structure prediction by ZEFSAII (Michael W. Deem and Ramdas Pophale) SiO2 
 PCOD8064834
Probable space group: P 2/M
;
_chemical_formula_sum "Si O2"
_cell_formula_units_Z 20
_cell_length_a 9.975060
_cell_length_b 9.299848
_cell_length_c 11.230198
_cell_angle_alpha 90.000000
_cell_angle_beta 89.834842
_cell_angle_gamma 90.000000
_cell_volume 1041.782304
_symmetry_space_group_name_H-M "P 2/M"
_symmetry_group_IT_number 10
_symmetry_cell_setting 'monoclinic'
loop_
_space_group_symop_operation_xyz
x,y,z
-x,y,-z
-x,-y,-z
x,-y,z
loop_
_atom_site_type_symbol
_atom_site_label
_atom_site_fract_x
_atom_site_fract_y
_atom_site_fract_z
Si Si1 0.458147 0.663192 0.365015
Si Si2 0.012748 0.667623 0.636886
Si Si3 0.227142 0.169049 0.254389
Si Si4 0.346681 0.831699 0.998873
Si Si5 0.279392 0.666878 0.774711
O O1 0.500000 0.673899 0.500000
O O2 0.416085 0.500000 0.333029
O O3 0.333860 0.768238 0.346845
O O4 0.581507 0.715581 0.284477
O O5 0.975806 0.500000 0.648701
O O6 0.162114 0.701183 0.681436
O O7 0.000000 0.717767 0.500000
O O8 0.915268 0.758423 0.721350
O O9 0.274340 0.207960 0.121722
O O10 0.215250 0.000000 0.274550
O O11 0.344491 0.000000 0.972661
O O12 0.500000 0.774763 0.000000
O O13 0.261111 0.754862 0.896241
O O14 0.279950 0.500000 0.807758
#
# Coordination Sequence:
#
# PCOD8064834 Si02
#       5
#     4   4   4   4   4
#     4  10  20  36  59  86 115 150 194 243 295 347
#     4  10  22  42  63  85 120 158 192 239 296 350
#     4  11  23  38  59  87 117 155 198 239 290 346
#     4  10  21  39  59  82 120 160 192 238 296 346
#     4  10  21  36  60  89 113 150 200 244 289 343
#
# _framework density 19.197870000000002
#
# number of rings (size 3 to 8) (size 9 to 14) (size 15 to 20)
#    0.000    1.800    2.000    1.800    0.000    7.600 
#    0.000    6.000    0.000    0.000    0.000    0.000 
#    0.000    0.000    0.000    0.000    0.000    0.000 
#
# Total GULP energy -248100.535333 kJ/mol
# GULP energy per Si atom -12405.026767 kJ/mol
# Density = 1.915417 g / cm^3
# Si number density = 19.197870 Si / 1000 Ang^3
#
#
#
# Elastic Constant Matrix: (Units=GPa)
#
#
# Indices 1 2 3 4 5 6 
#
# 1 60.1443 27.3081 23.9540 0.0000 0.9050 0.0000
# 2 27.3081 52.8871 37.0623 0.0000 -2.5175 0.0000
# 3 23.9540 37.0623 93.2002 0.0000 2.3230 0.0000
# 4 0.0000 0.0000 0.0000 20.9094 0.0000 -7.8914
# 5 0.9050 -2.5175 2.3230 0.0000 35.2449 0.0000
# 6 0.0000 0.0000 0.0000 -7.8914 0.0000 30.1867
#
#
#
# Elastic Compliance Matrix: (Units=1/GPa)
#
#
# Indices 1 2 3 4 5 6 
#
# 1 0.021933 -0.010332 -0.001498 0.000000 -0.001202 0.000000
# 2 -0.010332 0.031314 -0.009875 0.000000 0.003153 0.000000
# 3 -0.001498 -0.009875 0.015083 0.000000 -0.001661 0.000000
# 4 0.000000 0.000000 0.000000 0.053061 0.000000 0.013871
# 5 -0.001202 0.003153 -0.001661 0.000000 0.028738 0.000000
# 6 0.000000 0.000000 0.000000 0.013871 0.000000 0.036753
#
#
# Mechanical properties :
#
#
# Convention : Reuss Voigt Hill
#
# Bulk Modulus (GPa) = 40.13183 42.54226 41.33705
# Shear Modulus (GPa) = 20.95560 25.12867 23.04214
#
# Velocity S-wave (km/s) = 3.30746 3.62184 3.46821
# Velocity P-wave (km/s) = 5.96116 6.30066 6.13326
#
# Compressibility (1/GPa) = 0.02491787
#
# Stress axis : x y z
#
# Youngs Moduli (GPa) = 45.59388 31.93492 66.29908
#
# Poissons Ratio (x) = 0.32996 0.09934
# Poissons Ratio (y) = 0.47108 0.65473
# Poissons Ratio (z) = 0.06832 0.31537
#
# Static dielectric constant tensor:
#      x y z
#    x 3.538660 0.000000 -0.089430 
#    y 0.000000 3.455540 0.000000 
#    z -0.089430 0.000000 3.573240 
# 
# 
# High freq. dielectric constant tensor:
#      x y z
#    x 1.749960 0.000000 -0.001450 
#    y 0.000000 1.739650 0.000000 
#    z -0.001450 0.000000 1.756180 
# 
# From -- ./inp_files/22161.got.cif
#   From: 2010.06.25/outbox.cif.g09.slc.cpg/sg10_12_cif.got.tgz:22161.got - 2010.06.27 22:07:45.
