data_PCOD8064238
_publ_section_title
;
Structure prediction by ZEFSAII (Michael W. Deem and Ramdas Pophale) SiO2 
 PCOD8064238
Probable space group: P 2/M
;
_chemical_formula_sum "Si O2"
_cell_formula_units_Z 28
_cell_length_a 19.352197
_cell_length_b 8.888082
_cell_length_c 15.170283
_cell_angle_alpha 90.000000
_cell_angle_beta 143.440069
_cell_angle_gamma 90.000000
_cell_volume 1554.292844
_symmetry_space_group_name_H-M "P 2/M"
_symmetry_group_IT_number 10
_symmetry_cell_setting 'monoclinic'
loop_
_space_group_symop_operation_xyz
x,y,z
-x,y,-z
-x,-y,-z
x,-y,z
loop_
_atom_site_type_symbol
_atom_site_label
_atom_site_fract_x
_atom_site_fract_y
_atom_site_fract_z
Si Si1 0.603487 0.821864 0.300011
Si Si2 0.644182 0.323181 0.975936
Si Si3 0.362548 0.165588 0.856223
Si Si4 0.989993 0.176032 0.888697
Si Si5 0.234857 0.824535 0.055017
Si Si6 0.630727 0.673694 0.655516
Si Si7 0.241288 0.674879 0.393653
O O1 0.477528 0.747429 0.178461
O O2 0.667810 0.777226 0.273717
O O3 0.683153 0.767368 0.460303
O O4 0.585267 0.000000 0.286009
O O5 0.632757 0.500000 0.957670
O O6 0.744705 0.264967 0.014381
O O7 0.681819 0.278978 0.114087
O O8 0.308555 0.000000 0.818608
O O9 0.500000 0.153733 0.000000
O O10 0.890415 0.268732 0.737240
O O11 0.960093 0.000000 0.853361
O O12 0.000000 0.229253 0.000000
O O13 0.107795 0.216899 0.959479
O O14 0.329770 0.777212 0.223975
O O15 0.248403 0.000000 0.050192
O O16 0.500000 0.719377 0.500000
O O17 0.639029 0.500000 0.693157
O O18 0.710811 0.707931 0.654189
O O19 0.248171 0.500000 0.425157
#
# Coordination Sequence:
#
# PCOD8064238 Si02
#       7
#     4   4   4   4   4   4   4
#     4  10  20  35  56  81 112 146 181 220 262 318
#     4  11  21  33  53  82 115 144 175 220 272 325
#     4   8  16  32  53  78 108 143 180 216 259 317
#     4  10  21  39  58  76 101 139 189 232 267 316
#     4  11  22  36  56  77 102 141 184 226 267 316
#     4  10  21  35  50  74 109 142 171 213 268 322
#     4  11  22  34  54  81 110 143 178 223 273 320
#
# _framework density 18.014621999999999
#
# number of rings (size 3 to 8) (size 9 to 14) (size 15 to 20)
#    0.000    1.857    1.429    4.286    0.000    6.571 
#    0.000    0.000    0.000    0.857    0.000    6.000 
#    0.000    0.000    0.000    0.000    0.000    0.000 
#
# Total GULP energy -347258.097665 kJ/mol
# GULP energy per Si atom -12402.074917 kJ/mol
# Density = 1.797362 g / cm^3
# Si number density = 18.014622 Si / 1000 Ang^3
#
#
#
# Elastic Constant Matrix: (Units=GPa)
#
#
# Indices 1 2 3 4 5 6 
#
# 1 108.3598 54.4664 20.7383 0.0000 1.8222 0.0000
# 2 54.4664 91.6949 20.5507 0.0000 0.2797 0.0000
# 3 20.7383 20.5507 18.1556 0.0000 13.5740 0.0000
# 4 0.0000 0.0000 0.0000 26.6107 0.0000 -1.0980
# 5 1.8222 0.2797 13.5740 0.0000 22.5871 0.0000
# 6 0.0000 0.0000 0.0000 -1.0980 0.0000 23.3621
#
#
#
# Elastic Compliance Matrix: (Units=1/GPa)
#
#
# Indices 1 2 3 4 5 6 
#
# 1 0.015271 -0.004385 -0.021062 0.000000 0.011479 0.000000
# 2 -0.004385 0.021204 -0.034611 0.000000 0.020891 0.000000
# 3 -0.021062 -0.034611 0.211956 0.000000 -0.125250 0.000000
# 4 0.000000 0.000000 0.000000 0.037652 0.000000 0.001770
# 5 0.011479 0.020891 -0.125250 0.000000 0.118358 0.000000
# 6 0.000000 0.000000 0.000000 0.001770 0.000000 0.042888
#
#
# Mechanical properties :
#
#
# Convention : Reuss Voigt Hill
#
# Bulk Modulus (GPa) = 7.79334 45.52456 26.65895
# Shear Modulus (GPa) = 8.19382 22.67565 15.43474
#
# Velocity S-wave (km/s) = 2.13502 3.55172 2.93027
# Velocity P-wave (km/s) = 3.22696 6.49194 5.12633
#
# Compressibility (1/GPa) = 0.12831466
#
# Stress axis : x y z
#
# Youngs Moduli (GPa) = 65.48549 47.16106 4.71796
#
# Poissons Ratio (x) = 0.20682 0.09937
# Poissons Ratio (y) = 0.28718 0.16329
# Poissons Ratio (z) = 1.37922 1.63230
#
# Static dielectric constant tensor:
#      x y z
#    x 3.561020 0.000000 -0.209770 
#    y 0.000000 3.340100 0.000000 
#    z -0.209770 0.000000 3.213600 
# 
# 
# High freq. dielectric constant tensor:
#      x y z
#    x 1.700720 0.000000 -0.013730 
#    y 0.000000 1.703770 0.000000 
#    z -0.013730 0.000000 1.677390 
# 
# From -- ./inp_files/68577.got.cif
#   From: 2010.06.25/outbox.cif.g09.slc.cpg/sg10_35_cif.got.tgz:68577.got - 2010.06.27 22:07:45.
