data_PCOD8064663
_publ_section_title
;
Structure prediction by ZEFSAII (Michael W. Deem and Ramdas Pophale) SiO2 
 PCOD8064663
Probable space group: P 2/M
;
_chemical_formula_sum "Si O2"
_cell_formula_units_Z 32
_cell_length_a 15.554822
_cell_length_b 14.084552
_cell_length_c 21.353490
_cell_angle_alpha 90.000000
_cell_angle_beta 19.619288
_cell_angle_gamma 90.000000
_cell_volume 1570.786420
_symmetry_space_group_name_H-M "P 2/M"
_symmetry_group_IT_number 10
_symmetry_cell_setting 'monoclinic'
loop_
_space_group_symop_operation_xyz
x,y,z
-x,y,-z
-x,-y,-z
x,-y,z
loop_
_atom_site_type_symbol
_atom_site_label
_atom_site_fract_x
_atom_site_fract_y
_atom_site_fract_z
Si Si1 0.279772 0.898608 0.334252
Si Si2 0.534823 0.607114 0.241395
Si Si3 0.384954 0.891608 0.510310
Si Si4 0.992995 0.737283 0.257050
Si Si5 0.542385 0.208408 0.900224
Si Si6 0.064459 0.609271 0.815073
Si Si7 0.263864 0.263311 0.788555
Si Si8 0.104249 0.732283 0.533569
O O1 0.457964 0.872079 0.152644
O O2 0.269123 0.823694 0.398038
O O3 0.000000 0.911027 0.500000
O O4 0.379347 0.000000 0.292354
O O5 0.506498 0.500000 0.284040
O O6 0.586829 0.671526 0.265485
O O7 0.263799 0.642230 0.397060
O O8 0.761379 0.616698 0.035790
O O9 0.500000 0.893981 0.500000
O O10 0.106801 0.839107 0.701214
O O11 0.576741 0.831274 0.335278
O O12 0.353953 0.000000 0.506377
O O13 0.879431 0.726083 0.403473
O O14 0.884227 0.652198 0.288926
O O15 0.300256 0.726815 0.049268
O O16 0.810121 0.267131 0.711283
O O17 0.500000 0.166560 0.000000
O O18 0.158028 0.500000 0.753503
O O19 0.222480 0.671803 0.755752
O O20 0.000000 0.228174 0.000000
#
# Coordination Sequence:
#
# PCOD8064663 Si02
#       8
#     4   4   4   4   4   4   4   4
#     4   9  18  34  56  81 110 146 193 246 293 338
#     4  10  20  36  60  90 120 155 199 247 301 356
#     4  11  23  40  59  85 119 155 194 239 294 358
#     4  11  21  38  58  82 120 159 196 240 296 347
#     4   9  20  36  59  85 118 161 195 243 292 348
#     4  10  21  37  60  89 120 153 199 251 299 354
#     4  10  20  39  63  88 118 152 193 246 303 352
#     4  10  20  36  57  85 117 156 198 246 290 343
#
# _framework density 20.371960999999999
#
# number of rings (size 3 to 8) (size 9 to 14) (size 15 to 20)
#    0.000    2.000    2.500    1.125    0.000    3.500 
#    0.000    3.750    0.000    7.125    0.000    0.000 
#    0.000    0.000    0.000    0.000    0.000    0.000 
#
# Total GULP energy -396525.573266 kJ/mol
# GULP energy per Si atom -12391.424165 kJ/mol
# Density = 2.032559 g / cm^3
# Si number density = 20.371961 Si / 1000 Ang^3
#
#
#
# Elastic Constant Matrix: (Units=GPa)
#
#
# Indices 1 2 3 4 5 6 
#
# 1 71.3597 34.1270 25.2856 0.0000 13.6981 0.0000
# 2 34.1270 130.5444 44.0159 0.0000 5.1316 0.0000
# 3 25.2856 44.0159 96.5723 0.0000 -6.1082 0.0000
# 4 0.0000 0.0000 0.0000 28.8184 0.0000 3.8575
# 5 13.6981 5.1316 -6.1082 0.0000 30.8598 0.0000
# 6 0.0000 0.0000 0.0000 3.8575 0.0000 17.4996
#
#
#
# Elastic Compliance Matrix: (Units=1/GPa)
#
#
# Indices 1 2 3 4 5 6 
#
# 1 0.018567 -0.003190 -0.003945 0.000000 -0.008492 0.000000
# 2 -0.003190 0.009771 -0.003677 0.000000 -0.000937 0.000000
# 3 -0.003945 -0.003677 0.013381 0.000000 0.005011 0.000000
# 4 0.000000 0.000000 0.000000 0.035755 0.000000 -0.007882
# 5 -0.008492 -0.000937 0.005011 0.000000 0.037322 0.000000
# 6 0.000000 0.000000 0.000000 -0.007882 0.000000 0.058881
#
#
# Mechanical properties :
#
#
# Convention : Reuss Voigt Hill
#
# Bulk Modulus (GPa) = 49.76441 56.14816 52.95629
# Shear Modulus (GPa) = 24.75262 28.43875 26.59568
#
# Velocity S-wave (km/s) = 3.48951 3.74033 3.61710
# Velocity P-wave (km/s) = 6.38095 6.80255 6.59512
#
# Compressibility (1/GPa) = 0.02009468
#
# Stress axis : x y z
#
# Youngs Moduli (GPa) = 53.85935 102.34480 74.73393
#
# Poissons Ratio (x) = 0.32647 0.29479
# Poissons Ratio (y) = 0.17181 0.27483
# Poissons Ratio (z) = 0.21245 0.37636
#
# Static dielectric constant tensor:
#      x y z
#    x 3.700760 0.000000 0.135910 
#    y 0.000000 3.942000 0.000000 
#    z 0.135910 0.000000 4.406620 
# 
# 
# High freq. dielectric constant tensor:
#      x y z
#    x 1.793580 0.000000 0.004220 
#    y 0.000000 1.776040 0.000000 
#    z 0.004220 0.000000 1.808610 
# 
# From -- ./inp_files/85392.got.cif
#   From: 2010.06.25/outbox.cif.g09.slc.cpg/sg10_43_cif.got.tgz:85392.got - 2010.06.27 22:07:45.
