data_PCOD8064106
_publ_section_title
;
Structure prediction by ZEFSAII (Michael W. Deem and Ramdas Pophale) SiO2 
 PCOD8064106
Probable space group: P 2/M
;
_chemical_formula_sum "Si O2"
_cell_formula_units_Z 32
_cell_length_a 29.183119
_cell_length_b 9.099518
_cell_length_c 12.664369
_cell_angle_alpha 90.000000
_cell_angle_beta 29.562898
_cell_angle_gamma 90.000000
_cell_volume 1659.258550
_symmetry_space_group_name_H-M "P 2/M"
_symmetry_group_IT_number 10
_symmetry_cell_setting 'monoclinic'
loop_
_space_group_symop_operation_xyz
x,y,z
-x,y,-z
-x,-y,-z
x,-y,z
loop_
_atom_site_type_symbol
_atom_site_label
_atom_site_fract_x
_atom_site_fract_y
_atom_site_fract_z
Si Si1 0.581591 0.826743 0.062230
Si Si2 0.566562 0.335089 0.766717
Si Si3 0.100508 0.324219 0.065059
Si Si4 0.406454 0.327433 0.743895
Si Si5 0.936622 0.659546 0.525311
Si Si6 0.095747 0.829851 0.857300
Si Si7 0.782812 0.326028 0.973986
Si Si8 0.292914 0.831074 0.384241
O O1 0.482876 0.757013 0.226521
O O2 0.611568 0.760746 0.113356
O O3 0.568430 0.000000 0.097761
O O4 0.663083 0.784089 0.816106
O O5 0.586329 0.500000 0.685595
O O6 0.663506 0.261756 0.606639
O O7 0.500000 0.336960 0.000000
O O8 0.098662 0.500000 0.061190
O O9 0.122111 0.256803 0.909294
O O10 0.181467 0.270139 0.983570
O O11 0.999869 0.262172 0.308541
O O12 0.500000 0.274614 0.500000
O O13 0.408773 0.500000 0.765741
O O14 0.324457 0.285614 0.826725
O O15 0.908179 0.500000 0.536469
O O16 0.843666 0.743334 0.753644
O O17 0.000000 0.637174 0.500000
O O18 0.181633 0.805540 0.604121
O O19 0.083103 0.000000 0.911473
O O20 0.000000 0.767443 0.000000
O O21 0.799488 0.500000 0.935199
O O22 0.317523 0.000000 0.358162
#
# Coordination Sequence:
#
# PCOD8064106 Si02
#       8
#     4   4   4   4   4   4   4   4
#     4  10  20  35  55  77 104 139 177 217 260 308
#     4   9  17  31  54  82 106 129 166 217 266 311
#     4   9  17  31  53  78  99 125 169 219 260 300
#     4  10  21  35  50  73 106 138 168 206 256 312
#     4   7  11  23  46  73  96 120 157 205 253 300
#     4  10  22  38  52  71 106 146 176 207 256 312
#     4   8  15  30  51  73  99 132 167 207 258 310
#     4   9  19  36  55  75 102 140 182 218 257 309
#
# _framework density 19.285723999999998
#
# number of rings (size 3 to 8) (size 9 to 14) (size 15 to 20)
#    0.000    3.000    0.000    2.250    0.000    5.000 
#    0.000    1.875    0.000    3.375    0.000    0.000 
#    0.000    0.000    0.000    0.000    0.000    0.000 
#
# Total GULP energy -396540.952034 kJ/mol
# GULP energy per Si atom -12391.904751 kJ/mol
# Density = 1.924183 g / cm^3
# Si number density = 19.285724 Si / 1000 Ang^3
#
#
#
# Elastic Constant Matrix: (Units=GPa)
#
#
# Indices 1 2 3 4 5 6 
#
# 1 119.6316 38.7664 63.0792 0.0000 -8.5720 0.0000
# 2 38.7664 54.5230 31.4093 0.0000 -0.1897 0.0000
# 3 63.0792 31.4093 117.9265 0.0000 -13.6414 0.0000
# 4 0.0000 0.0000 0.0000 15.0245 0.0000 2.1015
# 5 -8.5720 -0.1897 -13.6414 0.0000 33.7023 0.0000
# 6 0.0000 0.0000 0.0000 2.1015 0.0000 23.2579
#
#
#
# Elastic Compliance Matrix: (Units=1/GPa)
#
#
# Indices 1 2 3 4 5 6 
#
# 1 0.013303 -0.006421 -0.005265 0.000000 0.001216 0.000000
# 2 -0.006421 0.024939 -0.003546 0.000000 -0.002928 0.000000
# 3 -0.005265 -0.003546 0.012677 0.000000 0.003772 0.000000
# 4 0.000000 0.000000 0.000000 0.067410 0.000000 -0.006091
# 5 0.001216 -0.002928 0.003772 0.000000 0.031491 0.000000
# 6 0.000000 0.000000 0.000000 -0.006091 0.000000 0.043547
#
#
# Mechanical properties :
#
#
# Convention : Reuss Voigt Hill
#
# Bulk Modulus (GPa) = 48.89000 62.06565 55.47782
# Shear Modulus (GPa) = 21.67783 24.98534 23.33158
#
# Velocity S-wave (km/s) = 3.35630 3.60326 3.48197
# Velocity P-wave (km/s) = 6.35807 7.04012 6.70777
#
# Compressibility (1/GPa) = 0.02045408
#
# Stress axis : x y z
#
# Youngs Moduli (GPa) = 75.17083 40.09714 78.88346
#
# Poissons Ratio (x) = 0.25748 0.41530
# Poissons Ratio (y) = 0.48271 0.27975
# Poissons Ratio (z) = 0.39576 0.14220
#
# Static dielectric constant tensor:
#      x y z
#    x 3.412900 0.000000 -0.155230 
#    y 0.000000 3.218240 0.000000 
#    z -0.155230 0.000000 3.733760 
# 
# 
# High freq. dielectric constant tensor:
#      x y z
#    x 1.737220 0.000000 -0.007270 
#    y 0.000000 1.714120 0.000000 
#    z -0.007270 0.000000 1.756200 
# 
# From -- ./inp_files/58210.got.cif
#   From: 2010.06.25/outbox.cif.g09.slc.cpg/sg10_30_cif.got.tgz:58210.got - 2010.06.27 22:07:45.
