data_PCOD8064086
_publ_section_title
;
Structure prediction by ZEFSAII (Michael W. Deem and Ramdas Pophale) SiO2 
 PCOD8064086
Probable space group: P 2/M
;
_chemical_formula_sum "Si O2"
_cell_formula_units_Z 32
_cell_length_a 12.184036
_cell_length_b 9.458042
_cell_length_c 31.706492
_cell_angle_alpha 90.000000
_cell_angle_beta 28.529369
_cell_angle_gamma 90.000000
_cell_volume 1745.071636
_symmetry_space_group_name_H-M "P 2/M"
_symmetry_group_IT_number 10
_symmetry_cell_setting 'monoclinic'
loop_
_space_group_symop_operation_xyz
x,y,z
-x,y,-z
-x,-y,-z
x,-y,z
loop_
_atom_site_type_symbol
_atom_site_label
_atom_site_fract_x
_atom_site_fract_y
_atom_site_fract_z
Si Si1 0.936631 0.168100 0.567438
Si Si2 0.425008 0.834089 0.762477
Si Si3 0.970744 0.333597 0.145769
Si Si4 0.209604 0.167283 0.640044
Si Si5 0.263621 0.834982 0.909840
Si Si6 0.114320 0.662313 0.190698
Si Si7 0.277422 0.832482 0.522850
Si Si8 0.613475 0.337277 0.053704
O O1 0.682041 0.216706 0.665789
O O2 0.000000 0.228581 0.500000
O O3 0.116078 0.232595 0.540809
O O4 0.954345 0.000000 0.561645
O O5 0.259923 0.749877 0.786992
O O6 0.371722 0.794838 0.828596
O O7 0.390382 0.000000 0.765720
O O8 0.925988 0.500000 0.157010
O O9 0.042863 0.289757 0.168305
O O10 0.171668 0.284222 0.046419
O O11 0.459056 0.214275 0.573674
O O12 0.188736 0.217823 0.598546
O O13 0.012143 0.242794 0.732508
O O14 0.175832 0.000000 0.655418
O O15 0.405948 0.752642 0.897139
O O16 0.285584 0.000000 0.912249
O O17 0.000000 0.785128 0.000000
O O18 0.047729 0.500000 0.221460
O O19 0.386316 0.685789 0.102773
O O20 0.265567 0.000000 0.525980
O O21 0.644100 0.500000 0.056194
#
# Coordination Sequence:
#
# PCOD8064086 Si02
#       8
#     4   4   4   4   4   4   4   4
#     4   9  18  31  51  79 110 141 174 216 264 316
#     4  10  21  35  55  83 111 142 179 221 269 321
#     4  10  21  38  57  75 105 145 181 221 268 319
#     4   9  18  33  56  80 103 137 178 221 264 315
#     4  10  20  35  54  81 116 144 170 219 279 322
#     4  10  22  37  54  79 108 138 179 227 273 314
#     4   8  16  32  51  77 109 137 173 217 262 313
#     4  10  21  37  57  78 104 143 187 221 257 318
#
# _framework density 18.337354999999999
#
# number of rings (size 3 to 8) (size 9 to 14) (size 15 to 20)
#    0.000    2.500    1.250    1.125    3.500    3.250 
#    0.000    1.250    0.000    3.375    0.000    0.000 
#    0.000    0.000    0.000    0.000    0.000    0.000 
#
# Total GULP energy -396849.209767 kJ/mol
# GULP energy per Si atom -12401.537805 kJ/mol
# Density = 1.829562 g / cm^3
# Si number density = 18.337355 Si / 1000 Ang^3
#
#
#
# Elastic Constant Matrix: (Units=GPa)
#
#
# Indices 1 2 3 4 5 6 
#
# 1 151.5132 32.6623 56.0389 0.0000 -3.2860 0.0000
# 2 32.6623 27.8958 21.2933 0.0000 1.1471 0.0000
# 3 56.0389 21.2933 118.0698 0.0000 1.0618 0.0000
# 4 0.0000 0.0000 0.0000 20.7635 0.0000 -2.6104
# 5 -3.2860 1.1471 1.0618 0.0000 28.5958 0.0000
# 6 0.0000 0.0000 0.0000 -2.6104 0.0000 27.3633
#
#
#
# Elastic Compliance Matrix: (Units=1/GPa)
#
#
# Indices 1 2 3 4 5 6 
#
# 1 0.009709 -0.009167 -0.002969 0.000000 0.001594 0.000000
# 2 -0.009167 0.050281 -0.004691 0.000000 -0.002896 0.000000
# 3 -0.002969 -0.004691 0.010730 0.000000 -0.000551 0.000000
# 4 0.000000 0.000000 0.000000 0.048746 0.000000 0.004650
# 5 0.001594 -0.002896 -0.000551 0.000000 0.035290 0.000000
# 6 0.000000 0.000000 0.000000 0.004650 0.000000 0.036989
#
#
# Mechanical properties :
#
#
# Convention : Reuss Voigt Hill
#
# Bulk Modulus (GPa) = 26.97945 57.49643 42.23794
# Shear Modulus (GPa) = 21.03008 27.84346 24.43677
#
# Velocity S-wave (km/s) = 3.39018 3.90089 3.65447
# Velocity P-wave (km/s) = 5.48354 7.19112 6.39458
#
# Compressibility (1/GPa) = 0.03706524
#
# Stress axis : x y z
#
# Youngs Moduli (GPa) = 102.99681 19.88822 93.19842
#
# Poissons Ratio (x) = 0.18232 0.27673
# Poissons Ratio (y) = 0.94418 0.43719
# Poissons Ratio (z) = 0.30582 0.09330
#
# Static dielectric constant tensor:
#      x y z
#    x 3.620330 0.000000 -0.011660 
#    y 0.000000 3.014140 0.000000 
#    z -0.011660 0.000000 3.425590 
# 
# 
# High freq. dielectric constant tensor:
#      x y z
#    x 1.724150 0.000000 -0.000180 
#    y 0.000000 1.673710 0.000000 
#    z -0.000180 0.000000 1.718700 
# 
# From -- ./inp_files/94936.got.cif
#   From: 2010.06.25/outbox.cif.g09.slc.cpg/sg10_48_cif.got.tgz:94936.got - 2010.06.27 22:07:45.
