data_PCOD8064637
_publ_section_title
;
Structure prediction by ZEFSAII (Michael W. Deem and Ramdas Pophale) SiO2 
 PCOD8064637
Probable space group: P 2/M
;
_chemical_formula_sum "Si O2"
_cell_formula_units_Z 32
_cell_length_a 11.683898
_cell_length_b 9.340386
_cell_length_c 14.592117
_cell_angle_alpha 90.000000
_cell_angle_beta 85.672758
_cell_angle_gamma 90.000000
_cell_volume 1587.929087
_symmetry_space_group_name_H-M "P 2/M"
_symmetry_group_IT_number 10
_symmetry_cell_setting 'monoclinic'
loop_
_space_group_symop_operation_xyz
x,y,z
-x,y,-z
-x,-y,-z
x,-y,z
loop_
_atom_site_type_symbol
_atom_site_label
_atom_site_fract_x
_atom_site_fract_y
_atom_site_fract_z
Si Si1 0.225680 0.834817 0.146176
Si Si2 0.020855 0.835053 0.775030
Si Si3 0.953366 0.662462 0.407034
Si Si4 0.368410 0.330378 0.987993
Si Si5 0.266445 0.834704 0.826409
Si Si6 0.322716 0.834895 0.335610
Si Si7 0.293791 0.338582 0.510724
Si Si8 0.581045 0.838225 0.357092
O O1 0.088265 0.811684 0.152006
O O2 0.270346 0.787749 0.242624
O O3 0.257448 0.000000 0.123199
O O4 0.284679 0.733587 0.069201
O O5 0.001183 0.750574 0.682007
O O6 0.133508 0.786565 0.824698
O O7 0.033612 0.000000 0.745298
O O8 0.998831 0.500000 0.393796
O O9 0.815864 0.667515 0.416605
O O10 0.000000 0.727525 0.500000
O O11 0.352764 0.500000 0.986612
O O12 0.331613 0.266152 0.893256
O O13 0.500000 0.287358 0.000000
O O14 0.323999 0.810745 0.725108
O O15 0.276490 0.000000 0.858004
O O16 0.264111 0.740081 0.417597
O O17 0.457908 0.803228 0.321937
O O18 0.295453 0.000000 0.358365
O O19 0.330856 0.500000 0.486448
O O20 0.398187 0.261505 0.556442
O O21 0.587346 0.000000 0.393323
#
# Coordination Sequence:
#
# PCOD8064637 Si02
#       8
#     4   4   4   4   4   4   4   4
#     4  10  22  41  64  90 119 152 195 244 296 351
#     4  10  21  38  62  91 118 151 199 249 294 347
#     4  10  21  36  54  79 116 162 204 241 290 353
#     4  11  25  43  64  92 122 154 195 241 294 358
#     4  10  21  39  64  90 119 156 197 246 302 354
#     4  10  21  36  56  82 113 153 197 242 293 349
#     4  11  22  34  52  81 115 153 196 242 295 348
#     4  10  20  36  57  81 113 153 196 240 291 351
#
# _framework density 20.152032999999999
#
# number of rings (size 3 to 8) (size 9 to 14) (size 15 to 20)
#    0.000    1.750    1.250    2.625    0.000    7.250 
#    0.000    2.500    0.000    0.000    0.000    0.000 
#    0.000    0.000    0.000    0.000    0.000    0.000 
#
# Total GULP energy -396929.535189 kJ/mol
# GULP energy per Si atom -12404.047975 kJ/mol
# Density = 2.010617 g / cm^3
# Si number density = 20.152033 Si / 1000 Ang^3
#
#
#
# Elastic Constant Matrix: (Units=GPa)
#
#
# Indices 1 2 3 4 5 6 
#
# 1 83.1427 22.4914 10.9151 0.0000 5.8546 0.0000
# 2 22.4914 75.8774 32.7762 0.0000 3.7495 0.0000
# 3 10.9151 32.7762 56.9849 0.0000 7.4942 0.0000
# 4 0.0000 0.0000 0.0000 26.8593 0.0000 0.2208
# 5 5.8546 3.7495 7.4942 0.0000 34.8705 0.0000
# 6 0.0000 0.0000 0.0000 0.2208 0.0000 25.9779
#
#
#
# Elastic Compliance Matrix: (Units=1/GPa)
#
#
# Indices 1 2 3 4 5 6 
#
# 1 0.013189 -0.003767 -0.000125 0.000000 -0.001782 0.000000
# 2 -0.003767 0.018615 -0.010090 0.000000 0.000799 0.000000
# 3 -0.000125 -0.010090 0.023906 0.000000 -0.004032 0.000000
# 4 0.000000 0.000000 0.000000 0.037234 0.000000 -0.000316
# 5 -0.001782 0.000799 -0.004032 0.000000 0.029757 0.000000
# 6 0.000000 0.000000 0.000000 -0.000316 0.000000 0.038497
#
#
# Mechanical properties :
#
#
# Convention : Reuss Voigt Hill
#
# Bulk Modulus (GPa) = 36.04289 38.70782 37.37535
# Shear Modulus (GPa) = 25.20015 27.52967 26.36491
#
# Velocity S-wave (km/s) = 3.54008 3.70009 3.62097
# Velocity P-wave (km/s) = 5.88505 6.12403 6.00573
#
# Compressibility (1/GPa) = 0.02774472
#
# Stress axis : x y z
#
# Youngs Moduli (GPa) = 75.82346 53.72015 41.82975
#
# Poissons Ratio (x) = 0.20238 0.00523
# Poissons Ratio (y) = 0.28565 0.42208
# Poissons Ratio (z) = 0.00948 0.54206
#
# Static dielectric constant tensor:
#      x y z
#    x 3.830350 0.000000 0.031830 
#    y 0.000000 3.617610 0.000000 
#    z 0.031830 0.000000 3.520330 
# 
# 
# High freq. dielectric constant tensor:
#      x y z
#    x 1.802810 0.000000 0.001970 
#    y 0.000000 1.778250 0.000000 
#    z 0.001970 0.000000 1.780860 
# 
# From -- ./inp_files/58145.got.cif
#   From: 2010.06.25/outbox.cif.g09.slc.cpg/sg10_30_cif.got.tgz:58145.got - 2010.06.27 22:07:45.
