data_PCOD8064216
_publ_section_title
;
Structure prediction by ZEFSAII (Michael W. Deem and Ramdas Pophale) SiO2 
 PCOD8064216
Probable space group: P 2/M
;
_chemical_formula_sum "Si O2"
_cell_formula_units_Z 28
_cell_length_a 27.702968
_cell_length_b 9.158100
_cell_length_c 9.639370
_cell_angle_alpha 90.000000
_cell_angle_beta 38.462014
_cell_angle_gamma 90.000000
_cell_volume 1521.134712
_symmetry_space_group_name_H-M "P 2/M"
_symmetry_group_IT_number 10
_symmetry_cell_setting 'monoclinic'
loop_
_space_group_symop_operation_xyz
x,y,z
-x,y,-z
-x,-y,-z
x,-y,z
loop_
_atom_site_type_symbol
_atom_site_label
_atom_site_fract_x
_atom_site_fract_y
_atom_site_fract_z
Si Si1 0.998352 0.827130 0.665104
Si Si2 0.296773 0.330107 0.188749
Si Si3 0.550252 0.828746 0.757013
Si Si4 0.127332 0.671495 0.553884
Si Si5 0.306173 0.331048 0.473398
Si Si6 0.871952 0.667752 0.123751
Si Si7 0.460572 0.662955 0.735016
O O1 0.071259 0.760762 0.581230
O O2 0.000000 0.779220 0.500000
O O3 0.001287 0.000000 0.672815
O O4 0.920522 0.770003 0.912860
O O5 0.280822 0.500000 0.250669
O O6 0.214338 0.271286 0.317722
O O7 0.317983 0.265774 0.292059
O O8 0.368840 0.296899 0.924549
O O9 0.635287 0.756449 0.559635
O O10 0.503350 0.783960 0.727216
O O11 0.561992 0.000000 0.732775
O O12 0.500000 0.772548 0.000000
O O13 0.115397 0.500000 0.551871
O O14 0.112236 0.706532 0.750385
O O15 0.329131 0.500000 0.432158
O O16 0.217346 0.306241 0.717822
O O17 0.895802 0.500000 0.044475
O O18 0.500000 0.663980 0.500000
O O19 0.466785 0.500000 0.787892
#
# Coordination Sequence:
#
# PCOD8064216 Si02
#       7
#     4   4   4   4   4   4   4
#     4  11  24  39  53  76 114 151 180 209 258 327
#     4   8  15  31  55  81 107 135 172 226 275 311
#     4  11  22  34  52  80 113 148 185 221 266 321
#     4   9  18  35  60  84 105 134 179 229 274 318
#     4   9  17  33  58  83 106 137 179 227 276 317
#     4   9  19  36  60  87 107 131 178 231 273 319
#     4  10  20  35  56  80 108 144 187 229 271 318
#
# _framework density 18.407312999999998
#
# number of rings (size 3 to 8) (size 9 to 14) (size 15 to 20)
#    0.000    2.429    1.429    3.000    0.000    4.857 
#    2.571    2.857    0.000    0.000    0.000    0.000 
#    0.000    0.000    0.000    0.000    0.000    0.000 
#
# Total GULP energy -347089.918850 kJ/mol
# GULP energy per Si atom -12396.068530 kJ/mol
# Density = 1.836542 g / cm^3
# Si number density = 18.407313 Si / 1000 Ang^3
#
#
#
# Elastic Constant Matrix: (Units=GPa)
#
#
# Indices 1 2 3 4 5 6 
#
# 1 103.6228 52.3364 61.2743 0.0000 -15.5998 0.0000
# 2 52.3364 67.3640 46.9384 0.0000 -6.0773 0.0000
# 3 61.2743 46.9384 128.1371 0.0000 -14.4979 0.0000
# 4 0.0000 0.0000 0.0000 13.6601 0.0000 10.7990
# 5 -15.5998 -6.0773 -14.4979 0.0000 26.6979 0.0000
# 6 0.0000 0.0000 0.0000 10.7990 0.0000 16.5464
#
#
#
# Elastic Compliance Matrix: (Units=1/GPa)
#
#
# Indices 1 2 3 4 5 6 
#
# 1 0.018580 -0.010977 -0.004175 0.000000 0.006091 0.000000
# 2 -0.010977 0.026426 -0.004770 0.000000 -0.002988 0.000000
# 3 -0.004175 -0.004770 0.011879 0.000000 0.002925 0.000000
# 4 0.000000 0.000000 0.000000 0.151238 0.000000 -0.098705
# 5 0.006091 -0.002988 0.002925 0.000000 0.041923 0.000000
# 6 0.000000 0.000000 0.000000 -0.098705 0.000000 0.124856
#
#
# Mechanical properties :
#
#
# Convention : Reuss Voigt Hill
#
# Bulk Modulus (GPa) = 58.67482 68.91357 63.79420
# Shear Modulus (GPa) = 11.89274 20.61922 16.25598
#
# Velocity S-wave (km/s) = 2.54458 3.35052 2.97497
# Velocity P-wave (km/s) = 6.37010 7.24482 6.82150
#
# Compressibility (1/GPa) = 0.01704309
#
# Stress axis : x y z
#
# Youngs Moduli (GPa) = 53.82179 37.84092 84.18497
#
# Poissons Ratio (x) = 0.41537 0.35145
# Poissons Ratio (y) = 0.59078 0.40152
# Poissons Ratio (z) = 0.22469 0.18048
#
# Static dielectric constant tensor:
#      x y z
#    x 3.303330 0.000000 -0.214850 
#    y 0.000000 3.182580 0.000000 
#    z -0.214850 0.000000 3.368090 
# 
# 
# High freq. dielectric constant tensor:
#      x y z
#    x 1.708950 0.000000 -0.021860 
#    y 0.000000 1.692620 0.000000 
#    z -0.021860 0.000000 1.716800 
# 
# From -- ./inp_files/36941.got.cif
#   From: 2010.06.25/outbox.cif.g09.slc.cpg/sg10_19_cif.got.tgz:36941.got - 2010.06.27 22:07:45.
