data_PCOD8064283
_publ_section_title
;
Structure prediction by ZEFSAII (Michael W. Deem and Ramdas Pophale) SiO2 
 PCOD8064283
Probable space group: P 2/M
;
_chemical_formula_sum "Si O2"
_cell_formula_units_Z 24
_cell_length_a 11.163344
_cell_length_b 12.757447
_cell_length_c 17.178505
_cell_angle_alpha 90.000000
_cell_angle_beta 30.942772
_cell_angle_gamma 90.000000
_cell_volume 1257.940305
_symmetry_space_group_name_H-M "P 2/M"
_symmetry_group_IT_number 10
_symmetry_cell_setting 'monoclinic'
loop_
_space_group_symop_operation_xyz
x,y,z
-x,y,-z
-x,-y,-z
x,-y,z
loop_
_atom_site_type_symbol
_atom_site_label
_atom_site_fract_x
_atom_site_fract_y
_atom_site_fract_z
Si Si1 0.731360 0.500000 0.321646
Si Si2 0.458495 0.687076 0.838340
Si Si3 0.260011 0.880851 0.587951
Si Si4 0.272498 0.500000 0.846226
Si Si5 0.051944 0.696945 0.181618
Si Si6 0.898156 0.381834 0.681162
Si Si7 0.806617 0.801937 0.548248
O O1 0.500000 0.500000 0.500000
O O2 0.622553 0.500000 0.297586
O O3 0.882126 0.605109 0.247149
O O4 0.349299 0.607243 0.840289
O O5 0.655715 0.623032 0.772682
O O6 0.569333 0.785884 0.730070
O O7 0.256466 0.726674 0.008185
O O8 0.500000 0.858587 0.500000
O O9 0.259643 0.865094 0.493531
O O10 0.078769 0.805392 0.730602
O O11 0.181971 0.000000 0.646018
O O12 0.000000 0.500000 0.000000
O O13 0.164745 0.656857 0.197999
O O14 0.996157 0.500000 0.626952
O O15 0.096156 0.311947 0.530495
O O16 0.000000 0.854992 0.500000
#
# Coordination Sequence:
#
# PCOD8064283 Si02
#       7
#     2   4   4   2   4   4   4
#     4  12  26  37  53  84 119 161 200 229 285 357
#     4  11  22  35  55  84 125 154 191 238 292 352
#     4  10  23  44  66  86 112 154 204 249 296 352
#     4  12  24  35  48  83 125 163 191 233 292 342
#     4  11  22  38  59  86 119 154 194 242 293 352
#     4  10  20  35  56  84 119 162 199 231 281 353
#     4   9  22  38  60  89 114 153 199 246 297 346
#
# _framework density 19.078806
#
# number of rings (size 3 to 8) (size 9 to 14) (size 15 to 20)
#    0.000    1.500    3.333    1.000    8.167    2.000 
#    0.000    0.833    0.000   15.000    0.000    0.000 
#    0.000    0.000    0.000    0.000    0.000    0.000 
#
# Total GULP energy -297454.556301 kJ/mol
# GULP energy per Si atom -12393.939846 kJ/mol
# Density = 1.903538 g / cm^3
# Si number density = 19.078806 Si / 1000 Ang^3
#
#
#
# Elastic Constant Matrix: (Units=GPa)
#
#
# Indices 1 2 3 4 5 6 
#
# 1 133.6929 31.3901 35.3651 0.0000 8.8045 0.0000
# 2 31.3901 92.6339 29.1739 0.0000 -0.0058 0.0000
# 3 35.3651 29.1739 117.3024 0.0000 13.4713 0.0000
# 4 0.0000 0.0000 0.0000 20.3362 0.0000 10.2272
# 5 8.8045 -0.0058 13.4713 0.0000 31.7991 0.0000
# 6 0.0000 0.0000 0.0000 10.2272 0.0000 22.2490
#
#
#
# Elastic Compliance Matrix: (Units=1/GPa)
#
#
# Indices 1 2 3 4 5 6 
#
# 1 0.008621 -0.002345 -0.001831 0.000000 -0.001612 0.000000
# 2 -0.002345 0.012402 -0.002578 0.000000 0.001743 0.000000
# 3 -0.001831 -0.002578 0.010154 0.000000 -0.003795 0.000000
# 4 0.000000 0.000000 0.000000 0.063959 0.000000 -0.029400
# 5 -0.001612 0.001743 -0.003795 0.000000 0.033502 0.000000
# 6 0.000000 0.000000 0.000000 -0.029400 0.000000 0.058460
#
#
# Mechanical properties :
#
#
# Convention : Reuss Voigt Hill
#
# Bulk Modulus (GPa) = 56.59373 59.49861 58.04617
# Shear Modulus (GPa) = 24.21382 31.39019 27.80200
#
# Velocity S-wave (km/s) = 3.56637 4.06062 3.82150
# Velocity P-wave (km/s) = 6.83273 7.29645 7.06840
#
# Compressibility (1/GPa) = 0.01766980
#
# Stress axis : x y z
#
# Youngs Moduli (GPa) = 115.99847 80.63439 98.48473
#
# Poissons Ratio (x) = 0.18907 0.18031
# Poissons Ratio (y) = 0.27199 0.25386
# Poissons Ratio (z) = 0.21237 0.20785
#
# Static dielectric constant tensor:
#      x y z
#    x 3.725080 0.000000 0.293640 
#    y 0.000000 3.256600 0.000000 
#    z 0.293640 0.000000 3.515690 
# 
# 
# High freq. dielectric constant tensor:
#      x y z
#    x 1.769230 0.000000 0.006780 
#    y 0.000000 1.714770 0.000000 
#    z 0.006780 0.000000 1.743060 
# 
# From -- ./inp_files/76620.got.cif
#   From: 2010.06.25/outbox.cif.g09.slc.cpg/sg10_39_cif.got.tgz:76620.got - 2010.06.27 22:07:45.
