data_PCOD8064776
_publ_section_title
;
Structure prediction by ZEFSAII (Michael W. Deem and Ramdas Pophale) SiO2 
 PCOD8064776
Probable space group: P 2/M
;
_chemical_formula_sum "Si O2"
_cell_formula_units_Z 32
_cell_length_a 24.185136
_cell_length_b 8.800135
_cell_length_c 25.415467
_cell_angle_alpha 90.000000
_cell_angle_beta 162.099484
_cell_angle_gamma 90.000000
_cell_volume 1662.610965
_symmetry_space_group_name_H-M "P 2/M"
_symmetry_group_IT_number 10
_symmetry_cell_setting 'monoclinic'
loop_
_space_group_symop_operation_xyz
x,y,z
-x,y,-z
-x,-y,-z
x,-y,z
loop_
_atom_site_type_symbol
_atom_site_label
_atom_site_fract_x
_atom_site_fract_y
_atom_site_fract_z
Si Si1 0.188929 0.678353 0.807072
Si Si2 0.689933 0.818775 0.500001
Si Si3 0.694373 0.180640 0.811709
Si Si4 0.808250 0.319850 0.308250
Si Si5 0.693168 0.819166 0.693167
Si Si6 0.425218 0.321646 0.807074
Si Si7 0.070953 0.819360 0.188289
Si Si8 0.185024 0.820219 0.500001
O O1 0.146244 0.500000 0.767704
O O2 0.233378 0.737039 0.788356
O O3 0.015983 0.763155 0.672424
O O4 0.361830 0.715328 0.999999
O O5 0.490443 0.754021 0.331477
O O6 0.827491 0.754021 0.668525
O O7 0.752408 0.757931 0.500001
O O8 0.688774 0.000000 0.500001
O O9 0.729264 0.243881 0.784433
O O10 0.680681 0.000000 0.796786
O O11 0.862029 0.232086 0.999999
O O12 0.813111 0.500000 0.313112
O O13 0.656665 0.262960 0.211644
O O14 0.000000 0.252855 0.500000
O O15 0.500000 0.759528 0.500000
O O16 0.839601 0.756119 0.784433
O O17 0.698701 0.000000 0.698700
O O18 0.389166 0.500000 0.767707
O O19 0.328870 0.236846 0.672428
O O20 0.087107 0.000000 0.203212
O O21 0.183291 0.000000 0.500002
#
# Coordination Sequence:
#
# PCOD8064776 Si02
#       8
#     4   4   4   4   4   4   4   4
#     4  10  20  36  59  83 105 132 170 215 261 309
#     4   9  18  30  40  55  83 125 168 201 234 284
#     4   9  15  23  36  53  75 108 152 199 245 291
#     4   9  15  29  57  85 105 126 161 212 263 310
#     4   9  13  19  33  52  75 101 140 199 252 290
#     4  10  20  36  59  83 105 132 170 215 261 309
#     4   9  15  23  36  53  75 108 152 199 245 291
#     4  11  23  36  51  73 107 145 180 215 252 300
#
# _framework density 19.246835000000001
#
# number of rings (size 3 to 8) (size 9 to 14) (size 15 to 20)
#    0.000    2.500    2.500    1.125    0.000    4.500 
#    0.000    3.750    0.000    1.500    0.000    0.000 
#    0.000    0.000    0.000    9.000    0.000   44.000 
#
# Total GULP energy -396656.200807 kJ/mol
# GULP energy per Si atom -12395.506275 kJ/mol
# Density = 1.920303 g / cm^3
# Si number density = 19.246835 Si / 1000 Ang^3
#
#
#
# Elastic Constant Matrix: (Units=GPa)
#
#
# Indices 1 2 3 4 5 6 
#
# 1 171.8895 24.8471 93.4218 0.0000 -5.4007 0.0000
# 2 24.8471 22.0865 24.9373 0.0000 0.0075 0.0000
# 3 93.4218 24.9373 178.0118 0.0000 5.9544 0.0000
# 4 0.0000 0.0000 0.0000 15.1879 0.0000 2.4595
# 5 -5.4007 0.0075 5.9544 0.0000 10.7583 0.0000
# 6 0.0000 0.0000 0.0000 2.4595 0.0000 -11.7160
#
#
#
# Elastic Compliance Matrix: (Units=1/GPa)
#
#
# Indices 1 2 3 4 5 6 
#
# 1 0.009146 -0.005475 -0.004266 0.000000 0.006956 0.000000
# 2 -0.005475 0.057249 -0.005148 0.000000 0.000061 0.000000
# 3 -0.004266 -0.005148 0.008812 0.000000 -0.007015 0.000000
# 4 0.000000 0.000000 0.000000 0.063677 0.000000 0.013368
# 5 0.006956 0.000061 -0.007015 0.000000 0.100325 0.000000
# 6 0.000000 0.000000 0.000000 0.013368 0.000000 -0.082547
#
#
# Mechanical properties :
#
#
# Convention : Reuss Voigt Hill
#
# Bulk Modulus (GPa) = 22.01255 73.15560 47.58408
# Shear Modulus (GPa) = 24.80344 18.09814 21.45079
#
# Velocity S-wave (km/s) = 3.59374 3.06979 3.34205
# Velocity P-wave (km/s) = 5.35554 7.11734 6.29834
#
# Compressibility (1/GPa) = 0.04542862
#
# Stress axis : x y z
#
# Youngs Moduli (GPa) = 109.33677 17.46743 113.48080
#
# Poissons Ratio (x) = 0.09564 0.48406
# Poissons Ratio (y) = 0.59867 0.58425
# Poissons Ratio (z) = 0.46638 0.08993
#
# Static dielectric constant tensor:
#      x y z
#    x 3.738040 0.000000 0.000280 
#    y 0.000000 2.785050 0.000000 
#    z 0.000280 0.000000 3.741180 
# 
# 
# High freq. dielectric constant tensor:
#      x y z
#    x 1.753350 0.000000 0.001340 
#    y 0.000000 1.669720 0.000000 
#    z 0.001340 0.000000 1.767960 
# 
# From -- ./inp_files/90672.got.cif
#   From: 2010.06.25/outbox.cif.g09.slc.cpg/sg10_46_cif.got.tgz:90672.got - 2010.06.27 22:07:45.
