data_PCOD8064856
_publ_section_title
;
Structure prediction by ZEFSAII (Michael W. Deem and Ramdas Pophale) SiO2 
 PCOD8064856
Probable space group: P 2/M
;
_chemical_formula_sum "Si O2"
_cell_formula_units_Z 28
_cell_length_a 15.897135
_cell_length_b 7.759216
_cell_length_c 21.898397
_cell_angle_alpha 90.000000
_cell_angle_beta 28.554829
_cell_angle_gamma 90.000000
_cell_volume 1291.149383
_symmetry_space_group_name_H-M "P 2/M"
_symmetry_group_IT_number 10
_symmetry_cell_setting 'monoclinic'
loop_
_space_group_symop_operation_xyz
x,y,z
-x,y,-z
-x,-y,-z
x,-y,z
loop_
_atom_site_type_symbol
_atom_site_label
_atom_site_fract_x
_atom_site_fract_y
_atom_site_fract_z
Si Si1 0.879640 0.299843 0.291921
Si Si2 0.876794 0.804821 0.692443
Si Si3 0.691351 0.000000 0.344791
Si Si4 0.227884 0.304527 0.507679
Si Si5 0.243355 0.204157 0.100563
Si Si6 0.209482 0.000000 0.859355
Si Si7 0.572911 0.292952 0.222626
Si Si8 0.438465 0.695699 0.178383
O O1 0.826857 0.500000 0.313520
O O2 0.790274 0.176705 0.299446
O O3 0.819503 0.224141 0.396264
O O4 0.091053 0.282311 0.154182
O O5 0.782938 0.731463 0.813241
O O6 0.747599 0.787913 0.717084
O O7 0.064708 0.710608 0.564163
O O8 0.928963 0.000000 0.670099
O O9 0.500000 0.000000 0.500000
O O10 0.701499 0.000000 0.264779
O O11 0.271595 0.500000 0.492178
O O12 0.404642 0.224596 0.367919
O O13 0.246306 0.000000 0.092886
O O14 0.430205 0.278367 0.961489
O O15 0.265718 0.177378 0.857334
O O16 0.000000 0.000000 0.000000
O O17 0.611348 0.500000 0.203970
O O18 0.531538 0.235359 0.179823
O O19 0.386155 0.500000 0.221440
#
# Coordination Sequence:
#
# PCOD8064856 Si02
#       8
#     4   4   2   4   4   2   4   4
#     4  10  21  38  66  96 123 162 206 260 322 382
#     4  10  21  34  56  94 129 169 213 263 310 357
#     4  12  26  44  70 101 126 159 210 272 332 396
#     4   9  19  39  64  91 131 171 208 258 311 369
#     4  10  20  36  59  87 128 167 210 261 310 367
#     4  12  30  48  72  98 128 171 204 271 346 398
#     4  10  25  46  67  92 125 170 214 258 317 388
#     4  11  23  37  58  87 126 173 218 261 302 370
#
# _framework density 21.686104
#
# number of rings (size 3 to 8) (size 9 to 14) (size 15 to 20)
#    0.000    1.714    0.714    2.571    6.000    5.143 
#    0.000    2.857    0.000    0.000    0.000    0.000 
#    0.000    0.000    0.000    0.000    0.000    0.000 
#
# Total GULP energy -347073.819922 kJ/mol
# GULP energy per Si atom -12395.493569 kJ/mol
# Density = 2.163675 g / cm^3
# Si number density = 21.686104 Si / 1000 Ang^3
#
#
#
# Elastic Constant Matrix: (Units=GPa)
#
#
# Indices 1 2 3 4 5 6 
#
# 1 114.8368 47.2609 27.6085 0.0000 -13.5569 0.0000
# 2 47.2609 77.2228 14.5694 0.0000 -9.1009 0.0000
# 3 27.6085 14.5694 78.7873 0.0000 -15.2297 0.0000
# 4 0.0000 0.0000 0.0000 23.1352 0.0000 -3.6566
# 5 -13.5569 -9.1009 -15.2297 0.0000 30.7386 0.0000
# 6 0.0000 0.0000 0.0000 -3.6566 0.0000 35.7557
#
#
#
# Elastic Compliance Matrix: (Units=1/GPa)
#
#
# Indices 1 2 3 4 5 6 
#
# 1 0.012419 -0.006846 -0.002675 0.000000 0.002125 0.000000
# 2 -0.006846 0.017452 -0.000457 0.000000 0.001921 0.000000
# 3 -0.002675 -0.000457 0.014886 0.000000 0.006060 0.000000
# 4 0.000000 0.000000 0.000000 0.043934 0.000000 0.004493
# 5 0.002125 0.001921 0.006060 0.000000 0.037041 0.000000
# 6 0.000000 0.000000 0.000000 0.004493 0.000000 0.028427
#
#
# Mechanical properties :
#
#
# Convention : Reuss Voigt Hill
#
# Bulk Modulus (GPa) = 40.32052 49.96939 45.14495
# Shear Modulus (GPa) = 27.41498 30.01977 28.71737
#
# Velocity S-wave (km/s) = 3.55938 3.72464 3.64294
# Velocity P-wave (km/s) = 5.96032 6.44898 6.20946
#
# Compressibility (1/GPa) = 0.02480127
#
# Stress axis : x y z
#
# Youngs Moduli (GPa) = 80.51955 57.30089 67.17820
#
# Poissons Ratio (x) = 0.39226 0.17972
# Poissons Ratio (y) = 0.55120 0.03070
# Poissons Ratio (z) = 0.21541 0.02618
#
# Static dielectric constant tensor:
#      x y z
#    x 3.961850 0.000000 0.140310 
#    y 0.000000 3.800470 0.000000 
#    z 0.140310 0.000000 4.078450 
# 
# 
# High freq. dielectric constant tensor:
#      x y z
#    x 1.840930 0.000000 -0.006450 
#    y 0.000000 1.854400 0.000000 
#    z -0.006450 0.000000 1.850810 
# 
# From -- ./inp_files/84928.got.cif
#   From: 2010.06.25/outbox.cif.g09.slc.cpg/sg10_43_cif.got.tgz:84928.got - 2010.06.27 22:07:45.
