data_PCOD8064114
_publ_section_title
;
Structure prediction by ZEFSAII (Michael W. Deem and Ramdas Pophale) SiO2 
 PCOD8064114
Probable space group: P 2/M
;
_chemical_formula_sum "Si O2"
_cell_formula_units_Z 32
_cell_length_a 21.710554
_cell_length_b 9.134328
_cell_length_c 9.118828
_cell_angle_alpha 90.000000
_cell_angle_beta 89.620553
_cell_angle_gamma 90.000000
_cell_volume 1808.327173
_symmetry_space_group_name_H-M "P 2/M"
_symmetry_group_IT_number 10
_symmetry_cell_setting 'monoclinic'
loop_
_space_group_symop_operation_xyz
x,y,z
-x,y,-z
-x,-y,-z
x,-y,z
loop_
_atom_site_type_symbol
_atom_site_label
_atom_site_fract_x
_atom_site_fract_y
_atom_site_fract_z
Si Si1 0.387863 0.326319 0.663427
Si Si2 0.268084 0.829169 0.166083
Si Si3 0.505226 0.168366 0.169219
Si Si4 0.172472 0.831779 0.638996
Si Si5 0.717355 0.168642 0.163874
Si Si6 0.183618 0.665734 0.364334
Si Si7 0.067123 0.334013 0.529672
Si Si8 0.615310 0.168276 0.641310
O O1 0.387218 0.500000 0.661816
O O2 0.445461 0.272075 0.756103
O O3 0.325382 0.269001 0.736393
O O4 0.394177 0.270310 0.497862
O O5 0.206672 0.742728 0.215653
O O6 0.322454 0.787722 0.276194
O O7 0.252703 0.000000 0.165848
O O8 0.287115 0.778383 0.003417
O O9 0.439659 0.194205 0.244638
O O10 0.526817 0.000000 0.184650
O O11 0.500000 0.213080 0.000000
O O12 0.211713 0.812602 0.786170
O O13 0.210331 0.753947 0.505295
O O14 0.104430 0.757092 0.654365
O O15 0.163210 0.000000 0.597213
O O16 0.696112 0.000000 0.181052
O O17 0.208299 0.500000 0.368636
O O18 0.108581 0.670279 0.379251
O O19 0.059223 0.500000 0.587057
O O20 0.000000 0.264185 0.500000
O O21 0.617497 0.000000 0.588648
#
# Coordination Sequence:
#
# PCOD8064114 Si02
#       8
#     4   4   4   4   4   4   4   4
#     4  12  25  37  54  80 110 140 175 220 268 315
#     4  10  20  35  55  78 103 135 176 221 266 311
#     4  10  21  40  63  82 103 137 180 220 264 321
#     4   9  17  30  51  78 104 133 174 219 259 302
#     4  10  21  37  55  76 106 141 178 219 265 318
#     4   9  18  31  49  75 106 137 172 211 257 311
#     4   8  16  31  51  76 108 142 175 213 257 308
#     4  10  21  37  58  79 102 137 180 220 262 316
#
# _framework density 17.695913999999998
#
# number of rings (size 3 to 8) (size 9 to 14) (size 15 to 20)
#    0.750    1.500    0.000    3.375    0.000    9.500 
#    0.000    1.250    0.000    0.750    0.000    5.250 
#    0.000    0.000    0.000    0.000    0.000    0.000 
#
# Total GULP energy -396660.604094 kJ/mol
# GULP energy per Si atom -12395.643878 kJ/mol
# Density = 1.765564 g / cm^3
# Si number density = 17.695914 Si / 1000 Ang^3
#
#
#
# Elastic Constant Matrix: (Units=GPa)
#
#
# Indices 1 2 3 4 5 6 
#
# 1 98.1688 47.1982 43.3058 0.0000 0.7692 0.0000
# 2 47.1982 99.1992 55.3074 0.0000 1.6132 0.0000
# 3 43.3058 55.3074 114.9258 0.0000 -1.2953 0.0000
# 4 0.0000 0.0000 0.0000 7.7500 0.0000 -4.2145
# 5 0.7692 1.6132 -1.2953 0.0000 15.8908 0.0000
# 6 0.0000 0.0000 0.0000 -4.2145 0.0000 27.1269
#
#
#
# Elastic Compliance Matrix: (Units=1/GPa)
#
#
# Indices 1 2 3 4 5 6 
#
# 1 0.013838 -0.005013 -0.002806 0.000000 -0.000390 0.000000
# 2 -0.005013 0.015653 -0.005665 0.000000 -0.001808 0.000000
# 3 -0.002806 -0.005665 0.012504 0.000000 0.001730 0.000000
# 4 0.000000 0.000000 0.000000 0.140940 0.000000 0.021897
# 5 -0.000390 -0.001808 0.001730 0.000000 0.063273 0.000000
# 6 0.000000 0.000000 0.000000 0.021897 0.000000 0.040266
#
#
# Mechanical properties :
#
#
# Convention : Reuss Voigt Hill
#
# Bulk Modulus (GPa) = 66.54270 67.10186 66.82228
# Shear Modulus (GPa) = 15.70100 21.25236 18.47668
#
# Velocity S-wave (km/s) = 2.98193 3.46927 3.23479
# Velocity P-wave (km/s) = 7.03853 7.35184 7.19689
#
# Compressibility (1/GPa) = 0.01502794
#
# Stress axis : x y z
#
# Youngs Moduli (GPa) = 72.26656 63.88351 79.97302
#
# Poissons Ratio (x) = 0.32025 0.22442
# Poissons Ratio (y) = 0.36227 0.45301
# Poissons Ratio (z) = 0.20279 0.36187
#
# Static dielectric constant tensor:
#      x y z
#    x 3.259740 0.000000 -0.001210 
#    y 0.000000 3.252030 0.000000 
#    z -0.001210 0.000000 3.193300 
# 
# 
# High freq. dielectric constant tensor:
#      x y z
#    x 1.680030 0.000000 -0.001020 
#    y 0.000000 1.683370 0.000000 
#    z -0.001020 0.000000 1.670150 
# 
# From -- ./inp_files/35698.got.cif
#   From: 2010.06.25/outbox.cif.g09.slc.cpg/sg10_18_cif.got.tgz:35698.got - 2010.06.27 22:07:45.
