data_PCOD8064398
_publ_section_title
;
Structure prediction by ZEFSAII (Michael W. Deem and Ramdas Pophale) SiO2 
 PCOD8064398
Probable space group: P 2/M
;
_chemical_formula_sum "Si O2"
_cell_formula_units_Z 24
_cell_length_a 12.276421
_cell_length_b 8.590080
_cell_length_c 23.277166
_cell_angle_alpha 90.000000
_cell_angle_beta 26.930470
_cell_angle_gamma 90.000000
_cell_volume 1111.757186
_symmetry_space_group_name_H-M "P 2/M"
_symmetry_group_IT_number 10
_symmetry_cell_setting 'monoclinic'
loop_
_space_group_symop_operation_xyz
x,y,z
-x,y,-z
-x,-y,-z
x,-y,z
loop_
_atom_site_type_symbol
_atom_site_label
_atom_site_fract_x
_atom_site_fract_y
_atom_site_fract_z
Si Si1 0.020604 0.315739 0.809028
Si Si2 0.515441 0.816742 0.558873
Si Si3 0.332549 0.818405 0.312164
Si Si4 0.276319 0.826407 0.147114
Si Si5 0.412933 0.318012 0.906776
Si Si6 0.149405 0.682425 0.508482
O O1 0.039074 0.500000 0.797923
O O2 0.944303 0.253772 0.782081
O O3 0.276142 0.240906 0.704401
O O4 0.830142 0.262109 0.947225
O O5 0.500000 0.764204 0.500000
O O6 0.744967 0.734039 0.479768
O O7 0.542640 0.000000 0.552848
O O8 0.563668 0.769784 0.165194
O O9 0.340098 0.724585 0.368532
O O10 0.093272 0.776784 0.389132
O O11 0.340364 0.000000 0.322306
O O12 0.351416 0.723155 0.166252
O O13 0.198774 0.000000 0.203469
O O14 0.500000 0.836678 0.000000
O O15 0.409819 0.500000 0.896838
O O16 0.093119 0.500000 0.534602
#
# Coordination Sequence:
#
# PCOD8064398 Si02
#       6
#     4   4   4   4   4   4
#     4  10  21  37  57  84 120 158 200 249 299 356
#     4  11  25  43  63  87 121 162 204 247 299 362
#     4  11  22  39  65  93 123 157 200 250 302 356
#     4   9  17  30  50  78 114 154 194 240 292 346
#     4  10  20  35  57  87 120 156 199 248 302 355
#     4  11  23  42  65  90 122 158 202 251 300 355
#
# _framework density 21.587447999999998
#
# number of rings (size 3 to 8) (size 9 to 14) (size 15 to 20)
#    0.000    1.667    0.000    6.000    2.333    5.333 
#    0.000    0.833    0.000    5.000    0.000    0.000 
#    0.000    0.000    0.000    0.000    0.000    0.000 
#
# Total GULP energy -297672.801717 kJ/mol
# GULP energy per Si atom -12403.033405 kJ/mol
# Density = 2.153831 g / cm^3
# Si number density = 21.587448 Si / 1000 Ang^3
#
#
#
# Elastic Constant Matrix: (Units=GPa)
#
#
# Indices 1 2 3 4 5 6 
#
# 1 75.1199 11.2693 11.9119 0.0000 4.7995 0.0000
# 2 11.2693 81.5860 10.5366 0.0000 6.4093 0.0000
# 3 11.9119 10.5366 55.8190 0.0000 11.4223 0.0000
# 4 0.0000 0.0000 0.0000 32.6806 0.0000 1.4511
# 5 4.7995 6.4093 11.4223 0.0000 30.8181 0.0000
# 6 0.0000 0.0000 0.0000 1.4511 0.0000 34.9713
#
#
#
# Elastic Compliance Matrix: (Units=1/GPa)
#
#
# Indices 1 2 3 4 5 6 
#
# 1 0.014000 -0.001537 -0.002507 0.000000 -0.000932 0.000000
# 2 -0.001537 0.012833 -0.001728 0.000000 -0.001789 0.000000
# 3 -0.002507 -0.001728 0.020151 0.000000 -0.006719 0.000000
# 4 0.000000 0.000000 0.000000 0.030656 0.000000 -0.001272
# 5 -0.000932 -0.001789 -0.006719 0.000000 0.035456 0.000000
# 6 0.000000 0.000000 0.000000 -0.001272 0.000000 0.028648
#
#
# Mechanical properties :
#
#
# Convention : Reuss Voigt Hill
#
# Bulk Modulus (GPa) = 28.21686 31.10671 29.66178
# Shear Modulus (GPa) = 30.28460 31.61446 30.94953
#
# Velocity S-wave (km/s) = 3.74957 3.83101 3.79051
# Velocity P-wave (km/s) = 5.64314 5.83179 5.73824
#
# Compressibility (1/GPa) = 0.03543981
#
# Stress axis : x y z
#
# Youngs Moduli (GPa) = 71.43042 77.92385 49.62489
#
# Poissons Ratio (x) = 0.11975 0.12440
# Poissons Ratio (y) = 0.10977 0.08577
# Poissons Ratio (z) = 0.17906 0.13468
#
# Static dielectric constant tensor:
#      x y z
#    x 3.889600 0.000000 0.255190 
#    y 0.000000 3.880420 0.000000 
#    z 0.255190 0.000000 4.047490 
# 
# 
# High freq. dielectric constant tensor:
#      x y z
#    x 1.829290 0.000000 0.016090 
#    y 0.000000 1.855660 0.000000 
#    z 0.016090 0.000000 1.849160 
# 
# From -- ./inp_files/88613.got.cif
#   From: 2010.06.25/outbox.cif.g09.slc.cpg/sg10_45_cif.got.tgz:88613.got - 2010.06.27 22:07:45.
