data_PCOD8064373
_publ_section_title
;
Structure prediction by ZEFSAII (Michael W. Deem and Ramdas Pophale) SiO2 
 PCOD8064373
Probable space group: P 2/M
;
_chemical_formula_sum "Si O2"
_cell_formula_units_Z 28
_cell_length_a 9.295224
_cell_length_b 9.383437
_cell_length_c 24.584635
_cell_angle_alpha 90.000000
_cell_angle_beta 138.396873
_cell_angle_gamma 90.000000
_cell_volume 1423.744561
_symmetry_space_group_name_H-M "P 2/M"
_symmetry_group_IT_number 10
_symmetry_cell_setting 'monoclinic'
loop_
_space_group_symop_operation_xyz
x,y,z
-x,y,-z
-x,-y,-z
x,-y,z
loop_
_atom_site_type_symbol
_atom_site_label
_atom_site_fract_x
_atom_site_fract_y
_atom_site_fract_z
Si Si1 0.371943 0.829786 0.355145
Si Si2 0.869916 0.838775 0.821840
Si Si3 0.769027 0.837399 0.913646
Si Si4 0.925893 0.333857 0.645027
Si Si5 0.728797 0.660028 0.081733
Si Si6 0.641702 0.659276 0.179239
Si Si7 0.810121 0.664292 0.488398
O O1 0.265925 0.782804 0.267896
O O2 0.242516 0.760942 0.368648
O O3 0.613044 0.769369 0.421046
O O4 0.377534 0.000000 0.364105
O O5 0.734355 0.824301 0.838951
O O6 0.084645 0.749631 0.893397
O O7 0.942110 0.000000 0.831363
O O8 0.570898 0.754639 0.884353
O O9 0.752192 0.000000 0.928517
O O10 0.000000 0.775425 0.000000
O O11 0.890911 0.500000 0.650661
O O12 0.892213 0.306066 0.572218
O O13 0.173789 0.286026 0.727012
O O14 0.742934 0.500000 0.062226
O O15 0.760872 0.662700 0.155190
O O16 0.500000 0.728431 0.000000
O O17 0.566938 0.500000 0.173702
O O18 0.736068 0.500000 0.460679
O O19 0.000000 0.702003 0.500000
#
# Coordination Sequence:
#
# PCOD8064373 Si02
#       7
#     4   4   4   4   4   4   4
#     4  11  23  39  60  88 119 152 191 233 284 340
#     4  10  22  38  56  83 116 152 193 232 279 343
#     4  10  22  39  57  80 114 155 195 236 285 339
#     4  10  21  40  62  86 116 151 191 235 284 341
#     4  10  20  35  57  85 114 145 187 237 284 334
#     4  10  21  36  57  86 115 145 188 237 284 336
#     4  10  23  41  63  89 116 150 191 232 282 343
#
# _framework density 19.666447000000002
#
# number of rings (size 3 to 8) (size 9 to 14) (size 15 to 20)
#    0.000    1.857    1.429    1.714    2.000    5.429 
#    0.000    0.000    0.000    0.000    0.000    0.000 
#    0.000    0.000    0.000    0.000    0.000    0.000 
#
# Total GULP energy -347249.009942 kJ/mol
# GULP energy per Si atom -12401.750355 kJ/mol
# Density = 1.962169 g / cm^3
# Si number density = 19.666447 Si / 1000 Ang^3
#
#
#
# Elastic Constant Matrix: (Units=GPa)
#
#
# Indices 1 2 3 4 5 6 
#
# 1 83.6363 35.3156 30.7259 0.0000 4.8781 0.0000
# 2 35.3156 65.2322 36.1468 0.0000 14.8055 0.0000
# 3 30.7259 36.1468 110.0831 0.0000 7.5825 0.0000
# 4 0.0000 0.0000 0.0000 41.6392 0.0000 8.1022
# 5 4.8781 14.8055 7.5825 0.0000 39.1533 0.0000
# 6 0.0000 0.0000 0.0000 8.1022 0.0000 22.0262
#
#
#
# Elastic Compliance Matrix: (Units=1/GPa)
#
#
# Indices 1 2 3 4 5 6 
#
# 1 0.015905 -0.007833 -0.001961 0.000000 0.001360 0.000000
# 2 -0.007833 0.024085 -0.005232 0.000000 -0.007118 0.000000
# 3 -0.001961 -0.005232 0.011348 0.000000 0.000025 0.000000
# 4 0.000000 0.000000 0.000000 0.025867 0.000000 -0.009515
# 5 0.001360 -0.007118 0.000025 0.000000 0.028058 0.000000
# 6 0.000000 0.000000 0.000000 -0.009515 0.000000 0.048901
#
#
# Mechanical properties :
#
#
# Convention : Reuss Voigt Hill
#
# Bulk Modulus (GPa) = 46.97870 51.48090 49.22980
# Shear Modulus (GPa) = 26.13547 31.01464 28.57505
#
# Velocity S-wave (km/s) = 3.64941 3.97550 3.81594
# Velocity P-wave (km/s) = 6.45734 6.87798 6.67098
#
# Compressibility (1/GPa) = 0.02128624
#
# Stress axis : x y z
#
# Youngs Moduli (GPa) = 62.87317 41.51931 88.12383
#
# Poissons Ratio (x) = 0.32521 0.17282
# Poissons Ratio (y) = 0.49247 0.46107
# Poissons Ratio (z) = 0.12330 0.21723
#
# Static dielectric constant tensor:
#      x y z
#    x 3.438120 0.000000 -0.130320 
#    y 0.000000 3.531940 0.000000 
#    z -0.130320 0.000000 3.711650 
# 
# 
# High freq. dielectric constant tensor:
#      x y z
#    x 1.763770 0.000000 -0.007480 
#    y 0.000000 1.757580 0.000000 
#    z -0.007480 0.000000 1.781980 
# 
# From -- ./inp_files/36948.got.cif
#   From: 2010.06.25/outbox.cif.g09.slc.cpg/sg10_19_cif.got.tgz:36948.got - 2010.06.27 22:07:45.
