data_PCOD8064293
_publ_section_title
;
Structure prediction by ZEFSAII (Michael W. Deem and Ramdas Pophale) SiO2 
 PCOD8064293
Probable space group: P 2/M
;
_chemical_formula_sum "Si O2"
_cell_formula_units_Z 32
_cell_length_a 22.405329
_cell_length_b 8.956937
_cell_length_c 28.458607
_cell_angle_alpha 90.000000
_cell_angle_beta 162.447994
_cell_angle_gamma 90.000000
_cell_volume 1722.322801
_symmetry_space_group_name_H-M "P 2/M"
_symmetry_group_IT_number 10
_symmetry_cell_setting 'monoclinic'
loop_
_space_group_symop_operation_xyz
x,y,z
-x,y,-z
-x,-y,-z
x,-y,z
loop_
_atom_site_type_symbol
_atom_site_label
_atom_site_fract_x
_atom_site_fract_y
_atom_site_fract_z
Si Si1 0.706097 0.333955 0.256602
Si Si2 0.067813 0.668303 0.475904
Si Si3 0.801016 0.674815 0.826698
Si Si4 0.646294 0.321549 0.952161
Si Si5 0.717982 0.325136 0.660961
Si Si6 0.563555 0.825956 0.396419
Si Si7 0.580884 0.826623 0.301668
Si Si8 0.905563 0.677361 0.706651
O O1 0.669388 0.500000 0.210090
O O2 0.815862 0.339464 0.388397
O O3 0.492202 0.260077 0.108348
O O4 0.848962 0.259346 0.323918
O O5 0.047198 0.500000 0.439862
O O6 0.192023 0.769801 0.533394
O O7 0.767176 0.500000 0.810846
O O8 0.831305 0.709302 0.794358
O O9 0.611483 0.759585 0.703811
O O10 0.000000 0.734856 0.000000
O O11 0.628114 0.500000 0.934303
O O12 0.575144 0.256617 0.848857
O O13 0.868232 0.270597 0.130370
O O14 0.500000 0.251866 0.500000
O O15 0.694621 0.500000 0.634953
O O16 0.837713 0.259720 0.706677
O O17 0.516054 0.794764 0.306324
O O18 0.771452 0.749634 0.565706
O O19 0.581427 0.000000 0.420421
O O20 0.576892 0.000000 0.286061
O O21 0.886447 0.500000 0.688860
#
# Coordination Sequence:
#
# PCOD8064293 Si02
#       8
#     4   4   4   4   4   4   4   4
#     4   7  11  23  44  73 104 127 157 208 263 303
#     4   8  13  25  47  71  98 133 168 207 255 305
#     4  10  21  36  58  82 103 130 167 213 258 302
#     4   9  18  32  54  81 104 131 169 215 262 309
#     4   9  16  31  53  78 104 124 157 212 256 289
#     4  11  24  39  52  71 107 146 174 207 254 306
#     4  10  21  34  48  72 107 140 173 213 253 300
#     4  10  20  35  57  79 101 133 174 215 254 303
#
# _framework density 18.579561000000002
#
# number of rings (size 3 to 8) (size 9 to 14) (size 15 to 20)
#    0.000    2.750    1.250    2.250    1.750    2.750 
#    0.000    6.250    0.000    0.750    0.000    5.250 
#    0.000    0.000    0.000    0.000    0.000    0.000 
#
# Total GULP energy -396478.780255 kJ/mol
# GULP energy per Si atom -12389.961883 kJ/mol
# Density = 1.853727 g / cm^3
# Si number density = 18.579561 Si / 1000 Ang^3
#
#
#
# Elastic Constant Matrix: (Units=GPa)
#
#
# Indices 1 2 3 4 5 6 
#
# 1 31.5001 16.8765 24.5868 0.0000 10.8241 0.0000
# 2 16.8765 42.6597 26.0509 0.0000 2.4162 0.0000
# 3 24.5868 26.0509 124.0621 0.0000 14.7474 0.0000
# 4 0.0000 0.0000 0.0000 11.1148 0.0000 -3.3361
# 5 10.8241 2.4162 14.7474 0.0000 31.4710 0.0000
# 6 0.0000 0.0000 0.0000 -3.3361 0.0000 18.9743
#
#
#
# Elastic Compliance Matrix: (Units=1/GPa)
#
#
# Indices 1 2 3 4 5 6 
#
# 1 0.048261 -0.015442 -0.004754 0.000000 -0.013185 0.000000
# 2 -0.015442 0.031842 -0.004201 0.000000 0.004835 0.000000
# 3 -0.004754 -0.004201 0.010221 0.000000 -0.002832 0.000000
# 4 0.000000 0.000000 0.000000 0.094983 0.000000 0.016700
# 5 -0.013185 0.004835 -0.002832 0.000000 0.037266 0.000000
# 6 0.000000 0.000000 0.000000 0.016700 0.000000 0.055639
#
#
# Mechanical properties :
#
#
# Convention : Reuss Voigt Hill
#
# Bulk Modulus (GPa) = 24.07924 37.02783 30.55354
# Shear Modulus (GPa) = 14.66920 21.02587 17.84753
#
# Velocity S-wave (km/s) = 2.81291 3.36767 3.10272
# Velocity P-wave (km/s) = 4.85162 5.92404 5.41444
#
# Compressibility (1/GPa) = 0.04152954
#
# Stress axis : x y z
#
# Youngs Moduli (GPa) = 20.72064 31.40527 97.83371
#
# Poissons Ratio (x) = 0.48497 0.46515
# Poissons Ratio (y) = 0.31997 0.41096
# Poissons Ratio (z) = 0.09852 0.13192
#
# Static dielectric constant tensor:
#      x y z
#    x 3.643150 0.000000 0.446040 
#    y 0.000000 3.108680 0.000000 
#    z 0.446040 0.000000 3.603690 
# 
# 
# High freq. dielectric constant tensor:
#      x y z
#    x 1.718930 0.000000 0.024600 
#    y 0.000000 1.682690 0.000000 
#    z 0.024600 0.000000 1.715220 
# 
# From -- ./inp_files/93751.got.cif
#   From: 2010.06.25/outbox.cif.g09.slc.cpg/sg10_47_cif.got.tgz:93751.got - 2010.06.27 22:07:45.
