data_PCOD8064977
_publ_section_title
;
Structure prediction by ZEFSAII (Michael W. Deem and Ramdas Pophale) SiO2 
 PCOD8064977
Probable space group: P 2/M
;
_chemical_formula_sum "Si O2"
_cell_formula_units_Z 32
_cell_length_a 25.256827
_cell_length_b 14.582142
_cell_length_c 8.845079
_cell_angle_alpha 90.000000
_cell_angle_beta 29.708727
_cell_angle_gamma 90.000000
_cell_volume 1614.452277
_symmetry_space_group_name_H-M "P 2/M"
_symmetry_group_IT_number 10
_symmetry_cell_setting 'monoclinic'
loop_
_space_group_symop_operation_xyz
x,y,z
-x,y,-z
-x,-y,-z
x,-y,z
loop_
_atom_site_type_symbol
_atom_site_label
_atom_site_fract_x
_atom_site_fract_y
_atom_site_fract_z
Si Si1 0.880253 0.400321 0.736812
Si Si2 0.290573 0.106839 0.198096
Si Si3 0.884869 0.219449 0.862435
Si Si4 0.437268 0.400748 0.809922
Si Si5 0.499534 0.209739 0.320553
Si Si6 0.887322 0.226387 0.211458
Si Si7 0.189444 0.603164 0.422542
Si Si8 0.708948 0.893578 0.155104
O O1 0.824276 0.500000 0.907895
O O2 0.825315 0.314185 0.957182
O O3 0.877602 0.380529 0.564304
O O4 0.000000 0.405030 0.500000
O O5 0.197102 0.152282 0.524397
O O6 0.290649 0.000000 0.232859
O O7 0.402980 0.147046 0.976912
O O8 0.271845 0.128070 0.068268
O O9 0.000000 0.209947 0.500000
O O10 0.897828 0.221219 0.007447
O O11 0.813916 0.133423 0.987719
O O12 0.500000 0.411259 0.500000
O O13 0.446614 0.500000 0.873249
O O14 0.486442 0.313992 0.779889
O O15 0.313808 0.377773 0.079750
O O16 0.500000 0.214210 0.500000
O O17 0.390256 0.164872 0.533040
O O18 0.854038 0.328875 0.342157
O O19 0.000000 0.197651 0.000000
O O20 0.171765 0.500000 0.527095
O O21 0.683406 0.000000 0.243868
#
# Coordination Sequence:
#
# PCOD8064977 Si02
#       8
#     4   4   4   4   4   4   4   4
#     4   9  18  34  56  83 115 150 191 237 286 342
#     4  10  20  37  61  87 115 148 195 250 300 347
#     4  11  24  40  59  83 118 162 197 243 298 354
#     4   9  17  29  53  92 124 151 189 236 286 342
#     4   9  17  32  59  89 118 153 190 241 287 350
#     4  12  24  39  59  84 117 156 203 246 296 353
#     4  10  20  36  61  89 120 156 198 245 293 346
#     4  10  21  38  62  90 117 151 197 246 298 355
#
# _framework density 19.820962000000002
#
# number of rings (size 3 to 8) (size 9 to 14) (size 15 to 20)
#    0.000    2.000    1.250    3.375    3.500    3.250 
#    0.000    0.625    0.000    1.500    0.000    1.750 
#    0.000    0.000    0.000    0.000    0.000    0.000 
#
# Total GULP energy -396670.861969 kJ/mol
# GULP energy per Si atom -12395.964437 kJ/mol
# Density = 1.977585 g / cm^3
# Si number density = 19.820962 Si / 1000 Ang^3
#
#
#
# Elastic Constant Matrix: (Units=GPa)
#
#
# Indices 1 2 3 4 5 6 
#
# 1 89.2585 53.5613 52.4124 0.0000 2.8869 0.0000
# 2 53.5613 148.7045 62.4316 0.0000 -2.2557 0.0000
# 3 52.4124 62.4316 127.0203 0.0000 -6.7134 0.0000
# 4 0.0000 0.0000 0.0000 72.1343 0.0000 31.3907
# 5 2.8869 -2.2557 -6.7134 0.0000 22.9987 0.0000
# 6 0.0000 0.0000 0.0000 31.3907 0.0000 51.0109
#
#
#
# Elastic Compliance Matrix: (Units=1/GPa)
#
#
# Indices 1 2 3 4 5 6 
#
# 1 0.016725 -0.003904 -0.005194 0.000000 -0.003998 0.000000
# 2 -0.003904 0.009388 -0.002975 0.000000 0.000543 0.000000
# 3 -0.005194 -0.002975 0.011677 0.000000 0.003769 0.000000
# 4 0.000000 0.000000 0.000000 0.018933 0.000000 -0.011651
# 5 -0.003998 0.000543 0.003769 0.000000 0.045136 0.000000
# 6 0.000000 0.000000 0.000000 -0.011651 0.000000 0.026773
#
#
# Mechanical properties :
#
#
# Convention : Reuss Voigt Hill
#
# Bulk Modulus (GPa) = 73.28581 77.97710 75.63146
# Shear Modulus (GPa) = 31.78100 42.33400 37.05750
#
# Velocity S-wave (km/s) = 4.00860 4.62651 4.32859
# Velocity P-wave (km/s) = 7.64717 8.24412 7.95125
#
# Compressibility (1/GPa) = 0.01364521
#
# Stress axis : x y z
#
# Youngs Moduli (GPa) = 59.78949 106.51748 85.63807
#
# Poissons Ratio (x) = 0.41589 0.44478
# Poissons Ratio (y) = 0.23344 0.25474
# Poissons Ratio (z) = 0.31053 0.31685
#
# Static dielectric constant tensor:
#      x y z
#    x 3.288990 0.000000 -0.211900 
#    y 0.000000 4.277710 0.000000 
#    z -0.211900 0.000000 3.559670 
# 
# 
# High freq. dielectric constant tensor:
#      x y z
#    x 1.736960 0.000000 -0.019360 
#    y 0.000000 1.797650 0.000000 
#    z -0.019360 0.000000 1.765050 
# 
# From -- ./inp_files/36331.got.cif
#   From: 2010.06.25/outbox.cif.g09.slc.cpg/sg10_19_cif.got.tgz:36331.got - 2010.06.27 22:07:45.
