data_PCOD8064849
_publ_section_title
;
Structure prediction by ZEFSAII (Michael W. Deem and Ramdas Pophale) SiO2 
 PCOD8064849
Probable space group: P 2/M
;
_chemical_formula_sum "Si O2"
_cell_formula_units_Z 32
_cell_length_a 27.283351
_cell_length_b 8.787824
_cell_length_c 11.734197
_cell_angle_alpha 90.000000
_cell_angle_beta 146.570345
_cell_angle_gamma 90.000000
_cell_volume 1549.941372
_symmetry_space_group_name_H-M "P 2/M"
_symmetry_group_IT_number 10
_symmetry_cell_setting 'monoclinic'
loop_
_space_group_symop_operation_xyz
x,y,z
-x,y,-z
-x,-y,-z
x,-y,z
loop_
_atom_site_type_symbol
_atom_site_label
_atom_site_fract_x
_atom_site_fract_y
_atom_site_fract_z
Si Si1 0.589613 0.171346 0.603835
Si Si2 0.729006 0.820584 0.467891
Si Si3 0.617453 0.325798 0.069499
Si Si4 0.880310 0.178804 0.317401
Si Si5 0.045928 0.681135 0.757615
Si Si6 0.079552 0.820438 0.068345
Si Si7 0.297181 0.673240 0.999142
Si Si8 0.435762 0.820967 0.700460
O O1 0.500000 0.171260 0.500000
O O2 0.572540 0.235088 0.445088
O O3 0.629539 0.000000 0.676803
O O4 0.659255 0.284648 0.796186
O O5 0.702965 0.748554 0.296494
O O6 0.826734 0.765349 0.695960
O O7 0.653393 0.765271 0.409732
O O8 0.729145 0.000000 0.454914
O O9 0.613383 0.500000 0.097274
O O10 0.630848 0.302607 0.960660
O O11 0.524623 0.250169 0.927996
O O12 0.884782 0.245673 0.197681
O O13 0.784165 0.213483 0.182330
O O14 0.948752 0.261024 0.534317
O O15 0.900130 0.000000 0.354274
O O16 0.050737 0.500000 0.759079
O O17 0.067827 0.733320 0.927355
O O18 0.079860 0.000000 0.044456
O O19 0.000000 0.775941 0.000000
O O20 0.263004 0.500000 0.937190
O O21 0.447912 0.000000 0.732720
#
# Coordination Sequence:
#
# PCOD8064849 Si02
#       8
#     4   4   4   4   4   4   4   4
#     4  10  20  36  59  87 118 159 204 247 302 372
#     4  10  23  41  63  89 120 161 210 263 310 361
#     4  11  24  40  60  88 125 164 207 257 313 373
#     4  11  23  41  67  94 123 164 209 253 303 372
#     4  11  23  42  66  95 130 161 199 256 320 374
#     4  10  23  43  65  93 126 166 216 262 308 371
#     4  11  24  39  58  90 127 162 201 255 316 371
#     4  10  21  39  62  89 121 159 207 259 311 366
#
# _framework density 20.645942999999999
#
# number of rings (size 3 to 8) (size 9 to 14) (size 15 to 20)
#    0.000    1.500    1.250    4.125    3.500    5.000 
#    0.000    0.000    0.000    0.000    0.000    0.000 
#    0.000    0.000    0.000    0.000    0.000    0.000 
#
# Total GULP energy -396891.897270 kJ/mol
# GULP energy per Si atom -12402.871790 kJ/mol
# Density = 2.059895 g / cm^3
# Si number density = 20.645943 Si / 1000 Ang^3
#
#
#
# Elastic Constant Matrix: (Units=GPa)
#
#
# Indices 1 2 3 4 5 6 
#
# 1 73.0407 34.4060 53.1187 0.0000 8.0875 0.0000
# 2 34.4060 73.3270 41.4337 0.0000 -0.9796 0.0000
# 3 53.1187 41.4337 132.6362 0.0000 2.8044 0.0000
# 4 0.0000 0.0000 0.0000 24.5780 0.0000 -1.6940
# 5 8.0875 -0.9796 2.8044 0.0000 39.5930 0.0000
# 6 0.0000 0.0000 0.0000 -1.6940 0.0000 24.3694
#
#
#
# Elastic Compliance Matrix: (Units=1/GPa)
#
#
# Indices 1 2 3 4 5 6 
#
# 1 0.022181 -0.006673 -0.006709 0.000000 -0.004221 0.000000
# 2 -0.006673 0.018592 -0.003179 0.000000 0.002048 0.000000
# 3 -0.006709 -0.003179 0.011209 0.000000 0.000498 0.000000
# 4 0.000000 0.000000 0.000000 0.040883 0.000000 0.002842
# 5 -0.004221 0.002048 0.000498 0.000000 0.026135 0.000000
# 6 0.000000 0.000000 0.000000 0.002842 0.000000 0.041233
#
#
# Mechanical properties :
#
#
# Convention : Reuss Voigt Hill
#
# Bulk Modulus (GPa) = 53.02264 59.65786 56.34025
# Shear Modulus (GPa) = 25.04502 27.71113 26.37807
#
# Velocity S-wave (km/s) = 3.48670 3.66759 3.57829
# Velocity P-wave (km/s) = 6.47665 6.84787 6.66485
#
# Compressibility (1/GPa) = 0.01885987
#
# Stress axis : x y z
#
# Youngs Moduli (GPa) = 45.08366 53.78628 89.21454
#
# Poissons Ratio (x) = 0.35891 0.59858
# Poissons Ratio (y) = 0.30083 0.28360
# Poissons Ratio (z) = 0.30248 0.17098
#
# Static dielectric constant tensor:
#      x y z
#    x 3.817790 0.000000 0.011950 
#    y 0.000000 3.654830 0.000000 
#    z 0.011950 0.000000 3.825710 
# 
# 
# High freq. dielectric constant tensor:
#      x y z
#    x 1.812520 0.000000 -0.000980 
#    y 0.000000 1.802700 0.000000 
#    z -0.000980 0.000000 1.814550 
# 
# From -- ./inp_files/58235.got.cif
#   From: 2010.06.25/outbox.cif.g09.slc.cpg/sg10_30_cif.got.tgz:58235.got - 2010.06.27 22:07:45.
