data_PCOD8064665
_publ_section_title
;
Structure prediction by ZEFSAII (Michael W. Deem and Ramdas Pophale) SiO2 
 PCOD8064665
Probable space group: P 2/M
;
_chemical_formula_sum "Si O2"
_cell_formula_units_Z 24
_cell_length_a 14.989889
_cell_length_b 7.797071
_cell_length_c 30.221327
_cell_angle_alpha 90.000000
_cell_angle_beta 160.330791
_cell_angle_gamma 90.000000
_cell_volume 1188.895517
_symmetry_space_group_name_H-M "P 2/M"
_symmetry_group_IT_number 10
_symmetry_cell_setting 'monoclinic'
loop_
_space_group_symop_operation_xyz
x,y,z
-x,y,-z
-x,-y,-z
x,-y,z
loop_
_atom_site_type_symbol
_atom_site_label
_atom_site_fract_x
_atom_site_fract_y
_atom_site_fract_z
Si Si1 0.698194 0.798559 0.848992
Si Si2 0.773604 0.500000 0.602300
Si Si3 0.203064 0.500000 0.877976
Si Si4 0.358904 0.303689 0.274386
Si Si5 0.165395 0.803348 0.927744
Si Si6 0.436855 0.805965 0.814247
Si Si7 0.863405 0.689199 0.560694
O O1 0.601067 0.704840 0.759431
O O2 0.520359 0.723024 0.806288
O O3 0.657824 0.000000 0.823011
O O4 0.000000 0.750512 0.000000
O O5 0.500000 0.500000 0.500000
O O6 0.790911 0.669717 0.579046
O O7 0.017434 0.500000 0.748982
O O8 0.141879 0.674980 0.875684
O O9 0.500000 0.500000 0.000000
O O10 0.320565 0.500000 0.271982
O O11 0.105102 0.194635 0.170463
O O12 0.618499 0.225870 0.420011
O O13 0.220486 0.000000 0.937544
O O14 0.401827 0.726442 0.069051
O O15 0.124037 0.802303 0.676174
O O16 0.538334 0.000000 0.859241
O O17 0.925419 0.500000 0.569603
#
# Coordination Sequence:
#
# PCOD8064665 Si02
#       7
#     4   2   2   4   4   4   4
#     4  10  20  36  57  85 124 167 209 254 301 353
#     4  10  20  42  66  83 116 160 196 255 316 384
#     4  12  24  40  68  93 120 162 204 255 330 380
#     4  11  21  38  60  92 121 163 213 255 303 363
#     4  11  23  40  64  93 127 161 207 262 310 375
#     4  10  21  38  59  87 126 168 205 252 310 363
#     4   9  22  39  61  86 118 161 202 251 315 375
#
# _framework density 20.186803999999999
#
# number of rings (size 3 to 8) (size 9 to 14) (size 15 to 20)
#    0.500    1.167    2.500    2.500    1.167    3.333 
#    0.000    4.167    0.000    2.000    0.000    0.000 
#    0.000    0.000    0.000    0.000    0.000    0.000 
#
# Total GULP energy -297564.775871 kJ/mol
# GULP energy per Si atom -12398.532328 kJ/mol
# Density = 2.014086 g / cm^3
# Si number density = 20.186804 Si / 1000 Ang^3
#
#
#
# Elastic Constant Matrix: (Units=GPa)
#
#
# Indices 1 2 3 4 5 6 
#
# 1 135.8008 21.6614 66.0620 0.0000 -6.2834 0.0000
# 2 21.6614 57.6340 15.6477 0.0000 -5.6771 0.0000
# 3 66.0620 15.6477 173.6562 0.0000 -11.3232 0.0000
# 4 0.0000 0.0000 0.0000 21.1372 0.0000 7.8438
# 5 -6.2834 -5.6771 -11.3232 0.0000 44.9865 0.0000
# 6 0.0000 0.0000 0.0000 7.8438 0.0000 16.8326
#
#
#
# Elastic Compliance Matrix: (Units=1/GPa)
#
#
# Indices 1 2 3 4 5 6 
#
# 1 0.009410 -0.002617 -0.003334 0.000000 0.000145 0.000000
# 2 -0.002617 0.018670 -0.000566 0.000000 0.001848 0.000000
# 3 -0.003334 -0.000566 0.007161 0.000000 0.001265 0.000000
# 4 0.000000 0.000000 0.000000 0.057201 0.000000 -0.026655
# 5 0.000145 0.001848 0.001265 0.000000 0.022801 0.000000
# 6 0.000000 0.000000 0.000000 -0.026655 0.000000 0.071829
#
#
# Mechanical properties :
#
#
# Convention : Reuss Voigt Hill
#
# Bulk Modulus (GPa) = 45.03466 63.75926 54.39696
# Shear Modulus (GPa) = 24.09526 34.17259 29.13393
#
# Velocity S-wave (km/s) = 3.45862 4.11885 3.80309
# Velocity P-wave (km/s) = 6.18925 7.36703 6.80367
#
# Compressibility (1/GPa) = 0.02220512
#
# Stress axis : x y z
#
# Youngs Moduli (GPa) = 106.27029 53.56115 139.65489
#
# Poissons Ratio (x) = 0.14018 0.46567
# Poissons Ratio (y) = 0.27812 0.07908
# Poissons Ratio (z) = 0.35435 0.03033
#
# Static dielectric constant tensor:
#      x y z
#    x 3.669100 0.000000 -0.100200 
#    y 0.000000 3.356600 0.000000 
#    z -0.100200 0.000000 3.606480 
# 
# 
# High freq. dielectric constant tensor:
#      x y z
#    x 1.787270 0.000000 -0.004250 
#    y 0.000000 1.766660 0.000000 
#    z -0.004250 0.000000 1.797080 
# 
# From -- ./inp_files/95307.got.cif
#   From: 2010.06.25/outbox.cif.g09.slc.cpg/sg10_48_cif.got.tgz:95307.got - 2010.06.27 22:07:45.
