data_PCOD8064446
_publ_section_title
;
Structure prediction by ZEFSAII (Michael W. Deem and Ramdas Pophale) SiO2 
 PCOD8064446
Probable space group: P 2/M
;
_chemical_formula_sum "Si O2"
_cell_formula_units_Z 28
_cell_length_a 14.330570
_cell_length_b 14.271930
_cell_length_c 13.672569
_cell_angle_alpha 90.000000
_cell_angle_beta 32.232779
_cell_angle_gamma 90.000000
_cell_volume 1491.478439
_symmetry_space_group_name_H-M "P 2/M"
_symmetry_group_IT_number 10
_symmetry_cell_setting 'monoclinic'
loop_
_space_group_symop_operation_xyz
x,y,z
-x,y,-z
-x,-y,-z
x,-y,z
loop_
_atom_site_type_symbol
_atom_site_label
_atom_site_fract_x
_atom_site_fract_y
_atom_site_fract_z
Si Si1 0.579815 0.606389 0.032943
Si Si2 0.518765 0.787729 0.782631
Si Si3 0.190260 0.894443 0.111827
Si Si4 0.961300 0.892341 0.137871
Si Si5 0.587582 0.889975 0.527109
Si Si6 0.905588 0.206852 0.480793
Si Si7 0.983070 0.399609 0.631027
O O1 0.522439 0.500000 0.110136
O O2 0.503691 0.675371 0.184800
O O3 0.500000 0.637381 0.000000
O O4 0.786433 0.615659 0.841390
O O5 0.500221 0.824373 0.687612
O O6 0.702869 0.823783 0.665350
O O7 0.359289 0.832128 0.986697
O O8 0.135873 0.881536 0.046912
O O9 0.016875 0.870015 0.325690
O O10 0.241948 0.000000 0.090751
O O11 0.787875 0.852711 0.344335
O O12 0.913400 0.000000 0.159149
O O13 0.000000 0.841600 0.000000
O O14 0.500000 0.871508 0.500000
O O15 0.569664 0.000000 0.572971
O O16 0.000000 0.218358 0.500000
O O17 0.909588 0.309756 0.424454
O O18 0.052145 0.500000 0.612090
O O19 0.000000 0.404974 0.500000
#
# Coordination Sequence:
#
# PCOD8064446 Si02
#       7
#     4   4   4   4   4   4   4
#     4  10  20  35  58  87 117 150 192 241 292 347
#     4  12  23  36  61  86 117 151 196 242 294 347
#     4  11  23  38  54  79 114 152 196 238 281 338
#     4   9  17  33  56  80 108 141 183 241 293 332
#     4  10  20  36  59  87 115 149 195 243 292 345
#     4  11  23  38  56  78 113 155 195 235 283 343
#     4   9  17  33  56  81 109 142 185 239 292 336
#
# _framework density 18.773318
#
# number of rings (size 3 to 8) (size 9 to 14) (size 15 to 20)
#    0.000    1.714    2.857    3.000    0.000    4.857 
#    0.000    0.714    0.000    0.429    0.000    0.000 
#    0.000    5.143    0.000    0.000    0.000    0.000 
#
# Total GULP energy -346982.149634 kJ/mol
# GULP energy per Si atom -12392.219630 kJ/mol
# Density = 1.873059 g / cm^3
# Si number density = 18.773318 Si / 1000 Ang^3
#
#
#
# Elastic Constant Matrix: (Units=GPa)
#
#
# Indices 1 2 3 4 5 6 
#
# 1 58.3446 41.9186 26.7444 0.0000 -4.1380 0.0000
# 2 41.9186 99.4874 36.9750 0.0000 4.6369 0.0000
# 3 26.7444 36.9750 105.2229 0.0000 -10.0044 0.0000
# 4 0.0000 0.0000 0.0000 35.6799 0.0000 3.1452
# 5 -4.1380 4.6369 -10.0044 0.0000 33.3569 0.0000
# 6 0.0000 0.0000 0.0000 3.1452 0.0000 14.6035
#
#
#
# Elastic Compliance Matrix: (Units=1/GPa)
#
#
# Indices 1 2 3 4 5 6 
#
# 1 0.025885 -0.010092 -0.002670 0.000000 0.003813 0.000000
# 2 -0.010092 0.015777 -0.003403 0.000000 -0.004466 0.000000
# 3 -0.002670 -0.003403 0.011726 0.000000 0.003659 0.000000
# 4 0.000000 0.000000 0.000000 0.028569 0.000000 -0.006153
# 5 0.003813 -0.004466 0.003659 0.000000 0.032170 0.000000
# 6 0.000000 0.000000 0.000000 -0.006153 0.000000 0.069802
#
#
# Mechanical properties :
#
#
# Convention : Reuss Voigt Hill
#
# Bulk Modulus (GPa) = 47.49132 52.70343 50.09737
# Shear Modulus (GPa) = 22.39356 27.22251 24.80804
#
# Velocity S-wave (km/s) = 3.45750 3.81210 3.63912
# Velocity P-wave (km/s) = 6.42582 6.89280 6.66340
#
# Compressibility (1/GPa) = 0.02105648
#
# Stress axis : x y z
#
# Youngs Moduli (GPa) = 38.63311 63.38478 85.27913
#
# Poissons Ratio (x) = 0.63965 0.22772
# Poissons Ratio (y) = 0.38987 0.29025
# Poissons Ratio (z) = 0.10316 0.21573
#
# Static dielectric constant tensor:
#      x y z
#    x 3.246130 0.000000 -0.096560 
#    y 0.000000 3.714710 0.000000 
#    z -0.096560 0.000000 3.637320 
# 
# 
# High freq. dielectric constant tensor:
#      x y z
#    x 1.693220 0.000000 -0.014750 
#    y 0.000000 1.713220 0.000000 
#    z -0.014750 0.000000 1.749770 
# 
# From -- ./inp_files/67533.got.cif
#   From: 2010.06.25/outbox.cif.g09.slc.cpg/sg10_34_cif.got.tgz:67533.got - 2010.06.27 22:07:45.
