data_PCOD8064610
_publ_section_title
;
Structure prediction by ZEFSAII (Michael W. Deem and Ramdas Pophale) SiO2 
 PCOD8064610
Probable space group: P 2/M
;
_chemical_formula_sum "Si O2"
_cell_formula_units_Z 32
_cell_length_a 25.515779
_cell_length_b 8.408505
_cell_length_c 15.815408
_cell_angle_alpha 90.000000
_cell_angle_beta 29.766036
_cell_angle_gamma 90.000000
_cell_volume 1684.580712
_symmetry_space_group_name_H-M "P 2/M"
_symmetry_group_IT_number 10
_symmetry_cell_setting 'monoclinic'
loop_
_space_group_symop_operation_xyz
x,y,z
-x,y,-z
-x,-y,-z
x,-y,z
loop_
_atom_site_type_symbol
_atom_site_label
_atom_site_fract_x
_atom_site_fract_y
_atom_site_fract_z
Si Si1 0.018453 0.687576 0.735636
Si Si2 0.449322 0.311982 0.155416
Si Si3 0.530313 0.684577 0.221164
Si Si4 0.227066 0.310346 0.531957
Si Si5 0.313557 0.183475 0.576756
Si Si6 0.268294 0.183154 0.975389
Si Si7 0.793341 0.315618 0.112585
Si Si8 0.060282 0.688964 0.332571
O O1 0.029888 0.500000 0.717686
O O2 0.123484 0.760390 0.630783
O O3 0.005338 0.748151 0.657604
O O4 0.915917 0.736487 0.933555
O O5 0.447704 0.500000 0.148887
O O6 0.518636 0.262941 0.139580
O O7 0.329078 0.252339 0.335795
O O8 0.500000 0.234507 0.000000
O O9 0.560631 0.500000 0.186817
O O10 0.420149 0.713496 0.423334
O O11 0.620253 0.791522 0.135875
O O12 0.223868 0.500000 0.544278
O O13 0.231569 0.238751 0.619617
O O14 0.259889 0.207896 0.742231
O O15 0.342807 0.000000 0.523814
O O16 0.263842 0.287845 0.896790
O O17 0.255438 0.000000 0.968545
O O18 0.176427 0.234840 0.168840
O O19 0.782523 0.500000 0.152338
O O20 0.073611 0.500000 0.314108
O O21 0.000000 0.750073 0.500000
#
# Coordination Sequence:
#
# PCOD8064610 Si02
#       8
#     4   4   4   4   4   4   4   4
#     4   8  16  31  53  78 102 133 177 225 262 300
#     4   8  15  28  50  79 105 130 168 217 260 299
#     4  10  20  36  57  79 104 138 178 217 260 312
#     4   9  17  32  52  74 103 139 176 213 258 310
#     4  11  22  36  53  77 107 136 170 214 266 318
#     4  11  22  36  54  79 111 142 173 215 268 318
#     4  10  20  37  57  77 102 135 178 221 262 311
#     4   9  18  34  56  81 108 142 185 226 261 304
#
# _framework density 18.995823999999999
#
# number of rings (size 3 to 8) (size 9 to 14) (size 15 to 20)
#    0.000    2.500    0.000    4.500    0.000    2.250 
#    0.000   11.875    0.000   12.375    0.000    0.000 
#    0.000    0.000    0.000    0.000    0.000    0.000 
#
# Total GULP energy -396812.731681 kJ/mol
# GULP energy per Si atom -12400.397865 kJ/mol
# Density = 1.895259 g / cm^3
# Si number density = 18.995824 Si / 1000 Ang^3
#
#
#
# Elastic Constant Matrix: (Units=GPa)
#
#
# Indices 1 2 3 4 5 6 
#
# 1 111.4583 10.3628 74.3338 0.0000 -10.7546 0.0000
# 2 10.3628 41.5849 11.2429 0.0000 1.0528 0.0000
# 3 74.3338 11.2429 111.3272 0.0000 9.7276 0.0000
# 4 0.0000 0.0000 0.0000 15.1950 0.0000 -0.6305
# 5 -10.7546 1.0528 9.7276 0.0000 37.4000 0.0000
# 6 0.0000 0.0000 0.0000 -0.6305 0.0000 10.8318
#
#
#
# Elastic Compliance Matrix: (Units=1/GPa)
#
#
# Indices 1 2 3 4 5 6 
#
# 1 0.018699 -0.001336 -0.013122 0.000000 0.008828 0.000000
# 2 -0.001336 0.024818 -0.001555 0.000000 -0.000678 0.000000
# 3 -0.013122 -0.001555 0.018651 0.000000 -0.008581 0.000000
# 4 0.000000 0.000000 0.000000 0.065970 0.000000 0.003840
# 5 0.008828 -0.000678 -0.008581 0.000000 0.031527 0.000000
# 6 0.000000 0.000000 0.000000 0.003840 0.000000 0.092544
#
#
# Mechanical properties :
#
#
# Convention : Reuss Voigt Hill
#
# Bulk Modulus (GPa) = 33.17625 50.69439 41.93532
# Shear Modulus (GPa) = 16.99044 23.91409 20.45227
#
# Velocity S-wave (km/s) = 2.99395 3.55197 3.28483
# Velocity P-wave (km/s) = 5.42721 6.60053 6.04242
#
# Compressibility (1/GPa) = 0.03014205
#
# Stress axis : x y z
#
# Youngs Moduli (GPa) = 53.47797 40.29391 53.61633
#
# Poissons Ratio (x) = 0.05382 0.70356
# Poissons Ratio (y) = 0.07142 0.08339
# Poissons Ratio (z) = 0.70174 0.06267
#
# Static dielectric constant tensor:
#      x y z
#    x 3.611740 0.000000 -0.013480 
#    y 0.000000 3.175440 0.000000 
#    z -0.013480 0.000000 3.606330 
# 
# 
# High freq. dielectric constant tensor:
#      x y z
#    x 1.739500 0.000000 -0.000270 
#    y 0.000000 1.715660 0.000000 
#    z -0.000270 0.000000 1.739410 
# 
# From -- ./inp_files/71504.got.cif
#   From: 2010.06.25/outbox.cif.g09.slc.cpg/sg10_36_cif.got.tgz:71504.got - 2010.06.27 22:07:45.
