data_PCOD8064241
_publ_section_title
;
Structure prediction by ZEFSAII (Michael W. Deem and Ramdas Pophale) SiO2 
 PCOD8064241
Probable space group: P 2/M
;
_chemical_formula_sum "Si O2"
_cell_formula_units_Z 32
_cell_length_a 12.822306
_cell_length_b 8.890076
_cell_length_c 30.015522
_cell_angle_alpha 90.000000
_cell_angle_beta 152.801487
_cell_angle_gamma 90.000000
_cell_volume 1563.885060
_symmetry_space_group_name_H-M "P 2/M"
_symmetry_group_IT_number 10
_symmetry_cell_setting 'monoclinic'
loop_
_space_group_symop_operation_xyz
x,y,z
-x,y,-z
-x,-y,-z
x,-y,z
loop_
_atom_site_type_symbol
_atom_site_label
_atom_site_fract_x
_atom_site_fract_y
_atom_site_fract_z
Si Si1 0.297901 0.669634 0.452917
Si Si2 0.877520 0.827085 0.323800
Si Si3 0.626047 0.333849 0.654470
Si Si4 0.881294 0.670950 0.177689
Si Si5 0.445875 0.826698 0.878057
Si Si6 0.890416 0.324290 0.077382
Si Si7 0.815560 0.677651 0.392931
Si Si8 0.641308 0.824648 0.748931
O O1 0.500000 0.738241 0.500000
O O2 0.233210 0.500000 0.412543
O O3 0.391962 0.666508 0.538898
O O4 0.081724 0.778084 0.368397
O O5 0.650067 0.801836 0.208320
O O6 0.893832 0.722724 0.373281
O O7 0.904830 0.000000 0.348507
O O8 0.657308 0.500000 0.689355
O O9 0.606806 0.204210 0.683490
O O10 0.849447 0.308295 0.707997
O O11 0.799227 0.500000 0.154654
O O12 0.732866 0.777980 0.152047
O O13 0.850116 0.715720 0.114001
O O14 0.501119 0.000000 0.907811
O O15 0.677129 0.732968 0.968056
O O16 0.917650 0.500000 0.080353
O O17 0.118029 0.246103 0.144518
O O18 0.789223 0.500000 0.386276
O O19 0.569641 0.752441 0.305379
O O20 0.000000 0.733695 0.500000
O O21 0.644196 0.000000 0.760498
#
# Coordination Sequence:
#
# PCOD8064241 Si02
#       8
#     4   4   4   4   4   4   4   4
#     4  10  20  35  56  81 112 154 198 235 276 332
#     4  11  25  41  57  84 120 154 191 238 292 347
#     4   9  18  33  53  80 114 149 190 238 282 334
#     4   9  18  33  55  83 115 154 197 238 283 337
#     4  11  23  37  54  81 118 155 193 240 291 342
#     4  10  21  38  60  85 115 153 198 242 283 335
#     4  11  24  43  67  91 115 147 190 238 285 339
#     4  11  22  37  60  88 117 146 181 232 291 345
#
# _framework density 20.461863000000001
#
# number of rings (size 3 to 8) (size 9 to 14) (size 15 to 20)
#    0.000    1.750    0.000    5.250    0.000   11.750 
#    0.000    0.625    0.000    3.750    0.000    0.000 
#    0.000    0.000    0.000    0.000    0.000    0.000 
#
# Total GULP energy -396824.948242 kJ/mol
# GULP energy per Si atom -12400.779633 kJ/mol
# Density = 2.041529 g / cm^3
# Si number density = 20.461863 Si / 1000 Ang^3
#
#
#
# Elastic Constant Matrix: (Units=GPa)
#
#
# Indices 1 2 3 4 5 6 
#
# 1 74.9058 34.2350 29.4817 0.0000 12.7436 0.0000
# 2 34.2350 100.3532 47.2765 0.0000 4.0777 0.0000
# 3 29.4817 47.2765 104.5637 0.0000 10.7350 0.0000
# 4 0.0000 0.0000 0.0000 31.1452 0.0000 0.7668
# 5 12.7436 4.0777 10.7350 0.0000 27.6890 0.0000
# 6 0.0000 0.0000 0.0000 0.7668 0.0000 20.0931
#
#
#
# Elastic Compliance Matrix: (Units=1/GPa)
#
#
# Indices 1 2 3 4 5 6 
#
# 1 0.017435 -0.004679 -0.002132 0.000000 -0.006509 0.000000
# 2 -0.004679 0.013921 -0.005192 0.000000 0.002116 0.000000
# 3 -0.002132 -0.005192 0.012844 0.000000 -0.003234 0.000000
# 4 0.000000 0.000000 0.000000 0.032138 0.000000 -0.001226
# 5 -0.006509 0.002116 -0.003234 0.000000 0.040053 0.000000
# 6 0.000000 0.000000 0.000000 -0.001226 0.000000 0.049815
#
#
# Mechanical properties :
#
#
# Convention : Reuss Voigt Hill
#
# Bulk Modulus (GPa) = 49.52002 55.75656 52.63829
# Shear Modulus (GPa) = 25.38791 27.04076 26.21434
#
# Velocity S-wave (km/s) = 3.52624 3.63922 3.58317
# Velocity P-wave (km/s) = 6.39006 6.70572 6.54979
#
# Compressibility (1/GPa) = 0.02019385
#
# Stress axis : x y z
#
# Youngs Moduli (GPa) = 57.35576 71.83360 77.85592
#
# Poissons Ratio (x) = 0.33611 0.16600
# Poissons Ratio (y) = 0.26837 0.40424
# Poissons Ratio (z) = 0.12229 0.37297
#
# Static dielectric constant tensor:
#      x y z
#    x 3.514460 0.000000 0.082670 
#    y 0.000000 3.614130 0.000000 
#    z 0.082670 0.000000 3.896750 
# 
# 
# High freq. dielectric constant tensor:
#      x y z
#    x 1.782700 0.000000 0.008170 
#    y 0.000000 1.795530 0.000000 
#    z 0.008170 0.000000 1.811700 
# 
# From -- ./inp_files/95011.got.cif
#   From: 2010.06.25/outbox.cif.g09.slc.cpg/sg10_48_cif.got.tgz:95011.got - 2010.06.27 22:07:45.
