data_PCOD8064799
_publ_section_title
;
Structure prediction by ZEFSAII (Michael W. Deem and Ramdas Pophale) SiO2 
 PCOD8064799
Probable space group: P 2/M
;
_chemical_formula_sum "Si O2"
_cell_formula_units_Z 28
_cell_length_a 29.406170
_cell_length_b 8.438901
_cell_length_c 9.299983
_cell_angle_alpha 90.000000
_cell_angle_beta 37.605099
_cell_angle_gamma 90.000000
_cell_volume 1408.282773
_symmetry_space_group_name_H-M "P 2/M"
_symmetry_group_IT_number 10
_symmetry_cell_setting 'monoclinic'
loop_
_space_group_symop_operation_xyz
x,y,z
-x,y,-z
-x,-y,-z
x,-y,z
loop_
_atom_site_type_symbol
_atom_site_label
_atom_site_fract_x
_atom_site_fract_y
_atom_site_fract_z
Si Si1 0.799262 0.683021 0.105308
Si Si2 0.358003 0.812398 0.519929
Si Si3 0.196948 0.814464 0.593185
Si Si4 0.932363 0.684253 0.269918
Si Si5 0.073508 0.184148 0.400903
Si Si6 0.500463 0.189175 0.659954
Si Si7 0.636260 0.813033 0.817810
O O1 0.800722 0.500000 0.144181
O O2 0.718953 0.729967 0.242046
O O3 0.819351 0.782191 0.197973
O O4 0.858019 0.716339 0.832785
O O5 0.423877 0.749420 0.456276
O O6 0.380083 0.760450 0.303886
O O7 0.346556 0.000000 0.560654
O O8 0.144141 0.714731 0.622179
O O9 0.280951 0.758260 0.343623
O O10 0.184917 0.000000 0.594592
O O11 0.939683 0.500000 0.289388
O O12 0.936225 0.782705 0.406453
O O13 0.000000 0.742012 0.000000
O O14 0.000000 0.237851 0.500000
O O15 0.090111 0.000000 0.335558
O O16 0.500000 0.254184 0.500000
O O17 0.498348 0.000000 0.671109
O O18 0.427613 0.261716 0.921226
O O19 0.632203 0.000000 0.839568
#
# Coordination Sequence:
#
# PCOD8064799 Si02
#       7
#     4   4   4   4   4   4   4
#     4  11  22  37  58  83 114 147 183 231 286 341
#     4   9  17  31  52  75 103 140 181 223 270 330
#     4  10  20  36  59  84 112 147 190 236 279 330
#     4  11  24  40  59  85 118 153 186 224 275 332
#     4  11  24  41  62  86 112 145 188 234 277 327
#     4   9  16  26  45  75 106 135 175 229 279 322
#     4   8  15  28  47  73 103 138 179 224 274 324
#
# _framework density 19.882372
#
# number of rings (size 3 to 8) (size 9 to 14) (size 15 to 20)
#    0.000    2.143    0.000    4.714    0.000    7.429 
#    0.000    2.857    0.000    8.143    0.000    0.000 
#    0.000    0.000    0.000    0.000    0.000    0.000 
#
# Total GULP energy -347257.534438 kJ/mol
# GULP energy per Si atom -12402.054801 kJ/mol
# Density = 1.983712 g / cm^3
# Si number density = 19.882372 Si / 1000 Ang^3
#
#
#
# Elastic Constant Matrix: (Units=GPa)
#
#
# Indices 1 2 3 4 5 6 
#
# 1 149.2573 8.7693 80.4197 0.0000 -15.2844 0.0000
# 2 8.7693 38.2901 23.5442 0.0000 -7.3332 0.0000
# 3 80.4197 23.5442 153.3005 0.0000 -4.7875 0.0000
# 4 0.0000 0.0000 0.0000 15.9533 0.0000 2.8221
# 5 -15.2844 -7.3332 -4.7875 0.0000 24.9212 0.0000
# 6 0.0000 0.0000 0.0000 2.8221 0.0000 19.2603
#
#
#
# Elastic Compliance Matrix: (Units=1/GPa)
#
#
# Indices 1 2 3 4 5 6 
#
# 1 0.010101 0.002143 -0.005447 0.000000 0.005779 0.000000
# 2 0.002143 0.030834 -0.005569 0.000000 0.009318 0.000000
# 3 -0.005447 -0.005569 0.010141 0.000000 -0.003031 0.000000
# 4 0.000000 0.000000 0.000000 0.064351 0.000000 -0.009429
# 5 0.005779 0.009318 -0.003031 0.000000 0.045830 0.000000
# 6 0.000000 0.000000 0.000000 -0.009429 0.000000 0.053302
#
#
# Mechanical properties :
#
#
# Convention : Reuss Voigt Hill
#
# Bulk Modulus (GPa) = 30.00289 62.92380 46.46335
# Shear Modulus (GPa) = 20.54099 27.23461 23.88780
#
# Velocity S-wave (km/s) = 3.21771 3.70508 3.46996
# Velocity P-wave (km/s) = 5.37846 7.07250 6.28284
#
# Compressibility (1/GPa) = 0.03333012
#
# Stress axis : x y z
#
# Youngs Moduli (GPa) = 99.00220 32.43137 98.60584
#
# Poissons Ratio (x) = -0.06950 0.53715
# Poissons Ratio (y) = -0.21217 0.54912
# Poissons Ratio (z) = 0.53931 0.18060
#
# Static dielectric constant tensor:
#      x y z
#    x 3.688380 0.000000 -0.131740 
#    y 0.000000 3.247850 0.000000 
#    z -0.131740 0.000000 3.845060 
# 
# 
# High freq. dielectric constant tensor:
#      x y z
#    x 1.779280 0.000000 -0.009200 
#    y 0.000000 1.747080 0.000000 
#    z -0.009200 0.000000 1.784590 
# 
# From -- ./inp_files/37127.got.cif
#   From: 2010.06.25/outbox.cif.g09.slc.cpg/sg10_19_cif.got.tgz:37127.got - 2010.06.27 22:07:45.
