data_PCOD8064613
_publ_section_title
;
Structure prediction by ZEFSAII (Michael W. Deem and Ramdas Pophale) SiO2 
 PCOD8064613
Probable space group: P 2/M
;
_chemical_formula_sum "Si O2"
_cell_formula_units_Z 32
_cell_length_a 22.668258
_cell_length_b 9.311327
_cell_length_c 15.079993
_cell_angle_alpha 90.000000
_cell_angle_beta 148.241733
_cell_angle_gamma 90.000000
_cell_volume 1675.307167
_symmetry_space_group_name_H-M "P 2/M"
_symmetry_group_IT_number 10
_symmetry_cell_setting 'monoclinic'
loop_
_space_group_symop_operation_xyz
x,y,z
-x,y,-z
-x,-y,-z
x,-y,z
loop_
_atom_site_type_symbol
_atom_site_label
_atom_site_fract_x
_atom_site_fract_y
_atom_site_fract_z
Si Si1 0.370574 0.831526 0.334584
Si Si2 0.223138 0.332240 0.618549
Si Si3 0.710263 0.334064 0.599757
Si Si4 0.660593 0.331978 0.048966
Si Si5 0.758646 0.169351 0.007584
Si Si6 0.412208 0.665741 0.730950
Si Si7 0.009536 0.835871 0.287253
Si Si8 0.080880 0.837096 0.182818
O O1 0.500000 0.785365 0.500000
O O2 0.309080 0.751614 0.335398
O O3 0.355903 0.000000 0.332428
O O4 0.313241 0.783207 0.169891
O O5 0.205979 0.500000 0.577709
O O6 0.262897 0.301947 0.768729
O O7 0.314932 0.263503 0.667816
O O8 0.103648 0.257621 0.455207
O O9 0.728073 0.500000 0.646030
O O10 0.608970 0.312018 0.400934
O O11 0.818316 0.274629 0.687157
O O12 0.654834 0.500000 0.017738
O O13 0.711117 0.248803 0.031386
O O14 0.535344 0.271407 0.908953
O O15 0.887333 0.217258 0.161070
O O16 0.747957 0.000000 0.008249
O O17 0.411645 0.500000 0.757465
O O18 0.011969 0.818553 0.184719
O O19 0.029729 0.000000 0.341275
O O20 0.126188 0.000000 0.229972
O O21 0.000000 0.794748 0.000000
#
# Coordination Sequence:
#
# PCOD8064613 Si02
#       8
#     4   4   4   4   4   4   4   4
#     4  10  21  38  59  82 112 154 197 233 276 335
#     4  10  20  37  60  84 113 147 187 235 283 338
#     4  11  21  33  55  86 116 145 179 229 286 336
#     4  10  21  37  60  85 109 147 192 233 284 340
#     4  10  22  40  58  80 114 152 190 234 284 333
#     4   9  18  35  57  84 117 147 180 228 287 343
#     4  10  21  37  57  80 111 151 189 231 282 335
#     4  10  20  36  57  79 107 146 190 231 273 331
#
# _framework density 19.100974000000001
#
# number of rings (size 3 to 8) (size 9 to 14) (size 15 to 20)
#    0.000    2.000    1.250    2.250    0.000    6.000 
#    0.000    5.000    0.000    1.500    0.000    0.000 
#    0.000    0.000    0.000    0.000    0.000    0.000 
#
# Total GULP energy -396866.407851 kJ/mol
# GULP energy per Si atom -12402.075245 kJ/mol
# Density = 1.905750 g / cm^3
# Si number density = 19.100974 Si / 1000 Ang^3
#
#
#
# Elastic Constant Matrix: (Units=GPa)
#
#
# Indices 1 2 3 4 5 6 
#
# 1 120.6237 39.0600 62.4350 0.0000 7.8671 0.0000
# 2 39.0600 43.3201 45.6410 0.0000 1.4867 0.0000
# 3 62.4350 45.6410 149.4882 0.0000 12.2623 0.0000
# 4 0.0000 0.0000 0.0000 29.0781 0.0000 -0.4967
# 5 7.8671 1.4867 12.2623 0.0000 32.1289 0.0000
# 6 0.0000 0.0000 0.0000 -0.4967 0.0000 33.6582
#
#
#
# Elastic Compliance Matrix: (Units=1/GPa)
#
#
# Indices 1 2 3 4 5 6 
#
# 1 0.012446 -0.008602 -0.002431 0.000000 -0.001722 0.000000
# 2 -0.008602 0.040167 -0.008972 0.000000 0.003672 0.000000
# 3 -0.002431 -0.008972 0.010696 0.000000 -0.003072 0.000000
# 4 0.000000 0.000000 0.000000 0.034399 0.000000 0.000508
# 5 -0.001722 0.003672 -0.003072 0.000000 0.032549 0.000000
# 6 0.000000 0.000000 0.000000 0.000508 0.000000 0.029718
#
#
# Mechanical properties :
#
#
# Convention : Reuss Voigt Hill
#
# Bulk Modulus (GPa) = 42.91977 67.52269 55.22123
# Shear Modulus (GPa) = 24.06730 30.05944 27.06337
#
# Velocity S-wave (km/s) = 3.55350 3.97131 3.76820
# Velocity P-wave (km/s) = 6.27338 7.51369 6.92137
#
# Compressibility (1/GPa) = 0.02329929
#
# Stress axis : x y z
#
# Youngs Moduli (GPa) = 80.34577 24.89610 93.49379
#
# Poissons Ratio (x) = 0.21416 0.22725
# Poissons Ratio (y) = 0.69116 0.83882
# Poissons Ratio (z) = 0.19529 0.22337
#
# Static dielectric constant tensor:
#      x y z
#    x 3.498730 0.000000 0.071460 
#    y 0.000000 3.310440 0.000000 
#    z 0.071460 0.000000 3.672100 
# 
# 
# High freq. dielectric constant tensor:
#      x y z
#    x 1.749920 0.000000 -0.000150 
#    y 0.000000 1.721330 0.000000 
#    z -0.000150 0.000000 1.756600 
# 
# From -- ./inp_files/71522.got.cif
#   From: 2010.06.25/outbox.cif.g09.slc.cpg/sg10_36_cif.got.tgz:71522.got - 2010.06.27 22:07:45.
