data_PCOD8064767
_publ_section_title
;
Structure prediction by ZEFSAII (Michael W. Deem and Ramdas Pophale) SiO2 
 PCOD8064767
Probable space group: P 2/M
;
_chemical_formula_sum "Si O2"
_cell_formula_units_Z 20
_cell_length_a 17.787687
_cell_length_b 7.570583
_cell_length_c 9.154071
_cell_angle_alpha 90.000000
_cell_angle_beta 50.522437
_cell_angle_gamma 90.000000
_cell_volume 951.501056
_symmetry_space_group_name_H-M "P 2/M"
_symmetry_group_IT_number 10
_symmetry_cell_setting 'monoclinic'
loop_
_space_group_symop_operation_xyz
x,y,z
-x,y,-z
-x,-y,-z
x,-y,z
loop_
_atom_site_type_symbol
_atom_site_label
_atom_site_fract_x
_atom_site_fract_y
_atom_site_fract_z
Si Si1 0.065367 0.195923 0.544545
Si Si2 0.933795 0.691751 0.945292
Si Si3 0.276496 0.301070 0.359582
Si Si4 0.394450 0.000000 0.057256
Si Si5 0.276139 0.708998 0.697481
Si Si6 0.602527 0.000000 0.296720
O O1 0.161856 0.305737 0.461878
O O2 0.000000 0.288131 0.500000
O O3 0.991827 0.175661 0.770504
O O4 0.099014 0.000000 0.454771
O O5 0.918133 0.500000 0.887579
O O6 0.830866 0.771126 0.121631
O O7 0.000000 0.658089 0.000000
O O8 0.316062 0.500000 0.289387
O O9 0.290977 0.239887 0.509250
O O10 0.336381 0.174099 0.179047
O O11 0.500000 0.000000 0.000000
O O12 0.404509 0.000000 0.870011
O O13 0.293282 0.500000 0.699959
O O14 0.347240 0.819776 0.712151
O O15 0.500000 0.000000 0.500000
#
# Coordination Sequence:
#
# PCOD8064767 Si02
#       6
#     4   4   4   2   4   2
#     4  11  24  37  58  95 141 183 224 267 318 387
#     4  10  20  36  58  91 130 175 218 257 310 376
#     4  11  23  44  71 100 136 181 224 273 335 397
#     4  12  28  50  72  98 134 167 220 280 343 411
#     4  10  23  42  69 102 136 174 225 275 327 395
#     4  12  28  48  74  98 126 170 216 280 347 394
#
# _framework density 21.019418000000002
#
# number of rings (size 3 to 8) (size 9 to 14) (size 15 to 20)
#    0.000    1.200    3.000    2.400    4.200    3.600 
#    0.000    0.000    0.000    0.000    0.000    0.000 
#    0.000    0.000    0.000    0.000    0.000    0.000 
#
# Total GULP energy -247923.464390 kJ/mol
# GULP energy per Si atom -12396.173219 kJ/mol
# Density = 2.097158 g / cm^3
# Si number density = 21.019418 Si / 1000 Ang^3
#
#
#
# Elastic Constant Matrix: (Units=GPa)
#
#
# Indices 1 2 3 4 5 6 
#
# 1 142.1984 46.8029 72.4866 0.0000 6.6122 0.0000
# 2 46.8029 92.7685 51.1438 0.0000 -0.4208 0.0000
# 3 72.4866 51.1438 157.8995 0.0000 -1.3551 0.0000
# 4 0.0000 0.0000 0.0000 25.5561 0.0000 5.9091
# 5 6.6122 -0.4208 -1.3551 0.0000 41.5496 0.0000
# 6 0.0000 0.0000 0.0000 5.9091 0.0000 12.6897
#
#
#
# Elastic Compliance Matrix: (Units=1/GPa)
#
#
# Indices 1 2 3 4 5 6 
#
# 1 0.009948 -0.003044 -0.003595 0.000000 -0.001731 0.000000
# 2 -0.003044 0.014055 -0.003150 0.000000 0.000524 0.000000
# 3 -0.003595 -0.003150 0.009011 0.000000 0.000834 0.000000
# 4 0.000000 0.000000 0.000000 0.043851 0.000000 -0.020420
# 5 -0.001731 0.000524 0.000834 0.000000 0.024376 0.000000
# 6 0.000000 0.000000 0.000000 -0.020420 0.000000 0.088313
#
#
# Mechanical properties :
#
#
# Convention : Reuss Voigt Hill
#
# Bulk Modulus (GPa) = 74.44139 81.52588 77.98363
# Shear Modulus (GPa) = 23.40701 30.78795 27.09748
#
# Velocity S-wave (km/s) = 3.34067 3.83134 3.59439
# Velocity P-wave (km/s) = 7.09736 7.64476 7.37614
#
# Compressibility (1/GPa) = 0.01343339
#
# Stress axis : x y z
#
# Youngs Moduli (GPa) = 100.52494 71.15118 110.97275
#
# Poissons Ratio (x) = 0.21661 0.39900
# Poissons Ratio (y) = 0.30604 0.34959
# Poissons Ratio (z) = 0.36143 0.22414
#
# Static dielectric constant tensor:
#      x y z
#    x 4.037860 0.000000 0.037980 
#    y 0.000000 3.991330 0.000000 
#    z 0.037980 0.000000 3.736290 
# 
# 
# High freq. dielectric constant tensor:
#      x y z
#    x 1.821570 0.000000 0.002860 
#    y 0.000000 1.830270 0.000000 
#    z 0.002860 0.000000 1.824570 
# 
# From -- ./inp_files/26822.got.cif
#   From: 2010.06.25/outbox.cif.g09.slc.cpg/sg10_14_cif.got.tgz:26822.got - 2010.06.27 22:07:45.
