data_PCOD8064855
_publ_section_title
;
Structure prediction by ZEFSAII (Michael W. Deem and Ramdas Pophale) SiO2 
 PCOD8064855
Probable space group: P 2/M
;
_chemical_formula_sum "Si O2"
_cell_formula_units_Z 20
_cell_length_a 15.456299
_cell_length_b 12.096432
_cell_length_c 12.137430
_cell_angle_alpha 90.000000
_cell_angle_beta 152.783233
_cell_angle_gamma 90.000000
_cell_volume 1037.877253
_symmetry_space_group_name_H-M "P 2/M"
_symmetry_group_IT_number 10
_symmetry_cell_setting 'monoclinic'
loop_
_space_group_symop_operation_xyz
x,y,z
-x,y,-z
-x,-y,-z
x,-y,z
loop_
_atom_site_type_symbol
_atom_site_label
_atom_site_fract_x
_atom_site_fract_y
_atom_site_fract_z
Si Si1 0.089758 0.000000 0.479090
Si Si2 0.637755 0.630617 0.255255
Si Si3 0.006405 0.234465 0.635747
Si Si4 0.584855 0.233213 0.833065
Si Si5 0.221394 0.000000 0.268768
Si Si6 0.500000 0.824962 0.500000
Si Si7 0.429786 0.000000 0.726216
O O1 0.026896 0.886782 0.346561
O O2 0.322536 0.000000 0.725047
O O3 0.000000 0.000000 0.500000
O O4 0.646415 0.500000 0.273333
O O5 0.849558 0.674912 0.484406
O O6 0.561457 0.681642 0.280972
O O7 0.500000 0.669142 0.000000
O O8 0.000000 0.213866 0.500000
O O9 0.206966 0.278777 0.903929
O O10 0.551762 0.246138 0.665488
O O11 0.559775 0.108805 0.854779
O O12 0.312659 0.105396 0.313456
O O13 0.264692 0.000000 0.447674
O O14 0.000000 0.000000 0.000000
#
# Coordination Sequence:
#
# PCOD8064855 Si02
#       7
#     2   4   4   4   2   2   2
#     4  10  21  33  54  91 127 153 188 237 298 365
#     4  11  24  42  63  88 117 154 204 254 300 352
#     4  11  22  38  60  91 119 159 197 240 301 358
#     4  11  22  40  62  88 127 156 200 245 297 356
#     4   9  19  33  56  83 119 162 207 239 278 342
#     4   9  22  36  55  92 118 160 199 241 296 354
#     4  10  20  36  59  87 126 163 193 240 296 356
#
# _framework density 19.270101
#
# number of rings (size 3 to 8) (size 9 to 14) (size 15 to 20)
#    0.000    1.600    4.000    1.200    2.800    1.200 
#    0.000    3.500    0.000    1.200    0.000    0.000 
#    0.000    0.000    0.000    0.000    0.000    0.000 
#
# Total GULP energy -247878.616503 kJ/mol
# GULP energy per Si atom -12393.930825 kJ/mol
# Density = 1.922624 g / cm^3
# Si number density = 19.270101 Si / 1000 Ang^3
#
#
#
# Elastic Constant Matrix: (Units=GPa)
#
#
# Indices 1 2 3 4 5 6 
#
# 1 114.8294 39.0793 53.7149 0.0000 3.9456 0.0000
# 2 39.0793 88.4187 34.4559 0.0000 4.5614 0.0000
# 3 53.7149 34.4559 132.0998 0.0000 16.7274 0.0000
# 4 0.0000 0.0000 0.0000 20.2411 0.0000 -6.8096
# 5 3.9456 4.5614 16.7274 0.0000 35.0749 0.0000
# 6 0.0000 0.0000 0.0000 -6.8096 0.0000 -0.7945
#
#
#
# Elastic Compliance Matrix: (Units=1/GPa)
#
#
# Indices 1 2 3 4 5 6 
#
# 1 0.011790 -0.003724 -0.003955 0.000000 0.001044 0.000000
# 2 -0.003724 0.013766 -0.002025 0.000000 -0.000406 0.000000
# 3 -0.003955 -0.002025 0.010235 0.000000 -0.004173 0.000000
# 4 0.000000 0.000000 0.000000 0.012722 0.000000 -0.109037
# 5 0.001044 -0.000406 -0.004173 0.000000 0.030436 0.000000
# 6 0.000000 0.000000 0.000000 -0.109037 0.000000 -0.324108
#
#
# Mechanical properties :
#
#
# Convention : Reuss Voigt Hill
#
# Bulk Modulus (GPa) = 61.03870 65.53867 63.28868
# Shear Modulus (GPa) = -22.69717 24.77749 1.04016
#
# Velocity S-wave (km/s) = -3.43570 3.58969 0.73549
# Velocity P-wave (km/s) = 4.00068 7.16000 5.79961
#
# Compressibility (1/GPa) = 0.01638305
#
# Stress axis : x y z
#
# Youngs Moduli (GPa) = 84.81740 72.64461 97.70519
#
# Poissons Ratio (x) = 0.27050 0.38643
# Poissons Ratio (y) = 0.31582 0.19786
# Poissons Ratio (z) = 0.33546 0.14711
#
# Static dielectric constant tensor:
#      x y z
#    x 3.684420 0.000000 0.103270 
#    y 0.000000 3.438040 0.000000 
#    z 0.103270 0.000000 3.370700 
# 
# 
# High freq. dielectric constant tensor:
#      x y z
#    x 1.758380 0.000000 0.018250 
#    y 0.000000 1.726850 0.000000 
#    z 0.018250 0.000000 1.743190 
# 
# From -- ./inp_files/51004.got.cif
#   From: 2010.06.25/outbox.cif.g09.slc.cpg/sg10_26_cif.got.tgz:51004.got - 2010.06.27 22:07:45.
