data_PCOD8064525
_publ_section_title
;
Structure prediction by ZEFSAII (Michael W. Deem and Ramdas Pophale) SiO2 
 PCOD8064525
Probable space group: P 2/M
;
_chemical_formula_sum "Si O2"
_cell_formula_units_Z 28
_cell_length_a 11.866478
_cell_length_b 13.609276
_cell_length_c 9.590796
_cell_angle_alpha 90.000000
_cell_angle_beta 67.141882
_cell_angle_gamma 90.000000
_cell_volume 1427.225268
_symmetry_space_group_name_H-M "P 2/M"
_symmetry_group_IT_number 10
_symmetry_cell_setting 'monoclinic'
loop_
_space_group_symop_operation_xyz
x,y,z
-x,y,-z
-x,-y,-z
x,-y,z
loop_
_atom_site_type_symbol
_atom_site_label
_atom_site_fract_x
_atom_site_fract_y
_atom_site_fract_z
Si Si1 0.709766 0.253450 0.617936
Si Si2 0.033646 0.110567 0.829605
Si Si3 0.783298 0.613333 0.102964
Si Si4 0.693294 0.887437 0.388209
Si Si5 0.117472 0.388140 0.645274
Si Si6 0.548175 0.710623 0.332995
Si Si7 0.883913 0.279626 0.785664
O O1 0.708806 0.147528 0.541526
O O2 0.777028 0.327760 0.480754
O O3 0.568712 0.282827 0.713088
O O4 0.773641 0.253992 0.736053
O O5 0.177677 0.124205 0.749078
O O6 0.960505 0.179875 0.760676
O O7 0.992815 0.000000 0.814091
O O8 0.000000 0.142065 0.000000
O O9 0.784946 0.500000 0.053477
O O10 0.871654 0.628980 0.193167
O O11 0.645916 0.641983 0.210972
O O12 0.828972 0.681486 0.956169
O O13 0.599201 0.819431 0.347340
O O14 0.647052 0.000000 0.407987
O O15 0.137891 0.500000 0.592691
O O16 0.978795 0.357410 0.671758
O O17 0.500000 0.661057 0.500000
#
# Coordination Sequence:
#
# PCOD8064525 Si02
#       7
#     4   4   4   4   4   4   4
#     4  11  24  38  57  90 123 160 197 245 306 356
#     4  10  20  35  61  90 119 158 199 245 300 359
#     4  11  23  40  65  90 115 159 211 253 297 356
#     4  10  20  38  64  92 119 157 208 251 297 361
#     4  11  22  39  62  86 116 160 206 246 295 359
#     4  10  20  40  62  87 119 156 204 252 295 353
#     4  12  23  38  58  87 130 155 191 252 305 362
#
# _framework density 19.618489
#
# number of rings (size 3 to 8) (size 9 to 14) (size 15 to 20)
#    0.000    1.286    4.286    3.000    0.000    7.429 
#    0.000    2.143    0.000    0.000    0.000    9.000 
#    0.000    0.000    0.000    0.000    0.000    0.000 
#
# Total GULP energy -347194.912860 kJ/mol
# GULP energy per Si atom -12399.818316 kJ/mol
# Density = 1.957384 g / cm^3
# Si number density = 19.618489 Si / 1000 Ang^3
#
#
#
# Elastic Constant Matrix: (Units=GPa)
#
#
# Indices 1 2 3 4 5 6 
#
# 1 122.0556 27.0862 17.1439 0.0000 2.2732 0.0000
# 2 27.0862 76.3163 20.7353 0.0000 3.9053 0.0000
# 3 17.1439 20.7353 48.9777 0.0000 -8.2555 0.0000
# 4 0.0000 0.0000 0.0000 13.2012 0.0000 -2.3346
# 5 2.2732 3.9053 -8.2555 0.0000 28.2422 0.0000
# 6 0.0000 0.0000 0.0000 -2.3346 0.0000 16.8227
#
#
#
# Elastic Compliance Matrix: (Units=1/GPa)
#
#
# Indices 1 2 3 4 5 6 
#
# 1 0.009100 -0.002557 -0.002279 0.000000 -0.001045 0.000000
# 2 -0.002557 0.015986 -0.006533 0.000000 -0.003914 0.000000
# 3 -0.002279 -0.006533 0.025416 0.000000 0.008516 0.000000
# 4 0.000000 0.000000 0.000000 0.077657 0.000000 0.010777
# 5 -0.001045 -0.003914 0.008516 0.000000 0.038523 0.000000
# 6 0.000000 0.000000 0.000000 0.010777 0.000000 0.060939
#
#
# Mechanical properties :
#
#
# Convention : Reuss Voigt Hill
#
# Bulk Modulus (GPa) = 36.01630 41.92002 38.96816
# Shear Modulus (GPa) = 19.25942 23.81217 21.53579
#
# Velocity S-wave (km/s) = 3.13660 3.48769 3.31679
# Velocity P-wave (km/s) = 5.61390 6.13454 5.87999
#
# Compressibility (1/GPa) = 0.02776521
#
# Stress axis : x y z
#
# Youngs Moduli (GPa) = 109.89005 62.55411 39.34484
#
# Poissons Ratio (x) = 0.15996 0.08966
# Poissons Ratio (y) = 0.28100 0.25703
# Poissons Ratio (z) = 0.25042 0.40864
#
# Static dielectric constant tensor:
#      x y z
#    x 3.712420 0.000000 -0.180960 
#    y 0.000000 3.691920 0.000000 
#    z -0.180960 0.000000 3.489730 
# 
# 
# High freq. dielectric constant tensor:
#      x y z
#    x 1.769780 0.000000 -0.019610 
#    y 0.000000 1.767550 0.000000 
#    z -0.019610 0.000000 1.753090 
# 
# From -- ./inp_files/24910.got.cif
#   From: 2010.06.25/outbox.cif.g09.slc.cpg/sg10_13_cif.got.tgz:24910.got - 2010.06.27 22:07:45.
