data_PCOD8064297
_publ_section_title
;
Structure prediction by ZEFSAII (Michael W. Deem and Ramdas Pophale) SiO2 
 PCOD8064297
Probable space group: P 2/M
;
_chemical_formula_sum "Si O2"
_cell_formula_units_Z 28
_cell_length_a 5.408905
_cell_length_b 9.479770
_cell_length_c 25.809132
_cell_angle_alpha 90.000000
_cell_angle_beta 71.620232
_cell_angle_gamma 90.000000
_cell_volume 1255.859355
_symmetry_space_group_name_H-M "P 2/M"
_symmetry_group_IT_number 10
_symmetry_cell_setting 'monoclinic'
loop_
_space_group_symop_operation_xyz
x,y,z
-x,y,-z
-x,-y,-z
x,-y,z
loop_
_atom_site_type_symbol
_atom_site_label
_atom_site_fract_x
_atom_site_fract_y
_atom_site_fract_z
Si Si1 0.832600 0.845105 0.149595
Si Si2 0.728571 0.154263 0.039631
Si Si3 0.943780 0.836242 0.707610
Si Si4 0.585576 0.344364 0.793853
Si Si5 0.459411 0.163321 0.357707
Si Si6 0.702333 0.665403 0.531805
Si Si7 0.683484 0.654184 0.903981
O O1 0.700202 0.867871 0.102872
O O2 0.652105 0.762998 0.203765
O O3 0.078374 0.753878 0.120972
O O4 0.898312 0.000000 0.169200
O O5 0.502051 0.267108 0.041754
O O6 0.685564 0.000000 0.015976
O O7 0.000000 0.217713 0.000000
O O8 0.854152 0.734754 0.760719
O O9 0.746759 0.799139 0.673650
O O10 0.242783 0.798017 0.676174
O O11 0.915185 0.000000 0.725211
O O12 0.563837 0.500000 0.768242
O O13 0.553473 0.369919 0.856905
O O14 0.384365 0.254734 0.411584
O O15 0.438331 0.000000 0.374287
O O16 0.500000 0.709105 0.500000
O O17 0.685372 0.500000 0.543974
O O18 0.000000 0.710104 0.500000
O O19 0.761535 0.500000 0.921451
#
# Coordination Sequence:
#
# PCOD8064297 Si02
#       7
#     4   4   4   4   4   4   4
#     4  10  20  35  57  80 105 141 183 230 282 340
#     4   9  19  36  55  77 105 139 182 228 278 340
#     4  10  22  39  58  85 119 156 197 246 298 354
#     4  10  22  38  56  80 109 145 189 235 285 346
#     4  10  22  39  59  87 121 155 199 247 294 350
#     4  10  21  37  59  87 119 156 199 244 293 350
#     4  10  21  36  54  79 110 141 181 231 282 346
#
# _framework density 22.295490999999998
#
# number of rings (size 3 to 8) (size 9 to 14) (size 15 to 20)
#    0.000    2.143    0.000    2.143    2.000    4.857 
#    0.000    2.857    0.000    0.000    0.000    0.000 
#    0.000    0.000    0.000    0.000    0.000    0.000 
#
# Total GULP energy -346957.494704 kJ/mol
# GULP energy per Si atom -12391.339097 kJ/mol
# Density = 2.224475 g / cm^3
# Si number density = 22.295491 Si / 1000 Ang^3
#
#
#
# Elastic Constant Matrix: (Units=GPa)
#
#
# Indices 1 2 3 4 5 6 
#
# 1 113.7447 30.9606 27.2053 0.0000 -31.6797 0.0000
# 2 30.9606 153.0697 40.8953 0.0000 -38.3919 0.0000
# 3 27.2053 40.8953 92.8992 0.0000 -28.1077 0.0000
# 4 0.0000 0.0000 0.0000 54.2643 0.0000 -14.5222
# 5 -31.6797 -38.3919 -28.1077 0.0000 44.0069 0.0000
# 6 0.0000 0.0000 0.0000 -14.5222 0.0000 22.6887
#
#
#
# Elastic Compliance Matrix: (Units=1/GPa)
#
#
# Indices 1 2 3 4 5 6 
#
# 1 0.011079 -0.000172 -0.000993 0.000000 0.007191 0.000000
# 2 -0.000172 0.008623 -0.001868 0.000000 0.006206 0.000000
# 3 -0.000993 -0.001868 0.013843 0.000000 0.006497 0.000000
# 4 0.000000 0.000000 0.000000 0.022237 0.000000 0.014233
# 5 0.007191 0.006206 0.006497 0.000000 0.037465 0.000000
# 6 0.000000 0.000000 0.000000 0.014233 0.000000 0.053185
#
#
# Mechanical properties :
#
#
# Convention : Reuss Voigt Hill
#
# Bulk Modulus (GPa) = 36.39036 61.98178 49.18607
# Shear Modulus (GPa) = 30.92943 41.56883 36.24913
#
# Velocity S-wave (km/s) = 3.72862 4.32261 4.03656
# Velocity P-wave (km/s) = 5.90712 7.26456 6.62072
#
# Compressibility (1/GPa) = 0.02747981
#
# Stress axis : x y z
#
# Youngs Moduli (GPa) = 90.26284 115.96317 72.23697
#
# Poissons Ratio (x) = 0.01994 0.07173
# Poissons Ratio (y) = 0.01552 0.13494
# Poissons Ratio (z) = 0.08962 0.21662
#
# Static dielectric constant tensor:
#      x y z
#    x 4.265820 0.000000 0.049830 
#    y 0.000000 4.559280 0.000000 
#    z 0.049830 0.000000 4.086390 
# 
# 
# High freq. dielectric constant tensor:
#      x y z
#    x 1.876490 0.000000 -0.012300 
#    y 0.000000 1.888420 0.000000 
#    z -0.012300 0.000000 1.868610 
# 
# From -- ./inp_files/13570.got.cif
#   From: 2010.06.25/outbox.cif.g09.slc.cpg/sg10_7_cif.got.tgz:13570.got - 2010.06.27 22:07:45.
