data_PCOD8064460
_publ_section_title
;
Structure prediction by ZEFSAII (Michael W. Deem and Ramdas Pophale) SiO2 
 PCOD8064460
Probable space group: P 2/M
;
_chemical_formula_sum "Si O2"
_cell_formula_units_Z 22
_cell_length_a 19.660593
_cell_length_b 9.493696
_cell_length_c 9.179819
_cell_angle_alpha 90.000000
_cell_angle_beta 141.749639
_cell_angle_gamma 90.000000
_cell_volume 1060.781855
_symmetry_space_group_name_H-M "P 2/M"
_symmetry_group_IT_number 10
_symmetry_cell_setting 'monoclinic'
loop_
_space_group_symop_operation_xyz
x,y,z
-x,y,-z
-x,-y,-z
x,-y,z
loop_
_atom_site_type_symbol
_atom_site_label
_atom_site_fract_x
_atom_site_fract_y
_atom_site_fract_z
Si Si1 0.454613 0.834699 0.273284
Si Si2 0.000000 0.733088 0.000000
Si Si3 0.206817 0.832557 0.806085
Si Si4 0.197100 0.657933 0.518566
Si Si5 0.843617 0.840043 0.967180
Si Si6 0.338888 0.166313 0.556177
O O1 0.500000 0.765669 0.500000
O O2 0.535699 0.798885 0.274781
O O3 0.449476 0.000000 0.289642
O O4 0.333438 0.782103 0.030713
O O5 0.901273 0.642873 0.765215
O O6 0.952724 0.826384 0.053251
O O7 0.153042 0.743795 0.584561
O O8 0.192898 0.000000 0.752749
O O9 0.145429 0.778545 0.850658
O O10 0.233971 0.500000 0.622089
O O11 0.302161 0.744646 0.634972
O O12 0.737483 0.779350 0.705213
O O13 0.814797 0.000000 0.947848
O O14 0.321479 0.000000 0.560623
#
# Coordination Sequence:
#
# PCOD8064460 Si02
#       6
#     4   2   4   4   4   4
#     4   9  15  29  58  90 118 146 180 220 268 327
#     4  10  22  40  60  78 101 148 193 234 283 340
#     4  10  20  35  58  89 119 145 179 227 277 329
#     4  11  24  41  56  77 110 150 192 237 279 328
#     4   9  17  32  58  89 115 139 178 232 282 328
#     4   9  17  33  59  87 113 147 186 225 269 325
#
# _framework density 20.739418000000001
#
# number of rings (size 3 to 8) (size 9 to 14) (size 15 to 20)
#    0.000    2.364    1.818    1.091    0.000    3.636 
#    0.000   11.818    0.000    1.091    0.000    0.000 
#    0.000    0.000    0.000    0.000    0.000    0.000 
#
# Total GULP energy -272613.592093 kJ/mol
# GULP energy per Si atom -12391.526913 kJ/mol
# Density = 2.069221 g / cm^3
# Si number density = 20.739418 Si / 1000 Ang^3
#
#
#
# Elastic Constant Matrix: (Units=GPa)
#
#
# Indices 1 2 3 4 5 6 
#
# 1 157.6109 44.2306 37.3152 0.0000 -15.4792 0.0000
# 2 44.2306 76.5726 22.8577 0.0000 -15.9805 0.0000
# 3 37.3152 22.8577 60.0822 0.0000 -9.5183 0.0000
# 4 0.0000 0.0000 0.0000 13.4033 0.0000 -1.5271
# 5 -15.4792 -15.9805 -9.5183 0.0000 37.7962 0.0000
# 6 0.0000 0.0000 0.0000 -1.5271 0.0000 1.3770
#
#
#
# Elastic Compliance Matrix: (Units=1/GPa)
#
#
# Indices 1 2 3 4 5 6 
#
# 1 0.008288 -0.003486 -0.003663 0.000000 0.000998 0.000000
# 2 -0.003486 0.017173 -0.003587 0.000000 0.004930 0.000000
# 3 -0.003663 -0.003587 0.020629 0.000000 0.002178 0.000000
# 4 0.000000 0.000000 0.000000 0.085398 0.000000 0.094703
# 5 0.000998 0.004930 0.002178 0.000000 0.029499 0.000000
# 6 0.000000 0.000000 0.000000 0.094703 0.000000 0.831225
#
#
# Mechanical properties :
#
#
# Convention : Reuss Voigt Hill
#
# Bulk Modulus (GPa) = 40.62241 55.89696 48.25969
# Shear Modulus (GPa) = 4.89289 23.17278 14.03284
#
# Velocity S-wave (km/s) = 1.53764 3.34628 2.60403
# Velocity P-wave (km/s) = 4.77305 6.47616 5.68870
#
# Compressibility (1/GPa) = 0.02461696
#
# Stress axis : x y z
#
# Youngs Moduli (GPa) = 120.65231 58.23225 48.47576
#
# Poissons Ratio (x) = 0.20298 0.17758
# Poissons Ratio (y) = 0.42056 0.17390
# Poissons Ratio (z) = 0.44199 0.20890
#
# Static dielectric constant tensor:
#      x y z
#    x 4.051490 0.000000 -0.128770 
#    y 0.000000 3.149140 0.000000 
#    z -0.128770 0.000000 3.768180 
# 
# 
# High freq. dielectric constant tensor:
#      x y z
#    x 1.827340 0.000000 -0.007680 
#    y 0.000000 1.747630 0.000000 
#    z -0.007680 0.000000 1.806650 
# 
# From -- ./inp_files/27592.got.cif
#   From: 2010.06.25/outbox.cif.g09.slc.cpg/sg10_14_cif.got.tgz:27592.got - 2010.06.27 22:07:45.
