data_PCOD8064140
_publ_section_title
;
Structure prediction by ZEFSAII (Michael W. Deem and Ramdas Pophale) SiO2 
 PCOD8064140
Probable space group: P 2/M
;
_chemical_formula_sum "Si O2"
_cell_formula_units_Z 32
_cell_length_a 15.447982
_cell_length_b 8.662501
_cell_length_c 21.356837
_cell_angle_alpha 90.000000
_cell_angle_beta 145.237760
_cell_angle_gamma 90.000000
_cell_volume 1629.513949
_symmetry_space_group_name_H-M "P 2/M"
_symmetry_group_IT_number 10
_symmetry_cell_setting 'monoclinic'
loop_
_space_group_symop_operation_xyz
x,y,z
-x,y,-z
-x,-y,-z
x,-y,z
loop_
_atom_site_type_symbol
_atom_site_label
_atom_site_fract_x
_atom_site_fract_y
_atom_site_fract_z
Si Si1 0.980192 0.817268 0.919802
Si Si2 0.799218 0.682541 0.431238
Si Si3 0.868020 0.682184 0.334063
Si Si4 0.186855 0.320956 0.349081
Si Si5 0.667839 0.818729 0.675429
Si Si6 0.879391 0.819007 0.121713
Si Si7 0.673069 0.682859 0.100888
Si Si8 0.361134 0.819778 0.558247
O O1 0.816208 0.762069 0.800002
O O2 0.108205 0.767318 0.944538
O O3 0.984051 0.000000 0.927982
O O4 0.000000 0.740445 0.000000
O O5 0.780642 0.500000 0.427883
O O6 0.787093 0.729124 0.351055
O O7 0.661220 0.773860 0.382527
O O8 0.957870 0.739794 0.557196
O O9 0.870660 0.500000 0.328555
O O10 0.774471 0.751895 0.218995
O O11 0.146367 0.500000 0.317559
O O12 0.328072 0.269719 0.388627
O O13 0.236682 0.283480 0.448822
O O14 0.039396 0.219357 0.248433
O O15 0.527305 0.768871 0.634504
O O16 0.667130 0.000000 0.660481
O O17 0.743958 0.731151 0.076309
O O18 0.849166 0.000000 0.109479
O O19 0.672136 0.500000 0.104793
O O20 0.500000 0.746241 0.000000
O O21 0.334202 0.000000 0.530546
#
# Coordination Sequence:
#
# PCOD8064140 Si02
#       8
#     4   4   4   4   4   4   4   4
#     4   8  15  32  56  76  97 135 181 218 258 316
#     4   9  17  32  54  74  96 133 183 224 259 316
#     4   8  16  33  54  73  96 134 180 223 266 315
#     4  11  21  33  53  77 103 138 178 217 259 316
#     4   9  19  34  50  72 105 140 173 214 263 312
#     4  10  20  35  56  82 107 137 179 226 271 317
#     4  10  20  35  55  79 110 146 182 223 274 327
#     4  11  21  32  47  75 111 140 169 211 266 318
#
# _framework density 19.637758999999999
#
# number of rings (size 3 to 8) (size 9 to 14) (size 15 to 20)
#    0.000    2.500    0.000    4.500    0.000    3.750 
#    2.250    1.875    0.000    9.375    0.000    0.000 
#    0.000    0.000    0.000    0.000    0.000    0.000 
#
# Total GULP energy -396622.753767 kJ/mol
# GULP energy per Si atom -12394.461055 kJ/mol
# Density = 1.959306 g / cm^3
# Si number density = 19.637759 Si / 1000 Ang^3
#
#
#
# Elastic Constant Matrix: (Units=GPa)
#
#
# Indices 1 2 3 4 5 6 
#
# 1 157.0503 15.3580 42.6390 0.0000 -0.8403 0.0000
# 2 15.3580 22.8030 7.7956 0.0000 -0.8626 0.0000
# 3 42.6390 7.7956 62.1034 0.0000 -9.8920 0.0000
# 4 0.0000 0.0000 0.0000 13.7423 0.0000 -0.2148
# 5 -0.8403 -0.8626 -9.8920 0.0000 29.6698 0.0000
# 6 0.0000 0.0000 0.0000 -0.2148 0.0000 33.5087
#
#
#
# Elastic Compliance Matrix: (Units=1/GPa)
#
#
# Indices 1 2 3 4 5 6 
#
# 1 0.008197 -0.003729 -0.005428 0.000000 -0.001686 0.000000
# 2 -0.003729 0.047527 -0.003382 0.000000 0.000148 0.000000
# 3 -0.005428 -0.003382 0.021347 0.000000 0.006865 0.000000
# 4 0.000000 0.000000 0.000000 0.072776 0.000000 0.000466
# 5 -0.001686 0.000148 0.006865 0.000000 0.035950 0.000000
# 6 0.000000 0.000000 0.000000 0.000466 0.000000 0.029846
#
#
# Mechanical properties :
#
#
# Convention : Reuss Voigt Hill
#
# Bulk Modulus (GPa) = 19.23343 41.50464 30.36903
# Shear Modulus (GPa) = 19.37599 27.12843 23.25221
#
# Velocity S-wave (km/s) = 3.14454 3.72081 3.44475
# Velocity P-wave (km/s) = 4.79578 6.29605 5.59642
#
# Compressibility (1/GPa) = 0.05199282
#
# Stress axis : x y z
#
# Youngs Moduli (GPa) = 121.99944 21.04065 46.84457
#
# Poissons Ratio (x) = 0.07845 0.25428
# Poissons Ratio (y) = 0.45489 0.15844
# Poissons Ratio (z) = 0.66225 0.07116
#
# Static dielectric constant tensor:
#      x y z
#    x 3.978160 0.000000 -0.188620 
#    y 0.000000 3.181150 0.000000 
#    z -0.188620 0.000000 3.682140 
# 
# 
# High freq. dielectric constant tensor:
#      x y z
#    x 1.785630 0.000000 -0.006780 
#    y 0.000000 1.731910 0.000000 
#    z -0.006780 0.000000 1.742200 
# 
# From -- ./inp_files/84757.got.cif
#   From: 2010.06.25/outbox.cif.g09.slc.cpg/sg10_43_cif.got.tgz:84757.got - 2010.06.27 22:07:45.
