data_PCOD8064434
_publ_section_title
;
Structure prediction by ZEFSAII (Michael W. Deem and Ramdas Pophale) SiO2 
 PCOD8064434
Probable space group: P 2/M
;
_chemical_formula_sum "Si O2"
_cell_formula_units_Z 30
_cell_length_a 13.950503
_cell_length_b 18.178259
_cell_length_c 11.508903
_cell_angle_alpha 90.000000
_cell_angle_beta 147.687802
_cell_angle_gamma 90.000000
_cell_volume 1560.091348
_symmetry_space_group_name_H-M "P 2/M"
_symmetry_group_IT_number 10
_symmetry_cell_setting 'monoclinic'
loop_
_space_group_symop_operation_xyz
x,y,z
-x,y,-z
-x,-y,-z
x,-y,z
loop_
_atom_site_type_symbol
_atom_site_label
_atom_site_fract_x
_atom_site_fract_y
_atom_site_fract_z
Si Si1 0.970649 0.318276 0.350088
Si Si2 0.000000 0.178962 0.500000
Si Si3 0.969516 0.084943 0.682055
Si Si4 0.710499 0.690568 0.493991
Si Si5 0.299705 0.848267 0.422615
Si Si6 0.789220 0.415765 0.773123
Si Si7 0.311683 0.321646 0.117364
Si Si8 0.712507 0.843650 0.855538
O O1 0.166624 0.308850 0.493852
O O2 0.000000 0.365192 0.500000
O O3 0.886086 0.237763 0.303667
O O4 0.830865 0.356107 0.119814
O O5 0.905466 0.126668 0.498293
O O6 0.817617 0.096749 0.621729
O O7 0.986319 0.000000 0.668050
O O8 0.162175 0.111481 0.927956
O O9 0.754846 0.763398 0.613585
O O10 0.743515 0.618034 0.602449
O O11 0.500865 0.687235 0.245683
O O12 0.505202 0.860354 0.671232
O O13 0.255723 0.868204 0.244726
O O14 0.727702 0.500000 0.712453
O O15 0.679072 0.374947 0.762246
O O16 0.000000 0.406509 0.000000
O O17 0.241211 0.242619 0.087879
#
# Coordination Sequence:
#
# PCOD8064434 Si02
#       8
#     4   2   4   4   4   4   4   4
#     4  10  20  37  59  84 113 146 200 252 285 331
#     4  10  21  40  60  82 109 150 194 256 291 338
#     4  12  24  39  57  79 113 155 192 242 305 349
#     4  11  20  35  62  88 118 157 193 240 289 340
#     4  10  20  35  58  86 112 147 194 238 286 348
#     4  11  23  37  61  98 133 160 184 226 290 351
#     4  11  20  35  62  88 118 157 193 240 289 340
#     4  10  20  35  58  86 112 147 194 238 286 348
#
# _framework density 19.229644
#
# number of rings (size 3 to 8) (size 9 to 14) (size 15 to 20)
#    0.400    0.933    5.333    1.000    0.000    3.200 
#    0.000    3.333    0.000    3.200    0.000    1.867 
#    0.000    0.000    0.000    0.000    0.000    0.000 
#
# Total GULP energy -371754.500178 kJ/mol
# GULP energy per Si atom -12391.816673 kJ/mol
# Density = 1.918588 g / cm^3
# Si number density = 19.229644 Si / 1000 Ang^3
#
#
#
# Elastic Constant Matrix: (Units=GPa)
#
#
# Indices 1 2 3 4 5 6 
#
# 1 112.2249 21.1256 49.8996 0.0000 -5.2216 0.0000
# 2 21.1256 75.3609 15.1203 0.0000 -3.3632 0.0000
# 3 49.8996 15.1203 60.9821 0.0000 2.4368 0.0000
# 4 0.0000 0.0000 0.0000 22.0790 0.0000 -3.5203
# 5 -5.2216 -3.3632 2.4368 0.0000 26.9928 0.0000
# 6 0.0000 0.0000 0.0000 -3.5203 0.0000 18.1847
#
#
#
# Elastic Compliance Matrix: (Units=1/GPa)
#
#
# Indices 1 2 3 4 5 6 
#
# 1 0.014572 -0.001577 -0.011679 0.000000 0.003677 0.000000
# 2 -0.001577 0.014250 -0.002310 0.000000 0.001679 0.000000
# 3 -0.011679 -0.002310 0.026726 0.000000 -0.004960 0.000000
# 4 0.000000 0.000000 0.000000 0.046734 0.000000 0.009047
# 5 0.003677 0.001679 -0.004960 0.000000 0.038415 0.000000
# 6 0.000000 0.000000 0.000000 0.009047 0.000000 0.056743
#
#
# Mechanical properties :
#
#
# Convention : Reuss Voigt Hill
#
# Bulk Modulus (GPa) = 40.95852 46.76208 43.86030
# Shear Modulus (GPa) = 21.12280 24.27947 22.70113
#
# Velocity S-wave (km/s) = 3.31788 3.55717 3.43961
# Velocity P-wave (km/s) = 6.00198 6.42198 6.21552
#
# Compressibility (1/GPa) = 0.02441495
#
# Stress axis : x y z
#
# Youngs Moduli (GPa) = 68.62563 70.17556 37.41677
#
# Poissons Ratio (x) = 0.11070 0.43701
# Poissons Ratio (y) = 0.10825 0.08642
# Poissons Ratio (z) = 0.80151 0.16207
#
# Static dielectric constant tensor:
#      x y z
#    x 3.663060 0.000000 -0.038530 
#    y 0.000000 3.326740 0.000000 
#    z -0.038530 0.000000 3.534790 
# 
# 
# High freq. dielectric constant tensor:
#      x y z
#    x 1.752340 0.000000 -0.001040 
#    y 0.000000 1.724960 0.000000 
#    z -0.001040 0.000000 1.741320 
# 
# From -- ./inp_files/51898.got.cif
#   From: 2010.06.25/outbox.cif.g09.slc.cpg/sg10_26_cif.got.tgz:51898.got - 2010.06.27 22:07:45.
