data_PCOD8064079
_publ_section_title
;
Structure prediction by ZEFSAII (Michael W. Deem and Ramdas Pophale) SiO2 
 PCOD8064079
Probable space group: P 2/M
;
_chemical_formula_sum "Si O2"
_cell_formula_units_Z 32
_cell_length_a 29.964667
_cell_length_b 8.951089
_cell_length_c 12.518075
_cell_angle_alpha 90.000000
_cell_angle_beta 151.420067
_cell_angle_gamma 90.000000
_cell_volume 1606.200748
_symmetry_space_group_name_H-M "P 2/M"
_symmetry_group_IT_number 10
_symmetry_cell_setting 'monoclinic'
loop_
_space_group_symop_operation_xyz
x,y,z
-x,y,-z
-x,-y,-z
x,-y,z
loop_
_atom_site_type_symbol
_atom_site_label
_atom_site_fract_x
_atom_site_fract_y
_atom_site_fract_z
Si Si1 0.600593 0.671330 0.179110
Si Si2 0.098660 0.824228 0.656120
Si Si3 0.364103 0.823869 0.962573
Si Si4 0.766963 0.670969 0.677320
Si Si5 0.179403 0.322491 0.625025
Si Si6 0.257283 0.823611 0.154715
Si Si7 0.462769 0.177078 0.533890
Si Si8 0.102967 0.322196 0.237313
O O1 0.597344 0.500000 0.131898
O O2 0.642713 0.770955 0.173615
O O3 0.661801 0.686203 0.413932
O O4 0.500000 0.733045 0.000000
O O5 0.109035 0.736243 0.567205
O O6 0.000000 0.778015 0.500000
O O7 0.102354 0.000000 0.640914
O O8 0.183268 0.772941 0.910239
O O9 0.282149 0.746803 0.858817
O O10 0.349793 0.000000 0.940347
O O11 0.464196 0.775206 0.220867
O O12 0.792794 0.500000 0.756841
O O13 0.779865 0.764322 0.811061
O O14 0.833740 0.738320 0.726178
O O15 0.185605 0.500000 0.643118
O O16 0.140484 0.263985 0.429632
O O17 0.359991 0.756804 0.343573
O O18 0.262231 0.000000 0.173228
O O19 0.500000 0.242668 0.500000
O O20 0.454942 0.000000 0.509122
O O21 0.105686 0.500000 0.243808
O O22 0.000000 0.259531 0.000000
#
# Coordination Sequence:
#
# PCOD8064079 Si02
#       8
#     4   4   4   4   4   4   4   4
#     4  10  20  35  54  79 115 155 190 231 284 337
#     4  10  23  42  62  86 119 154 189 238 297 345
#     4  11  21  34  57  85 114 149 190 238 289 342
#     4  10  20  36  57  82 116 151 188 233 284 339
#     4  11  22  39  63  88 116 150 196 242 287 348
#     4  10  21  38  59  84 117 152 191 238 285 343
#     4   9  18  34  56  80 108 149 194 232 280 340
#     4   9  19  36  58  83 111 148 189 235 286 337
#
# _framework density 19.922792000000001
#
# number of rings (size 3 to 8) (size 9 to 14) (size 15 to 20)
#    0.000    2.000    1.250    2.250    1.750    3.500 
#    0.000    0.625    0.000    4.500    0.000    0.000 
#    0.000    0.000    0.000    0.000    0.000    0.000 
#
# Total GULP energy -396884.464215 kJ/mol
# GULP energy per Si atom -12402.639507 kJ/mol
# Density = 1.987745 g / cm^3
# Si number density = 19.922792 Si / 1000 Ang^3
#
#
#
# Elastic Constant Matrix: (Units=GPa)
#
#
# Indices 1 2 3 4 5 6 
#
# 1 153.3127 33.5976 61.3672 0.0000 3.4808 0.0000
# 2 33.5976 37.0523 28.4873 0.0000 0.3815 0.0000
# 3 61.3672 28.4873 117.8972 0.0000 12.1571 0.0000
# 4 0.0000 0.0000 0.0000 14.3190 0.0000 -0.8543
# 5 3.4808 0.3815 12.1571 0.0000 40.6046 0.0000
# 6 0.0000 0.0000 0.0000 -0.8543 0.0000 35.2744
#
#
#
# Elastic Compliance Matrix: (Units=1/GPa)
#
#
# Indices 1 2 3 4 5 6 
#
# 1 0.009120 -0.005649 -0.003412 0.000000 0.000293 0.000000
# 2 -0.005649 0.036829 -0.006163 0.000000 0.001983 0.000000
# 3 -0.003412 -0.006163 0.012084 0.000000 -0.003268 0.000000
# 4 0.000000 0.000000 0.000000 0.069938 0.000000 0.001694
# 5 0.000293 0.001983 -0.003268 0.000000 0.025562 0.000000
# 6 0.000000 0.000000 0.000000 0.001694 0.000000 0.028390
#
#
# Mechanical properties :
#
#
# Convention : Reuss Voigt Hill
#
# Bulk Modulus (GPa) = 36.25224 61.68516 48.96870
# Shear Modulus (GPa) = 22.56650 30.36027 26.46339
#
# Velocity S-wave (km/s) = 3.36921 3.90795 3.64853
# Velocity P-wave (km/s) = 5.77679 7.16883 6.51012
#
# Compressibility (1/GPa) = 0.02758450
#
# Stress axis : x y z
#
# Youngs Moduli (GPa) = 109.65239 27.15235 82.75276
#
# Poissons Ratio (x) = 0.15338 0.28237
# Poissons Ratio (y) = 0.61943 0.51001
# Poissons Ratio (z) = 0.37416 0.16734
#
# Static dielectric constant tensor:
#      x y z
#    x 3.738010 0.000000 0.142460 
#    y 0.000000 3.242010 0.000000 
#    z 0.142460 0.000000 3.812450 
# 
# 
# High freq. dielectric constant tensor:
#      x y z
#    x 1.789020 0.000000 0.004890 
#    y 0.000000 1.742060 0.000000 
#    z 0.004890 0.000000 1.787530 
# 
# From -- ./inp_files/58226.got.cif
#   From: 2010.06.25/outbox.cif.g09.slc.cpg/sg10_30_cif.got.tgz:58226.got - 2010.06.27 22:07:45.
