data_PCOD8064540
_publ_section_title
;
Structure prediction by ZEFSAII (Michael W. Deem and Ramdas Pophale) SiO2 
 PCOD8064540
Probable space group: P 2/M
;
_chemical_formula_sum "Si O2"
_cell_formula_units_Z 26
_cell_length_a 21.293018
_cell_length_b 9.926428
_cell_length_c 8.295529
_cell_angle_alpha 90.000000
_cell_angle_beta 129.797521
_cell_angle_gamma 90.000000
_cell_volume 1347.136113
_symmetry_space_group_name_H-M "P 2/M"
_symmetry_group_IT_number 10
_symmetry_cell_setting 'monoclinic'
loop_
_space_group_symop_operation_xyz
x,y,z
-x,y,-z
-x,-y,-z
x,-y,z
loop_
_atom_site_type_symbol
_atom_site_label
_atom_site_fract_x
_atom_site_fract_y
_atom_site_fract_z
Si Si1 0.407337 0.156112 0.812112
Si Si2 0.270017 0.349111 0.708089
Si Si3 0.769022 0.648287 0.988098
Si Si4 0.000000 0.753614 0.000000
Si Si5 0.829802 0.854256 0.640698
Si Si6 0.685296 0.146658 0.649697
Si Si7 0.049256 0.655831 0.735994
O O1 0.350362 0.257512 0.818317
O O2 0.390477 0.177323 0.594057
O O3 0.388534 0.000000 0.828934
O O4 0.500000 0.195463 0.000000
O O5 0.280746 0.500000 0.648775
O O6 0.250168 0.368163 0.858806
O O7 0.191212 0.272908 0.505685
O O8 0.765886 0.500000 0.900241
O O9 0.858414 0.716219 0.107528
O O10 0.694712 0.738603 0.798246
O O11 0.993866 0.671083 0.159265
O O12 0.079015 0.846403 0.142407
O O13 0.769023 0.851086 0.689553
O O14 0.820416 0.000000 0.535990
O O15 0.672417 0.000000 0.710486
O O16 0.059376 0.500000 0.712906
O O17 0.000000 0.720092 0.500000
#
# Coordination Sequence:
#
# PCOD8064540 Si02
#       7
#     4   4   4   2   4   4   4
#     4   9  19  38  62  87 115 144 179 227 281 339
#     4  10  21  36  58  83 111 147 188 230 283 342
#     4  10  20  36  53  76 111 149 186 234 285 335
#     4  12  20  34  58  78 109 154 201 248 305 344
#     4  10  21  36  54  78 110 146 190 240 289 340
#     4   9  18  34  55  79 106 142 183 225 275 338
#     4  10  21  35  51  78 115 152 198 251 296 349
#
# _framework density 19.300201000000001
#
# number of rings (size 3 to 8) (size 9 to 14) (size 15 to 20)
#    0.000    2.154    1.538    2.769    0.000    6.462 
#    0.000    0.769    0.000    6.923    0.000    0.000 
#    0.000    0.000    0.000    0.000    0.000    0.000 
#
# Total GULP energy -322131.869601 kJ/mol
# GULP energy per Si atom -12389.687292 kJ/mol
# Density = 1.925627 g / cm^3
# Si number density = 19.300201 Si / 1000 Ang^3
#
#
#
# Elastic Constant Matrix: (Units=GPa)
#
#
# Indices 1 2 3 4 5 6 
#
# 1 46.1027 23.1444 35.9440 0.0000 1.7040 0.0000
# 2 23.1444 110.5415 49.2238 0.0000 4.5973 0.0000
# 3 35.9440 49.2238 116.6003 0.0000 17.3054 0.0000
# 4 0.0000 0.0000 0.0000 26.1616 0.0000 -2.6389
# 5 1.7040 4.5973 17.3054 0.0000 38.4586 0.0000
# 6 0.0000 0.0000 0.0000 -2.6389 0.0000 11.5491
#
#
#
# Elastic Compliance Matrix: (Units=1/GPa)
#
#
# Indices 1 2 3 4 5 6 
#
# 1 0.029417 -0.002528 -0.008414 0.000000 0.002785 0.000000
# 2 -0.002528 0.011383 -0.004116 0.000000 0.000603 0.000000
# 3 -0.008414 -0.004116 0.013694 0.000000 -0.005297 0.000000
# 4 0.000000 0.000000 0.000000 0.039126 0.000000 0.008940
# 5 0.002785 0.000603 -0.005297 0.000000 0.028190 0.000000
# 6 0.000000 0.000000 0.000000 0.008940 0.000000 0.088630
#
#
# Mechanical properties :
#
#
# Convention : Reuss Voigt Hill
#
# Bulk Modulus (GPa) = 41.02088 54.42987 47.72538
# Shear Modulus (GPa) = 20.10597 26.22934 23.16765
#
# Velocity S-wave (km/s) = 3.23112 3.69049 3.46841
# Velocity P-wave (km/s) = 5.93468 6.81341 6.38917
#
# Compressibility (1/GPa) = 0.02437783
#
# Stress axis : x y z
#
# Youngs Moduli (GPa) = 33.99367 87.84760 73.02525
#
# Poissons Ratio (x) = 0.22209 0.61447
# Poissons Ratio (y) = 0.08594 0.30056
# Poissons Ratio (z) = 0.28604 0.36156
#
# Static dielectric constant tensor:
#      x y z
#    x 3.235960 0.000000 0.150670 
#    y 0.000000 3.840980 0.000000 
#    z 0.150670 0.000000 3.867700 
# 
# 
# High freq. dielectric constant tensor:
#      x y z
#    x 1.725780 0.000000 0.005930 
#    y 0.000000 1.748840 0.000000 
#    z 0.005930 0.000000 1.753880 
# 
# From -- ./inp_files/31589.got.cif
#   From: 2010.06.25/outbox.cif.g09.slc.cpg/sg10_16_cif.got.tgz:31589.got - 2010.06.27 22:07:45.
