data_PCOD8064878
_publ_section_title
;
Structure prediction by ZEFSAII (Michael W. Deem and Ramdas Pophale) SiO2 
 PCOD8064878
Probable space group: P 2/M
;
_chemical_formula_sum "Si O2"
_cell_formula_units_Z 24
_cell_length_a 12.243859
_cell_length_b 8.945823
_cell_length_c 24.146229
_cell_angle_alpha 90.000000
_cell_angle_beta 153.140332
_cell_angle_gamma 90.000000
_cell_volume 1194.925241
_symmetry_space_group_name_H-M "P 2/M"
_symmetry_group_IT_number 10
_symmetry_cell_setting 'monoclinic'
loop_
_space_group_symop_operation_xyz
x,y,z
-x,y,-z
-x,-y,-z
x,-y,z
loop_
_atom_site_type_symbol
_atom_site_label
_atom_site_fract_x
_atom_site_fract_y
_atom_site_fract_z
Si Si1 0.959236 0.669513 0.419996
Si Si2 0.361625 0.667451 0.516115
Si Si3 0.152375 0.825141 0.240823
Si Si4 0.392910 0.823807 0.819253
Si Si5 0.919706 0.176499 0.023230
Si Si6 0.932666 0.675578 0.240700
O O1 0.855330 0.500000 0.370812
O O2 0.775095 0.782574 0.308400
O O3 0.000000 0.727533 0.500000
O O4 0.219241 0.674241 0.509016
O O5 0.463948 0.500000 0.552075
O O6 0.580884 0.781883 0.618868
O O7 0.182713 0.714400 0.385559
O O8 0.952106 0.742643 0.188008
O O9 0.111219 0.779347 0.157922
O O10 0.113994 0.000000 0.231813
O O11 0.296297 0.746285 0.831417
O O12 0.390106 0.000000 0.827685
O O13 0.659048 0.762809 0.924763
O O14 0.902614 0.000000 0.008485
O O15 0.000000 0.246560 0.000000
O O16 0.888111 0.500000 0.218369
#
# Coordination Sequence:
#
# PCOD8064878 Si02
#       6
#     4   4   4   4   4   4
#     4   9  19  35  55  80 115 154 186 226 285 340
#     4   9  19  35  54  80 115 152 183 223 285 342
#     4  11  22  35  58  86 113 148 193 237 276 332
#     4  10  20  36  60  84 110 145 193 240 275 329
#     4   9  21  40  57  79 116 155 185 228 290 335
#     4  10  21  39  60  82 117 152 181 229 294 347
#
# _framework density 20.084938000000001
#
# number of rings (size 3 to 8) (size 9 to 14) (size 15 to 20)
#    0.000    2.333    0.000    3.000    2.333    6.333 
#    0.000    6.667    0.000    4.000    0.000    0.000 
#    0.000    0.000    0.000    0.000    0.000    0.000 
#
# Total GULP energy -297600.880667 kJ/mol
# GULP energy per Si atom -12400.036694 kJ/mol
# Density = 2.003922 g / cm^3
# Si number density = 20.084938 Si / 1000 Ang^3
#
#
#
# Elastic Constant Matrix: (Units=GPa)
#
#
# Indices 1 2 3 4 5 6 
#
# 1 143.7451 44.1141 52.9663 0.0000 -11.0480 0.0000
# 2 44.1141 72.0082 31.1452 0.0000 4.2583 0.0000
# 3 52.9663 31.1452 61.4052 0.0000 15.5744 0.0000
# 4 0.0000 0.0000 0.0000 9.5857 0.0000 -0.7307
# 5 -11.0480 4.2583 15.5744 0.0000 29.5126 0.0000
# 6 0.0000 0.0000 0.0000 -0.7307 0.0000 29.7644
#
#
#
# Elastic Compliance Matrix: (Units=1/GPa)
#
#
# Indices 1 2 3 4 5 6 
#
# 1 0.014043 -0.003470 -0.013639 0.000000 0.012955 0.000000
# 2 -0.003470 0.018813 -0.006386 0.000000 -0.000644 0.000000
# 3 -0.013639 -0.006386 0.037349 0.000000 -0.023894 0.000000
# 4 0.000000 0.000000 0.000000 0.104518 0.000000 0.002566
# 5 0.012955 -0.000644 -0.023894 0.000000 0.051436 0.000000
# 6 0.000000 0.000000 0.000000 0.002566 0.000000 0.033660
#
#
# Mechanical properties :
#
#
# Convention : Reuss Voigt Hill
#
# Bulk Modulus (GPa) = 43.07415 59.28995 51.18205
# Shear Modulus (GPa) = 15.89587 23.70140 19.79864
#
# Velocity S-wave (km/s) = 2.81629 3.43892 3.14306
# Velocity P-wave (km/s) = 5.66285 6.73439 6.22173
#
# Compressibility (1/GPa) = 0.02321578
#
# Stress axis : x y z
#
# Youngs Moduli (GPa) = 71.21001 53.15410 26.77449
#
# Poissons Ratio (x) = 0.18445 0.36517
# Poissons Ratio (y) = 0.24711 0.17098
# Poissons Ratio (z) = 0.97122 0.33943
#
# Static dielectric constant tensor:
#      x y z
#    x 3.966740 0.000000 -0.042890 
#    y 0.000000 3.436510 0.000000 
#    z -0.042890 0.000000 3.509500 
# 
# 
# High freq. dielectric constant tensor:
#      x y z
#    x 1.802720 0.000000 -0.001830 
#    y 0.000000 1.766510 0.000000 
#    z -0.001830 0.000000 1.771920 
# 
# From -- ./inp_files/56547.got.cif
#   From: 2010.06.25/outbox.cif.g09.slc.cpg/sg10_29_cif.got.tgz:56547.got - 2010.06.27 22:07:45.
