data_PCOD8064358
_publ_section_title
;
Structure prediction by ZEFSAII (Michael W. Deem and Ramdas Pophale) SiO2 
 PCOD8064358
Probable space group: P 2/M
;
_chemical_formula_sum "Si O2"
_cell_formula_units_Z 28
_cell_length_a 14.834210
_cell_length_b 9.410741
_cell_length_c 10.933628
_cell_angle_alpha 90.000000
_cell_angle_beta 66.556671
_cell_angle_gamma 90.000000
_cell_volume 1400.350815
_symmetry_space_group_name_H-M "P 2/M"
_symmetry_group_IT_number 10
_symmetry_cell_setting 'monoclinic'
loop_
_space_group_symop_operation_xyz
x,y,z
-x,y,-z
-x,-y,-z
x,-y,z
loop_
_atom_site_type_symbol
_atom_site_label
_atom_site_fract_x
_atom_site_fract_y
_atom_site_fract_z
Si Si1 0.459840 0.166184 0.155293
Si Si2 0.050215 0.159414 0.315413
Si Si3 0.456484 0.332937 0.654274
Si Si4 0.755379 0.164104 0.649888
Si Si5 0.232513 0.659915 0.796801
Si Si6 0.857811 0.336332 0.411878
Si Si7 0.905263 0.159601 0.988846
O O1 0.503795 0.250511 0.247611
O O2 0.342747 0.194072 0.219331
O O3 0.485190 0.000000 0.159117
O O4 0.500000 0.218263 0.000000
O O5 0.149235 0.211541 0.325968
O O6 0.077937 0.164127 0.161432
O O7 0.958651 0.259435 0.398232
O O8 0.020242 0.000000 0.371301
O O9 0.500000 0.280760 0.500000
O O10 0.478109 0.500000 0.661688
O O11 0.342167 0.296783 0.703106
O O12 0.762387 0.262927 0.525950
O O13 0.759019 0.000000 0.608161
O O14 0.230166 0.500000 0.846609
O O15 0.159021 0.680179 0.722916
O O16 0.194148 0.757084 0.927237
O O17 0.863710 0.500000 0.448425
O O18 0.892384 0.000000 0.046412
O O19 0.000000 0.232460 0.000000
#
# Coordination Sequence:
#
# PCOD8064358 Si02
#       7
#     4   4   4   4   4   4   4
#     4  10  23  42  64  91 122 156 201 256 307 357
#     4  10  21  37  57  83 116 153 191 232 285 345
#     4  10  22  42  65  89 121 160 203 251 304 362
#     4  10  22  39  59  82 115 155 191 234 291 348
#     4  10  22  37  57  85 117 153 190 236 293 344
#     4  11  22  37  58  86 118 152 191 237 284 339
#     4  10  20  35  57  84 113 150 193 236 283 342
#
# _framework density 19.994990999999999
#
# number of rings (size 3 to 8) (size 9 to 14) (size 15 to 20)
#    0.000    1.857    1.429    1.714    2.000    6.571 
#    0.000    0.000    0.000    0.000    0.000    0.000 
#    0.000    0.000    0.000    0.000    0.000    0.000 
#
# Total GULP energy -347115.401313 kJ/mol
# GULP energy per Si atom -12396.978618 kJ/mol
# Density = 1.994948 g / cm^3
# Si number density = 19.994991 Si / 1000 Ang^3
#
#
#
# Elastic Constant Matrix: (Units=GPa)
#
#
# Indices 1 2 3 4 5 6 
#
# 1 94.3210 46.6145 48.8597 0.0000 -10.1556 0.0000
# 2 46.6145 78.2212 57.1040 0.0000 -12.2500 0.0000
# 3 48.8597 57.1040 139.6869 0.0000 -15.5898 0.0000
# 4 0.0000 0.0000 0.0000 34.5054 0.0000 -0.8993
# 5 -10.1556 -12.2500 -15.5898 0.0000 37.8134 0.0000
# 6 0.0000 0.0000 0.0000 -0.8993 0.0000 27.6652
#
#
#
# Elastic Compliance Matrix: (Units=1/GPa)
#
#
# Indices 1 2 3 4 5 6 
#
# 1 0.015576 -0.007474 -0.002302 0.000000 0.000813 0.000000
# 2 -0.007474 0.022133 -0.006140 0.000000 0.002631 0.000000
# 3 -0.002302 -0.006140 0.010674 0.000000 0.001793 0.000000
# 4 0.000000 0.000000 0.000000 0.029006 0.000000 0.000943
# 5 0.000813 0.002631 0.001793 0.000000 0.028256 0.000000
# 6 0.000000 0.000000 0.000000 0.000943 0.000000 0.036177
#
#
# Mechanical properties :
#
#
# Convention : Reuss Voigt Hill
#
# Bulk Modulus (GPa) = 60.42061 68.59839 64.50950
# Shear Modulus (GPa) = 27.90635 30.64021 29.27328
#
# Velocity S-wave (km/s) = 3.73992 3.91883 3.83042
# Velocity P-wave (km/s) = 6.99520 7.40666 7.20386
#
# Compressibility (1/GPa) = 0.01655064
#
# Stress axis : x y z
#
# Youngs Moduli (GPa) = 64.20142 45.18167 93.68433
#
# Poissons Ratio (x) = 0.33771 0.21565
# Poissons Ratio (y) = 0.47987 0.57520
# Poissons Ratio (z) = 0.14778 0.27741
#
# Static dielectric constant tensor:
#      x y z
#    x -9.453420 0.000000 -9.598680 
#    y 0.000000 3.691310 0.000000 
#    z -9.598680 0.000000 -3.177270 
# 
# 
# High freq. dielectric constant tensor:
#      x y z
#    x 1.781970 0.000000 -0.004950 
#    y 0.000000 1.769550 0.000000 
#    z -0.004950 0.000000 1.795160 
# 
# From -- ./inp_files/49581.got.cif
#   From: 2010.06.25/outbox.cif.g09.slc.cpg/sg10_25_cif.got.tgz:49581.got - 2010.06.27 22:07:45.
