data_PCOD8064170
_publ_section_title
;
Structure prediction by ZEFSAII (Michael W. Deem and Ramdas Pophale) SiO2 
 PCOD8064170
Probable space group: P 2/M
;
_chemical_formula_sum "Si O2"
_cell_formula_units_Z 32
_cell_length_a 16.120249
_cell_length_b 8.903748
_cell_length_c 24.627171
_cell_angle_alpha 90.000000
_cell_angle_beta 26.514632
_cell_angle_gamma 90.000000
_cell_volume 1578.007075
_symmetry_space_group_name_H-M "P 2/M"
_symmetry_group_IT_number 10
_symmetry_cell_setting 'monoclinic'
loop_
_space_group_symop_operation_xyz
x,y,z
-x,y,-z
-x,-y,-z
x,-y,z
loop_
_atom_site_type_symbol
_atom_site_label
_atom_site_fract_x
_atom_site_fract_y
_atom_site_fract_z
Si Si1 0.354496 0.672196 0.754022
Si Si2 0.562321 0.829954 0.816557
Si Si3 0.055717 0.322885 0.408860
Si Si4 0.246345 0.825599 0.923276
Si Si5 0.079478 0.673701 0.819684
Si Si6 0.062817 0.178961 0.715761
Si Si7 0.228771 0.322497 0.515506
Si Si8 0.349280 0.826183 0.048555
O O1 0.339064 0.500000 0.782104
O O2 0.244587 0.771804 0.862244
O O3 0.259593 0.696926 0.751616
O O4 0.568186 0.722209 0.624805
O O5 0.733016 0.720094 0.727139
O O6 0.456001 0.797223 0.822592
O O7 0.638260 0.000000 0.774648
O O8 0.407789 0.801121 0.952582
O O9 0.037070 0.500000 0.421622
O O10 0.000000 0.253595 0.500000
O O11 0.919646 0.260778 0.441698
O O12 0.192364 0.000000 0.958295
O O13 0.101349 0.734573 0.044051
O O14 0.045349 0.500000 0.826113
O O15 0.124905 0.761557 0.737971
O O16 0.199691 0.240569 0.589722
O O17 0.855842 0.242299 0.823568
O O18 0.068682 0.000000 0.713738
O O19 0.210694 0.500000 0.535224
O O20 0.337390 0.000000 0.071306
O O21 0.500000 0.746989 0.000000
#
# Coordination Sequence:
#
# PCOD8064170 Si02
#       8
#     4   4   4   4   4   4   4   4
#     4  10  23  42  63  86 116 160 205 247 299 361
#     4  10  20  35  55  83 117 152 191 233 290 354
#     4  10  21  37  58  85 118 157 199 246 295 343
#     4  11  22  38  61  91 125 156 194 250 306 357
#     4  11  23  40  63  89 119 157 201 247 302 362
#     4  11  22  39  62  87 121 158 198 248 301 356
#     4  10  22  41  61  85 121 160 204 251 298 354
#     4   9  17  32  54  79 110 148 186 229 283 343
#
# _framework density 20.278742000000001
#
# number of rings (size 3 to 8) (size 9 to 14) (size 15 to 20)
#    0.000    1.750    1.250    3.000    0.000    7.250 
#    0.000    2.500    0.000    2.625    0.000    0.000 
#    0.000    0.000    0.000    0.000    0.000    0.000 
#
# Total GULP energy -396895.129915 kJ/mol
# GULP energy per Si atom -12402.972810 kJ/mol
# Density = 2.023259 g / cm^3
# Si number density = 20.278742 Si / 1000 Ang^3
#
#
#
# Elastic Constant Matrix: (Units=GPa)
#
#
# Indices 1 2 3 4 5 6 
#
# 1 105.4392 36.1768 32.7717 0.0000 12.0809 0.0000
# 2 36.1768 56.3802 29.0566 0.0000 5.6982 0.0000
# 3 32.7717 29.0566 73.0346 0.0000 3.7449 0.0000
# 4 0.0000 0.0000 0.0000 22.3255 0.0000 -1.5839
# 5 12.0809 5.6982 3.7449 0.0000 34.4484 0.0000
# 6 0.0000 0.0000 0.0000 -1.5839 0.0000 26.8555
#
#
#
# Elastic Compliance Matrix: (Units=1/GPa)
#
#
# Indices 1 2 3 4 5 6 
#
# 1 0.013023 -0.006426 -0.003125 0.000000 -0.003164 0.000000
# 2 -0.006426 0.025743 -0.007296 0.000000 -0.001211 0.000000
# 3 -0.003125 -0.007296 0.017979 0.000000 0.000348 0.000000
# 4 0.000000 0.000000 0.000000 0.044980 0.000000 0.002653
# 5 -0.003164 -0.001211 0.000348 0.000000 0.030301 0.000000
# 6 0.000000 0.000000 0.000000 0.002653 0.000000 0.037393
#
#
# Mechanical properties :
#
#
# Convention : Reuss Voigt Hill
#
# Bulk Modulus (GPa) = 43.38209 47.87381 45.62795
# Shear Modulus (GPa) = 23.71968 25.84913 24.78440
#
# Velocity S-wave (km/s) = 3.42377 3.57415 3.49977
# Velocity P-wave (km/s) = 6.08843 6.37902 6.23542
#
# Compressibility (1/GPa) = 0.02305098
#
# Stress axis : x y z
#
# Youngs Moduli (GPa) = 76.78923 38.84614 55.62018
#
# Poissons Ratio (x) = 0.24962 0.17379
# Poissons Ratio (y) = 0.49344 0.40581
# Poissons Ratio (z) = 0.23994 0.28342
#
# Static dielectric constant tensor:
#      x y z
#    x 3.921880 0.000000 -0.065200 
#    y 0.000000 3.511770 0.000000 
#    z -0.065200 0.000000 3.597270 
# 
# 
# High freq. dielectric constant tensor:
#      x y z
#    x 1.808460 0.000000 -0.001600 
#    y 0.000000 1.772760 0.000000 
#    z -0.001600 0.000000 1.792290 
# 
# From -- ./inp_files/89473.got.cif
#   From: 2010.06.25/outbox.cif.g09.slc.cpg/sg10_45_cif.got.tgz:89473.got - 2010.06.27 22:07:45.
