data_PCOD8064467
_publ_section_title
;
Structure prediction by ZEFSAII (Michael W. Deem and Ramdas Pophale) SiO2 
 PCOD8064467
Probable space group: P 2/M
;
_chemical_formula_sum "Si O2"
_cell_formula_units_Z 32
_cell_length_a 21.639409
_cell_length_b 17.729826
_cell_length_c 10.789574
_cell_angle_alpha 90.000000
_cell_angle_beta 23.331163
_cell_angle_gamma 90.000000
_cell_volume 1639.451919
_symmetry_space_group_name_H-M "P 2/M"
_symmetry_group_IT_number 10
_symmetry_cell_setting 'monoclinic'
loop_
_space_group_symop_operation_xyz
x,y,z
-x,y,-z
-x,-y,-z
x,-y,z
loop_
_atom_site_type_symbol
_atom_site_label
_atom_site_fract_x
_atom_site_fract_y
_atom_site_fract_z
Si Si1 0.642205 0.634965 0.657653
Si Si2 0.679874 0.714774 0.198594
Si Si3 0.966380 0.084957 0.417180
Si Si4 0.913492 0.686419 0.331185
Si Si5 0.843980 0.188091 0.097859
Si Si6 0.440299 0.197523 0.239884
Si Si7 0.733658 0.784560 0.846584
Si Si8 0.198410 0.586144 0.878962
O O1 0.810022 0.649232 0.414145
O O2 0.571431 0.713557 0.749463
O O3 0.685502 0.588611 0.454181
O O4 0.500000 0.595120 0.000000
O O5 0.500000 0.720491 0.500000
O O6 0.730593 0.757871 0.228270
O O7 0.726995 0.627937 0.138055
O O8 0.766062 0.754965 0.925350
O O9 0.823788 0.138951 0.652668
O O10 0.000000 0.086449 0.500000
O O11 0.929267 0.000000 0.441857
O O12 0.108317 0.116374 0.072300
O O13 0.790752 0.714332 0.659431
O O14 0.014730 0.761179 0.106747
O O15 0.028291 0.621682 0.167677
O O16 0.728869 0.159779 0.419816
O O17 0.500000 0.161928 0.000000
O O18 0.559872 0.188097 0.133617
O O19 0.173636 0.500000 0.963005
#
# Coordination Sequence:
#
# PCOD8064467 Si02
#       8
#     4   4   4   4   4   4   4   4
#     4  11  20  36  59  88 111 145 203 256 291 340
#     4  11  20  36  62  87 114 150 194 246 301 352
#     4  10  21  37  59  92 129 161 192 233 295 361
#     4  10  21  34  59  85 114 151 197 245 298 339
#     4  10  20  35  58  92 119 153 195 249 291 346
#     4  11  20  35  60  93 112 146 205 257 289 337
#     4  11  20  36  62  89 119 150 193 251 293 344
#     4  11  25  40  55  82 121 159 193 240 304 366
#
# _framework density 19.518718
#
# number of rings (size 3 to 8) (size 9 to 14) (size 15 to 20)
#    0.000    1.375    7.500    0.375    0.000    1.500 
#    0.000    1.875    0.000    4.500    0.000    0.000 
#    0.000    0.000    0.000    0.000    0.000    0.000 
#
# Total GULP energy -396485.715956 kJ/mol
# GULP energy per Si atom -12390.178624 kJ/mol
# Density = 1.947429 g / cm^3
# Si number density = 19.518718 Si / 1000 Ang^3
#
#
#
# Elastic Constant Matrix: (Units=GPa)
#
#
# Indices 1 2 3 4 5 6 
#
# 1 70.0426 17.2704 26.6914 0.0000 -3.5911 0.0000
# 2 17.2704 103.0930 28.9675 0.0000 6.8811 0.0000
# 3 26.6914 28.9675 117.5909 0.0000 5.4772 0.0000
# 4 0.0000 0.0000 0.0000 8.1161 0.0000 -2.8839
# 5 -3.5911 6.8811 5.4772 0.0000 33.3618 0.0000
# 6 0.0000 0.0000 0.0000 -2.8839 0.0000 7.1810
#
#
#
# Elastic Compliance Matrix: (Units=1/GPa)
#
#
# Indices 1 2 3 4 5 6 
#
# 1 0.016159 -0.001956 -0.003311 0.000000 0.002686 0.000000
# 2 -0.001956 0.010759 -0.002109 0.000000 -0.002083 0.000000
# 3 -0.003311 -0.002109 0.009847 0.000000 -0.001538 0.000000
# 4 0.000000 0.000000 0.000000 0.143721 0.000000 0.057719
# 5 0.002686 -0.002083 -0.001538 0.000000 0.030946 0.000000
# 6 0.000000 0.000000 0.000000 0.057719 0.000000 0.162437
#
#
# Mechanical properties :
#
#
# Convention : Reuss Voigt Hill
#
# Bulk Modulus (GPa) = 45.42947 48.50946 46.96947
# Shear Modulus (GPa) = 12.62755 24.25160 18.43957
#
# Velocity S-wave (km/s) = 2.54627 3.52871 3.07695
# Velocity P-wave (km/s) = 5.65420 6.44276 6.06132
#
# Compressibility (1/GPa) = 0.02201214
#
# Stress axis : x y z
#
# Youngs Moduli (GPa) = 61.88577 92.94177 101.55455
#
# Poissons Ratio (x) = 0.18178 0.33626
# Poissons Ratio (y) = 0.12104 0.21423
# Poissons Ratio (z) = 0.20491 0.19606
#
# Static dielectric constant tensor:
#      x y z
#    x 3.821740 0.000000 0.257440 
#    y 0.000000 3.301160 0.000000 
#    z 0.257440 0.000000 4.084250 
# 
# 
# High freq. dielectric constant tensor:
#      x y z
#    x 1.760110 0.000000 0.000640 
#    y 0.000000 1.717000 0.000000 
#    z 0.000640 0.000000 1.779110 
# 
# From -- ./inp_files/57084.got.cif
#   From: 2010.06.25/outbox.cif.g09.slc.cpg/sg10_29_cif.got.tgz:57084.got - 2010.06.27 22:07:45.
