data_PCOD8064666
_publ_section_title
;
Structure prediction by ZEFSAII (Michael W. Deem and Ramdas Pophale) SiO2 
 PCOD8064666
Probable space group: P 2/M
;
_chemical_formula_sum "Si O2"
_cell_formula_units_Z 24
_cell_length_a 21.462505
_cell_length_b 8.993263
_cell_length_c 11.323597
_cell_angle_alpha 90.000000
_cell_angle_beta 148.244861
_cell_angle_gamma 90.000000
_cell_volume 1150.290107
_symmetry_space_group_name_H-M "P 2/M"
_symmetry_group_IT_number 10
_symmetry_cell_setting 'monoclinic'
loop_
_space_group_symop_operation_xyz
x,y,z
-x,y,-z
-x,-y,-z
x,-y,z
loop_
_atom_site_type_symbol
_atom_site_label
_atom_site_fract_x
_atom_site_fract_y
_atom_site_fract_z
Si Si1 0.205140 0.330322 0.526145
Si Si2 0.878411 0.168685 0.247195
Si Si3 0.462016 0.175931 0.569754
Si Si4 0.961113 0.168200 0.121201
Si Si5 0.669218 0.673387 0.034266
Si Si6 0.758788 0.671272 0.679636
O O1 0.161688 0.500000 0.471344
O O2 0.298958 0.288409 0.778916
O O3 0.270195 0.308436 0.505637
O O4 0.092190 0.225796 0.356962
O O5 0.885149 0.175523 0.117834
O O6 0.774702 0.277386 0.118827
O O7 0.000000 0.226864 0.500000
O O8 0.851861 0.000000 0.247486
O O9 0.500000 0.227643 0.500000
O O10 0.331832 0.236452 0.386980
O O11 0.460254 0.000000 0.576420
O O12 0.550728 0.239565 0.810502
O O13 0.969766 0.000000 0.088108
O O14 0.892067 0.267273 0.913760
O O15 0.645417 0.500000 0.977326
O O16 0.752976 0.500000 0.708590
#
# Coordination Sequence:
#
# PCOD8064666 Si02
#       6
#     4   4   4   4   4   4
#     4  10  23  41  60  88 125 162 199 246 302 356
#     4  10  20  36  57  86 123 159 194 242 302 352
#     4  11  25  45  66  89 120 156 197 247 303 361
#     4  11  22  37  61  91 124 161 204 251 298 354
#     4  11  23  39  63  92 122 158 203 250 297 354
#     4  11  24  42  63  87 121 162 203 247 299 357
#
# _framework density 20.864301999999999
#
# number of rings (size 3 to 8) (size 9 to 14) (size 15 to 20)
#    0.000    1.333    1.667    3.500    0.000   11.667 
#    0.000    3.333    0.000    0.000    0.000    0.000 
#    0.000    0.000    0.000    0.000    0.000    0.000 
#
# Total GULP energy -297753.064748 kJ/mol
# GULP energy per Si atom -12406.377698 kJ/mol
# Density = 2.081681 g / cm^3
# Si number density = 20.864302 Si / 1000 Ang^3
#
#
#
# Elastic Constant Matrix: (Units=GPa)
#
#
# Indices 1 2 3 4 5 6 
#
# 1 76.6961 43.6786 24.6629 0.0000 -7.5945 0.0000
# 2 43.6786 103.2005 50.5345 0.0000 -3.5604 0.0000
# 3 24.6629 50.5345 117.1723 0.0000 -6.4888 0.0000
# 4 0.0000 0.0000 0.0000 81.2647 0.0000 16.4409
# 5 -7.5945 -3.5604 -6.4888 0.0000 32.4074 0.0000
# 6 0.0000 0.0000 0.0000 16.4409 0.0000 28.3724
#
#
#
# Elastic Compliance Matrix: (Units=1/GPa)
#
#
# Indices 1 2 3 4 5 6 
#
# 1 0.017544 -0.007091 -0.000455 0.000000 0.003241 0.000000
# 2 -0.007091 0.015153 -0.005099 0.000000 -0.001018 0.000000
# 3 -0.000455 -0.005099 0.010913 0.000000 0.001518 0.000000
# 4 0.000000 0.000000 0.000000 0.013940 0.000000 -0.008078
# 5 0.003241 -0.001018 0.001518 0.000000 0.031809 0.000000
# 6 0.000000 0.000000 0.000000 -0.008078 0.000000 0.039926
#
#
# Mechanical properties :
#
#
# Convention : Reuss Voigt Hill
#
# Bulk Modulus (GPa) = 54.58375 59.42453 57.00414
# Shear Modulus (GPa) = 31.11755 40.28842 35.70299
#
# Velocity S-wave (km/s) = 3.86609 4.39905 4.14115
# Velocity P-wave (km/s) = 6.79315 7.37194 7.08846
#
# Compressibility (1/GPa) = 0.01832047
#
# Stress axis : x y z
#
# Youngs Moduli (GPa) = 56.99996 65.99519 91.63014
#
# Poissons Ratio (x) = 0.46794 0.04171
# Poissons Ratio (y) = 0.40416 0.46722
# Poissons Ratio (z) = 0.02594 0.33651
#
# Static dielectric constant tensor:
#      x y z
#    x 3.724310 0.000000 -0.174730 
#    y 0.000000 3.809450 0.000000 
#    z -0.174730 0.000000 3.879480 
# 
# 
# High freq. dielectric constant tensor:
#      x y z
#    x 1.816530 0.000000 -0.010800 
#    y 0.000000 1.821660 0.000000 
#    z -0.010800 0.000000 1.824820 
# 
# From -- ./inp_files/56695.got.cif
#   From: 2010.06.25/outbox.cif.g09.slc.cpg/sg10_29_cif.got.tgz:56695.got - 2010.06.27 22:07:45.
