data_PCOD8064448
_publ_section_title
;
Structure prediction by ZEFSAII (Michael W. Deem and Ramdas Pophale) SiO2 
 PCOD8064448
Probable space group: P 2/M
;
_chemical_formula_sum "Si O2"
_cell_formula_units_Z 32
_cell_length_a 15.783314
_cell_length_b 9.540901
_cell_length_c 10.123021
_cell_angle_alpha 90.000000
_cell_angle_beta 95.377169
_cell_angle_gamma 90.000000
_cell_volume 1517.687453
_symmetry_space_group_name_H-M "P 2/M"
_symmetry_group_IT_number 10
_symmetry_cell_setting 'monoclinic'
loop_
_space_group_symop_operation_xyz
x,y,z
-x,y,-z
-x,-y,-z
x,-y,z
loop_
_atom_site_type_symbol
_atom_site_label
_atom_site_fract_x
_atom_site_fract_y
_atom_site_fract_z
Si Si1 0.313926 0.163492 0.168989
Si Si2 0.220912 0.842030 0.882141
Si Si3 0.267286 0.159799 0.602174
Si Si4 0.474595 0.340312 0.144732
Si Si5 0.173666 0.656110 0.254705
Si Si6 0.575973 0.659897 0.417041
Si Si7 0.088051 0.654156 0.967513
Si Si8 0.088843 0.162308 0.443192
O O1 0.405860 0.232201 0.189313
O O2 0.256218 0.242300 0.270405
O O3 0.318131 0.000000 0.207680
O O4 0.280009 0.186625 0.016067
O O5 0.275199 0.810446 0.759710
O O6 0.186549 0.000000 0.876328
O O7 0.135693 0.748105 0.866831
O O8 0.337874 0.254305 0.540282
O O9 0.170672 0.196284 0.546379
O O10 0.289289 0.000000 0.571074
O O11 0.438819 0.500000 0.139524
O O12 0.552769 0.327225 0.258208
O O13 0.500000 0.296713 0.000000
O O14 0.191956 0.500000 0.316474
O O15 0.149378 0.638648 0.100242
O O16 0.096898 0.734353 0.319364
O O17 0.500000 0.716800 0.500000
O O18 0.595361 0.500000 0.458621
O O19 0.069137 0.500000 0.903521
O O20 0.000000 0.726241 0.000000
O O21 0.000000 0.199912 0.500000
O O22 0.088606 0.000000 0.398014
#
# Coordination Sequence:
#
# PCOD8064448 Si02
#       8
#     4   4   4   4   4   4   4   4
#     4  10  20  35  58  87 118 151 191 239 292 349
#     4   9  19  35  55  83 114 148 190 234 286 348
#     4  10  22  40  61  86 118 155 197 242 291 347
#     4  10  21  37  59  87 120 156 197 243 296 355
#     4  10  21  37  57  81 113 150 193 240 290 350
#     4  10  23  41  60  87 120 156 200 246 297 355
#     4   9  19  34  53  80 112 144 184 238 292 345
#     4  10  23  41  60  85 118 155 197 245 294 348
#
# _framework density 21.084710999999999
#
# number of rings (size 3 to 8) (size 9 to 14) (size 15 to 20)
#    0.000    2.250    0.000    1.500    3.500    3.500 
#    0.000    0.000    0.000    0.000    0.000    0.000 
#    0.000    0.000    0.000    0.000    0.000    0.000 
#
# Total GULP energy -396745.488531 kJ/mol
# GULP energy per Si atom -12398.296517 kJ/mol
# Density = 2.103672 g / cm^3
# Si number density = 21.084711 Si / 1000 Ang^3
#
#
#
# Elastic Constant Matrix: (Units=GPa)
#
#
# Indices 1 2 3 4 5 6 
#
# 1 138.2405 71.6910 18.0963 0.0000 -19.4104 0.0000
# 2 71.6910 113.0493 21.9233 0.0000 -17.6188 0.0000
# 3 18.0963 21.9233 53.4399 0.0000 -12.4262 0.0000
# 4 0.0000 0.0000 0.0000 20.8557 0.0000 -6.7154
# 5 -19.4104 -17.6188 -12.4262 0.0000 25.7257 0.0000
# 6 0.0000 0.0000 0.0000 -6.7154 0.0000 38.8755
#
#
#
# Elastic Compliance Matrix: (Units=1/GPa)
#
#
# Indices 1 2 3 4 5 6 
#
# 1 0.011135 -0.006408 -0.000235 0.000000 0.003899 0.000000
# 2 -0.006408 0.013977 -0.002774 0.000000 0.003397 0.000000
# 3 -0.000235 -0.002774 0.021908 0.000000 0.008505 0.000000
# 4 0.000000 0.000000 0.000000 0.050773 0.000000 0.008771
# 5 0.003899 0.003397 0.008505 0.000000 0.048249 0.000000
# 6 0.000000 0.000000 0.000000 0.008771 0.000000 0.027238
#
#
# Mechanical properties :
#
#
# Convention : Reuss Voigt Hill
#
# Bulk Modulus (GPa) = 35.47915 58.68342 47.08128
# Shear Modulus (GPa) = 24.81274 29.95931 27.38603
#
# Velocity S-wave (km/s) = 3.43419 3.77358 3.60788
# Velocity P-wave (km/s) = 5.70862 6.84683 6.30347
#
# Compressibility (1/GPa) = 0.02818557
#
# Stress axis : x y z
#
# Youngs Moduli (GPa) = 89.80404 71.54634 45.64578
#
# Poissons Ratio (x) = 0.45849 0.01073
# Poissons Ratio (y) = 0.57549 0.12662
# Poissons Ratio (z) = 0.02111 0.19846
#
# Static dielectric constant tensor:
#      x y z
#    x 3.656770 0.000000 -0.087160 
#    y 0.000000 3.958570 0.000000 
#    z -0.087160 0.000000 3.771380 
# 
# 
# High freq. dielectric constant tensor:
#      x y z
#    x 1.821480 0.000000 -0.005860 
#    y 0.000000 1.824920 0.000000 
#    z -0.005860 0.000000 1.820920 
# 
# From -- ./inp_files/49874.got.cif
#   From: 2010.06.25/outbox.cif.g09.slc.cpg/sg10_25_cif.got.tgz:49874.got - 2010.06.27 22:07:45.
