data_PCOD8064831
_publ_section_title
;
Structure prediction by ZEFSAII (Michael W. Deem and Ramdas Pophale) SiO2 
 PCOD8064831
Probable space group: P 2/M
;
_chemical_formula_sum "Si O2"
_cell_formula_units_Z 20
_cell_length_a 9.201117
_cell_length_b 24.502825
_cell_length_c 5.065197
_cell_angle_alpha 90.000000
_cell_angle_beta 120.104237
_cell_angle_gamma 90.000000
_cell_volume 987.930877
_symmetry_space_group_name_H-M "P 2/M"
_symmetry_group_IT_number 10
_symmetry_cell_setting 'monoclinic'
loop_
_space_group_symop_operation_xyz
x,y,z
-x,y,-z
-x,-y,-z
x,-y,z
loop_
_atom_site_type_symbol
_atom_site_label
_atom_site_fract_x
_atom_site_fract_y
_atom_site_fract_z
Si Si1 0.189801 0.437301 0.763875
Si Si2 0.618613 0.824067 0.358111
Si Si3 0.382829 0.057485 0.642904
Si Si4 0.111907 0.268387 0.348724
Si Si5 0.690733 0.623252 0.612894
O O1 0.230846 0.500000 0.863171
O O2 0.309874 0.417474 0.637128
O O3 0.000000 0.428554 0.500000
O O4 0.217241 0.403498 0.054412
O O5 0.500000 0.813947 0.500000
O O6 0.712377 0.884024 0.450442
O O7 0.765288 0.780686 0.469854
O O8 0.500000 0.817691 0.000000
O O9 0.500000 0.055731 0.500000
O O10 0.273535 0.000000 0.546639
O O11 0.500000 0.057701 0.000000
O O12 0.216094 0.321595 0.373045
O O13 0.000000 0.282233 0.500000
O O14 0.000000 0.250062 0.000000
O O15 0.500000 0.638054 0.500000
#
# Coordination Sequence:
#
# PCOD8064831 Si02
#       5
#     4   4   4   4   4
#     4  11  24  43  66  91 121 154 186 225 281 346
#     4  10  20  36  59  86 115 148 194 243 284 334
#     4   8  14  26  48  79 111 143 182 231 282 331
#     4  12  25  41  60  82 116 155 193 236 290 349
#     4  12  25  41  63  89 117 150 193 240 283 331
#
# _framework density 20.244330999999999
#
# number of rings (size 3 to 8) (size 9 to 14) (size 15 to 20)
#    0.000    1.400    0.000    6.600    0.000    5.600 
#    0.000    0.000    0.000    1.200    0.000    0.000 
#    0.000    0.000    0.000    0.000    0.000    0.000 
#
# Total GULP energy -247886.389679 kJ/mol
# GULP energy per Si atom -12394.319484 kJ/mol
# Density = 2.019825 g / cm^3
# Si number density = 20.244331 Si / 1000 Ang^3
#
#
#
# Elastic Constant Matrix: (Units=GPa)
#
#
# Indices 1 2 3 4 5 6 
#
# 1 112.1228 77.8845 45.7316 0.0000 -13.1040 0.0000
# 2 77.8845 201.4658 72.9165 0.0000 7.9978 0.0000
# 3 45.7316 72.9165 112.3015 0.0000 -22.7677 0.0000
# 4 0.0000 0.0000 0.0000 31.1039 0.0000 -7.4300
# 5 -13.1040 7.9978 -22.7677 0.0000 38.1945 0.0000
# 6 0.0000 0.0000 0.0000 -7.4300 0.0000 1.6213
#
#
#
# Elastic Compliance Matrix: (Units=1/GPa)
#
#
# Indices 1 2 3 4 5 6 
#
# 1 0.013430 -0.004919 -0.001288 0.000000 0.004870 0.000000
# 2 -0.004919 0.009013 -0.005203 0.000000 -0.006676 0.000000
# 3 -0.001288 -0.005203 0.014717 0.000000 0.009420 0.000000
# 4 0.000000 0.000000 0.000000 -0.339451 0.000000 -1.555610
# 5 0.004870 -0.006676 0.009420 0.000000 0.034866 0.000000
# 6 0.000000 0.000000 0.000000 -1.555610 0.000000 -6.512148
#
#
# Mechanical properties :
#
#
# Convention : Reuss Voigt Hill
#
# Bulk Modulus (GPa) = 69.72846 90.99503 80.36174
# Shear Modulus (GPa) = -0.74052 29.47444 14.36696
#
# Velocity S-wave (km/s) = -0.60546 3.81981 2.66687
# Velocity P-wave (km/s) = 5.83348 8.03123 7.01890
#
# Compressibility (1/GPa) = 0.01434135
#
# Stress axis : x y z
#
# Youngs Moduli (GPa) = 74.45843 110.94588 67.94931
#
# Poissons Ratio (x) = 0.54578 0.08750
# Poissons Ratio (y) = 0.36628 0.35352
# Poissons Ratio (z) = 0.09588 0.57721
#
# Static dielectric constant tensor:
#      x y z
#    x 3.589770 0.000000 -0.266880 
#    y 0.000000 4.481090 0.000000 
#    z -0.266880 0.000000 3.753950 
# 
# 
# High freq. dielectric constant tensor:
#      x y z
#    x 1.773210 0.000000 -0.032690 
#    y 0.000000 1.821180 0.000000 
#    z -0.032690 0.000000 1.798870 
# 
# From -- ./inp_files/4883.got.cif
#   From: 2010.06.25/outbox.cif.g09.slc.cpg/sg10_3_cif.got.tgz:4883.got - 2010.06.27 22:07:45.
