data_PCOD8064732
_publ_section_title
;
Structure prediction by ZEFSAII (Michael W. Deem and Ramdas Pophale) SiO2 
 PCOD8064732
Probable space group: P 2/M
;
_chemical_formula_sum "Si O2"
_cell_formula_units_Z 32
_cell_length_a 22.975451
_cell_length_b 8.765528
_cell_length_c 30.350015
_cell_angle_alpha 90.000000
_cell_angle_beta 164.534480
_cell_angle_gamma 90.000000
_cell_volume 1629.882686
_symmetry_space_group_name_H-M "P 2/M"
_symmetry_group_IT_number 10
_symmetry_cell_setting 'monoclinic'
loop_
_space_group_symop_operation_xyz
x,y,z
-x,y,-z
-x,-y,-z
x,-y,z
loop_
_atom_site_type_symbol
_atom_site_label
_atom_site_fract_x
_atom_site_fract_y
_atom_site_fract_z
Si Si1 0.396305 0.671314 0.552814
Si Si2 0.822927 0.331822 0.334338
Si Si3 0.393428 0.177449 0.045756
Si Si4 0.143785 0.820877 0.951866
Si Si5 0.936919 0.328365 0.256916
Si Si6 0.657022 0.819864 0.576173
Si Si7 0.532749 0.318792 0.748009
Si Si8 0.092859 0.822010 0.455230
O O1 0.478873 0.500000 0.604586
O O2 0.446972 0.768424 0.546243
O O3 0.513986 0.736165 0.683085
O O4 0.136349 0.676902 0.368470
O O5 0.728592 0.500000 0.252563
O O6 0.645533 0.220095 0.226575
O O7 0.000000 0.357607 0.500000
O O8 0.930950 0.252816 0.371561
O O9 0.354532 0.000000 0.007414
O O10 0.301866 0.220310 0.026808
O O11 0.279720 0.279217 0.925859
O O12 0.901586 0.757725 0.764157
O O13 0.138083 0.000000 0.957563
O O14 0.238731 0.737325 0.064636
O O15 0.911668 0.500000 0.257742
O O16 0.979335 0.206106 0.325757
O O17 0.500000 0.757581 0.500000
O O18 0.664004 0.000000 0.580370
O O19 0.512401 0.500000 0.734932
O O20 0.334098 0.251112 0.631912
O O21 0.117636 0.000000 0.483120
#
# Coordination Sequence:
#
# PCOD8064732 Si02
#       8
#     4   4   4   4   4   4   4   4
#     4   9  19  36  58  85 116 151 194 236 283 344
#     4  11  24  40  56  77 109 150 192 238 292 348
#     4  11  22  36  57  84 113 147 192 243 291 342
#     4  10  21  37  58  88 119 150 194 243 289 345
#     4  10  20  36  58  84 113 148 191 237 286 344
#     4  10  21  38  61  89 120 153 190 235 289 348
#     4  10  21  37  59  87 117 155 198 241 288 345
#     4  11  22  37  58  83 114 150 191 240 291 342
#
# _framework density 19.633313999999999
#
# number of rings (size 3 to 8) (size 9 to 14) (size 15 to 20)
#    0.000    1.750    1.250    4.125    0.000    7.750 
#    0.000    3.125    0.000    3.750    0.000    0.000 
#    0.000    0.000    0.000    0.000    0.000    0.000 
#
# Total GULP energy -396800.072691 kJ/mol
# GULP energy per Si atom -12400.002272 kJ/mol
# Density = 1.958863 g / cm^3
# Si number density = 19.633314 Si / 1000 Ang^3
#
#
#
# Elastic Constant Matrix: (Units=GPa)
#
#
# Indices 1 2 3 4 5 6 
#
# 1 117.3567 35.4072 45.0010 0.0000 5.2870 0.0000
# 2 35.4072 67.6699 23.0120 0.0000 -1.4973 0.0000
# 3 45.0010 23.0120 87.2257 0.0000 -12.1024 0.0000
# 4 0.0000 0.0000 0.0000 30.0130 0.0000 -6.0522
# 5 5.2870 -1.4973 -12.1024 0.0000 22.8566 0.0000
# 6 0.0000 0.0000 0.0000 -6.0522 0.0000 28.6800
#
#
#
# Elastic Compliance Matrix: (Units=1/GPa)
#
#
# Indices 1 2 3 4 5 6 
#
# 1 0.012572 -0.004625 -0.006164 0.000000 -0.006475 0.000000
# 2 -0.004625 0.017971 -0.002205 0.000000 0.001079 0.000000
# 3 -0.006164 -0.002205 0.016626 0.000000 0.010085 0.000000
# 4 0.000000 0.000000 0.000000 0.034800 0.000000 0.007344
# 5 -0.006475 0.001079 0.010085 0.000000 0.050659 0.000000
# 6 0.000000 0.000000 0.000000 0.007344 0.000000 0.036417
#
#
# Mechanical properties :
#
#
# Convention : Reuss Voigt Hill
#
# Bulk Modulus (GPa) = 47.21475 53.23254 50.22365
# Shear Modulus (GPa) = 24.74092 27.56538 26.15315
#
# Velocity S-wave (km/s) = 3.55371 3.75108 3.65373
# Velocity P-wave (km/s) = 6.39836 6.77739 6.59060
#
# Compressibility (1/GPa) = 0.02117982
#
# Stress axis : x y z
#
# Youngs Moduli (GPa) = 79.54296 55.64376 60.14775
#
# Poissons Ratio (x) = 0.25736 0.37076
# Poissons Ratio (y) = 0.36789 0.13265
# Poissons Ratio (z) = 0.49032 0.12271
#
# Static dielectric constant tensor:
#      x y z
#    x 3.086900 0.000000 0.116460 
#    y 0.000000 3.547130 0.000000 
#    z 0.116460 0.000000 3.515100 
# 
# 
# High freq. dielectric constant tensor:
#      x y z
#    x 1.758700 0.000000 -0.013440 
#    y 0.000000 1.766840 0.000000 
#    z -0.013440 0.000000 1.760550 
# 
# From -- ./inp_files/93704.got.cif
#   From: 2010.06.25/outbox.cif.g09.slc.cpg/sg10_47_cif.got.tgz:93704.got - 2010.06.27 22:07:45.
