data_PCOD8064254
_publ_section_title
;
Structure prediction by ZEFSAII (Michael W. Deem and Ramdas Pophale) SiO2 
 PCOD8064254
Probable space group: P 2/M
;
_chemical_formula_sum "Si O2"
_cell_formula_units_Z 28
_cell_length_a 22.907736
_cell_length_b 11.613508
_cell_length_c 12.089923
_cell_angle_alpha 90.000000
_cell_angle_beta 27.484604
_cell_angle_gamma 90.000000
_cell_volume 1484.398395
_symmetry_space_group_name_H-M "P 2/M"
_symmetry_group_IT_number 10
_symmetry_cell_setting 'monoclinic'
loop_
_space_group_symop_operation_xyz
x,y,z
-x,y,-z
-x,-y,-z
x,-y,z
loop_
_atom_site_type_symbol
_atom_site_label
_atom_site_fract_x
_atom_site_fract_y
_atom_site_fract_z
Si Si1 0.867630 0.500000 0.368527
Si Si2 0.808084 0.865514 0.347234
Si Si3 0.643912 0.865815 0.257428
Si Si4 0.284071 0.134847 0.109828
Si Si5 0.115148 0.259462 0.562019
Si Si6 0.162844 0.260490 0.913835
Si Si7 0.163113 0.500000 0.825921
Si Si8 0.476555 0.135242 0.159050
O O1 0.832614 0.387352 0.498983
O O2 0.793212 0.500000 0.376299
O O3 0.012920 0.500000 0.090262
O O4 0.845854 0.825650 0.405218
O O5 0.882907 0.800037 0.124204
O O6 0.662508 0.833667 0.565531
O O7 0.836728 0.000000 0.290647
O O8 0.500000 0.818471 0.500000
O O9 0.724544 0.806025 0.216709
O O10 0.641093 0.000000 0.291441
O O11 0.713085 0.841640 0.025277
O O12 0.173751 0.211198 0.349897
O O13 0.259915 0.000000 0.175854
O O14 0.418582 0.178708 0.931083
O O15 0.963743 0.262972 0.798990
O O16 0.216502 0.387423 0.797514
O O17 0.491123 0.000000 0.121760
O O18 0.500000 0.193522 0.000000
#
# Coordination Sequence:
#
# PCOD8064254 Si02
#       8
#     2   4   4   4   4   4   2   4
#     4   9  18  36  55  77 113 155 187 224 278 339
#     4  11  20  30  51  84 117 143 176 228 283 339
#     4  10  22  41  61  82 112 151 191 228 274 339
#     4  10  20  35  56  82 114 149 182 225 282 337
#     4  11  21  34  55  83 114 145 185 231 284 337
#     4  11  22  36  56  82 109 147 193 233 276 330
#     4   9  18  36  58  78 107 152 196 229 274 329
#     4   9  16  29  49  75 106 142 180 212 260 333
#
# _framework density 18.862860000000001
#
# number of rings (size 3 to 8) (size 9 to 14) (size 15 to 20)
#    0.000    1.857    2.857    2.143    0.000    5.714 
#    0.000    2.500    0.000    6.857    0.000    0.000 
#    0.000    0.000    0.000    0.000    0.000    0.000 
#
# Total GULP energy -347182.509125 kJ/mol
# GULP energy per Si atom -12399.375326 kJ/mol
# Density = 1.881993 g / cm^3
# Si number density = 18.862860 Si / 1000 Ang^3
#
#
#
# Elastic Constant Matrix: (Units=GPa)
#
#
# Indices 1 2 3 4 5 6 
#
# 1 77.9403 32.0754 21.2641 0.0000 3.4559 0.0000
# 2 32.0754 99.8499 38.0797 0.0000 9.2856 0.0000
# 3 21.2641 38.0797 74.8073 0.0000 9.2327 0.0000
# 4 0.0000 0.0000 0.0000 0.8082 0.0000 -2.9319
# 5 3.4559 9.2856 9.2327 0.0000 28.9305 0.0000
# 6 0.0000 0.0000 0.0000 -2.9319 0.0000 22.5710
#
#
#
# Elastic Compliance Matrix: (Units=1/GPa)
#
#
# Indices 1 2 3 4 5 6 
#
# 1 0.015088 -0.003997 -0.002280 0.000000 0.000208 0.000000
# 2 -0.003997 0.013604 -0.005527 0.000000 -0.002125 0.000000
# 3 -0.002280 -0.005527 0.017256 0.000000 -0.003461 0.000000
# 4 0.000000 0.000000 0.000000 2.339959 0.000000 0.303954
# 5 0.000208 -0.002125 -0.003461 0.000000 0.036327 0.000000
# 6 0.000000 0.000000 0.000000 0.303954 0.000000 0.083787
#
#
# Mechanical properties :
#
#
# Convention : Reuss Voigt Hill
#
# Bulk Modulus (GPa) = 44.75939 48.38176 46.57058
# Shear Modulus (GPa) = 1.97077 21.20716 11.58896
#
# Velocity S-wave (km/s) = 1.02326 3.35667 2.48136
# Velocity P-wave (km/s) = 5.01761 6.38184 5.74040
#
# Compressibility (1/GPa) = 0.02234168
#
# Stress axis : x y z
#
# Youngs Moduli (GPa) = 66.27828 73.50643 57.95017
#
# Poissons Ratio (x) = 0.29378 0.13213
# Poissons Ratio (y) = 0.26489 0.32027
# Poissons Ratio (z) = 0.15112 0.40625
#
# Static dielectric constant tensor:
#      x y z
#    x 3.314920 0.000000 0.008690 
#    y 0.000000 3.398470 0.000000 
#    z 0.008690 0.000000 3.524870 
# 
# 
# High freq. dielectric constant tensor:
#      x y z
#    x 1.724050 0.000000 0.005150 
#    y 0.000000 1.711310 0.000000 
#    z 0.005150 0.000000 1.730180 
# 
# From -- ./inp_files/55838.got.cif
#   From: 2010.06.25/outbox.cif.g09.slc.cpg/sg10_28_cif.got.tgz:55838.got - 2010.06.27 22:07:45.
