data_PCOD8064305
_publ_section_title
;
Structure prediction by ZEFSAII (Michael W. Deem and Ramdas Pophale) SiO2 
 PCOD8064305
Probable space group: P 2/M
;
_chemical_formula_sum "Si O2"
_cell_formula_units_Z 28
_cell_length_a 11.128995
_cell_length_b 9.442958
_cell_length_c 17.304484
_cell_angle_alpha 90.000000
_cell_angle_beta 48.739501
_cell_angle_gamma 90.000000
_cell_volume 1367.030398
_symmetry_space_group_name_H-M "P 2/M"
_symmetry_group_IT_number 10
_symmetry_cell_setting 'monoclinic'
loop_
_space_group_symop_operation_xyz
x,y,z
-x,y,-z
-x,-y,-z
x,-y,z
loop_
_atom_site_type_symbol
_atom_site_label
_atom_site_fract_x
_atom_site_fract_y
_atom_site_fract_z
Si Si1 0.760598 0.155890 0.902444
Si Si2 0.770356 0.285772 0.744152
Si Si3 0.306212 0.671270 0.390329
Si Si4 0.386290 0.168017 0.772326
Si Si5 0.119947 0.838929 0.764122
Si Si6 0.875667 0.346280 0.381065
Si Si7 0.418177 0.656007 0.910195
O O1 0.765231 0.153755 0.806242
O O2 0.935547 0.193383 0.862148
O O3 0.706038 0.000000 0.952570
O O4 0.638201 0.273164 0.985798
O O5 0.770255 0.251728 0.652776
O O6 0.608293 0.372445 0.829725
O O7 0.933282 0.367695 0.694172
O O8 0.319979 0.500000 0.372619
O O9 0.477508 0.744712 0.331366
O O10 0.193546 0.713562 0.509270
O O11 0.222180 0.195613 0.796506
O O12 0.364540 0.235585 0.866026
O O13 0.425837 0.000000 0.761700
O O14 0.181239 0.750531 0.664936
O O15 0.141771 0.000000 0.729017
O O16 0.799829 0.500000 0.397883
O O17 0.338796 0.500000 0.934329
#
# Coordination Sequence:
#
# PCOD8064305 Si02
#       7
#     4   4   4   4   4   4   4
#     4  10  22  39  58  81 111 146 185 226 272 326
#     4  10  20  35  57  81 112 147 182 221 267 324
#     4  10  21  36  56  84 115 144 180 227 276 323
#     4  10  21  39  60  79 107 147 187 225 272 327
#     4   9  21  40  58  79 109 146 185 228 273 321
#     4  10  20  35  58  84 110 146 185 223 271 326
#     4  11  23  37  57  85 114 143 180 227 276 325
#
# _framework density 20.482351999999999
#
# number of rings (size 3 to 8) (size 9 to 14) (size 15 to 20)
#    0.000    2.000    0.000    3.857    0.000   11.429 
#    0.000    5.714    0.000    6.857    0.000    0.000 
#    0.000    0.000    0.000    0.000    0.000    0.000 
#
# Total GULP energy -346941.580330 kJ/mol
# GULP energy per Si atom -12390.770726 kJ/mol
# Density = 2.043573 g / cm^3
# Si number density = 20.482352 Si / 1000 Ang^3
#
#
#
# Elastic Constant Matrix: (Units=GPa)
#
#
# Indices 1 2 3 4 5 6 
#
# 1 86.6260 33.4736 22.7047 0.0000 9.5189 0.0000
# 2 33.4736 95.6972 52.7616 0.0000 3.7633 0.0000
# 3 22.7047 52.7616 109.4619 0.0000 7.4829 0.0000
# 4 0.0000 0.0000 0.0000 31.6183 0.0000 3.3664
# 5 9.5189 3.7633 7.4829 0.0000 19.0604 0.0000
# 6 0.0000 0.0000 0.0000 3.3664 0.0000 7.5937
#
#
#
# Elastic Compliance Matrix: (Units=1/GPa)
#
#
# Indices 1 2 3 4 5 6 
#
# 1 0.014023 -0.004483 -0.000339 0.000000 -0.005985 0.000000
# 2 -0.004483 0.015665 -0.006743 0.000000 0.001793 0.000000
# 3 -0.000339 -0.006743 0.012694 0.000000 -0.003483 0.000000
# 4 0.000000 0.000000 0.000000 0.033194 0.000000 -0.014715
# 5 -0.005985 0.001793 -0.003483 0.000000 0.056467 0.000000
# 6 0.000000 0.000000 0.000000 -0.014715 0.000000 0.138212
#
#
# Mechanical properties :
#
#
# Convention : Reuss Voigt Hill
#
# Bulk Modulus (GPa) = 51.94252 56.62946 54.28599
# Shear Modulus (GPa) = 16.67765 23.84415 20.26090
#
# Velocity S-wave (km/s) = 2.85659 3.41564 3.14855
# Velocity P-wave (km/s) = 6.02452 6.57749 6.30707
#
# Compressibility (1/GPa) = 0.01925205
#
# Stress axis : x y z
#
# Youngs Moduli (GPa) = 71.31378 63.83630 78.77516
#
# Poissons Ratio (x) = 0.28617 0.02668
# Poissons Ratio (y) = 0.31969 0.53122
# Poissons Ratio (z) = 0.02415 0.43048
#
# Static dielectric constant tensor:
#      x y z
#    x 3.765660 0.000000 -0.027510 
#    y 0.000000 3.584550 0.000000 
#    z -0.027510 0.000000 3.737890 
# 
# 
# High freq. dielectric constant tensor:
#      x y z
#    x 1.796630 0.000000 0.001960 
#    y 0.000000 1.793270 0.000000 
#    z 0.001960 0.000000 1.803280 
# 
# From -- ./inp_files/63330.got.cif
#   From: 2010.06.25/outbox.cif.g09.slc.cpg/sg10_32_cif.got.tgz:63330.got - 2010.06.27 22:07:45.
