data_PCOD8064487
_publ_section_title
;
Structure prediction by ZEFSAII (Michael W. Deem and Ramdas Pophale) SiO2 
 PCOD8064487
Probable space group: P 2/M
;
_chemical_formula_sum "Si O2"
_cell_formula_units_Z 28
_cell_length_a 24.565316
_cell_length_b 9.091269
_cell_length_c 22.153328
_cell_angle_alpha 90.000000
_cell_angle_beta 162.580213
_cell_angle_gamma 90.000000
_cell_volume 1481.134787
_symmetry_space_group_name_H-M "P 2/M"
_symmetry_group_IT_number 10
_symmetry_cell_setting 'monoclinic'
loop_
_space_group_symop_operation_xyz
x,y,z
-x,y,-z
-x,-y,-z
x,-y,z
loop_
_atom_site_type_symbol
_atom_site_label
_atom_site_fract_x
_atom_site_fract_y
_atom_site_fract_z
Si Si1 0.908106 0.174003 0.340319
Si Si2 0.458369 0.329341 0.023653
Si Si3 0.286734 0.165276 0.285212
Si Si4 0.756089 0.672099 0.877969
Si Si5 0.345513 0.326546 0.465217
Si Si6 0.102975 0.326656 0.317138
Si Si7 0.161626 0.672120 0.513211
O O1 0.000000 0.224747 0.500000
O O2 0.022868 0.239463 0.407378
O O3 0.902397 0.000000 0.328179
O O4 0.704679 0.235484 0.121225
O O5 0.401744 0.500000 0.963727
O O6 0.632524 0.298767 0.249100
O O7 0.500000 0.275291 0.000000
O O8 0.500000 0.167889 0.500000
O O9 0.190841 0.245381 0.127605
O O10 0.243143 0.250205 0.300903
O O11 0.210957 0.000000 0.209865
O O12 0.765855 0.500000 0.873837
O O13 0.557684 0.717297 0.692523
O O14 0.900955 0.718800 0.082110
O O15 0.319098 0.500000 0.429147
O O16 0.253049 0.267083 0.428677
O O17 0.123094 0.500000 0.341818
O O18 0.140187 0.263154 0.422981
O O19 0.112585 0.500000 0.465792
#
# Coordination Sequence:
#
# PCOD8064487 Si02
#       7
#     4   4   4   4   4   4   4
#     4  11  23  37  57  84 114 148 181 221 274 330
#     4  10  20  35  59  88 113 142 180 226 277 325
#     4   9  17  30  49  74 102 133 171 215 262 308
#     4   9  17  31  52  75 101 134 171 213 263 313
#     4   9  17  31  51  73 100 132 171 215 262 313
#     4   9  19  34  53  78 103 134 176 220 262 313
#     4  10  21  38  59  83 113 145 185 232 276 328
#
# _framework density 18.904423999999999
#
# number of rings (size 3 to 8) (size 9 to 14) (size 15 to 20)
#    0.000    2.429    1.429    0.857    0.000    4.857 
#    0.000    9.286    0.000    3.429    0.000    0.000 
#    0.000    0.000    0.000    0.000    0.000    0.000 
#
# Total GULP energy -347232.228121 kJ/mol
# GULP energy per Si atom -12401.151004 kJ/mol
# Density = 1.886140 g / cm^3
# Si number density = 18.904424 Si / 1000 Ang^3
#
#
#
# Elastic Constant Matrix: (Units=GPa)
#
#
# Indices 1 2 3 4 5 6 
#
# 1 167.0462 50.0702 66.7347 0.0000 -10.5195 0.0000
# 2 50.0702 58.3963 40.0319 0.0000 -1.0131 0.0000
# 3 66.7347 40.0319 95.2486 0.0000 -6.9407 0.0000
# 4 0.0000 0.0000 0.0000 46.8871 0.0000 52.5904
# 5 -10.5195 -1.0131 -6.9407 0.0000 37.8232 0.0000
# 6 0.0000 0.0000 0.0000 52.5904 0.0000 97.7879
#
#
#
# Elastic Compliance Matrix: (Units=1/GPa)
#
#
# Indices 1 2 3 4 5 6 
#
# 1 0.009308 -0.005007 -0.004296 0.000000 0.001666 0.000000
# 2 -0.005007 0.026805 -0.007912 0.000000 -0.002127 0.000000
# 3 -0.004296 -0.007912 0.016958 0.000000 0.001705 0.000000
# 4 0.000000 0.000000 0.000000 0.053752 0.000000 -0.028908
# 5 0.001666 -0.002127 0.001705 0.000000 0.027158 0.000000
# 6 0.000000 0.000000 0.000000 -0.028908 0.000000 0.025773
#
#
# Mechanical properties :
#
#
# Convention : Reuss Voigt Hill
#
# Bulk Modulus (GPa) = 53.64657 70.48497 62.06577
# Shear Modulus (GPa) = 24.95006 47.42325 36.18665
#
# Velocity S-wave (km/s) = 3.63685 5.01401 4.37989
# Velocity P-wave (km/s) = 6.78785 8.41939 7.64726
#
# Compressibility (1/GPa) = 0.01864052
#
# Stress axis : x y z
#
# Youngs Moduli (GPa) = 107.42986 37.30630 58.96774
#
# Poissons Ratio (x) = 0.18681 0.25331
# Poissons Ratio (y) = 0.53795 0.46658
# Poissons Ratio (z) = 0.46150 0.29519
#
# Static dielectric constant tensor:
#      x y z
#    x 3.675390 0.000000 -0.186900 
#    y 0.000000 3.289820 0.000000 
#    z -0.186900 0.000000 3.734310 
# 
# 
# High freq. dielectric constant tensor:
#      x y z
#    x 1.737100 0.000000 0.001800 
#    y 0.000000 1.711410 0.000000 
#    z 0.001800 0.000000 1.739040 
# 
# From -- ./inp_files/86519.got.cif
#   From: 2010.06.25/outbox.cif.g09.slc.cpg/sg10_44_cif.got.tgz:86519.got - 2010.06.27 22:07:45.
