data_PCOD8064065
_publ_section_title
;
Structure prediction by ZEFSAII (Michael W. Deem and Ramdas Pophale) SiO2 
 PCOD8064065
Probable space group: P 2/M
;
_chemical_formula_sum "Si O2"
_cell_formula_units_Z 24
_cell_length_a 9.061978
_cell_length_b 9.098615
_cell_length_c 20.368329
_cell_angle_alpha 90.000000
_cell_angle_beta 48.858710
_cell_angle_gamma 90.000000
_cell_volume 1264.737115
_symmetry_space_group_name_H-M "P 2/M"
_symmetry_group_IT_number 10
_symmetry_cell_setting 'monoclinic'
loop_
_space_group_symop_operation_xyz
x,y,z
-x,y,-z
-x,-y,-z
x,-y,z
loop_
_atom_site_type_symbol
_atom_site_label
_atom_site_fract_x
_atom_site_fract_y
_atom_site_fract_z
Si Si1 0.967824 0.826385 0.083032
Si Si2 0.534310 0.173935 0.248606
Si Si3 0.717111 0.669165 0.920857
Si Si4 0.767232 0.670408 0.753103
Si Si5 0.804980 0.326822 0.403431
Si Si6 0.521025 0.673772 0.599959
O O1 0.756094 0.775063 0.170628
O O2 0.130721 0.761223 0.082199
O O3 0.988689 0.000000 0.078676
O O4 0.000000 0.766568 0.000000
O O5 0.404613 0.233777 0.227158
O O6 0.457221 0.241630 0.338645
O O7 0.514840 0.000000 0.257082
O O8 0.736451 0.500000 0.936270
O O9 0.764775 0.692519 0.831218
O O10 0.500000 0.727934 0.000000
O O11 0.738010 0.500000 0.742252
O O12 0.974585 0.733977 0.665894
O O13 0.807641 0.500000 0.394073
O O14 0.670612 0.267628 0.382898
O O15 0.712171 0.285142 0.500786
O O16 0.510765 0.500000 0.616396
#
# Coordination Sequence:
#
# PCOD8064065 Si02
#       6
#     4   4   4   4   4   4
#     4  10  22  39  57  77 105 143 181 212 250 311
#     4  11  23  36  51  77 109 139 177 219 259 307
#     4  10  21  36  57  86 112 133 168 220 269 309
#     4  10  20  35  54  77 107 141 176 214 260 314
#     4   8  16  32  56  81 101 132 180 220 254 313
#     4   9  17  34  58  79 102 135 175 219 266 312
#
# _framework density 18.976275000000001
#
# number of rings (size 3 to 8) (size 9 to 14) (size 15 to 20)
#    0.000    2.333    0.000    3.500    0.000    4.667 
#    0.000    6.667    0.000    0.000    0.000    0.000 
#    0.000    0.000    0.000    0.000    0.000    0.000 
#
# Total GULP energy -297637.191223 kJ/mol
# GULP energy per Si atom -12401.549634 kJ/mol
# Density = 1.893308 g / cm^3
# Si number density = 18.976275 Si / 1000 Ang^3
#
#
#
# Elastic Constant Matrix: (Units=GPa)
#
#
# Indices 1 2 3 4 5 6 
#
# 1 113.9330 31.3627 55.3607 0.0000 -15.4056 0.0000
# 2 31.3627 34.8697 32.6568 0.0000 -2.8809 0.0000
# 3 55.3607 32.6568 125.0812 0.0000 -14.6319 0.0000
# 4 0.0000 0.0000 0.0000 16.3323 0.0000 -6.2865
# 5 -15.4056 -2.8809 -14.6319 0.0000 37.5272 0.0000
# 6 0.0000 0.0000 0.0000 -6.2865 0.0000 24.0801
#
#
#
# Elastic Compliance Matrix: (Units=1/GPa)
#
#
# Indices 1 2 3 4 5 6 
#
# 1 0.013151 -0.008566 -0.003174 0.000000 0.003504 0.000000
# 2 -0.008566 0.043575 -0.007969 0.000000 -0.003279 0.000000
# 3 -0.003174 -0.007969 0.011794 0.000000 0.002684 0.000000
# 4 0.000000 0.000000 0.000000 0.068068 0.000000 0.017770
# 5 0.003504 -0.003279 0.002684 0.000000 0.028880 0.000000
# 6 0.000000 0.000000 0.000000 0.017770 0.000000 0.046167
#
#
# Mechanical properties :
#
#
# Convention : Reuss Voigt Hill
#
# Bulk Modulus (GPa) = 34.36225 56.96048 45.66136
# Shear Modulus (GPa) = 19.17497 25.88818 22.53157
#
# Velocity S-wave (km/s) = 3.18224 3.69757 3.44954
# Velocity P-wave (km/s) = 5.62579 6.95062 6.32300
#
# Compressibility (1/GPa) = 0.02910171
#
# Stress axis : x y z
#
# Youngs Moduli (GPa) = 76.03793 22.94878 84.78666
#
# Poissons Ratio (x) = 0.19658 0.26915
# Poissons Ratio (y) = 0.65136 0.67566
# Poissons Ratio (z) = 0.24137 0.18288
#
# Static dielectric constant tensor:
#      x y z
#    x 3.522660 0.000000 -0.211640 
#    y 0.000000 3.195670 0.000000 
#    z -0.211640 0.000000 3.871850 
# 
# 
# High freq. dielectric constant tensor:
#      x y z
#    x 1.744020 0.000000 -0.002290 
#    y 0.000000 1.709080 0.000000 
#    z -0.002290 0.000000 1.756640 
# 
# From -- ./inp_files/33782.got.cif
#   From: 2010.06.25/outbox.cif.g09.slc.cpg/sg10_17_cif.got.tgz:33782.got - 2010.06.27 22:07:45.
