data_PCOD8064898
_publ_section_title
;
Structure prediction by ZEFSAII (Michael W. Deem and Ramdas Pophale) SiO2 
 PCOD8064898
Probable space group: P 2/M
;
_chemical_formula_sum "Si O2"
_cell_formula_units_Z 28
_cell_length_a 14.432006
_cell_length_b 9.086145
_cell_length_c 12.590933
_cell_angle_alpha 90.000000
_cell_angle_beta 59.393617
_cell_angle_gamma 90.000000
_cell_volume 1421.047741
_symmetry_space_group_name_H-M "P 2/M"
_symmetry_group_IT_number 10
_symmetry_cell_setting 'monoclinic'
loop_
_space_group_symop_operation_xyz
x,y,z
-x,y,-z
-x,-y,-z
x,-y,z
loop_
_atom_site_type_symbol
_atom_site_label
_atom_site_fract_x
_atom_site_fract_y
_atom_site_fract_z
Si Si1 0.119891 0.174947 0.910810
Si Si2 0.889919 0.327751 0.509626
Si Si3 0.720065 0.174414 0.999747
Si Si4 0.502200 0.669837 0.182805
Si Si5 0.197521 0.174179 0.636689
Si Si6 0.412632 0.665933 0.460200
Si Si7 0.276694 0.669496 0.214355
O O1 0.199937 0.233993 0.955533
O O2 0.161437 0.232602 0.773065
O O3 0.118372 0.000000 0.913785
O O4 0.000000 0.237670 0.000000
O O5 0.889516 0.500000 0.484740
O O6 0.882305 0.241682 0.403688
O O7 0.789845 0.282645 0.642783
O O8 0.000000 0.277712 0.500000
O O9 0.599973 0.229780 0.089987
O O10 0.719331 0.000000 0.996629
O O11 0.762167 0.234358 0.862479
O O12 0.539123 0.500000 0.159772
O O13 0.467609 0.720065 0.320152
O O14 0.403125 0.695165 0.160565
O O15 0.318656 0.224017 0.545405
O O16 0.190992 0.000000 0.633762
O O17 0.500000 0.670090 0.500000
O O18 0.366346 0.500000 0.471564
O O19 0.252315 0.500000 0.202093
#
# Coordination Sequence:
#
# PCOD8064898 Si02
#       7
#     4   4   4   4   4   4   4
#     4   9  21  41  59  80 117 160 192 231 293 349
#     4  10  22  41  64  88 119 156 194 243 297 350
#     4  11  23  37  59  87 116 152 198 246 285 337
#     4  10  20  37  58  82 117 157 190 231 292 354
#     4  11  22  37  62  90 118 153 195 245 294 348
#     4  10  20  36  60  86 117 159 199 238 290 352
#     4  10  21  39  60  84 118 157 191 231 295 356
#
# _framework density 19.703771
#
# number of rings (size 3 to 8) (size 9 to 14) (size 15 to 20)
#    0.000    1.857    1.429    2.143    2.000    4.000 
#    0.000    2.143    0.000    3.429    0.000    0.000 
#    0.000    0.000    0.000    0.000    0.000    0.000 
#
# Total GULP energy -347320.247491 kJ/mol
# GULP energy per Si atom -12404.294553 kJ/mol
# Density = 1.965892 g / cm^3
# Si number density = 19.703771 Si / 1000 Ang^3
#
#
#
# Elastic Constant Matrix: (Units=GPa)
#
#
# Indices 1 2 3 4 5 6 
#
# 1 108.4498 35.1755 36.6319 0.0000 13.2124 0.0000
# 2 35.1755 57.2806 37.8515 0.0000 10.0535 0.0000
# 3 36.6319 37.8515 99.5567 0.0000 24.4218 0.0000
# 4 0.0000 0.0000 0.0000 36.5155 0.0000 -1.4963
# 5 13.2124 10.0535 24.4218 0.0000 37.3535 0.0000
# 6 0.0000 0.0000 0.0000 -1.4963 0.0000 33.7256
#
#
#
# Elastic Compliance Matrix: (Units=1/GPa)
#
#
# Indices 1 2 3 4 5 6 
#
# 1 0.011909 -0.005874 -0.001790 0.000000 -0.001461 0.000000
# 2 -0.005874 0.026223 -0.007845 0.000000 0.000149 0.000000
# 3 -0.001790 -0.007845 0.015498 0.000000 -0.007388 0.000000
# 4 0.000000 0.000000 0.000000 0.027435 0.000000 0.001217
# 5 -0.001461 0.000149 -0.007388 0.000000 0.032078 0.000000
# 6 0.000000 0.000000 0.000000 0.001217 0.000000 0.029705
#
#
# Mechanical properties :
#
#
# Convention : Reuss Voigt Hill
#
# Bulk Modulus (GPa) = 44.22516 53.84500 49.03508
# Shear Modulus (GPa) = 27.56273 31.89414 29.72843
#
# Velocity S-wave (km/s) = 3.74419 4.02765 3.88850
# Velocity P-wave (km/s) = 6.41760 7.00113 6.71571
#
# Compressibility (1/GPa) = 0.02261156
#
# Stress axis : x y z
#
# Youngs Moduli (GPa) = 83.97276 38.13455 64.52259
#
# Poissons Ratio (x) = 0.22398 0.11551
# Poissons Ratio (y) = 0.49322 0.50621
# Poissons Ratio (z) = 0.15034 0.29918
#
# Static dielectric constant tensor:
#      x y z
#    x 3.702900 0.000000 0.100410 
#    y 0.000000 3.362870 0.000000 
#    z 0.100410 0.000000 3.739520 
# 
# 
# High freq. dielectric constant tensor:
#      x y z
#    x 1.779680 0.000000 0.007870 
#    y 0.000000 1.744940 0.000000 
#    z 0.007870 0.000000 1.782110 
# 
# From -- ./inp_files/49346.got.cif
#   From: 2010.06.25/outbox.cif.g09.slc.cpg/sg10_25_cif.got.tgz:49346.got - 2010.06.27 22:07:45.
