data_PCOD8064836
_publ_section_title
;
Structure prediction by ZEFSAII (Michael W. Deem and Ramdas Pophale) SiO2 
 PCOD8064836
Probable space group: P 2/M
;
_chemical_formula_sum "Si O2"
_cell_formula_units_Z 32
_cell_length_a 14.536581
_cell_length_b 9.110431
_cell_length_c 25.443994
_cell_angle_alpha 90.000000
_cell_angle_beta 29.765923
_cell_angle_gamma 90.000000
_cell_volume 1672.895403
_symmetry_space_group_name_H-M "P 2/M"
_symmetry_group_IT_number 10
_symmetry_cell_setting 'monoclinic'
loop_
_space_group_symop_operation_xyz
x,y,z
-x,y,-z
-x,-y,-z
x,-y,z
loop_
_atom_site_type_symbol
_atom_site_label
_atom_site_fract_x
_atom_site_fract_y
_atom_site_fract_z
Si Si1 0.044964 0.171311 0.742555
Si Si2 0.527257 0.670923 0.652106
Si Si3 0.185234 0.832812 0.558407
Si Si4 0.774637 0.830465 0.734332
Si Si5 0.117716 0.171836 0.992707
Si Si6 0.527957 0.829361 0.758548
Si Si7 0.304159 0.668540 0.124221
Si Si8 0.869122 0.327745 0.196613
O O1 0.162595 0.197921 0.631495
O O2 0.151525 0.251182 0.736756
O O3 0.841186 0.238766 0.837589
O O4 0.023879 0.000000 0.765562
O O5 0.560546 0.500000 0.641300
O O6 0.655427 0.727862 0.541603
O O7 0.584360 0.745004 0.678210
O O8 0.315022 0.708676 0.744711
O O9 0.993593 0.798047 0.623193
O O10 0.245507 0.000000 0.518409
O O11 0.685687 0.792102 0.722564
O O12 0.677723 0.729993 0.825913
O O13 0.740043 0.000000 0.767072
O O14 0.328907 0.221467 0.879117
O O15 0.100928 0.000000 0.013913
O O16 0.000000 0.214658 0.000000
O O17 0.044101 0.262148 0.078916
O O18 0.521151 0.000000 0.747804
O O19 0.239034 0.500000 0.158537
O O20 0.500000 0.686234 0.000000
O O21 0.898864 0.500000 0.189956
#
# Coordination Sequence:
#
# PCOD8064836 Si02
#       8
#     4   4   4   4   4   4   4   4
#     4  10  22  40  62  86 113 150 196 241 287 341
#     4  11  24  39  58  85 116 154 194 236 294 352
#     4   9  20  40  62  83 111 148 192 244 293 339
#     4   9  20  38  59  85 114 151 195 238 289 339
#     4  10  20  36  59  86 115 152 196 239 285 339
#     4  10  21  38  60  86 117 152 194 241 285 339
#     4  10  21  36  55  84 119 154 190 232 287 344
#     4  11  24  39  57  85 121 156 190 236 293 352
#
# _framework density 19.128512000000001
#
# number of rings (size 3 to 8) (size 9 to 14) (size 15 to 20)
#    0.000    2.000    1.250    2.250    1.750    7.250 
#    0.000    5.000    0.000    0.000    0.000    0.000 
#    0.000    0.000    0.000    0.000    0.000    0.000 
#
# Total GULP energy -396970.202731 kJ/mol
# GULP energy per Si atom -12405.318835 kJ/mol
# Density = 1.908497 g / cm^3
# Si number density = 19.128512 Si / 1000 Ang^3
#
#
#
# Elastic Constant Matrix: (Units=GPa)
#
#
# Indices 1 2 3 4 5 6 
#
# 1 83.0252 46.1568 23.4287 0.0000 19.9423 0.0000
# 2 46.1568 89.1924 47.2864 0.0000 10.2372 0.0000
# 3 23.4287 47.2864 87.1003 0.0000 13.6068 0.0000
# 4 0.0000 0.0000 0.0000 15.4151 0.0000 -11.3038
# 5 19.9423 10.2372 13.6068 0.0000 18.5224 0.0000
# 6 0.0000 0.0000 0.0000 -11.3038 0.0000 20.9563
#
#
#
# Elastic Compliance Matrix: (Units=1/GPa)
#
#
# Indices 1 2 3 4 5 6 
#
# 1 0.021886 -0.010629 0.002990 0.000000 -0.019886 0.000000
# 2 -0.010629 0.021028 -0.009635 0.000000 0.006899 0.000000
# 3 0.002990 -0.009635 0.017598 0.000000 -0.010822 0.000000
# 4 0.000000 0.000000 0.000000 0.107321 0.000000 0.057888
# 5 -0.019886 0.006899 -0.010822 0.000000 0.079536 0.000000
# 6 0.000000 0.000000 0.000000 0.057888 0.000000 0.078943
#
#
# Mechanical properties :
#
#
# Convention : Reuss Voigt Hill
#
# Bulk Modulus (GPa) = 38.51360 54.78464 46.64912
# Shear Modulus (GPa) = 13.53125 20.47517 17.00321
#
# Velocity S-wave (km/s) = 2.66256 3.27525 2.98467
# Velocity P-wave (km/s) = 5.44336 6.55786 6.02643
#
# Compressibility (1/GPa) = 0.02596485
#
# Stress axis : x y z
#
# Youngs Moduli (GPa) = 45.69069 47.55505 56.82413
#
# Poissons Ratio (x) = 0.50545 -0.16989
# Poissons Ratio (y) = 0.48563 0.54750
# Poissons Ratio (z) = -0.13660 0.45819
#
# Static dielectric constant tensor:
#      x y z
#    x 3.566710 0.000000 -0.013070 
#    y 0.000000 3.526370 0.000000 
#    z -0.013070 0.000000 3.380100 
# 
# 
# High freq. dielectric constant tensor:
#      x y z
#    x 1.749190 0.000000 0.002560 
#    y 0.000000 1.746480 0.000000 
#    z 0.002560 0.000000 1.742660 
# 
# From -- ./inp_files/66498.got.cif
#   From: 2010.06.25/outbox.cif.g09.slc.cpg/sg10_34_cif.got.tgz:66498.got - 2010.06.27 22:07:45.
