data_PCOD8064454
_publ_section_title
;
Structure prediction by ZEFSAII (Michael W. Deem and Ramdas Pophale) SiO2 
 PCOD8064454
Probable space group: P 2/M
;
_chemical_formula_sum "Si O2"
_cell_formula_units_Z 24
_cell_length_a 8.343203
_cell_length_b 16.469570
_cell_length_c 12.041494
_cell_angle_alpha 90.000000
_cell_angle_beta 46.859518
_cell_angle_gamma 90.000000
_cell_volume 1207.334162
_symmetry_space_group_name_H-M "P 2/M"
_symmetry_group_IT_number 10
_symmetry_cell_setting 'monoclinic'
loop_
_space_group_symop_operation_xyz
x,y,z
-x,y,-z
-x,-y,-z
x,-y,z
loop_
_atom_site_type_symbol
_atom_site_label
_atom_site_fract_x
_atom_site_fract_y
_atom_site_fract_z
Si Si1 0.379716 0.000000 0.892503
Si Si2 0.111957 0.842701 0.562129
Si Si3 0.144381 0.000000 0.235766
Si Si4 0.609687 0.706839 0.065842
Si Si5 0.897749 0.265242 0.231022
Si Si6 0.428205 0.159314 0.752554
Si Si7 0.237134 0.589510 0.833983
O O1 0.318606 0.921402 0.851579
O O2 0.641946 0.000000 0.788014
O O3 0.226795 0.000000 0.071871
O O4 0.093741 0.760995 0.644795
O O5 0.366850 0.862872 0.422519
O O6 0.000000 0.820517 0.500000
O O7 0.998279 0.919987 0.673361
O O8 0.491269 0.782395 0.183607
O O9 0.598155 0.628276 0.152029
O O10 0.500000 0.686525 0.000000
O O11 0.860201 0.733383 0.933337
O O12 0.761762 0.198897 0.229083
O O13 0.780706 0.353137 0.267369
O O14 0.325341 0.500000 0.758140
O O15 0.000000 0.580843 0.000000
#
# Coordination Sequence:
#
# PCOD8064454 Si02
#       7
#     2   4   2   4   4   4   4
#     4  11  23  39  60  84 116 156 196 241 288 339
#     4  12  22  38  58  82 117 155 200 239 289 342
#     4  11  24  38  57  86 117 154 195 244 295 332
#     4  10  20  35  58  88 117 151 197 243 289 346
#     4  10  22  38  58  87 115 154 196 240 294 346
#     4  11  22  37  58  81 117 154 197 242 288 343
#     4   8  16  34  59  87 120 152 187 236 291 346
#
# _framework density 19.878506000000002
#
# number of rings (size 3 to 8) (size 9 to 14) (size 15 to 20)
#    0.000    1.667    1.667    4.750    2.333    1.000 
#    0.000    4.167    0.000    8.500    0.000    0.000 
#    0.000    0.000    0.000    0.000    0.000    0.000 
#
# Total GULP energy -297565.585041 kJ/mol
# GULP energy per Si atom -12398.566043 kJ/mol
# Density = 1.983326 g / cm^3
# Si number density = 19.878506 Si / 1000 Ang^3
#
#
#
# Elastic Constant Matrix: (Units=GPa)
#
#
# Indices 1 2 3 4 5 6 
#
# 1 98.8946 59.9672 34.5396 0.0000 2.4869 0.0000
# 2 59.9672 177.5497 54.7200 0.0000 19.4896 0.0000
# 3 34.5396 54.7200 85.9304 0.0000 -2.2104 0.0000
# 4 0.0000 0.0000 0.0000 14.3008 0.0000 4.2972
# 5 2.4869 19.4896 -2.2104 0.0000 28.1893 0.0000
# 6 0.0000 0.0000 0.0000 4.2972 0.0000 21.0826
#
#
#
# Elastic Compliance Matrix: (Units=1/GPa)
#
#
# Indices 1 2 3 4 5 6 
#
# 1 0.013384 -0.003732 -0.002973 0.000000 0.001166 0.000000
# 2 -0.003732 0.008904 -0.004328 0.000000 -0.006166 0.000000
# 3 -0.002973 -0.004328 0.015704 0.000000 0.004486 0.000000
# 4 0.000000 0.000000 0.000000 0.074488 0.000000 -0.015183
# 5 0.001166 -0.006166 0.004486 0.000000 0.039986 0.000000
# 6 0.000000 0.000000 0.000000 -0.015183 0.000000 0.050527
#
#
# Mechanical properties :
#
#
# Convention : Reuss Voigt Hill
#
# Bulk Modulus (GPa) = 62.79601 73.42536 68.11068
# Shear Modulus (GPa) = 21.70442 26.92441 24.31442
#
# Velocity S-wave (km/s) = 3.30791 3.68428 3.50115
# Velocity P-wave (km/s) = 6.80060 7.42400 7.11913
#
# Compressibility (1/GPa) = 0.01592458
#
# Stress axis : x y z
#
# Youngs Moduli (GPa) = 74.71680 112.31530 63.67860
#
# Poissons Ratio (x) = 0.41918 0.18932
# Poissons Ratio (y) = 0.27886 0.27561
# Poissons Ratio (z) = 0.22213 0.48612
#
# Static dielectric constant tensor:
#      x y z
#    x 3.661560 0.000000 0.092500 
#    y 0.000000 3.899690 0.000000 
#    z 0.092500 0.000000 3.698470 
# 
# 
# High freq. dielectric constant tensor:
#      x y z
#    x 1.774670 0.000000 0.004130 
#    y 0.000000 1.770280 0.000000 
#    z 0.004130 0.000000 1.767760 
# 
# From -- ./inp_files/43240.got.cif
#   From: 2010.06.25/outbox.cif.g09.slc.cpg/sg10_22_cif.got.tgz:43240.got - 2010.06.27 22:07:45.
