data_PCOD8064234
_publ_section_title
;
Structure prediction by ZEFSAII (Michael W. Deem and Ramdas Pophale) SiO2 
 PCOD8064234
Probable space group: P 2/M
;
_chemical_formula_sum "Si O2"
_cell_formula_units_Z 28
_cell_length_a 9.302006
_cell_length_b 8.820242
_cell_length_c 29.121874
_cell_angle_alpha 90.000000
_cell_angle_beta 37.529946
_cell_angle_gamma 90.000000
_cell_volume 1455.523486
_symmetry_space_group_name_H-M "P 2/M"
_symmetry_group_IT_number 10
_symmetry_cell_setting 'monoclinic'
loop_
_space_group_symop_operation_xyz
x,y,z
-x,y,-z
-x,-y,-z
x,-y,z
loop_
_atom_site_type_symbol
_atom_site_label
_atom_site_fract_x
_atom_site_fract_y
_atom_site_fract_z
Si Si1 0.693292 0.323036 0.861377
Si Si2 0.230393 0.321402 0.570674
Si Si3 0.928839 0.820108 0.295892
Si Si4 0.598598 0.822447 0.299380
Si Si5 0.029576 0.176882 0.129719
Si Si6 0.075103 0.825140 0.428752
Si Si7 0.849326 0.325172 0.993790
O O1 0.744400 0.500000 0.842819
O O2 0.779257 0.269551 0.889566
O O3 0.822572 0.234371 0.787714
O O4 0.418932 0.283886 0.927014
O O5 0.500000 0.264846 0.500000
O O6 0.216108 0.500000 0.580292
O O7 0.100173 0.245289 0.646329
O O8 0.101677 0.272711 0.556850
O O9 0.718852 0.759691 0.315746
O O10 0.931844 0.000000 0.297482
O O11 0.338700 0.754202 0.356813
O O12 0.765681 0.782877 0.213954
O O13 0.565615 0.000000 0.314383
O O14 0.048819 0.220846 0.072109
O O15 0.081484 0.000000 0.123843
O O16 0.000000 0.808121 0.500000
O O17 0.063466 0.000000 0.415589
O O18 0.875116 0.500000 0.972478
O O19 0.000000 0.285923 0.000000
#
# Coordination Sequence:
#
# PCOD8064234 Si02
#       7
#     4   4   4   4   4   4   4
#     4  10  20  36  58  82 110 143 180 224 275 329
#     4  11  24  39  55  80 115 150 183 221 268 322
#     4  10  20  37  61  85 110 141 181 226 271 323
#     4   8  17  34  55  82 110 136 174 226 277 322
#     4  10  20  35  56  81 110 144 184 227 271 325
#     4  10  20  36  59  83 108 142 185 229 272 320
#     4  10  22  38  54  76 109 147 185 227 276 327
#
# _framework density 19.237065999999999
#
# number of rings (size 3 to 8) (size 9 to 14) (size 15 to 20)
#    0.000    2.143    0.000    3.857    0.000    6.857 
#    0.000    7.143    0.000    0.000    0.000    0.000 
#    0.000    0.000    0.000    0.000    0.000    0.000 
#
# Total GULP energy -347278.137758 kJ/mol
# GULP energy per Si atom -12402.790634 kJ/mol
# Density = 1.919328 g / cm^3
# Si number density = 19.237066 Si / 1000 Ang^3
#
#
#
# Elastic Constant Matrix: (Units=GPa)
#
#
# Indices 1 2 3 4 5 6 
#
# 1 113.8614 33.0092 72.0717 0.0000 -13.9610 0.0000
# 2 33.0092 56.6862 40.5024 0.0000 -2.1883 0.0000
# 3 72.0717 40.5024 114.9967 0.0000 -4.9923 0.0000
# 4 0.0000 0.0000 0.0000 28.6704 0.0000 3.3382
# 5 -13.9610 -2.1883 -4.9923 0.0000 38.0661 0.0000
# 6 0.0000 0.0000 0.0000 3.3382 0.0000 28.4110
#
#
#
# Elastic Compliance Matrix: (Units=1/GPa)
#
#
# Indices 1 2 3 4 5 6 
#
# 1 0.015561 -0.002752 -0.008591 0.000000 0.004422 0.000000
# 2 -0.002752 0.024063 -0.006772 0.000000 -0.000514 0.000000
# 3 -0.008591 -0.006772 0.016405 0.000000 -0.001389 0.000000
# 4 0.000000 0.000000 0.000000 0.035363 0.000000 -0.004155
# 5 0.004422 -0.000514 -0.001389 0.000000 0.027680 0.000000
# 6 0.000000 0.000000 0.000000 -0.004155 0.000000 0.035686
#
#
# Mechanical properties :
#
#
# Convention : Reuss Voigt Hill
#
# Bulk Modulus (GPa) = 50.51218 64.07897 57.29558
# Shear Modulus (GPa) = 25.30522 28.36022 26.83272
#
# Velocity S-wave (km/s) = 3.63084 3.84376 3.73881
# Velocity P-wave (km/s) = 6.62511 7.28573 6.96325
#
# Compressibility (1/GPa) = 0.01979721
#
# Stress axis : x y z
#
# Youngs Moduli (GPa) = 64.26498 41.55808 60.95662
#
# Poissons Ratio (x) = 0.11438 0.52368
# Poissons Ratio (y) = 0.17687 0.41283
# Poissons Ratio (z) = 0.55210 0.28145
#
# Static dielectric constant tensor:
#      x y z
#    x 3.570690 0.000000 -0.143680 
#    y 0.000000 3.406560 0.000000 
#    z -0.143680 0.000000 3.638090 
# 
# 
# High freq. dielectric constant tensor:
#      x y z
#    x 1.747790 0.000000 -0.002970 
#    y 0.000000 1.738690 0.000000 
#    z -0.002970 0.000000 1.761640 
# 
# From -- ./inp_files/37102.got.cif
#   From: 2010.06.25/outbox.cif.g09.slc.cpg/sg10_19_cif.got.tgz:37102.got - 2010.06.27 22:07:45.
