data_PCOD8064332
_publ_section_title
;
Structure prediction by ZEFSAII (Michael W. Deem and Ramdas Pophale) SiO2 
 PCOD8064332
Probable space group: P 2/M
;
_chemical_formula_sum "Si O2"
_cell_formula_units_Z 24
_cell_length_a 9.381884
_cell_length_b 9.623332
_cell_length_c 14.676173
_cell_angle_alpha 90.000000
_cell_angle_beta 71.026993
_cell_angle_gamma 90.000000
_cell_volume 1253.051188
_symmetry_space_group_name_H-M "P 2/M"
_symmetry_group_IT_number 10
_symmetry_cell_setting 'monoclinic'
loop_
_space_group_symop_operation_xyz
x,y,z
-x,y,-z
-x,-y,-z
x,-y,z
loop_
_atom_site_type_symbol
_atom_site_label
_atom_site_fract_x
_atom_site_fract_y
_atom_site_fract_z
Si Si1 0.061179 0.837000 0.586380
Si Si2 0.835210 0.842027 0.791734
Si Si3 0.497487 0.159086 0.896310
Si Si4 0.673066 0.655873 0.207093
Si Si5 0.650019 0.337075 0.415050
Si Si6 0.012167 0.656833 0.098894
O O1 0.211571 0.751297 0.575073
O O2 0.000000 0.796814 0.500000
O O3 0.928710 0.793964 0.683996
O O4 0.099930 0.000000 0.585079
O O5 0.657337 0.824811 0.811780
O O6 0.870625 0.749585 0.871484
O O7 0.875832 0.000000 0.808178
O O8 0.377925 0.245257 0.863412
O O9 0.442998 0.000000 0.907764
O O10 0.500000 0.214046 0.000000
O O11 0.619827 0.500000 0.193746
O O12 0.611764 0.702227 0.318390
O O13 0.852205 0.663069 0.181450
O O14 0.500000 0.296649 0.500000
O O15 0.690585 0.500000 0.415894
O O16 0.076109 0.500000 0.082498
O O17 0.000000 0.717423 0.000000
#
# Coordination Sequence:
#
# PCOD8064332 Si02
#       6
#     4   4   4   4   4   4
#     4  10  22  39  59  85 114 146 187 232 279 334
#     4  10  21  37  56  81 113 147 186 230 276 331
#     4  10  22  38  56  82 115 150 189 231 276 329
#     4  10  21  37  56  82 114 145 184 231 276 331
#     4  10  22  40  60  85 115 146 185 231 280 336
#     4  10  20  35  57  83 110 143 184 230 279 332
#
# _framework density 19.153245999999999
#
# number of rings (size 3 to 8) (size 9 to 14) (size 15 to 20)
#    0.000    2.000    1.667    1.000    2.333    3.333 
#    0.000    0.000    0.000    0.000    0.000    0.000 
#    0.000    0.000    0.000    0.000    0.000    0.000 
#
# Total GULP energy -297654.775468 kJ/mol
# GULP energy per Si atom -12402.282311 kJ/mol
# Density = 1.910965 g / cm^3
# Si number density = 19.153246 Si / 1000 Ang^3
#
#
#
# Elastic Constant Matrix: (Units=GPa)
#
#
# Indices 1 2 3 4 5 6 
#
# 1 67.9683 36.1439 23.2859 0.0000 5.1296 0.0000
# 2 36.1439 60.8957 28.3844 0.0000 16.4625 0.0000
# 3 23.2859 28.3844 104.0505 0.0000 1.9420 0.0000
# 4 0.0000 0.0000 0.0000 28.9653 0.0000 8.7173
# 5 5.1296 16.4625 1.9420 0.0000 38.5415 0.0000
# 6 0.0000 0.0000 0.0000 8.7173 0.0000 38.9123
#
#
#
# Elastic Compliance Matrix: (Units=1/GPa)
#
#
# Indices 1 2 3 4 5 6 
#
# 1 0.021965 -0.013138 -0.001383 0.000000 0.002758 0.000000
# 2 -0.013138 0.029336 -0.004866 0.000000 -0.010537 0.000000
# 3 -0.001383 -0.004866 0.011216 0.000000 0.001697 0.000000
# 4 0.000000 0.000000 0.000000 0.037020 0.000000 -0.008293
# 5 0.002758 -0.010537 0.001697 0.000000 0.029994 0.000000
# 6 0.000000 0.000000 0.000000 -0.008293 0.000000 0.027557
#
#
# Mechanical properties :
#
#
# Convention : Reuss Voigt Hill
#
# Bulk Modulus (GPa) = 42.11769 45.39367 43.75568
# Shear Modulus (GPa) = 24.53680 30.95717 27.74698
#
# Velocity S-wave (km/s) = 3.58310 4.02467 3.81029
# Velocity P-wave (km/s) = 6.25745 6.73417 6.50018
#
# Compressibility (1/GPa) = 0.02374299
#
# Stress axis : x y z
#
# Youngs Moduli (GPa) = 45.52723 34.08794 89.15868
#
# Poissons Ratio (x) = 0.44784 0.12332
# Poissons Ratio (y) = 0.59813 0.43383
# Poissons Ratio (z) = 0.06297 0.16587
#
# Static dielectric constant tensor:
#      x y z
#    x 3.291220 0.000000 -0.167950 
#    y 0.000000 3.457860 0.000000 
#    z -0.167950 0.000000 3.677480 
# 
# 
# High freq. dielectric constant tensor:
#      x y z
#    x 1.737050 0.000000 -0.009440 
#    y 0.000000 1.738450 0.000000 
#    z -0.009440 0.000000 1.762650 
# 
# From -- ./inp_files/60184.got.cif
#   From: 2010.06.25/outbox.cif.g09.slc.cpg/sg10_31_cif.got.tgz:60184.got - 2010.06.27 22:07:45.
