data_PCOD8064288
_publ_section_title
;
Structure prediction by ZEFSAII (Michael W. Deem and Ramdas Pophale) SiO2 
 PCOD8064288
Probable space group: P 2/M
;
_chemical_formula_sum "Si O2"
_cell_formula_units_Z 32
_cell_length_a 15.876773
_cell_length_b 16.924702
_cell_length_c 13.219974
_cell_angle_alpha 90.000000
_cell_angle_beta 26.057667
_cell_angle_gamma 90.000000
_cell_volume 1560.453711
_symmetry_space_group_name_H-M "P 2/M"
_symmetry_group_IT_number 10
_symmetry_cell_setting 'monoclinic'
loop_
_space_group_symop_operation_xyz
x,y,z
-x,y,-z
-x,-y,-z
x,-y,z
loop_
_atom_site_type_symbol
_atom_site_label
_atom_site_fract_x
_atom_site_fract_y
_atom_site_fract_z
Si Si1 0.213686 0.707115 0.747673
Si Si2 0.396627 0.089314 0.214974
Si Si3 0.981273 0.833457 0.405720
Si Si4 0.526757 0.592889 0.083441
Si Si5 0.588153 0.240450 0.271887
Si Si6 0.182554 0.593838 0.602913
Si Si7 0.698444 0.088982 0.065941
Si Si8 0.849689 0.675574 0.840589
O O1 0.322346 0.703254 0.737507
O O2 0.354833 0.761689 0.526564
O O3 0.201978 0.624529 0.698243
O O4 0.000000 0.741728 0.000000
O O5 0.231286 0.153637 0.406486
O O6 0.532211 0.099647 0.163893
O O7 0.315549 0.000000 0.296231
O O8 0.500000 0.111673 0.000000
O O9 0.000000 0.864288 0.500000
O O10 0.027006 0.740353 0.352357
O O11 0.105613 0.888776 0.199521
O O12 0.510869 0.500000 0.094098
O O13 0.362046 0.621676 0.339918
O O14 0.500000 0.629765 0.000000
O O15 0.744276 0.613965 0.880890
O O16 0.657750 0.148993 0.203225
O O17 0.669758 0.277871 0.082275
O O18 0.165609 0.500000 0.626201
O O19 0.985161 0.629356 0.772272
O O20 0.709540 0.000000 0.096830
#
# Coordination Sequence:
#
# PCOD8064288 Si02
#       8
#     4   4   4   4   4   4   4   4
#     4  11  22  43  67  93 125 159 204 266 333 383
#     4  10  20  35  56  85 124 167 210 263 318 371
#     4  11  23  35  56  92 126 168 215 263 315 370
#     4  10  23  43  64  89 130 176 214 258 308 372
#     4  10  23  41  63  93 123 162 204 257 331 385
#     4  11  24  42  68  97 127 165 215 268 319 382
#     4  10  22  40  63  89 126 171 216 265 315 378
#     4  11  23  40  59  93 128 168 211 261 315 379
#
# _framework density 20.506855999999999
#
# number of rings (size 3 to 8) (size 9 to 14) (size 15 to 20)
#    0.000    1.500    3.750    0.750    3.500    0.750 
#    0.000    4.375    0.000    0.750    0.000    0.000 
#    0.000    0.000    0.000    0.000    0.000    0.000 
#
# Total GULP energy -396542.610346 kJ/mol
# GULP energy per Si atom -12391.956573 kJ/mol
# Density = 2.046018 g / cm^3
# Si number density = 20.506856 Si / 1000 Ang^3
#
#
#
# Elastic Constant Matrix: (Units=GPa)
#
#
# Indices 1 2 3 4 5 6 
#
# 1 76.8298 36.0314 31.2950 0.0000 -4.9805 0.0000
# 2 36.0314 82.8079 49.5274 0.0000 -2.9209 0.0000
# 3 31.2950 49.5274 131.6992 0.0000 -12.4309 0.0000
# 4 0.0000 0.0000 0.0000 32.3173 0.0000 -4.8610
# 5 -4.9805 -2.9209 -12.4309 0.0000 30.7624 0.0000
# 6 0.0000 0.0000 0.0000 -4.8610 0.0000 26.3674
#
#
#
# Elastic Compliance Matrix: (Units=1/GPa)
#
#
# Indices 1 2 3 4 5 6 
#
# 1 0.016673 -0.006344 -0.001433 0.000000 0.001518 0.000000
# 2 -0.006344 0.018020 -0.005411 0.000000 -0.001503 0.000000
# 3 -0.001433 -0.005411 0.010290 0.000000 0.003413 0.000000
# 4 0.000000 0.000000 0.000000 0.031826 0.000000 0.005867
# 5 0.001518 -0.001503 0.003413 0.000000 0.033989 0.000000
# 6 0.000000 0.000000 0.000000 0.005867 0.000000 0.039007
#
#
# Mechanical properties :
#
#
# Convention : Reuss Voigt Hill
#
# Bulk Modulus (GPa) = 53.74176 58.33827 56.04002
# Shear Modulus (GPa) = 27.41462 29.52163 28.46813
#
# Velocity S-wave (km/s) = 3.66026 3.79832 3.72993
# Velocity P-wave (km/s) = 6.64282 6.90987 6.77766
#
# Compressibility (1/GPa) = 0.01860750
#
# Stress axis : x y z
#
# Youngs Moduli (GPa) = 59.97668 55.49408 97.17710
#
# Poissons Ratio (x) = 0.35207 0.13924
# Poissons Ratio (y) = 0.38051 0.52582
# Poissons Ratio (z) = 0.08593 0.30027
#
# Static dielectric constant tensor:
#      x y z
#    x 3.602160 0.000000 0.015900 
#    y 0.000000 3.675300 0.000000 
#    z 0.015900 0.000000 4.064260 
# 
# 
# High freq. dielectric constant tensor:
#      x y z
#    x 1.791670 0.000000 -0.006920 
#    y 0.000000 1.788570 0.000000 
#    z -0.006920 0.000000 1.817800 
# 
# From -- ./inp_files/51947.got.cif
#   From: 2010.06.25/outbox.cif.g09.slc.cpg/sg10_26_cif.got.tgz:51947.got - 2010.06.27 22:07:45.
