data_PCOD8064970
_publ_section_title
;
Structure prediction by ZEFSAII (Michael W. Deem and Ramdas Pophale) SiO2 
 PCOD8064970
Probable space group: P 2/M
;
_chemical_formula_sum "Si O2"
_cell_formula_units_Z 32
_cell_length_a 28.484568
_cell_length_b 9.144411
_cell_length_c 12.307847
_cell_angle_alpha 90.000000
_cell_angle_beta 149.534698
_cell_angle_gamma 90.000000
_cell_volume 1625.434722
_symmetry_space_group_name_H-M "P 2/M"
_symmetry_group_IT_number 10
_symmetry_cell_setting 'monoclinic'
loop_
_space_group_symop_operation_xyz
x,y,z
-x,y,-z
-x,-y,-z
x,-y,z
loop_
_atom_site_type_symbol
_atom_site_label
_atom_site_fract_x
_atom_site_fract_y
_atom_site_fract_z
Si Si1 0.711886 0.334160 0.396958
Si Si2 0.224820 0.169734 0.273092
Si Si3 0.325826 0.172003 0.251740
Si Si4 0.016933 0.828375 0.911529
Si Si5 0.147842 0.664885 0.504867
Si Si6 0.547988 0.164917 0.980742
Si Si7 0.497743 0.327917 0.680842
Si Si8 0.294242 0.671511 0.977603
O O1 0.676656 0.500000 0.340595
O O2 0.715567 0.259914 0.521559
O O3 0.810179 0.328032 0.532796
O O4 0.644020 0.249834 0.180530
O O5 0.261839 0.207417 0.227712
O O6 0.238521 0.000000 0.329199
O O7 0.117930 0.216003 0.069595
O O8 0.423751 0.257089 0.451464
O O9 0.344328 0.000000 0.276865
O O10 0.271228 0.234341 0.038786
O O11 0.944666 0.761007 0.681442
O O12 0.001407 0.000000 0.878934
O O13 0.000000 0.768243 0.000000
O O14 0.119685 0.500000 0.478102
O O15 0.221353 0.722433 0.740505
O O16 0.481511 0.250584 0.764762
O O17 0.564897 0.000000 0.972643
O O18 0.500000 0.164595 0.000000
O O19 0.479324 0.500000 0.651972
O O20 0.601634 0.291225 0.851521
O O21 0.284630 0.500000 0.983432
#
# Coordination Sequence:
#
# PCOD8064970 Si02
#       8
#     4   4   4   4   4   4   4   4
#     4  11  21  35  57  85 116 152 192 233 289 351
#     4  10  22  40  58  84 123 155 189 241 294 347
#     4  11  24  40  59  86 118 154 197 244 291 343
#     4  10  20  36  61  89 115 153 194 232 288 352
#     4  10  21  38  59  87 118 147 186 241 292 339
#     4  11  23  36  52  80 119 158 194 237 288 343
#     4  11  22  39  61  85 115 154 198 244 290 342
#     4  10  22  42  62  83 116 155 196 243 291 340
#
# _framework density 19.687038999999999
#
# number of rings (size 3 to 8) (size 9 to 14) (size 15 to 20)
#    0.000    1.500    2.500    2.625    0.000    9.250 
#    0.000    0.625    0.000    3.750    0.000    0.000 
#    0.000    0.000    0.000    0.000    0.000    0.000 
#
# Total GULP energy -396898.625842 kJ/mol
# GULP energy per Si atom -12403.082058 kJ/mol
# Density = 1.964223 g / cm^3
# Si number density = 19.687039 Si / 1000 Ang^3
#
#
#
# Elastic Constant Matrix: (Units=GPa)
#
#
# Indices 1 2 3 4 5 6 
#
# 1 73.2700 37.1408 40.3835 0.0000 -14.5275 0.0000
# 2 37.1408 83.6536 46.6858 0.0000 -8.6145 0.0000
# 3 40.3835 46.6858 117.0649 0.0000 -7.7751 0.0000
# 4 0.0000 0.0000 0.0000 35.0505 0.0000 -7.7348
# 5 -14.5275 -8.6145 -7.7751 0.0000 32.1966 0.0000
# 6 0.0000 0.0000 0.0000 -7.7348 0.0000 24.6244
#
#
#
# Elastic Compliance Matrix: (Units=1/GPa)
#
#
# Indices 1 2 3 4 5 6 
#
# 1 0.020288 -0.006008 -0.004168 0.000000 0.006540 0.000000
# 2 -0.006008 0.017386 -0.004809 0.000000 0.000780 0.000000
# 3 -0.004168 -0.004809 0.011878 0.000000 -0.000299 0.000000
# 4 0.000000 0.000000 0.000000 0.030655 0.000000 0.009629
# 5 0.006540 0.000780 -0.000299 0.000000 0.034146 0.000000
# 6 0.000000 0.000000 0.000000 0.009629 0.000000 0.043635
#
#
# Mechanical properties :
#
#
# Convention : Reuss Voigt Hill
#
# Bulk Modulus (GPa) = 51.06954 58.04542 54.55748
# Shear Modulus (GPa) = 25.70892 28.35953 27.03422
#
# Velocity S-wave (km/s) = 3.61762 3.79953 3.70969
# Velocity P-wave (km/s) = 6.59140 6.98546 6.79129
#
# Compressibility (1/GPa) = 0.01958114
#
# Stress axis : x y z
#
# Youngs Moduli (GPa) = 49.29131 57.51904 84.18735
#
# Poissons Ratio (x) = 0.34555 0.35092
# Poissons Ratio (y) = 0.29612 0.40487
# Poissons Ratio (z) = 0.20546 0.27662
#
# Static dielectric constant tensor:
#      x y z
#    x 3.471230 0.000000 -0.055790 
#    y 0.000000 3.615520 0.000000 
#    z -0.055790 0.000000 3.666810 
# 
# 
# High freq. dielectric constant tensor:
#      x y z
#    x 1.756300 0.000000 -0.005600 
#    y 0.000000 1.769690 0.000000 
#    z -0.005600 0.000000 1.769190 
# 
# From -- ./inp_files/58174.got.cif
#   From: 2010.06.25/outbox.cif.g09.slc.cpg/sg10_30_cif.got.tgz:58174.got - 2010.06.27 22:07:45.
