data_PCOD8064603
_publ_section_title
;
Structure prediction by ZEFSAII (Michael W. Deem and Ramdas Pophale) SiO2 
 PCOD8064603
Probable space group: P 2/M
;
_chemical_formula_sum "Si O2"
_cell_formula_units_Z 30
_cell_length_a 11.719430
_cell_length_b 18.549569
_cell_length_c 11.043130
_cell_angle_alpha 90.000000
_cell_angle_beta 142.084104
_cell_angle_gamma 90.000000
_cell_volume 1475.221661
_symmetry_space_group_name_H-M "P 2/M"
_symmetry_group_IT_number 10
_symmetry_cell_setting 'monoclinic'
loop_
_space_group_symop_operation_xyz
x,y,z
-x,y,-z
-x,-y,-z
x,-y,z
loop_
_atom_site_type_symbol
_atom_site_label
_atom_site_fract_x
_atom_site_fract_y
_atom_site_fract_z
Si Si1 0.217365 0.580625 0.846251
Si Si2 0.222383 0.185605 0.039221
Si Si3 0.000000 0.696481 0.000000
Si Si4 0.129970 0.657897 0.344901
Si Si5 0.718205 0.918176 0.696183
Si Si6 0.873041 0.822596 0.613525
Si Si7 0.605406 0.626765 0.242518
Si Si8 0.418202 0.792114 0.806499
O O1 0.150274 0.500000 0.823626
O O2 0.278332 0.580598 0.757134
O O3 0.055950 0.637966 0.736687
O O4 0.393977 0.601603 0.076687
O O5 0.144613 0.255489 0.044507
O O6 0.098131 0.170997 0.812783
O O7 0.211853 0.118069 0.120966
O O8 0.432402 0.199083 0.175681
O O9 0.106635 0.642729 0.182157
O O10 0.182121 0.741874 0.396227
O O11 0.301976 0.615053 0.548103
O O12 0.500000 0.913904 0.500000
O O13 0.799006 0.878979 0.647782
O O14 0.789706 0.000000 0.758397
O O15 0.772065 0.833884 0.397380
O O16 0.624082 0.708240 0.208844
O O17 0.500000 0.825463 0.000000
#
# Coordination Sequence:
#
# PCOD8064603 Si02
#       8
#     4   4   2   4   4   4   4   4
#     4  11  22  38  59  85 118 152 201 257 305 358
#     4  11  20  37  58  87 126 154 199 250 302 351
#     4  10  20  36  60  88 116 162 194 250 296 362
#     4  10  21  36  57  85 119 154 195 248 302 353
#     4  11  21  37  64  95 127 161 202 253 308 355
#     4  10  21  36  58  91 119 160 199 251 299 357
#     4  10  20  36  56  86 113 154 200 250 300 354
#     4  11  22  36  58  86 124 156 202 256 301 351
#
# _framework density 20.335927999999999
#
# number of rings (size 3 to 8) (size 9 to 14) (size 15 to 20)
#    0.000    1.467    5.333    2.800    0.000    3.200 
#    0.000    2.333    0.000    2.400    0.000    1.867 
#    0.000    0.000    0.000    0.000    0.000    0.000 
#
# Total GULP energy -371756.574038 kJ/mol
# GULP energy per Si atom -12391.885801 kJ/mol
# Density = 2.028964 g / cm^3
# Si number density = 20.335928 Si / 1000 Ang^3
#
#
#
# Elastic Constant Matrix: (Units=GPa)
#
#
# Indices 1 2 3 4 5 6 
#
# 1 34.6621 15.3293 22.5053 0.0000 -6.8795 0.0000
# 2 15.3293 69.7181 30.5538 0.0000 -5.7336 0.0000
# 3 22.5053 30.5538 178.6956 0.0000 -33.7726 0.0000
# 4 0.0000 0.0000 0.0000 18.0783 0.0000 3.1824
# 5 -6.8795 -5.7336 -33.7726 0.0000 34.2623 0.0000
# 6 0.0000 0.0000 0.0000 3.1824 0.0000 17.8911
#
#
#
# Elastic Compliance Matrix: (Units=1/GPa)
#
#
# Indices 1 2 3 4 5 6 
#
# 1 0.033858 -0.006029 -0.002629 0.000000 0.003198 0.000000
# 2 -0.006029 0.016579 -0.002187 0.000000 -0.000592 0.000000
# 3 -0.002629 -0.002187 0.007536 0.000000 0.006535 0.000000
# 4 0.000000 0.000000 0.000000 0.057103 0.000000 -0.010157
# 5 0.003198 -0.000592 0.006535 0.000000 0.036171 0.000000
# 6 0.000000 0.000000 0.000000 -0.010157 0.000000 0.057701
#
#
# Mechanical properties :
#
#
# Convention : Reuss Voigt Hill
#
# Bulk Modulus (GPa) = 27.56175 46.65027 37.10601
# Shear Modulus (GPa) = 20.59878 28.35882 24.47880
#
# Velocity S-wave (km/s) = 3.18610 3.73838 3.47323
# Velocity P-wave (km/s) = 5.20746 6.45163 5.86265
#
# Compressibility (1/GPa) = 0.03628217
#
# Stress axis : x y z
#
# Youngs Moduli (GPa) = 29.53510 60.31692 132.69322
#
# Poissons Ratio (x) = 0.36368 0.34882
# Poissons Ratio (y) = 0.17808 0.29024
# Poissons Ratio (z) = 0.07764 0.13193
#
# Static dielectric constant tensor:
#      x y z
#    x 3.389390 0.000000 -0.101010 
#    y 0.000000 3.488460 0.000000 
#    z -0.101010 0.000000 4.627300 
# 
# 
# High freq. dielectric constant tensor:
#      x y z
#    x 1.760740 0.000000 0.001550 
#    y 0.000000 1.759780 0.000000 
#    z 0.001550 0.000000 1.829830 
# 
# From -- ./inp_files/47918.got.cif
#   From: 2010.06.25/outbox.cif.g09.slc.cpg/sg10_24_cif.got.tgz:47918.got - 2010.06.27 22:07:45.
