data_PCOD8064312
_publ_section_title
;
Structure prediction by ZEFSAII (Michael W. Deem and Ramdas Pophale) SiO2 
 PCOD8064312
Probable space group: P 2/M
;
_chemical_formula_sum "Si O2"
_cell_formula_units_Z 28
_cell_length_a 24.366704
_cell_length_b 8.992188
_cell_length_c 21.873549
_cell_angle_alpha 90.000000
_cell_angle_beta 162.093529
_cell_angle_gamma 90.000000
_cell_volume 1473.587124
_symmetry_space_group_name_H-M "P 2/M"
_symmetry_group_IT_number 10
_symmetry_cell_setting 'monoclinic'
loop_
_space_group_symop_operation_xyz
x,y,z
-x,y,-z
-x,-y,-z
x,-y,z
loop_
_atom_site_type_symbol
_atom_site_label
_atom_site_fract_x
_atom_site_fract_y
_atom_site_fract_z
Si Si1 0.961111 0.173938 0.527701
Si Si2 0.393659 0.176196 0.182103
Si Si3 0.700684 0.324730 0.700420
Si Si4 0.334914 0.824587 0.983693
Si Si5 0.135548 0.829753 0.012653
Si Si6 0.593254 0.323998 0.161665
Si Si7 0.256681 0.830030 0.380143
O O1 0.793956 0.262470 0.377626
O O2 0.000000 0.226123 0.500000
O O3 0.915154 0.000000 0.481382
O O4 0.134106 0.214305 0.750910
O O5 0.358579 0.238717 0.077343
O O6 0.585819 0.231770 0.409849
O O7 0.383724 0.000000 0.168222
O O8 0.243494 0.237280 0.069592
O O9 0.500000 0.271063 0.500000
O O10 0.719211 0.500000 0.720218
O O11 0.763629 0.265765 0.702095
O O12 0.827040 0.261183 0.886608
O O13 0.479877 0.742131 0.096605
O O14 0.370954 0.000000 0.016679
O O15 0.925980 0.817343 0.775105
O O16 0.192883 0.000000 0.085218
O O17 0.599381 0.500000 0.174309
O O18 0.500000 0.272950 0.000000
O O19 0.296161 0.000000 0.402817
#
# Coordination Sequence:
#
# PCOD8064312 Si02
#       7
#     4   4   4   4   4   4   4
#     4  10  20  35  59  89 116 146 187 236 287 337
#     4   9  19  36  57  82 111 144 182 230 278 326
#     4  11  22  35  54  81 110 145 186 228 277 326
#     4  10  21  38  61  87 115 149 191 238 286 338
#     4  10  20  35  57  82 108 140 183 228 278 332
#     4  11  23  37  57  85 117 153 188 230 284 342
#     4  10  20  35  58  84 109 142 183 227 278 332
#
# _framework density 19.001252000000001
#
# number of rings (size 3 to 8) (size 9 to 14) (size 15 to 20)
#    0.000    1.857    2.857    1.286    0.000    5.429 
#    0.000    5.714    0.000    1.714    0.000    0.000 
#    0.000    0.000    0.000    0.000    0.000    0.000 
#
# Total GULP energy -347285.456763 kJ/mol
# GULP energy per Si atom -12403.052027 kJ/mol
# Density = 1.895800 g / cm^3
# Si number density = 19.001252 Si / 1000 Ang^3
#
#
#
# Elastic Constant Matrix: (Units=GPa)
#
#
# Indices 1 2 3 4 5 6 
#
# 1 135.1363 37.7272 100.2049 0.0000 -14.5291 0.0000
# 2 37.7272 47.9824 40.1061 0.0000 4.2799 0.0000
# 3 100.2049 40.1061 142.2695 0.0000 9.3230 0.0000
# 4 0.0000 0.0000 0.0000 17.5288 0.0000 2.6973
# 5 -14.5291 4.2799 9.3230 0.0000 36.4500 0.0000
# 6 0.0000 0.0000 0.0000 2.6973 0.0000 5.5761
#
#
#
# Elastic Compliance Matrix: (Units=1/GPa)
#
#
# Indices 1 2 3 4 5 6 
#
# 1 0.020343 -0.005809 -0.013493 0.000000 0.012242 0.000000
# 2 -0.005809 0.028981 -0.003767 0.000000 -0.004755 0.000000
# 3 -0.013493 -0.003767 0.018223 0.000000 -0.009597 0.000000
# 4 0.000000 0.000000 0.000000 0.061637 0.000000 -0.029815
# 5 0.012242 -0.004755 -0.009597 0.000000 0.035328 0.000000
# 6 0.000000 0.000000 0.000000 -0.029815 0.000000 0.193758
#
#
# Mechanical properties :
#
#
# Convention : Reuss Voigt Hill
#
# Bulk Modulus (GPa) = 46.70749 75.71828 61.21288
# Shear Modulus (GPa) = 12.14940 21.73433 16.94186
#
# Velocity S-wave (km/s) = 2.53138 3.38573 2.98924
# Velocity P-wave (km/s) = 5.76008 7.43101 6.64825
#
# Compressibility (1/GPa) = 0.02140984
#
# Stress axis : x y z
#
# Youngs Moduli (GPa) = 49.15712 34.50540 54.87558
#
# Poissons Ratio (x) = 0.20044 0.74043
# Poissons Ratio (y) = 0.28556 0.20670
# Poissons Ratio (z) = 0.66327 0.12997
#
# Static dielectric constant tensor:
#      x y z
#    x 3.566410 0.000000 0.013600 
#    y 0.000000 3.227830 0.000000 
#    z 0.013600 0.000000 3.670130 
# 
# 
# High freq. dielectric constant tensor:
#      x y z
#    x 1.740580 0.000000 0.009240 
#    y 0.000000 1.714670 0.000000 
#    z 0.009240 0.000000 1.751570 
# 
# From -- ./inp_files/86530.got.cif
#   From: 2010.06.25/outbox.cif.g09.slc.cpg/sg10_44_cif.got.tgz:86530.got - 2010.06.27 22:07:45.
