data_PCOD8064444
_publ_section_title
;
Structure prediction by ZEFSAII (Michael W. Deem and Ramdas Pophale) SiO2 
 PCOD8064444
Probable space group: P 2/M
;
_chemical_formula_sum "Si O2"
_cell_formula_units_Z 28
_cell_length_a 22.339827
_cell_length_b 13.348532
_cell_length_c 9.487058
_cell_angle_alpha 90.000000
_cell_angle_beta 27.425741
_cell_angle_gamma 90.000000
_cell_volume 1303.069215
_symmetry_space_group_name_H-M "P 2/M"
_symmetry_group_IT_number 10
_symmetry_cell_setting 'monoclinic'
loop_
_space_group_symop_operation_xyz
x,y,z
-x,y,-z
-x,-y,-z
x,-y,z
loop_
_atom_site_type_symbol
_atom_site_label
_atom_site_fract_x
_atom_site_fract_y
_atom_site_fract_z
Si Si1 0.113521 0.617505 0.062469
Si Si2 0.557765 0.387154 0.225186
Si Si3 0.974068 0.116460 0.400380
Si Si4 0.834979 0.617494 0.730501
Si Si5 0.201500 0.194343 0.738192
Si Si6 0.249014 0.118342 0.334423
Si Si7 0.517355 0.213764 0.802489
O O1 0.121283 0.500000 0.003556
O O2 0.183006 0.640035 0.066081
O O3 0.965915 0.662014 0.386832
O O4 0.181619 0.685532 0.801064
O O5 0.500000 0.381822 0.500000
O O6 0.549805 0.500000 0.183447
O O7 0.475332 0.317535 0.296209
O O8 0.706893 0.347588 0.914951
O O9 0.000000 0.167600 0.500000
O O10 0.839176 0.157022 0.612762
O O11 0.953915 0.000000 0.466613
O O12 0.094846 0.131848 0.044542
O O13 0.855518 0.500000 0.674349
O O14 0.193278 0.172614 0.589639
O O15 0.342554 0.159941 0.504854
O O16 0.235036 0.000000 0.385776
O O17 0.400811 0.143497 0.989630
O O18 0.500000 0.243731 0.000000
#
# Coordination Sequence:
#
# PCOD8064444 Si02
#       7
#     4   4   4   4   4   4   4
#     4   9  18  32  53  87 127 160 201 248 295 351
#     4  10  20  35  58  86 122 165 207 247 295 357
#     4  10  23  42  65  93 120 150 196 252 309 366
#     4   8  16  31  52  81 118 166 208 243 294 348
#     4  11  22  36  63  94 120 163 203 245 300 359
#     4  10  23  45  67  87 119 159 199 251 310 369
#     4  10  24  40  58  91 121 160 208 247 300 355
#
# _framework density 21.487729999999999
#
# number of rings (size 3 to 8) (size 9 to 14) (size 15 to 20)
#    0.000    2.286    0.000    2.571    4.000    7.429 
#    0.000    2.143    0.000    4.714    0.000    0.000 
#    0.000    0.000    0.000    0.000    0.000    0.000 
#
# Total GULP energy -347115.562480 kJ/mol
# GULP energy per Si atom -12396.984374 kJ/mol
# Density = 2.143882 g / cm^3
# Si number density = 21.487730 Si / 1000 Ang^3
#
#
#
# Elastic Constant Matrix: (Units=GPa)
#
#
# Indices 1 2 3 4 5 6 
#
# 1 133.7267 35.6543 43.1081 0.0000 -22.0434 0.0000
# 2 35.6543 56.0039 15.7656 0.0000 1.4428 0.0000
# 3 43.1081 15.7656 88.9857 0.0000 -18.3424 0.0000
# 4 0.0000 0.0000 0.0000 23.2883 0.0000 5.6148
# 5 -22.0434 1.4428 -18.3424 0.0000 25.5587 0.0000
# 6 0.0000 0.0000 0.0000 5.6148 0.0000 26.2098
#
#
#
# Elastic Compliance Matrix: (Units=1/GPa)
#
#
# Indices 1 2 3 4 5 6 
#
# 1 0.011539 -0.006820 -0.002642 0.000000 0.008441 0.000000
# 2 -0.006820 0.023188 -0.002684 0.000000 -0.009117 0.000000
# 3 -0.002642 -0.002684 0.014734 0.000000 0.008447 0.000000
# 4 0.000000 0.000000 0.000000 0.045279 0.000000 -0.009700
# 5 0.008441 -0.009117 0.008447 0.000000 0.052983 0.000000
# 6 0.000000 0.000000 0.000000 -0.009700 0.000000 0.040232
#
#
# Mechanical properties :
#
#
# Convention : Reuss Voigt Hill
#
# Bulk Modulus (GPa) = 39.72873 51.97469 45.85171
# Shear Modulus (GPa) = 22.66171 27.29058 24.97615
#
# Velocity S-wave (km/s) = 3.25104 3.56765 3.41302
# Velocity P-wave (km/s) = 5.71152 6.41961 6.07589
#
# Compressibility (1/GPa) = 0.02517070
#
# Stress axis : x y z
#
# Youngs Moduli (GPa) = 86.65932 43.12531 67.86947
#
# Poissons Ratio (x) = 0.29412 0.17930
# Poissons Ratio (y) = 0.59104 0.18213
# Poissons Ratio (z) = 0.22894 0.11573
#
# Static dielectric constant tensor:
#      x y z
#    x 5.948340 0.000000 -2.015730 
#    y 0.000000 3.768480 0.000000 
#    z -2.015730 0.000000 5.413260 
# 
# 
# High freq. dielectric constant tensor:
#      x y z
#    x 1.838120 0.000000 -0.021720 
#    y 0.000000 1.843560 0.000000 
#    z -0.021720 0.000000 1.844350 
# 
# From -- ./inp_files/35235.got.cif
#   From: 2010.06.25/outbox.cif.g09.slc.cpg/sg10_18_cif.got.tgz:35235.got - 2010.06.27 22:07:45.
