data_PCOD8064436
_publ_section_title
;
Structure prediction by ZEFSAII (Michael W. Deem and Ramdas Pophale) SiO2 
 PCOD8064436
Probable space group: P 2/M
;
_chemical_formula_sum "Si O2"
_cell_formula_units_Z 28
_cell_length_a 13.763925
_cell_length_b 8.381133
_cell_length_c 13.584002
_cell_angle_alpha 90.000000
_cell_angle_beta 120.301038
_cell_angle_gamma 90.000000
_cell_volume 1352.938250
_symmetry_space_group_name_H-M "P 2/M"
_symmetry_group_IT_number 10
_symmetry_cell_setting 'monoclinic'
loop_
_space_group_symop_operation_xyz
x,y,z
-x,y,-z
-x,-y,-z
x,-y,z
loop_
_atom_site_type_symbol
_atom_site_label
_atom_site_fract_x
_atom_site_fract_y
_atom_site_fract_z
Si Si1 0.094809 0.815143 0.629088
Si Si2 0.051420 0.315214 0.816060
Si Si3 0.807695 0.315356 0.761769
Si Si4 0.524441 0.810197 0.903926
Si Si5 0.619237 0.813024 0.527336
Si Si6 0.235086 0.185389 0.049718
Si Si7 0.329507 0.809979 0.661630
O O1 0.062783 0.709580 0.705933
O O2 0.211719 0.749513 0.645175
O O3 0.000000 0.789175 0.500000
O O4 0.104235 0.000000 0.665353
O O5 0.068895 0.500000 0.852176
O O6 0.928939 0.255095 0.787257
O O7 0.143552 0.209203 0.918197
O O8 0.790887 0.500000 0.728637
O O9 0.712403 0.217310 0.657075
O O10 0.799259 0.287001 0.873394
O O11 0.645654 0.750490 0.929202
O O12 0.430059 0.744286 0.781229
O O13 0.521477 0.000000 0.905970
O O14 0.500000 0.740291 0.000000
O O15 0.500000 0.737299 0.500000
O O16 0.655170 0.738884 0.440411
O O17 0.603546 0.000000 0.505591
O O18 0.242244 0.000000 0.082192
O O19 0.329922 0.000000 0.658872
#
# Coordination Sequence:
#
# PCOD8064436 Si02
#       7
#     4   4   4   4   4   4   4
#     4  10  20  35  58  86 113 145 188 235 279 327
#     4  11  24  40  57  80 114 153 189 229 283 342
#     4  11  24  40  57  80 114 152 186 227 284 343
#     4   9  17  31  54  84 114 142 176 223 280 334
#     4  10  20  36  60  87 114 147 190 236 278 326
#     4  11  22  37  61  87 109 142 190 238 282 332
#     4   9  17  31  53  83 116 145 179 230 284 329
#
# _framework density 20.695696999999999
#
# number of rings (size 3 to 8) (size 9 to 14) (size 15 to 20)
#    0.000    1.857    0.000    4.286    0.000   10.286 
#    0.000    0.714    0.000    9.429    0.000    0.000 
#    0.000    0.000    0.000    0.000    0.000    0.000 
#
# Total GULP energy -347336.428186 kJ/mol
# GULP energy per Si atom -12404.872435 kJ/mol
# Density = 2.064859 g / cm^3
# Si number density = 20.695697 Si / 1000 Ang^3
#
#
#
# Elastic Constant Matrix: (Units=GPa)
#
#
# Indices 1 2 3 4 5 6 
#
# 1 203.1774 19.9095 70.6654 0.0000 1.5747 0.0000
# 2 19.9095 19.5804 6.8307 0.0000 -0.0314 0.0000
# 3 70.6654 6.8307 125.4918 0.0000 -1.1735 0.0000
# 4 0.0000 0.0000 0.0000 12.4433 0.0000 -0.6137
# 5 1.5747 -0.0314 -1.1735 0.0000 47.8516 0.0000
# 6 0.0000 0.0000 0.0000 -0.6137 0.0000 13.7788
#
#
#
# Elastic Compliance Matrix: (Units=1/GPa)
#
#
# Indices 1 2 3 4 5 6 
#
# 1 0.006673 -0.005580 -0.003457 0.000000 -0.000308 0.000000
# 2 -0.005580 0.056726 0.000057 0.000000 0.000222 0.000000
# 3 -0.003457 0.000057 0.009916 0.000000 0.000357 0.000000
# 4 0.000000 0.000000 0.000000 0.080542 0.000000 0.003587
# 5 -0.000308 0.000222 0.000357 0.000000 0.020917 0.000000
# 6 0.000000 0.000000 0.000000 0.003587 0.000000 0.072735
#
#
# Mechanical properties :
#
#
# Convention : Reuss Voigt Hill
#
# Bulk Modulus (GPa) = 18.06553 60.34011 39.20282
# Shear Modulus (GPa) = 17.61054 31.53766 24.57410
#
# Velocity S-wave (km/s) = 2.92023 3.90792 3.44961
# Velocity P-wave (km/s) = 4.48535 7.04142 5.90339
#
# Compressibility (1/GPa) = 0.05535402
#
# Stress axis : x y z
#
# Youngs Moduli (GPa) = 149.85046 17.62860 100.85177
#
# Poissons Ratio (x) = 0.09837 0.34864
# Poissons Ratio (y) = 0.83617 -0.00570
# Poissons Ratio (z) = 0.51803 -0.00100
#
# Static dielectric constant tensor:
#      x y z
#    x 4.061870 0.000000 -0.042040 
#    y 0.000000 3.260180 0.000000 
#    z -0.042040 0.000000 3.753600 
# 
# 
# High freq. dielectric constant tensor:
#      x y z
#    x 1.831120 0.000000 -0.000850 
#    y 0.000000 1.769600 0.000000 
#    z -0.000850 0.000000 1.823950 
# 
# From -- ./inp_files/50054.got.cif
#   From: 2010.06.25/outbox.cif.g09.slc.cpg/sg10_26_cif.got.tgz:50054.got - 2010.06.27 22:07:45.
