data_PCOD8064904
_publ_section_title
;
Structure prediction by ZEFSAII (Michael W. Deem and Ramdas Pophale) SiO2 
 PCOD8064904
Probable space group: P 2/M
;
_chemical_formula_sum "Si O2"
_cell_formula_units_Z 28
_cell_length_a 25.944243
_cell_length_b 9.380900
_cell_length_c 9.856763
_cell_angle_alpha 90.000000
_cell_angle_beta 141.579004
_cell_angle_gamma 90.000000
_cell_volume 1490.786597
_symmetry_space_group_name_H-M "P 2/M"
_symmetry_group_IT_number 10
_symmetry_cell_setting 'monoclinic'
loop_
_space_group_symop_operation_xyz
x,y,z
-x,y,-z
-x,-y,-z
x,-y,z
loop_
_atom_site_type_symbol
_atom_site_label
_atom_site_fract_x
_atom_site_fract_y
_atom_site_fract_z
Si Si1 0.814003 0.665089 0.881179
Si Si2 0.850567 0.162173 0.444822
Si Si3 0.564237 0.668196 0.746993
Si Si4 0.435292 0.165677 0.982454
Si Si5 0.251366 0.166747 0.506891
Si Si6 0.744240 0.663213 0.026116
Si Si7 0.972869 0.837010 0.293656
O O1 0.828346 0.500000 0.874970
O O2 0.767589 0.742025 0.663805
O O3 0.753831 0.683491 0.885438
O O4 0.902815 0.734425 0.092361
O O5 0.813940 0.214705 0.512344
O O6 0.815681 0.250372 0.247631
O O7 0.949819 0.177577 0.649977
O O8 0.822853 0.000000 0.362857
O O9 0.500000 0.716395 0.500000
O O10 0.560893 0.500000 0.764401
O O11 0.539452 0.745034 0.834208
O O12 0.654564 0.720382 0.885258
O O13 0.343134 0.206328 0.745320
O O14 0.441527 0.000000 0.032434
O O15 0.500000 0.208322 0.000000
O O16 0.242948 0.000000 0.454348
O O17 0.755239 0.500000 0.091566
O O18 0.000000 0.788937 0.500000
O O19 0.940174 0.000000 0.229837
#
# Coordination Sequence:
#
# PCOD8064904 Si02
#       7
#     4   4   4   4   4   4   4
#     4  11  24  38  57  86 119 153 192 237 287 341
#     4  10  20  37  62  86 110 150 195 237 286 342
#     4  10  22  39  60  87 118 153 193 235 283 342
#     4  10  22  40  61  88 119 151 191 239 288 338
#     4  10  22  40  59  82 117 154 191 235 286 342
#     4  10  21  37  57  84 116 151 192 238 283 336
#     4  10  20  36  60  87 114 147 193 240 287 343
#
# _framework density 18.782031
#
# number of rings (size 3 to 8) (size 9 to 14) (size 15 to 20)
#    0.000    1.857    2.857    0.429    2.000    3.714 
#    0.000    2.857    0.000    0.000    0.000    0.000 
#    0.000    0.000    0.000    0.000    0.000    0.000 
#
# Total GULP energy -347331.028103 kJ/mol
# GULP energy per Si atom -12404.679575 kJ/mol
# Density = 1.873928 g / cm^3
# Si number density = 18.782031 Si / 1000 Ang^3
#
#
#
# Elastic Constant Matrix: (Units=GPa)
#
#
# Indices 1 2 3 4 5 6 
#
# 1 122.9367 40.0619 45.2519 0.0000 -4.0181 0.0000
# 2 40.0619 70.7556 57.2201 0.0000 -12.2167 0.0000
# 3 45.2519 57.2201 109.4172 0.0000 -14.3533 0.0000
# 4 0.0000 0.0000 0.0000 36.4594 0.0000 -7.5758
# 5 -4.0181 -12.2167 -14.3533 0.0000 30.3407 0.0000
# 6 0.0000 0.0000 0.0000 -7.5758 0.0000 27.0851
#
#
#
# Elastic Compliance Matrix: (Units=1/GPa)
#
#
# Indices 1 2 3 4 5 6 
#
# 1 0.010297 -0.004297 -0.002196 0.000000 -0.001405 0.000000
# 2 -0.004297 0.026761 -0.011598 0.000000 0.004719 0.000000
# 3 -0.002196 -0.011598 0.016485 0.000000 0.002838 0.000000
# 4 0.000000 0.000000 0.000000 0.029120 0.000000 0.008145
# 5 -0.001405 0.004719 0.002838 0.000000 0.036016 0.000000
# 6 0.000000 0.000000 0.000000 0.008145 0.000000 0.039199
#
#
# Mechanical properties :
#
#
# Convention : Reuss Voigt Hill
#
# Bulk Modulus (GPa) = 57.60258 65.35301 61.47780
# Shear Modulus (GPa) = 25.01926 29.48207 27.25066
#
# Velocity S-wave (km/s) = 3.65373 3.96624 3.81319
# Velocity P-wave (km/s) = 6.96672 7.47300 7.22430
#
# Compressibility (1/GPa) = 0.01736033
#
# Stress axis : x y z
#
# Youngs Moduli (GPa) = 97.11711 37.36844 60.66118
#
# Poissons Ratio (x) = 0.16058 0.13319
# Poissons Ratio (y) = 0.41732 0.70357
# Poissons Ratio (z) = 0.21324 0.43341
#
# Static dielectric constant tensor:
#      x y z
#    x 3.656350 0.000000 0.067840 
#    y 0.000000 3.395090 0.000000 
#    z 0.067840 0.000000 3.343880 
# 
# 
# High freq. dielectric constant tensor:
#      x y z
#    x 1.745920 0.000000 0.002610 
#    y 0.000000 1.724810 0.000000 
#    z 0.002610 0.000000 1.725520 
# 
# From -- ./inp_files/37340.got.cif
#   From: 2010.06.25/outbox.cif.g09.slc.cpg/sg10_19_cif.got.tgz:37340.got - 2010.06.27 22:07:45.
