data_PCOD8064049
_publ_section_title
;
Structure prediction by ZEFSAII (Michael W. Deem and Ramdas Pophale) SiO2 
 PCOD8064049
Probable space group: P 2/M
;
_chemical_formula_sum "Si O2"
_cell_formula_units_Z 32
_cell_length_a 25.121105
_cell_length_b 9.398573
_cell_length_c 18.660843
_cell_angle_alpha 90.000000
_cell_angle_beta 157.056527
_cell_angle_gamma 90.000000
_cell_volume 1717.509454
_symmetry_space_group_name_H-M "P 2/M"
_symmetry_group_IT_number 10
_symmetry_cell_setting 'monoclinic'
loop_
_space_group_symop_operation_xyz
x,y,z
-x,y,-z
-x,-y,-z
x,-y,z
loop_
_atom_site_type_symbol
_atom_site_label
_atom_site_fract_x
_atom_site_fract_y
_atom_site_fract_z
Si Si1 0.887828 0.332185 0.921522
Si Si2 0.901731 0.830037 0.083552
Si Si3 0.577945 0.334443 0.527655
Si Si4 0.133492 0.838243 0.630299
Si Si5 0.665409 0.667422 0.872617
Si Si6 0.842062 0.839335 0.504158
Si Si7 0.661634 0.341579 0.030772
Si Si8 0.579404 0.659156 0.167589
O O1 0.891314 0.500000 0.944416
O O2 0.733912 0.280758 0.708765
O O3 0.929679 0.238728 0.041417
O O4 0.000000 0.296620 0.000000
O O5 0.032837 0.787408 0.292748
O O6 0.881260 0.000000 0.053025
O O7 0.769398 0.760033 0.955368
O O8 0.500000 0.264403 0.500000
O O9 0.589096 0.500000 0.557167
O O10 0.487976 0.301989 0.345722
O O11 0.110414 0.824062 0.518038
O O12 0.262748 0.753230 0.817474
O O13 0.000000 0.770045 0.500000
O O14 0.154003 0.000000 0.680731
O O15 0.700581 0.500000 0.908123
O O16 0.670027 0.719232 0.960687
O O17 0.710530 0.745293 0.354073
O O18 0.801194 0.000000 0.472529
O O19 0.723882 0.500000 0.108912
O O20 0.507244 0.343063 0.867017
O O21 0.624263 0.500000 0.200656
O O22 0.500000 0.726585 0.000000
#
# Coordination Sequence:
#
# PCOD8064049 Si02
#       8
#     4   4   4   4   4   4   4   4
#     4  10  21  38  63  92 119 154 199 237 283 351
#     4  11  23  39  58  84 120 152 189 240 292 339
#     4   9  16  32  59  85 112 147 189 236 282 339
#     4  10  20  35  54  75 105 146 190 230 273 333
#     4  10  20  36  59  84 112 148 192 238 289 344
#     4  10  22  37  55  79 108 152 196 229 279 345
#     4  10  21  35  54  83 112 140 181 236 292 336
#     4  10  20  36  56  79 110 145 185 237 290 339
#
# _framework density 18.631630999999999
#
# number of rings (size 3 to 8) (size 9 to 14) (size 15 to 20)
#    0.000    2.000    2.500    1.125    0.000    4.750 
#    0.000    3.750    0.000    0.000    0.000    0.000 
#    0.000    0.000    0.000    0.000    0.000    0.000 
#
# Total GULP energy -396718.631516 kJ/mol
# GULP energy per Si atom -12397.457235 kJ/mol
# Density = 1.858922 g / cm^3
# Si number density = 18.631631 Si / 1000 Ang^3
#
#
#
# Elastic Constant Matrix: (Units=GPa)
#
#
# Indices 1 2 3 4 5 6 
#
# 1 109.4132 37.8851 54.7061 0.0000 2.6517 0.0000
# 2 37.8851 61.2307 52.1687 0.0000 -1.2861 0.0000
# 3 54.7061 52.1687 145.5169 0.0000 -0.4416 0.0000
# 4 0.0000 0.0000 0.0000 26.1260 0.0000 -0.2208
# 5 2.6517 -1.2861 -0.4416 0.0000 34.9665 0.0000
# 6 0.0000 0.0000 0.0000 -0.2208 0.0000 21.6045
#
#
#
# Elastic Compliance Matrix: (Units=1/GPa)
#
#
# Indices 1 2 3 4 5 6 
#
# 1 0.012394 -0.005356 -0.002743 0.000000 -0.001172 0.000000
# 2 -0.005356 0.025849 -0.007249 0.000000 0.001265 0.000000
# 3 -0.002743 -0.007249 0.010502 0.000000 0.000074 0.000000
# 4 0.000000 0.000000 0.000000 0.038279 0.000000 0.000391
# 5 -0.001172 0.001265 0.000074 0.000000 0.028735 0.000000
# 6 0.000000 0.000000 0.000000 0.000391 0.000000 0.046291
#
#
# Mechanical properties :
#
#
# Convention : Reuss Voigt Hill
#
# Bulk Modulus (GPa) = 55.40699 67.29785 61.35242
# Shear Modulus (GPa) = 25.15549 27.96613 26.56081
#
# Velocity S-wave (km/s) = 3.67842 3.87848 3.77978
# Velocity P-wave (km/s) = 6.91692 7.50036 7.21454
#
# Compressibility (1/GPa) = 0.01804826
#
# Stress axis : x y z
#
# Youngs Moduli (GPa) = 80.68358 38.68629 95.21645
#
# Poissons Ratio (x) = 0.20722 0.26115
# Poissons Ratio (y) = 0.43217 0.69027
# Poissons Ratio (z) = 0.22129 0.28046
#
# Static dielectric constant tensor:
#      x y z
#    x 3.502710 0.000000 0.012630 
#    y 0.000000 3.297790 0.000000 
#    z 0.012630 0.000000 3.551300 
# 
# 
# High freq. dielectric constant tensor:
#      x y z
#    x 1.728630 0.000000 0.000670 
#    y 0.000000 1.702870 0.000000 
#    z 0.000670 0.000000 1.728740 
# 
# From -- ./inp_files/86931.got.cif
#   From: 2010.06.25/outbox.cif.g09.slc.cpg/sg10_44_cif.got.tgz:86931.got - 2010.06.27 22:07:45.
