data_PCOD8064480
_publ_section_title
;
Structure prediction by ZEFSAII (Michael W. Deem and Ramdas Pophale) SiO2 
 PCOD8064480
Probable space group: P 2/M
;
_chemical_formula_sum "Si O2"
_cell_formula_units_Z 30
_cell_length_a 11.649760
_cell_length_b 13.454828
_cell_length_c 9.746883
_cell_angle_alpha 90.000000
_cell_angle_beta 96.080043
_cell_angle_gamma 90.000000
_cell_volume 1519.186295
_symmetry_space_group_name_H-M "P 2/M"
_symmetry_group_IT_number 10
_symmetry_cell_setting 'monoclinic'
loop_
_space_group_symop_operation_xyz
x,y,z
-x,y,-z
-x,-y,-z
x,-y,z
loop_
_atom_site_type_symbol
_atom_site_label
_atom_site_fract_x
_atom_site_fract_y
_atom_site_fract_z
Si Si1 0.395471 0.262441 0.384250
Si Si2 0.000000 0.262145 0.500000
Si Si3 0.230081 0.390542 0.798447
Si Si4 0.494020 0.613693 0.841696
Si Si5 0.223044 0.886247 0.233935
Si Si6 0.035641 0.109015 0.710631
Si Si7 0.803174 0.387527 0.514974
Si Si8 0.123710 0.221287 0.966673
O O1 0.500000 0.233774 0.500000
O O2 0.433748 0.313973 0.247286
O O3 0.324031 0.163064 0.338340
O O4 0.316802 0.340539 0.455564
O O5 0.077559 0.191144 0.607512
O O6 0.086196 0.326899 0.413592
O O7 0.207059 0.500000 0.859247
O O8 0.363310 0.378502 0.776921
O O9 0.168889 0.380686 0.644002
O O10 0.189738 0.311009 0.903294
O O11 0.540415 0.500000 0.834953
O O12 0.500000 0.650244 0.000000
O O13 0.102985 0.885543 0.299985
O O14 0.258894 0.000000 0.203829
O O15 0.206681 0.821083 0.094615
O O16 0.097120 0.129284 0.862830
O O17 0.074642 0.000000 0.666085
O O18 0.805020 0.500000 0.569140
O O19 0.000000 0.263681 0.000000
#
# Coordination Sequence:
#
# PCOD8064480 Si02
#       8
#     4   2   4   4   4   4   4   4
#     4  12  23  39  65  91 120 166 211 254 303 369
#     4  12  20  38  58  88 124 158 196 250 316 366
#     4  10  20  36  57  84 121 158 197 249 301 355
#     4  10  21  37  59  88 119 156 202 252 301 354
#     4  10  22  40  60  85 118 155 204 263 314 362
#     4  10  20  35  59  86 115 153 206 259 307 364
#     4  11  23  38  59  89 124 163 201 245 304 369
#     4  10  20  37  61  87 120 163 206 249 309 374
#
# _framework density 19.747413999999999
#
# number of rings (size 3 to 8) (size 9 to 14) (size 15 to 20)
#    0.000    1.467    4.000    2.000    0.000    2.667 
#    0.000    0.667    0.000    4.400    0.000    0.000 
#    0.000    0.000    0.000    0.000    0.000    0.000 
#
# Total GULP energy -371924.871998 kJ/mol
# GULP energy per Si atom -12397.495733 kJ/mol
# Density = 1.970247 g / cm^3
# Si number density = 19.747414 Si / 1000 Ang^3
#
#
#
# Elastic Constant Matrix: (Units=GPa)
#
#
# Indices 1 2 3 4 5 6 
#
# 1 72.9437 53.3556 23.7136 0.0000 5.6536 0.0000
# 2 53.3556 149.1564 40.5133 0.0000 -4.9306 0.0000
# 3 23.7136 40.5133 79.8554 0.0000 3.0345 0.0000
# 4 0.0000 0.0000 0.0000 23.8649 0.0000 -4.3700
# 5 5.6536 -4.9306 3.0345 0.0000 28.4304 0.0000
# 6 0.0000 0.0000 0.0000 -4.3700 0.0000 21.8662
#
#
#
# Elastic Compliance Matrix: (Units=1/GPa)
#
#
# Indices 1 2 3 4 5 6 
#
# 1 0.019625 -0.006547 -0.002324 0.000000 -0.004790 0.000000
# 2 -0.006547 0.010051 -0.003284 0.000000 0.003396 0.000000
# 3 -0.002324 -0.003284 0.014943 0.000000 -0.001702 0.000000
# 4 0.000000 0.000000 0.000000 0.043494 0.000000 0.008692
# 5 -0.004790 0.003396 -0.001702 0.000000 0.036897 0.000000
# 6 0.000000 0.000000 0.000000 0.008692 0.000000 0.047470
#
#
# Mechanical properties :
#
#
# Convention : Reuss Voigt Hill
#
# Bulk Modulus (GPa) = 49.23976 59.68007 54.45991
# Shear Modulus (GPa) = 24.56276 27.12381 25.84328
#
# Velocity S-wave (km/s) = 3.53065 3.71015 3.62151
# Velocity P-wave (km/s) = 6.45055 6.97430 6.71753
#
# Compressibility (1/GPa) = 0.02030879
#
# Stress axis : x y z
#
# Youngs Moduli (GPa) = 50.95506 99.49639 66.91887
#
# Poissons Ratio (x) = 0.65143 0.15553
# Poissons Ratio (y) = 0.33362 0.21975
# Poissons Ratio (z) = 0.11843 0.32672
#
# Static dielectric constant tensor:
#      x y z
#    x 3.467930 0.000000 0.079820 
#    y 0.000000 3.642700 0.000000 
#    z 0.079820 0.000000 3.549420 
# 
# 
# High freq. dielectric constant tensor:
#      x y z
#    x 1.757020 0.000000 0.007150 
#    y 0.000000 1.774020 0.000000 
#    z 0.007150 0.000000 1.769800 
# 
# From -- ./inp_files/24997.got.cif
#   From: 2010.06.25/outbox.cif.g09.slc.cpg/sg10_13_cif.got.tgz:24997.got - 2010.06.27 22:07:45.
