data_PCOD8064759
_publ_section_title
;
Structure prediction by ZEFSAII (Michael W. Deem and Ramdas Pophale) SiO2 
 PCOD8064759
Probable space group: P 2/M
;
_chemical_formula_sum "Si O2"
_cell_formula_units_Z 28
_cell_length_a 11.018688
_cell_length_b 13.661779
_cell_length_c 12.982880
_cell_angle_alpha 90.000000
_cell_angle_beta 135.338461
_cell_angle_gamma 90.000000
_cell_volume 1373.765109
_symmetry_space_group_name_H-M "P 2/M"
_symmetry_group_IT_number 10
_symmetry_cell_setting 'monoclinic'
loop_
_space_group_symop_operation_xyz
x,y,z
-x,y,-z
-x,-y,-z
x,-y,z
loop_
_atom_site_type_symbol
_atom_site_label
_atom_site_fract_x
_atom_site_fract_y
_atom_site_fract_z
Si Si1 0.400642 0.784324 0.684254
Si Si2 0.888217 0.750079 0.338785
Si Si3 0.836465 0.113273 0.602481
Si Si4 0.873821 0.731492 0.776601
Si Si5 0.246106 0.282024 0.074108
Si Si6 0.647264 0.386112 0.503650
Si Si7 0.313474 0.388577 0.923027
O O1 0.289617 0.790664 0.721361
O O2 0.335485 0.870437 0.569687
O O3 0.601314 0.799568 0.836781
O O4 0.386822 0.677548 0.619592
O O5 0.841458 0.670145 0.225023
O O6 0.000000 0.703068 0.500000
O O7 0.998168 0.836995 0.352927
O O8 0.799436 0.164744 0.690602
O O9 0.873968 0.000000 0.641599
O O10 0.785996 0.690133 0.826911
O O11 0.830894 0.649608 0.663584
O O12 0.073590 0.756891 0.916173
O O13 0.303699 0.376013 0.041282
O O14 0.500000 0.366420 0.500000
O O15 0.658948 0.500000 0.479807
O O16 0.287945 0.500000 0.876491
O O17 0.500000 0.349690 0.000000
#
# Coordination Sequence:
#
# PCOD8064759 Si02
#       7
#     4   4   4   4   4   4   4
#     4  10  21  37  63  88 124 162 201 259 308 365
#     4  10  21  40  63  88 120 164 198 261 312 357
#     4  10  22  43  69  94 116 154 210 263 318 377
#     4  10  22  39  62  88 125 167 202 261 306 362
#     4  11  21  39  60  86 130 165 202 246 310 367
#     4  10  20  36  58  87 123 165 213 252 296 358
#     4  11  23  38  61  92 127 169 211 248 296 365
#
# _framework density 20.381941000000001
#
# number of rings (size 3 to 8) (size 9 to 14) (size 15 to 20)
#    0.000    1.714    4.286    0.000    0.000    5.143 
#    0.000    5.000    0.000    1.286    0.000    0.000 
#    0.000    0.000    0.000    0.000    0.000    0.000 
#
# Total GULP energy -346954.963899 kJ/mol
# GULP energy per Si atom -12391.248711 kJ/mol
# Density = 2.033555 g / cm^3
# Si number density = 20.381941 Si / 1000 Ang^3
#
#
#
# Elastic Constant Matrix: (Units=GPa)
#
#
# Indices 1 2 3 4 5 6 
#
# 1 89.2194 23.1134 32.9034 0.0000 -5.0996 0.0000
# 2 23.1134 108.1563 27.0627 0.0000 -8.9029 0.0000
# 3 32.9034 27.0627 103.6974 0.0000 7.0742 0.0000
# 4 0.0000 0.0000 0.0000 17.4955 0.0000 2.9533
# 5 -5.0996 -8.9029 7.0742 0.0000 40.6410 0.0000
# 6 0.0000 0.0000 0.0000 2.9533 0.0000 18.5937
#
#
#
# Elastic Compliance Matrix: (Units=1/GPa)
#
#
# Indices 1 2 3 4 5 6 
#
# 1 0.013187 -0.001686 -0.003878 0.000000 0.001960 0.000000
# 2 -0.001686 0.010397 -0.002347 0.000000 0.002475 0.000000
# 3 -0.003878 -0.002347 0.011694 0.000000 -0.003036 0.000000
# 4 0.000000 0.000000 0.000000 0.058732 0.000000 -0.009329
# 5 0.001960 0.002475 -0.003036 0.000000 0.025922 0.000000
# 6 0.000000 0.000000 0.000000 -0.009329 0.000000 0.055263
#
#
# Mechanical properties :
#
#
# Convention : Reuss Voigt Hill
#
# Bulk Modulus (GPa) = 51.40046 51.91467 51.65757
# Shear Modulus (GPa) = 25.31587 29.87893 27.59740
#
# Velocity S-wave (km/s) = 3.52813 3.83293 3.68368
# Velocity P-wave (km/s) = 6.47073 6.71674 6.59488
#
# Compressibility (1/GPa) = 0.01945508
#
# Stress axis : x y z
#
# Youngs Moduli (GPa) = 75.82958 96.17891 85.51663
#
# Poissons Ratio (x) = 0.16221 0.33163
# Poissons Ratio (y) = 0.12789 0.20072
# Poissons Ratio (z) = 0.29407 0.22575
#
# Static dielectric constant tensor:
#      x y z
#    x 4.039730 0.000000 0.049940 
#    y 0.000000 3.161110 0.000000 
#    z 0.049940 0.000000 3.996530 
# 
# 
# High freq. dielectric constant tensor:
#      x y z
#    x 1.813800 0.000000 0.001600 
#    y 0.000000 1.737780 0.000000 
#    z 0.001600 0.000000 1.814820 
# 
# From -- ./inp_files/64951.got.cif
#   From: 2010.06.25/outbox.cif.g09.slc.cpg/sg10_33_cif.got.tgz:64951.got - 2010.06.27 22:07:45.
