data_PCOD8064625
_publ_section_title
;
Structure prediction by ZEFSAII (Michael W. Deem and Ramdas Pophale) SiO2 
 PCOD8064625
Probable space group: P 2/M
;
_chemical_formula_sum "Si O2"
_cell_formula_units_Z 32
_cell_length_a 14.983924
_cell_length_b 8.887922
_cell_length_c 25.548066
_cell_angle_alpha 90.000000
_cell_angle_beta 28.453657
_cell_angle_gamma 90.000000
_cell_volume 1621.060176
_symmetry_space_group_name_H-M "P 2/M"
_symmetry_group_IT_number 10
_symmetry_cell_setting 'monoclinic'
loop_
_space_group_symop_operation_xyz
x,y,z
-x,y,-z
-x,-y,-z
x,-y,z
loop_
_atom_site_type_symbol
_atom_site_label
_atom_site_fract_x
_atom_site_fract_y
_atom_site_fract_z
Si Si1 0.488815 0.673257 0.746499
Si Si2 0.194714 0.329398 0.487684
Si Si3 0.268742 0.322306 0.758076
Si Si4 0.166454 0.327792 0.271731
Si Si5 0.929351 0.821874 0.884316
Si Si6 0.939127 0.176309 0.297171
Si Si7 0.556002 0.319621 0.114924
Si Si8 0.586598 0.173462 0.538488
O O1 0.439022 0.500000 0.777961
O O2 0.711045 0.695974 0.618001
O O3 0.360929 0.736932 0.764918
O O4 0.443713 0.747283 0.825825
O O5 0.251784 0.500000 0.477104
O O6 0.279912 0.202830 0.481064
O O7 0.970042 0.312132 0.606599
O O8 0.242715 0.500000 0.770594
O O9 0.399209 0.272792 0.641469
O O10 0.067051 0.243985 0.857577
O O11 0.190765 0.500000 0.243339
O O12 0.080473 0.248971 0.265583
O O13 0.367335 0.260606 0.183970
O O14 0.006231 0.768427 0.788522
O O15 0.917814 0.000000 0.895630
O O16 0.726125 0.750588 0.995618
O O17 0.717990 0.216907 0.420801
O O18 0.966563 0.000000 0.289308
O O19 0.565561 0.500000 0.109613
O O20 0.523743 0.000000 0.568450
#
# Coordination Sequence:
#
# PCOD8064625 Si02
#       8
#     4   4   4   4   4   4   4   4
#     4   8  16  32  55  79 107 139 170 205 257 317
#     4   8  14  28  50  79 109 137 169 207 253 311
#     4  10  20  36  57  81 107 137 169 211 263 314
#     4   9  18  32  55  83 109 135 171 217 261 303
#     4  11  24  40  54  73 101 139 184 224 258 306
#     4   9  20  37  56  76 105 142 175 209 260 315
#     4  10  21  37  54  77 106 139 178 220 260 304
#     4   9  16  30  53  80 106 134 168 209 256 314
#
# _framework density 19.740168000000001
#
# number of rings (size 3 to 8) (size 9 to 14) (size 15 to 20)
#    0.000    2.750    0.000    1.875    0.000    4.000 
#    0.000   13.125    0.000    0.000    0.000   12.250 
#    0.000    0.000    0.000    0.000    0.000    0.000 
#
# Total GULP energy -396511.969088 kJ/mol
# GULP energy per Si atom -12390.999034 kJ/mol
# Density = 1.969524 g / cm^3
# Si number density = 19.740168 Si / 1000 Ang^3
#
#
#
# Elastic Constant Matrix: (Units=GPa)
#
#
# Indices 1 2 3 4 5 6 
#
# 1 57.8719 15.6549 18.9508 0.0000 -8.0906 0.0000
# 2 15.6549 35.4136 17.4734 0.0000 -2.6415 0.0000
# 3 18.9508 17.4734 83.5601 0.0000 -10.5761 0.0000
# 4 0.0000 0.0000 0.0000 25.7717 0.0000 -6.2396
# 5 -8.0906 -2.6415 -10.5761 0.0000 36.7253 0.0000
# 6 0.0000 0.0000 0.0000 -6.2396 0.0000 15.0798
#
#
#
# Elastic Compliance Matrix: (Units=1/GPa)
#
#
# Indices 1 2 3 4 5 6 
#
# 1 0.020659 -0.007562 -0.002695 0.000000 0.003231 0.000000
# 2 -0.007562 0.034259 -0.005550 0.000000 -0.000800 0.000000
# 3 -0.002695 -0.005550 0.014129 0.000000 0.003076 0.000000
# 4 0.000000 0.000000 0.000000 0.043122 0.000000 0.017843
# 5 0.003231 -0.000800 0.003076 0.000000 0.028769 0.000000
# 6 0.000000 0.000000 0.000000 0.017843 0.000000 0.073697
#
#
# Mechanical properties :
#
#
# Convention : Reuss Voigt Hill
#
# Bulk Modulus (GPa) = 26.71459 31.22267 28.96863
# Shear Modulus (GPa) = 19.32533 23.83314 21.57924
#
# Velocity S-wave (km/s) = 3.13227 3.47845 3.30989
# Velocity P-wave (km/s) = 5.16178 5.65544 5.41424
#
# Compressibility (1/GPa) = 0.03743272
#
# Stress axis : x y z
#
# Youngs Moduli (GPa) = 48.40419 29.18905 70.77836
#
# Poissons Ratio (x) = 0.22072 0.19076
# Poissons Ratio (y) = 0.36602 0.39285
# Poissons Ratio (z) = 0.13046 0.16201
#
# Static dielectric constant tensor:
#      x y z
#    x 3.508570 0.000000 0.046950 
#    y 0.000000 3.353940 0.000000 
#    z 0.046950 0.000000 3.900870 
# 
# 
# High freq. dielectric constant tensor:
#      x y z
#    x 1.750330 0.000000 -0.003850 
#    y 0.000000 1.747380 0.000000 
#    z -0.003850 0.000000 1.780760 
# 
# From -- ./inp_files/89479.got.cif
#   From: 2010.06.25/outbox.cif.g09.slc.cpg/sg10_45_cif.got.tgz:89479.got - 2010.06.27 22:07:45.
