data_PCOD8064310
_publ_section_title
;
Structure prediction by ZEFSAII (Michael W. Deem and Ramdas Pophale) SiO2 
 PCOD8064310
Probable space group: P 2/M
;
_chemical_formula_sum "Si O2"
_cell_formula_units_Z 24
_cell_length_a 18.095757
_cell_length_b 8.710317
_cell_length_c 24.438720
_cell_angle_alpha 90.000000
_cell_angle_beta 160.751461
_cell_angle_gamma 90.000000
_cell_volume 1269.884095
_symmetry_space_group_name_H-M "P 2/M"
_symmetry_group_IT_number 10
_symmetry_cell_setting 'monoclinic'
loop_
_space_group_symop_operation_xyz
x,y,z
-x,y,-z
-x,-y,-z
x,-y,z
loop_
_atom_site_type_symbol
_atom_site_label
_atom_site_fract_x
_atom_site_fract_y
_atom_site_fract_z
Si Si1 0.933960 0.819311 0.668499
Si Si2 0.250678 0.317739 0.671525
Si Si3 0.635717 0.682940 0.369016
Si Si4 0.577197 0.323150 0.495679
Si Si5 0.242547 0.676173 0.166244
Si Si6 0.416186 0.681683 0.001345
O O1 0.844573 0.746449 0.549599
O O2 0.785501 0.770282 0.616917
O O3 0.927856 0.000000 0.658383
O O4 0.185078 0.763426 0.854242
O O5 0.239976 0.500000 0.665855
O O6 0.354418 0.261480 0.686561
O O7 0.401230 0.258208 0.827003
O O8 0.000000 0.249262 0.500000
O O9 0.648819 0.500000 0.383893
O O10 0.403049 0.748293 0.231620
O O11 0.500000 0.255693 0.500000
O O12 0.653516 0.500000 0.553997
O O13 0.359438 0.305702 0.306081
O O14 0.203662 0.500000 0.122857
O O15 0.000000 0.759886 0.000000
O O16 0.381107 0.500000 0.980845
O O17 0.500000 0.730761 0.000000
#
# Coordination Sequence:
#
# PCOD8064310 Si02
#       6
#     4   4   4   4   4   4
#     4  11  22  35  52  75 108 146 179 213 258 314
#     4   9  17  30  52  80 102 125 165 217 267 309
#     4   9  17  32  53  74  99 132 173 218 260 307
#     4   9  18  33  54  77 101 133 175 220 262 306
#     4   8  14  25  44  71  97 121 155 204 257 300
#     4  10  20  35  57  82 107 136 173 219 266 313
#
# _framework density 18.899362
#
# number of rings (size 3 to 8) (size 9 to 14) (size 15 to 20)
#    0.000    2.667    0.000    3.500    0.000    4.667 
#    0.000    5.833    0.000   10.000    0.000    0.000 
#    0.000    0.000    0.000    0.000    0.000    0.000 
#
# Total GULP energy -297545.863081 kJ/mol
# GULP energy per Si atom -12397.744295 kJ/mol
# Density = 1.885635 g / cm^3
# Si number density = 18.899362 Si / 1000 Ang^3
#
#
#
# Elastic Constant Matrix: (Units=GPa)
#
#
# Indices 1 2 3 4 5 6 
#
# 1 165.8415 25.8231 84.8503 0.0000 -10.5173 0.0000
# 2 25.8231 39.3065 25.3815 0.0000 1.9773 0.0000
# 3 84.8503 25.3815 154.9091 0.0000 10.1403 0.0000
# 4 0.0000 0.0000 0.0000 4.9921 0.0000 -0.4041
# 5 -10.5173 1.9773 10.1403 0.0000 28.9000 0.0000
# 6 0.0000 0.0000 0.0000 -0.4041 0.0000 6.5222
#
#
#
# Elastic Compliance Matrix: (Units=1/GPa)
#
#
# Indices 1 2 3 4 5 6 
#
# 1 0.009429 -0.003247 -0.004987 0.000000 0.005403 0.000000
# 2 -0.003247 0.029572 -0.002924 0.000000 -0.002179 0.000000
# 3 -0.004987 -0.002924 0.010001 0.000000 -0.005124 0.000000
# 4 0.000000 0.000000 0.000000 0.201326 0.000000 0.012475
# 5 0.005403 -0.002179 -0.005124 0.000000 0.038515 0.000000
# 6 0.000000 0.000000 0.000000 0.012475 0.000000 0.154095
#
#
# Mechanical properties :
#
#
# Convention : Reuss Voigt Hill
#
# Bulk Modulus (GPa) = 37.47076 70.24074 53.85575
# Shear Modulus (GPa) = 10.54517 23.01634 16.78075
#
# Velocity S-wave (km/s) = 2.36469 3.49354 2.98300
# Velocity P-wave (km/s) = 5.22735 7.31570 6.35785
#
# Compressibility (1/GPa) = 0.02668748
#
# Stress axis : x y z
#
# Youngs Moduli (GPa) = 106.05153 33.81586 99.98656
#
# Poissons Ratio (x) = 0.10979 0.49860
# Poissons Ratio (y) = 0.34430 0.29240
# Poissons Ratio (z) = 0.52884 0.09889
#
# Static dielectric constant tensor:
#      x y z
#    x 3.756670 0.000000 0.106620 
#    y 0.000000 2.976570 0.000000 
#    z 0.106620 0.000000 3.618920 
# 
# 
# High freq. dielectric constant tensor:
#      x y z
#    x 1.747320 0.000000 0.006850 
#    y 0.000000 1.683160 0.000000 
#    z 0.006850 0.000000 1.739900 
# 
# From -- ./inp_files/80048.got.cif
#   From: 2010.06.25/outbox.cif.g09.slc.cpg/sg10_41_cif.got.tgz:80048.got - 2010.06.27 22:07:45.
