data_PCOD8064303
_publ_section_title
;
Structure prediction by ZEFSAII (Michael W. Deem and Ramdas Pophale) SiO2 
 PCOD8064303
Probable space group: P 2/M
;
_chemical_formula_sum "Si O2"
_cell_formula_units_Z 28
_cell_length_a 24.517774
_cell_length_b 9.110296
_cell_length_c 23.609225
_cell_angle_alpha 90.000000
_cell_angle_beta 16.855268
_cell_angle_gamma 90.000000
_cell_volume 1529.065219
_symmetry_space_group_name_H-M "P 2/M"
_symmetry_group_IT_number 10
_symmetry_cell_setting 'monoclinic'
loop_
_space_group_symop_operation_xyz
x,y,z
-x,y,-z
-x,-y,-z
x,-y,z
loop_
_atom_site_type_symbol
_atom_site_label
_atom_site_fract_x
_atom_site_fract_y
_atom_site_fract_z
Si Si1 0.206920 0.171865 0.639217
Si Si2 0.780959 0.833167 0.654136
Si Si3 0.809070 0.672064 0.049646
Si Si4 0.470685 0.829840 0.593667
Si Si5 0.487761 0.328834 0.281183
Si Si6 0.493996 0.327614 0.865868
Si Si7 0.780303 0.166772 0.782046
O O1 0.334725 0.202890 0.567254
O O2 0.312908 0.237704 0.479492
O O3 0.173681 0.000000 0.662445
O O4 0.007578 0.249070 0.845261
O O5 0.684594 0.730385 0.704120
O O6 0.725720 0.783372 0.772668
O O7 0.000223 0.817943 0.426519
O O8 0.714808 0.000000 0.710561
O O9 0.843805 0.500000 0.023656
O O10 0.701410 0.734488 0.211408
O O11 0.681203 0.705197 0.121817
O O12 0.500000 0.782573 0.500000
O O13 0.414078 0.000000 0.655624
O O14 0.435319 0.500000 0.337598
O O15 0.518351 0.275887 0.186685
O O16 0.493291 0.500000 0.870720
O O17 0.315099 0.268937 0.077186
O O18 0.714089 0.000000 0.857197
#
# Coordination Sequence:
#
# PCOD8064303 Si02
#       7
#     4   4   4   4   4   4   4
#     4  10  20  35  57  81 104 135 176 218 258 302
#     4   9  19  36  55  75 101 135 172 209 254 308
#     4  10  20  36  57  77 105 144 178 212 257 309
#     4   9  19  36  56  80 111 142 174 215 258 302
#     4   9  21  39  53  71 103 140 175 212 257 308
#     4  11  22  34  52  78 105 133 168 213 263 310
#     4   9  19  36  55  74 101 136 171 208 253 310
#
# _framework density 18.31184
#
# number of rings (size 3 to 8) (size 9 to 14) (size 15 to 20)
#    0.000    2.429    0.000    2.571    0.000    7.143 
#    0.000    8.571    0.000    0.000    0.000    0.000 
#    0.000    0.000    0.000    0.000    0.000    0.000 
#
# Total GULP energy -347241.467345 kJ/mol
# GULP energy per Si atom -12401.480977 kJ/mol
# Density = 1.827016 g / cm^3
# Si number density = 18.311840 Si / 1000 Ang^3
#
#
#
# Elastic Constant Matrix: (Units=GPa)
#
#
# Indices 1 2 3 4 5 6 
#
# 1 120.9026 57.4864 80.5782 0.0000 22.9267 0.0000
# 2 57.4864 89.8318 77.9234 0.0000 8.7218 0.0000
# 3 80.5782 77.9234 171.6548 0.0000 12.5997 0.0000
# 4 0.0000 0.0000 0.0000 42.1087 0.0000 -1.0489
# 5 22.9267 8.7218 12.5997 0.0000 34.9406 0.0000
# 6 0.0000 0.0000 0.0000 -1.0489 0.0000 30.3384
#
#
#
# Elastic Compliance Matrix: (Units=1/GPa)
#
#
# Indices 1 2 3 4 5 6 
#
# 1 0.014788 -0.005296 -0.004029 0.000000 -0.006929 0.000000
# 2 -0.005296 0.020349 -0.006814 0.000000 0.000853 0.000000
# 3 -0.004029 -0.006814 0.010777 0.000000 0.000459 0.000000
# 4 0.000000 0.000000 0.000000 0.023769 0.000000 0.000822
# 5 -0.006929 0.000853 0.000459 0.000000 0.032788 0.000000
# 6 0.000000 0.000000 0.000000 0.000822 0.000000 0.032990
#
#
# Mechanical properties :
#
#
# Convention : Reuss Voigt Hill
#
# Bulk Modulus (GPa) = 73.33726 90.48502 81.91114
# Shear Modulus (GPa) = 29.02180 32.57096 30.79638
#
# Velocity S-wave (km/s) = 3.98536 4.22202 4.10539
# Velocity P-wave (km/s) = 7.83029 8.56084 8.20370
#
# Compressibility (1/GPa) = 0.01363563
#
# Stress axis : x y z
#
# Youngs Moduli (GPa) = 67.62021 49.14290 92.79211
#
# Poissons Ratio (x) = 0.26024 0.37390
# Poissons Ratio (y) = 0.35809 0.63230
# Poissons Ratio (z) = 0.27247 0.33487
#
# Static dielectric constant tensor:
#      x y z
#    x 3.461840 0.000000 0.041480 
#    y 0.000000 3.387860 0.000000 
#    z 0.041480 0.000000 3.364370 
# 
# 
# High freq. dielectric constant tensor:
#      x y z
#    x 1.711030 0.000000 -0.002140 
#    y 0.000000 1.711190 0.000000 
#    z -0.002140 0.000000 1.717780 
# 
# From -- ./inp_files/86426.got.cif
#   From: 2010.06.25/outbox.cif.g09.slc.cpg/sg10_44_cif.got.tgz:86426.got - 2010.06.27 22:07:45.
