data_PCOD8064213
_publ_section_title
;
Structure prediction by ZEFSAII (Michael W. Deem and Ramdas Pophale) SiO2 
 PCOD8064213
Probable space group: P 2/M
;
_chemical_formula_sum "Si O2"
_cell_formula_units_Z 24
_cell_length_a 12.060477
_cell_length_b 8.952594
_cell_length_c 24.515535
_cell_angle_alpha 90.000000
_cell_angle_beta 28.572519
_cell_angle_gamma 90.000000
_cell_volume 1265.984880
_symmetry_space_group_name_H-M "P 2/M"
_symmetry_group_IT_number 10
_symmetry_cell_setting 'monoclinic'
loop_
_space_group_symop_operation_xyz
x,y,z
-x,y,-z
-x,-y,-z
x,-y,z
loop_
_atom_site_type_symbol
_atom_site_label
_atom_site_fract_x
_atom_site_fract_y
_atom_site_fract_z
Si Si1 0.446317 0.824672 0.242612
Si Si2 0.041028 0.826757 0.586310
Si Si3 0.031999 0.326518 0.811026
Si Si4 0.601881 0.673503 0.071170
Si Si5 0.478113 0.824026 0.666036
Si Si6 0.835474 0.174457 0.789463
O O1 0.609303 0.741352 0.128730
O O2 0.538879 0.789064 0.262496
O O3 0.182424 0.763897 0.349844
O O4 0.453310 0.000000 0.225802
O O5 0.280191 0.755969 0.461353
O O6 0.010254 0.795286 0.663770
O O7 0.058462 0.000000 0.565198
O O8 0.055698 0.500000 0.787072
O O9 0.278213 0.262530 0.721605
O O10 0.949170 0.243648 0.793129
O O11 0.853189 0.297779 0.937172
O O12 0.539016 0.500000 0.101161
O O13 0.413028 0.752496 0.114534
O O14 0.453539 0.000000 0.665031
O O15 0.794004 0.000000 0.816364
#
# Coordination Sequence:
#
# PCOD8064213 Si02
#       6
#     4   4   4   4   4   4
#     4   9  18  34  58  84 106 134 177 224 263 306
#     4   8  16  33  57  83 107 133 170 218 269 314
#     4  11  24  38  51  74 111 148 178 213 264 319
#     4  10  21  37  56  77 106 143 177 215 266 318
#     4  10  20  35  56  80 108 142 178 216 260 313
#     4  10  20  36  60  84 104 132 176 225 265 309
#
# _framework density 18.957571999999999
#
# number of rings (size 3 to 8) (size 9 to 14) (size 15 to 20)
#    0.000    2.333    0.000    3.500    0.000    8.667 
#    0.000   10.833    0.000    5.000    0.000    0.000 
#    0.000    0.000    0.000    0.000    0.000    0.000 
#
# Total GULP energy -297623.498207 kJ/mol
# GULP energy per Si atom -12400.979092 kJ/mol
# Density = 1.891442 g / cm^3
# Si number density = 18.957572 Si / 1000 Ang^3
#
#
#
# Elastic Constant Matrix: (Units=GPa)
#
#
# Indices 1 2 3 4 5 6 
#
# 1 -88.2474 -8.4218 -39.2680 0.0000 17.5495 0.0000
# 2 -8.4218 62.2622 13.3649 0.0000 9.5880 0.0000
# 3 -39.2680 13.3649 38.2719 0.0000 4.8016 0.0000
# 4 0.0000 0.0000 0.0000 -27.7049 0.0000 -3.7329
# 5 17.5495 9.5880 4.8016 0.0000 19.9869 0.0000
# 6 0.0000 0.0000 0.0000 -3.7329 0.0000 15.2734
#
#
#
# Elastic Compliance Matrix: (Units=1/GPa)
#
#
# Indices 1 2 3 4 5 6 
#
# 1 -0.006457 -0.000461 -0.007427 0.000000 0.007675 0.000000
# 2 -0.000461 0.018361 -0.006012 0.000000 -0.006959 0.000000
# 3 -0.007427 -0.006012 0.020032 0.000000 0.004593 0.000000
# 4 0.000000 0.000000 0.000000 -0.034944 0.000000 -0.008541
# 5 0.007675 -0.006959 0.004593 0.000000 0.045529 0.000000
# 6 0.000000 0.000000 0.000000 -0.008541 0.000000 0.063386
#
#
# Mechanical properties :
#
#
# Convention : Reuss Voigt Hill
#
# Bulk Modulus (GPa) = 241.72440 -6.26255 117.73093
# Shear Modulus (GPa) = 37.01380 4.61853 20.81617
#
# Velocity S-wave (km/s) = 4.42345 1.56254 3.31726
# Velocity P-wave (km/s) = 12.40460 0.23505 8.76980
#
# Compressibility (1/GPa) = 0.00413694
#
# Stress axis : x y z
#
# Youngs Moduli (GPa) = -154.87517 54.46374 49.92018
#
# Poissons Ratio (x) = 0.02511 0.37074
# Poissons Ratio (y) = -0.07140 0.30011
# Poissons Ratio (z) = -1.15022 0.32742
#
# Static dielectric constant tensor:
#      x y z
#    x 3.473870 0.000000 0.073610 
#    y 0.000000 3.370290 0.000000 
#    z 0.073610 0.000000 3.681070 
# 
# 
# High freq. dielectric constant tensor:
#      x y z
#    x 1.740010 0.000000 0.006290 
#    y 0.000000 1.722460 0.000000 
#    z 0.006290 0.000000 1.743760 
# 
# From -- ./inp_files/45134.got.cif
#   From: 2010.06.25/outbox.cif.g09.slc.cpg/sg10_23_cif.got.tgz:45134.got - 2010.06.27 22:07:45.
