data_PCOD8064353
_publ_section_title
;
Structure prediction by ZEFSAII (Michael W. Deem and Ramdas Pophale) SiO2 
 PCOD8064353
Probable space group: P 2/M
;
_chemical_formula_sum "Si O2"
_cell_formula_units_Z 28
_cell_length_a 29.282171
_cell_length_b 8.792417
_cell_length_c 9.289018
_cell_angle_alpha 90.000000
_cell_angle_beta 37.391829
_cell_angle_gamma 90.000000
_cell_volume 1452.305048
_symmetry_space_group_name_H-M "P 2/M"
_symmetry_group_IT_number 10
_symmetry_cell_setting 'monoclinic'
loop_
_space_group_symop_operation_xyz
x,y,z
-x,y,-z
-x,-y,-z
x,-y,z
loop_
_atom_site_type_symbol
_atom_site_label
_atom_site_fract_x
_atom_site_fract_y
_atom_site_fract_z
Si Si1 0.138121 0.677776 0.991685
Si Si2 0.298849 0.821531 0.904058
Si Si3 0.869481 0.176971 0.689250
Si Si4 0.429456 0.679014 0.083036
Si Si5 0.008168 0.175395 0.146346
Si Si6 0.571264 0.824482 0.220032
Si Si7 0.704111 0.180341 0.410760
O O1 0.154128 0.500000 0.950878
O O2 0.213135 0.763747 0.753552
O O3 0.110910 0.728621 0.217678
O O4 0.072952 0.716926 0.043070
O O5 0.356708 0.753534 0.875800
O O6 0.315494 0.759298 0.701207
O O7 0.312731 0.000000 0.866728
O O8 0.213469 0.779871 0.162388
O O9 0.928990 0.218078 0.417857
O O10 0.871503 0.000000 0.727648
O O11 0.419897 0.500000 0.118463
O O12 0.354195 0.756081 0.328941
O O13 0.500000 0.736653 0.000000
O O14 0.443073 0.726344 0.885233
O O15 0.029110 0.000000 0.124044
O O16 0.000000 0.209930 0.000000
O O17 0.500000 0.806935 0.500000
O O18 0.584231 0.000000 0.143513
O O19 0.703409 0.000000 0.418862
#
# Coordination Sequence:
#
# PCOD8064353 Si02
#       7
#     4   4   4   4   4   4   4
#     4  11  22  36  56  83 114 145 181 226 281 339
#     4   8  16  32  55  82 107 136 181 236 282 320
#     4   9  18  35  57  79 107 145 189 231 273 328
#     4  11  24  39  55  81 118 153 184 224 277 332
#     4  10  21  36  55  80 110 147 192 237 278 324
#     4  10  20  35  57  84 112 145 189 234 274 324
#     4  10  20  38  63  85 108 142 186 230 273 326
#
# _framework density 19.279696000000001
#
# number of rings (size 3 to 8) (size 9 to 14) (size 15 to 20)
#    0.000    2.143    0.000    4.286    0.000    6.286 
#    0.000    6.429    0.000    0.000    0.000    0.000 
#    0.000    0.000    0.000    0.000    0.000    0.000 
#
# Total GULP energy -347269.098346 kJ/mol
# GULP energy per Si atom -12402.467798 kJ/mol
# Density = 1.923581 g / cm^3
# Si number density = 19.279696 Si / 1000 Ang^3
#
#
#
# Elastic Constant Matrix: (Units=GPa)
#
#
# Indices 1 2 3 4 5 6 
#
# 1 129.4037 33.4733 51.9736 0.0000 -7.8939 0.0000
# 2 33.4733 62.6029 35.2040 0.0000 1.4664 0.0000
# 3 51.9736 35.2040 125.0789 0.0000 1.2167 0.0000
# 4 0.0000 0.0000 0.0000 19.1969 0.0000 -4.2049
# 5 -7.8939 1.4664 1.2167 0.0000 24.8683 0.0000
# 6 0.0000 0.0000 0.0000 -4.2049 0.0000 19.7194
#
#
#
# Elastic Compliance Matrix: (Units=1/GPa)
#
#
# Indices 1 2 3 4 5 6 
#
# 1 0.010209 -0.003728 -0.003228 0.000000 0.003619 0.000000
# 2 -0.003728 0.020357 -0.004159 0.000000 -0.002180 0.000000
# 3 -0.003228 -0.004159 0.010520 0.000000 -0.001294 0.000000
# 4 0.000000 0.000000 0.000000 0.054644 0.000000 0.011652
# 5 0.003619 -0.002180 -0.001294 0.000000 0.041552 0.000000
# 6 0.000000 0.000000 0.000000 0.011652 0.000000 0.053196
#
#
# Mechanical properties :
#
#
# Convention : Reuss Voigt Hill
#
# Bulk Modulus (GPa) = 53.03687 62.04302 57.53995
# Shear Modulus (GPa) = 22.83158 25.85257 24.34207
#
# Velocity S-wave (km/s) = 3.44500 3.66583 3.55713
# Velocity P-wave (km/s) = 6.58733 7.08295 6.83963
#
# Compressibility (1/GPa) = 0.01885481
#
# Stress axis : x y z
#
# Youngs Moduli (GPa) = 97.94819 49.12278 95.06130
#
# Poissons Ratio (x) = 0.18315 0.30687
# Poissons Ratio (y) = 0.36519 0.39537
# Poissons Ratio (z) = 0.31619 0.20431
#
# Static dielectric constant tensor:
#      x y z
#    x 3.675070 0.000000 -0.111110 
#    y 0.000000 3.331910 0.000000 
#    z -0.111110 0.000000 3.592950 
# 
# 
# High freq. dielectric constant tensor:
#      x y z
#    x 1.754790 0.000000 -0.008160 
#    y 0.000000 1.730420 0.000000 
#    z -0.008160 0.000000 1.758940 
# 
# From -- ./inp_files/37088.got.cif
#   From: 2010.06.25/outbox.cif.g09.slc.cpg/sg10_19_cif.got.tgz:37088.got - 2010.06.27 22:07:45.
