data_PCOD8064560
_publ_section_title
;
Structure prediction by ZEFSAII (Michael W. Deem and Ramdas Pophale) SiO2 
 PCOD8064560
Probable space group: P 2/M
;
_chemical_formula_sum "Si O2"
_cell_formula_units_Z 28
_cell_length_a 9.614927
_cell_length_b 13.908161
_cell_length_c 12.453230
_cell_angle_alpha 90.000000
_cell_angle_beta 121.282277
_cell_angle_gamma 90.000000
_cell_volume 1423.214967
_symmetry_space_group_name_H-M "P 2/M"
_symmetry_group_IT_number 10
_symmetry_cell_setting 'monoclinic'
loop_
_space_group_symop_operation_xyz
x,y,z
-x,y,-z
-x,-y,-z
x,-y,z
loop_
_atom_site_type_symbol
_atom_site_label
_atom_site_fract_x
_atom_site_fract_y
_atom_site_fract_z
Si Si1 0.589975 0.609568 0.302291
Si Si2 0.134950 0.893590 0.307835
Si Si3 0.264881 0.706169 0.103973
Si Si4 0.003724 0.285625 0.828124
Si Si5 0.392751 0.895253 0.226386
Si Si6 0.933977 0.609228 0.361382
Si Si7 0.628312 0.211744 0.456713
O O1 0.573016 0.500000 0.337497
O O2 0.423695 0.639819 0.175784
O O3 0.737855 0.617192 0.276612
O O4 0.637593 0.677673 0.421516
O O5 0.283536 0.907957 0.287322
O O6 0.199617 0.832653 0.436523
O O7 0.994051 0.829601 0.194765
O O8 0.068227 0.000000 0.313663
O O9 0.312661 0.818750 0.113184
O O10 0.156516 0.688657 0.166861
O O11 0.164583 0.681536 0.956512
O O12 0.988320 0.339465 0.709730
O O13 0.567663 0.854520 0.333614
O O14 0.413368 0.000000 0.178604
O O15 0.994833 0.500000 0.380295
O O16 0.000000 0.654815 0.500000
O O17 0.500000 0.209642 0.500000
#
# Coordination Sequence:
#
# PCOD8064560 Si02
#       7
#     4   4   4   4   4   4   4
#     4  10  21  36  54  77 105 140 184 225 265 322
#     4   9  16  27  48  77 106 139 177 215 262 320
#     4   9  20  35  54  82 109 140 183 224 268 314
#     4  10  20  36  55  78 112 145 177 225 272 312
#     4   8  14  26  46  74 107 137 169 217 269 316
#     4  10  22  39  58  79 104 140 181 220 271 330
#     4   9  16  28  48  77 108 138 175 222 272 316
#
# _framework density 19.673767000000002
#
# number of rings (size 3 to 8) (size 9 to 14) (size 15 to 20)
#    0.000    2.714    0.000    2.143    0.000    4.286 
#    0.000    7.143    0.000    7.286    0.000    5.000 
#    0.000    0.000    0.000    0.000    0.000    0.000 
#
# Total GULP energy -346968.875042 kJ/mol
# GULP energy per Si atom -12391.745537 kJ/mol
# Density = 1.962899 g / cm^3
# Si number density = 19.673767 Si / 1000 Ang^3
#
#
#
# Elastic Constant Matrix: (Units=GPa)
#
#
# Indices 1 2 3 4 5 6 
#
# 1 48.8990 30.7150 37.1629 0.0000 6.9548 0.0000
# 2 30.7150 126.9748 40.7353 0.0000 -0.9936 0.0000
# 3 37.1629 40.7353 103.7249 0.0000 2.4259 0.0000
# 4 0.0000 0.0000 0.0000 20.9224 0.0000 4.8609
# 5 6.9548 -0.9936 2.4259 0.0000 25.7954 0.0000
# 6 0.0000 0.0000 0.0000 4.8609 0.0000 5.1539
#
#
#
# Elastic Compliance Matrix: (Units=1/GPa)
#
#
# Indices 1 2 3 4 5 6 
#
# 1 0.031581 -0.004725 -0.009276 0.000000 -0.007824 0.000000
# 2 -0.004725 0.009730 -0.002172 0.000000 0.001853 0.000000
# 3 -0.009276 -0.002172 0.013791 0.000000 0.001120 0.000000
# 4 0.000000 0.000000 0.000000 0.061207 0.000000 -0.057727
# 5 -0.007824 0.001853 0.001120 0.000000 0.040842 0.000000
# 6 0.000000 0.000000 0.000000 -0.057727 0.000000 0.248472
#
#
# Mechanical properties :
#
#
# Convention : Reuss Voigt Hill
#
# Bulk Modulus (GPa) = 43.94399 55.20281 49.57340
# Shear Modulus (GPa) = 11.22200 21.77337 16.49768
#
# Velocity S-wave (km/s) = 2.39090 3.33035 2.89894
# Velocity P-wave (km/s) = 5.47784 6.55044 6.03801
#
# Compressibility (1/GPa) = 0.02275624
#
# Stress axis : x y z
#
# Youngs Moduli (GPa) = 31.66485 102.77868 72.51029
#
# Poissons Ratio (x) = 0.48558 0.67264
# Poissons Ratio (y) = 0.14960 0.15747
# Poissons Ratio (z) = 0.29374 0.22320
#
# Static dielectric constant tensor:
#      x y z
#    x 3.234780 0.000000 0.195120 
#    y 0.000000 3.791340 0.000000 
#    z 0.195120 0.000000 3.510190 
# 
# 
# High freq. dielectric constant tensor:
#      x y z
#    x 1.726720 0.000000 0.020530 
#    y 0.000000 1.772730 0.000000 
#    z 0.020530 0.000000 1.757260 
# 
# From -- ./inp_files/43044.got.cif
#   From: 2010.06.25/outbox.cif.g09.slc.cpg/sg10_22_cif.got.tgz:43044.got - 2010.06.27 22:07:45.
