data_PCOD8064673
_publ_section_title
;
Structure prediction by ZEFSAII (Michael W. Deem and Ramdas Pophale) SiO2 
 PCOD8064673
Probable space group: P 2/M
;
_chemical_formula_sum "Si O2"
_cell_formula_units_Z 28
_cell_length_a 23.379042
_cell_length_b 8.981422
_cell_length_c 21.981162
_cell_angle_alpha 90.000000
_cell_angle_beta 17.843202
_cell_angle_gamma 90.000000
_cell_volume 1414.261914
_symmetry_space_group_name_H-M "P 2/M"
_symmetry_group_IT_number 10
_symmetry_cell_setting 'monoclinic'
loop_
_space_group_symop_operation_xyz
x,y,z
-x,y,-z
-x,-y,-z
x,-y,z
loop_
_atom_site_type_symbol
_atom_site_label
_atom_site_fract_x
_atom_site_fract_y
_atom_site_fract_z
Si Si1 0.254609 0.166686 0.194871
Si Si2 0.693709 0.830944 0.728252
Si Si3 0.042940 0.669961 0.729868
Si Si4 0.706879 0.823947 0.293537
Si Si5 0.988207 0.824075 0.110434
Si Si6 0.609083 0.330703 0.698948
Si Si7 0.778741 0.177732 0.901983
O O1 0.209120 0.237410 0.307970
O O2 0.163911 0.236447 0.224914
O O3 0.181226 0.000000 0.275124
O O4 0.474067 0.168850 0.961386
O O5 0.734293 0.728869 0.628887
O O6 0.762934 0.000000 0.645379
O O7 0.972684 0.500000 0.799030
O O8 0.013835 0.734243 0.825725
O O9 0.261203 0.680651 0.491921
O O10 0.926210 0.765387 0.800517
O O11 0.500000 0.751923 0.500000
O O12 0.812811 0.770658 0.247196
O O13 0.693376 0.000000 0.310213
O O14 0.822287 0.779194 0.116659
O O15 0.980479 0.000000 0.131410
O O16 0.550026 0.500000 0.772361
O O17 0.425928 0.234342 0.871936
O O18 0.771203 0.000000 0.910101
#
# Coordination Sequence:
#
# PCOD8064673 Si02
#       7
#     4   4   4   4   4   4   4
#     4   7  12  25  47  74  99 125 166 225 283 325
#     4   8  13  26  49  73  98 130 173 224 274 326
#     4  11  24  39  53  75 114 154 183 219 266 317
#     4   8  15  31  56  85 113 136 165 214 265 302
#     4   9  18  33  55  82 108 138 179 218 253 303
#     4  10  21  36  52  74 108 146 181 221 274 330
#     4  10  20  36  58  79 101 136 185 234 276 324
#
# _framework density 19.798313
#
# number of rings (size 3 to 8) (size 9 to 14) (size 15 to 20)
#    0.000    3.000    0.000    3.857    0.000    3.429 
#    0.000   10.000    0.000    5.143    0.000    0.000 
#    0.000    0.000    0.000    0.000    0.000    0.000 
#
# Total GULP energy -346897.951275 kJ/mol
# GULP energy per Si atom -12389.212546 kJ/mol
# Density = 1.975325 g / cm^3
# Si number density = 19.798313 Si / 1000 Ang^3
#
#
#
# Elastic Constant Matrix: (Units=GPa)
#
#
# Indices 1 2 3 4 5 6 
#
# 1 104.5573 30.8838 38.8695 0.0000 11.4402 0.0000
# 2 30.8838 73.4781 24.4197 0.0000 5.4513 0.0000
# 3 38.8695 24.4197 68.5072 0.0000 3.7048 0.0000
# 4 0.0000 0.0000 0.0000 14.1414 0.0000 13.4239
# 5 11.4402 5.4513 3.7048 0.0000 31.0084 0.0000
# 6 0.0000 0.0000 0.0000 13.4239 0.0000 -14.8412
#
#
#
# Elastic Compliance Matrix: (Units=1/GPa)
#
#
# Indices 1 2 3 4 5 6 
#
# 1 0.013193 -0.003241 -0.006137 0.000000 -0.003564 0.000000
# 2 -0.003241 0.016368 -0.003930 0.000000 -0.001212 0.000000
# 3 -0.006137 -0.003930 0.019446 0.000000 0.000632 0.000000
# 4 0.000000 0.000000 0.000000 0.038047 0.000000 0.034414
# 5 -0.003564 -0.001212 0.000632 0.000000 0.033702 0.000000
# 6 0.000000 0.000000 0.000000 0.034414 0.000000 -0.036253
#
#
# Mechanical properties :
#
#
# Convention : Reuss Voigt Hill
#
# Bulk Modulus (GPa) = 44.66284 48.32093 46.49188
# Shear Modulus (GPa) = 42.16468 16.21970 29.19219
#
# Velocity S-wave (km/s) = 4.61989 2.86535 3.84406
# Velocity P-wave (km/s) = 7.14602 5.95034 6.57542
#
# Compressibility (1/GPa) = 0.02238998
#
# Stress axis : x y z
#
# Youngs Moduli (GPa) = 75.79733 61.09574 51.42474
#
# Poissons Ratio (x) = 0.19802 0.31561
# Poissons Ratio (y) = 0.24567 0.20209
# Poissons Ratio (z) = 0.46520 0.24010
#
# Static dielectric constant tensor:
#      x y z
#    x 4.001960 0.000000 0.011490 
#    y 0.000000 3.318750 0.000000 
#    z 0.011490 0.000000 3.723650 
# 
# 
# High freq. dielectric constant tensor:
#      x y z
#    x 1.779410 0.000000 0.003030 
#    y 0.000000 1.731890 0.000000 
#    z 0.003030 0.000000 1.770850 
# 
# From -- ./inp_files/86455.got.cif
#   From: 2010.06.25/outbox.cif.g09.slc.cpg/sg10_44_cif.got.tgz:86455.got - 2010.06.27 22:07:45.
