data_PCOD8064018
_publ_section_title
;
Structure prediction by ZEFSAII (Michael W. Deem and Ramdas Pophale) SiO2 
 PCOD8064018
Probable space group: P 2/M
;
_chemical_formula_sum "Si O2"
_cell_formula_units_Z 28
_cell_length_a 18.654655
_cell_length_b 8.916109
_cell_length_c 14.336854
_cell_angle_alpha 90.000000
_cell_angle_beta 40.328903
_cell_angle_gamma 90.000000
_cell_volume 1543.255386
_symmetry_space_group_name_H-M "P 2/M"
_symmetry_group_IT_number 10
_symmetry_cell_setting 'monoclinic'
loop_
_space_group_symop_operation_xyz
x,y,z
-x,y,-z
-x,-y,-z
x,-y,z
loop_
_atom_site_type_symbol
_atom_site_label
_atom_site_fract_x
_atom_site_fract_y
_atom_site_fract_z
Si Si1 0.370763 0.837398 0.621324
Si Si2 0.179536 0.828837 0.570006
Si Si3 0.165638 0.677018 0.087241
Si Si4 0.612401 0.674837 0.578630
Si Si5 0.009706 0.826387 0.383833
Si Si6 0.992820 0.175426 0.899487
Si Si7 0.377959 0.177433 0.819764
O O1 0.500000 0.865322 0.500000
O O2 0.344540 0.716643 0.568018
O O3 0.333577 0.780426 0.759818
O O4 0.314880 0.000000 0.652503
O O5 0.287667 0.724202 0.453012
O O6 0.108313 0.788190 0.733090
O O7 0.108056 0.799401 0.548510
O O8 0.219821 0.000000 0.535199
O O9 0.173327 0.500000 0.074016
O O10 0.101862 0.725082 0.243677
O O11 0.105753 0.737032 0.053592
O O12 0.288975 0.745516 0.975561
O O13 0.589913 0.500000 0.608005
O O14 0.500187 0.759062 0.718436
O O15 0.000000 0.775389 0.500000
O O16 0.045237 0.000000 0.339086
O O17 0.964496 0.000000 0.919494
O O18 0.000000 0.227275 0.000000
O O19 0.382134 0.000000 0.831194
#
# Coordination Sequence:
#
# PCOD8064018 Si02
#       7
#     4   4   4   4   4   4   4
#     4   8  16  30  46  64  90 135 186 221 251 295
#     4   9  18  33  53  78 106 137 177 218 262 317
#     4  11  22  34  52  82 114 139 171 218 277 328
#     4  11  21  31  47  74 109 142 177 221 268 314
#     4   9  19  39  65  86 103 132 178 224 264 319
#     4   9  19  35  53  73 101 145 190 224 259 308
#     4  10  20  35  53  71 100 144 190 225 258 308
#
# _framework density 18.143464999999999
#
# number of rings (size 3 to 8) (size 9 to 14) (size 15 to 20)
#    0.000    2.429    0.000    4.714    2.000    6.000 
#    0.000    0.000    0.000    0.857    0.000    6.000 
#    0.000    0.000    0.000    0.000    0.000    0.000 
#
# Total GULP energy -347136.055830 kJ/mol
# GULP energy per Si atom -12397.716280 kJ/mol
# Density = 1.810217 g / cm^3
# Si number density = 18.143465 Si / 1000 Ang^3
#
#
#
# Elastic Constant Matrix: (Units=GPa)
#
#
# Indices 1 2 3 4 5 6 
#
# 1 93.6177 43.0975 61.5315 0.0000 3.8069 0.0000
# 2 43.0975 108.4504 53.8642 0.0000 -12.3515 0.0000
# 3 61.5315 53.8642 97.2901 0.0000 -9.8262 0.0000
# 4 0.0000 0.0000 0.0000 24.9926 0.0000 -8.0410
# 5 3.8069 -12.3515 -9.8262 0.0000 30.5575 0.0000
# 6 0.0000 0.0000 0.0000 -8.0410 0.0000 16.4073
#
#
#
# Elastic Compliance Matrix: (Units=1/GPa)
#
#
# Indices 1 2 3 4 5 6 
#
# 1 0.020151 -0.002976 -0.011857 0.000000 -0.007526 0.000000
# 2 -0.002976 0.013424 -0.005131 0.000000 0.004147 0.000000
# 3 -0.011857 -0.005131 0.021248 0.000000 0.006236 0.000000
# 4 0.000000 0.000000 0.000000 0.047502 0.000000 0.023280
# 5 -0.007526 0.004147 0.006236 0.000000 0.037344 0.000000
# 6 0.000000 0.000000 0.000000 0.023280 0.000000 0.072358
#
#
# Mechanical properties :
#
#
# Convention : Reuss Voigt Hill
#
# Bulk Modulus (GPa) = 67.13698 68.48271 67.80985
# Shear Modulus (GPa) = 19.46118 23.78247 21.62182
#
# Velocity S-wave (km/s) = 3.27865 3.62443 3.45587
# Velocity P-wave (km/s) = 7.17053 7.43924 7.30612
#
# Compressibility (1/GPa) = 0.01489492
#
# Stress axis : x y z
#
# Youngs Moduli (GPa) = 49.62526 74.49180 47.06251
#
# Poissons Ratio (x) = 0.22168 0.55802
# Poissons Ratio (y) = 0.14768 0.24149
# Poissons Ratio (z) = 0.58841 0.38224
#
# Static dielectric constant tensor:
#      x y z
#    x 3.245470 0.000000 0.007470 
#    y 0.000000 3.204650 0.000000 
#    z 0.007470 0.000000 3.386520 
# 
# 
# High freq. dielectric constant tensor:
#      x y z
#    x 1.681640 0.000000 -0.017230 
#    y 0.000000 1.696070 0.000000 
#    z -0.017230 0.000000 1.694150 
# 
# From -- ./inp_files/68580.got.cif
#   From: 2010.06.25/outbox.cif.g09.slc.cpg/sg10_35_cif.got.tgz:68580.got - 2010.06.27 22:07:45.
