data_PCOD8064158
_publ_section_title
;
Structure prediction by ZEFSAII (Michael W. Deem and Ramdas Pophale) SiO2 
 PCOD8064158
Probable space group: P 2/M
;
_chemical_formula_sum "Si O2"
_cell_formula_units_Z 32
_cell_length_a 29.865342
_cell_length_b 9.030277
_cell_length_c 12.481860
_cell_angle_alpha 90.000000
_cell_angle_beta 151.310389
_cell_angle_gamma 90.000000
_cell_volume 1616.022534
_symmetry_space_group_name_H-M "P 2/M"
_symmetry_group_IT_number 10
_symmetry_cell_setting 'monoclinic'
loop_
_space_group_symop_operation_xyz
x,y,z
-x,y,-z
-x,-y,-z
x,-y,z
loop_
_atom_site_type_symbol
_atom_site_label
_atom_site_fract_x
_atom_site_fract_y
_atom_site_fract_z
Si Si1 0.600367 0.669663 0.179642
Si Si2 0.102993 0.671144 0.683849
Si Si3 0.367548 0.825123 0.968171
Si Si4 0.766377 0.669552 0.677840
Si Si5 0.187113 0.328600 0.635786
Si Si6 0.253986 0.824299 0.145691
Si Si7 0.461506 0.175727 0.531485
Si Si8 0.102268 0.323718 0.236458
O O1 0.595295 0.500000 0.129305
O O2 0.643336 0.766185 0.174966
O O3 0.661485 0.683727 0.414554
O O4 0.500000 0.733580 0.000000
O O5 0.115341 0.500000 0.743012
O O6 0.115204 0.693771 0.582294
O O7 0.000000 0.727790 0.500000
O O8 0.181860 0.766015 0.907131
O O9 0.282776 0.759321 0.860358
O O10 0.358886 0.000000 0.951696
O O11 0.466537 0.773167 0.225131
O O12 0.790947 0.500000 0.758925
O O13 0.779426 0.769659 0.808810
O O14 0.833451 0.731361 0.725727
O O15 0.213364 0.500000 0.675919
O O16 0.139297 0.263522 0.428026
O O17 0.357991 0.761751 0.338592
O O18 0.253204 0.000000 0.142281
O O19 0.500000 0.239848 0.500000
O O20 0.456464 0.000000 0.514784
O O21 0.101354 0.500000 0.238842
O O22 0.000000 0.258797 0.000000
#
# Coordination Sequence:
#
# PCOD8064158 Si02
#       8
#     4   4   4   4   4   4   4   4
#     4  10  20  35  55  81 115 154 193 238 289 341
#     4  10  23  41  64  90 116 151 197 245 292 349
#     4  11  21  34  57  85 115 152 193 239 291 350
#     4  10  20  36  58  83 116 152 192 235 283 347
#     4  10  20  38  61  87 117 148 193 245 291 346
#     4  11  23  39  60  86 120 154 192 241 292 347
#     4   9  19  36  56  79 110 153 197 233 280 344
#     4   9  18  33  59  87 109 146 193 237 286 342
#
# _framework density 19.801704000000001
#
# number of rings (size 3 to 8) (size 9 to 14) (size 15 to 20)
#    0.000    2.000    1.250    2.250    1.750    2.500 
#    0.000    1.875    0.000    5.250    0.000    0.000 
#    0.000    0.000    0.000    0.000    0.000    0.000 
#
# Total GULP energy -396873.570748 kJ/mol
# GULP energy per Si atom -12402.299086 kJ/mol
# Density = 1.975663 g / cm^3
# Si number density = 19.801704 Si / 1000 Ang^3
#
#
#
# Elastic Constant Matrix: (Units=GPa)
#
#
# Indices 1 2 3 4 5 6 
#
# 1 134.2431 31.7908 58.8862 0.0000 5.3992 0.0000
# 2 31.7908 50.5542 34.1552 0.0000 0.0604 0.0000
# 3 58.8862 34.1552 125.8346 0.0000 10.8606 0.0000
# 4 0.0000 0.0000 0.0000 25.5085 0.0000 -0.2501
# 5 5.3992 0.0604 10.8606 0.0000 39.7872 0.0000
# 6 0.0000 0.0000 0.0000 -0.2501 0.0000 20.1115
#
#
#
# Elastic Compliance Matrix: (Units=1/GPa)
#
#
# Indices 1 2 3 4 5 6 
#
# 1 0.009942 -0.003832 -0.003581 0.000000 -0.000366 0.000000
# 2 -0.003832 0.025827 -0.005385 0.000000 0.001951 0.000000
# 3 -0.003581 -0.005385 0.011308 0.000000 -0.002593 0.000000
# 4 0.000000 0.000000 0.000000 0.039207 0.000000 0.000488
# 5 -0.000366 0.001951 -0.002593 0.000000 0.025888 0.000000
# 6 0.000000 0.000000 0.000000 0.000488 0.000000 0.049729
#
#
# Mechanical properties :
#
#
# Convention : Reuss Voigt Hill
#
# Bulk Modulus (GPa) = 46.55411 62.25513 54.40462
# Shear Modulus (GPa) = 25.68607 29.46806 27.57707
#
# Velocity S-wave (km/s) = 3.60552 3.86185 3.73589
# Velocity P-wave (km/s) = 6.39486 7.16887 6.79290
#
# Compressibility (1/GPa) = 0.02148038
#
# Stress axis : x y z
#
# Youngs Moduli (GPa) = 100.58142 38.71970 88.43262
#
# Poissons Ratio (x) = 0.14839 0.31666
# Poissons Ratio (y) = 0.38547 0.47621
# Poissons Ratio (z) = 0.36016 0.20851
#
# Static dielectric constant tensor:
#      x y z
#    x 3.754700 0.000000 0.114050 
#    y 0.000000 3.243370 0.000000 
#    z 0.114050 0.000000 3.754150 
# 
# 
# High freq. dielectric constant tensor:
#      x y z
#    x 1.784170 0.000000 0.003370 
#    y 0.000000 1.735480 0.000000 
#    z 0.003370 0.000000 1.781220 
# 
# From -- ./inp_files/58228.got.cif
#   From: 2010.06.25/outbox.cif.g09.slc.cpg/sg10_30_cif.got.tgz:58228.got - 2010.06.27 22:07:45.
