data_PCOD8064186
_publ_section_title
;
Structure prediction by ZEFSAII (Michael W. Deem and Ramdas Pophale) SiO2 
 PCOD8064186
Probable space group: P 2/M
;
_chemical_formula_sum "Si O2"
_cell_formula_units_Z 26
_cell_length_a 15.331847
_cell_length_b 9.476609
_cell_length_c 13.645669
_cell_angle_alpha 90.000000
_cell_angle_beta 43.286704
_cell_angle_gamma 90.000000
_cell_volume 1359.391037
_symmetry_space_group_name_H-M "P 2/M"
_symmetry_group_IT_number 10
_symmetry_cell_setting 'monoclinic'
loop_
_space_group_symop_operation_xyz
x,y,z
-x,y,-z
-x,-y,-z
x,-y,z
loop_
_atom_site_type_symbol
_atom_site_label
_atom_site_fract_x
_atom_site_fract_y
_atom_site_fract_z
Si Si1 0.744864 0.840090 0.693907
Si Si2 0.500000 0.245844 0.000000
Si Si3 0.659907 0.655251 0.044473
Si Si4 0.108053 0.338610 0.275315
Si Si5 0.311624 0.835447 0.591162
Si Si6 0.180700 0.334558 0.544089
Si Si7 0.585691 0.837112 0.287831
O O1 0.610059 0.848169 0.860334
O O2 0.854680 0.765648 0.667647
O O3 0.730922 0.749317 0.605824
O O4 0.786646 0.000000 0.635594
O O5 0.563494 0.341377 0.031647
O O6 0.653062 0.500000 0.096158
O O7 0.626782 0.763065 0.155568
O O8 0.802196 0.689135 0.891356
O O9 0.123701 0.500000 0.300402
O O10 0.965583 0.306770 0.360154
O O11 0.205849 0.733842 0.630125
O O12 0.445785 0.790382 0.434514
O O13 0.315855 0.805780 0.704242
O O14 0.281443 0.000000 0.595606
O O15 0.215609 0.500000 0.515092
O O16 0.585330 0.000000 0.262213
#
# Coordination Sequence:
#
# PCOD8064186 Si02
#       7
#     4   2   4   4   4   4   4
#     4  11  22  35  54  79 107 140 176 214 258 311
#     4  10  22  36  52  80 114 140 168 210 262 312
#     4  10  20  35  56  78 104 140 178 215 256 308
#     4   9  21  39  53  72 107 144 176 214 261 308
#     4   9  19  36  56  78 106 138 172 213 261 315
#     4  11  22  36  55  78 105 139 177 218 262 306
#     4   9  19  36  56  79 108 138 168 212 269 313
#
# _framework density 19.126211999999999
#
# number of rings (size 3 to 8) (size 9 to 14) (size 15 to 20)
#    0.000    2.154    0.000    3.692    0.000   11.692 
#    0.000    2.308    0.000    4.615    0.000    0.000 
#    0.000    0.000    0.000    0.000    0.000    0.000 
#
# Total GULP energy -322393.042054 kJ/mol
# GULP energy per Si atom -12399.732387 kJ/mol
# Density = 1.908268 g / cm^3
# Si number density = 19.126212 Si / 1000 Ang^3
#
#
#
# Elastic Constant Matrix: (Units=GPa)
#
#
# Indices 1 2 3 4 5 6 
#
# 1 100.1614 49.9137 40.1528 0.0000 4.1672 0.0000
# 2 49.9137 93.7244 32.3074 0.0000 2.7988 0.0000
# 3 40.1528 32.3074 71.4337 0.0000 7.5180 0.0000
# 4 0.0000 0.0000 0.0000 8.8340 0.0000 -0.9398
# 5 4.1672 2.7988 7.5180 0.0000 26.7660 0.0000
# 6 0.0000 0.0000 0.0000 -0.9398 0.0000 31.3053
#
#
#
# Elastic Compliance Matrix: (Units=1/GPa)
#
#
# Indices 1 2 3 4 5 6 
#
# 1 0.015421 -0.006191 -0.005857 0.000000 -0.000108 0.000000
# 2 -0.006191 0.015127 -0.003397 0.000000 0.000336 0.000000
# 3 -0.005857 -0.003397 0.019264 0.000000 -0.004144 0.000000
# 4 0.000000 0.000000 0.000000 0.113561 0.000000 0.003409
# 5 -0.000108 0.000336 -0.004144 0.000000 0.038506 0.000000
# 6 0.000000 0.000000 0.000000 0.003409 0.000000 0.032046
#
#
# Mechanical properties :
#
#
# Convention : Reuss Voigt Hill
#
# Bulk Modulus (GPa) = 52.84681 56.67416 54.76048
# Shear Modulus (GPa) = 18.44175 22.91077 20.67626
#
# Velocity S-wave (km/s) = 3.10855 3.46478 3.29149
# Velocity P-wave (km/s) = 6.36982 6.76035 6.56799
#
# Compressibility (1/GPa) = 0.01892262
#
# Stress axis : x y z
#
# Youngs Moduli (GPa) = 64.84515 66.10489 51.91051
#
# Poissons Ratio (x) = 0.40922 0.30405
# Poissons Ratio (y) = 0.40143 0.17636
# Poissons Ratio (z) = 0.37981 0.22459
#
# Static dielectric constant tensor:
#      x y z
#    x 3.528690 0.000000 0.008890 
#    y 0.000000 3.395620 0.000000 
#    z 0.008890 0.000000 3.448820 
# 
# 
# High freq. dielectric constant tensor:
#      x y z
#    x 1.744090 0.000000 0.002010 
#    y 0.000000 1.743820 0.000000 
#    z 0.002010 0.000000 1.733810 
# 
# From -- ./inp_files/49496.got.cif
#   From: 2010.06.25/outbox.cif.g09.slc.cpg/sg10_25_cif.got.tgz:49496.got - 2010.06.27 22:07:45.
