data_PCOD8064347
_publ_section_title
;
Structure prediction by ZEFSAII (Michael W. Deem and Ramdas Pophale) SiO2 
 PCOD8064347
Probable space group: P 2/M
;
_chemical_formula_sum "Si O2"
_cell_formula_units_Z 32
_cell_length_a 25.498394
_cell_length_b 9.187666
_cell_length_c 14.816898
_cell_angle_alpha 90.000000
_cell_angle_beta 150.863160
_cell_angle_gamma 90.000000
_cell_volume 1690.100394
_symmetry_space_group_name_H-M "P 2/M"
_symmetry_group_IT_number 10
_symmetry_cell_setting 'monoclinic'
loop_
_space_group_symop_operation_xyz
x,y,z
-x,y,-z
-x,-y,-z
x,-y,z
loop_
_atom_site_type_symbol
_atom_site_label
_atom_site_fract_x
_atom_site_fract_y
_atom_site_fract_z
Si Si1 0.289708 0.328219 0.535223
Si Si2 0.111275 0.329291 0.121231
Si Si3 0.804048 0.331964 0.075067
Si Si4 0.824946 0.831875 0.480781
Si Si5 0.929094 0.832062 0.117780
Si Si6 0.515975 0.672535 0.801811
Si Si7 0.436557 0.671346 0.321224
Si Si8 0.751929 0.670185 0.200995
O O1 0.285963 0.500000 0.547292
O O2 0.210008 0.285399 0.334093
O O3 0.258427 0.248789 0.579792
O O4 0.409840 0.271412 0.693245
O O5 0.109825 0.500000 0.098344
O O6 0.127831 0.247853 0.051506
O O7 0.000000 0.278968 0.000000
O O8 0.835175 0.500000 0.108462
O O9 0.892136 0.234282 0.157633
O O10 0.799873 0.293603 0.174635
O O11 0.689518 0.296490 0.857315
O O12 0.819567 0.762838 0.373574
O O13 0.943440 0.809792 0.698906
O O14 0.793322 0.000000 0.427008
O O15 0.896339 0.000000 0.065878
O O16 0.512579 0.500000 0.788322
O O17 0.518446 0.738989 0.704412
O O18 0.625921 0.717010 0.018304
O O19 0.500000 0.744302 0.500000
O O20 0.457517 0.500000 0.350888
O O21 0.765003 0.500000 0.242144
#
# Coordination Sequence:
#
# PCOD8064347 Si02
#       8
#     4   4   4   4   4   4   4   4
#     4  10  20  35  58  85 112 142 179 225 271 322
#     4  10  20  35  57  84 111 141 182 229 272 317
#     4   9  19  35  57  84 110 139 181 228 272 320
#     4  11  24  39  55  77 107 147 189 226 273 329
#     4  11  24  38  54  78 112 151 185 222 272 329
#     4   8  16  31  52  82 112 139 174 217 273 326
#     4   8  14  26  49  81 112 138 169 216 268 318
#     4   9  19  38  60  82 109 140 179 230 278 320
#
# _framework density 18.933786000000001
#
# number of rings (size 3 to 8) (size 9 to 14) (size 15 to 20)
#    0.000    2.500    1.250    2.250    1.750    3.750 
#    0.000    5.625    0.000    1.125    0.000    0.000 
#    0.000    0.000    0.000    0.000    0.000    0.000 
#
# Total GULP energy -396800.984576 kJ/mol
# GULP energy per Si atom -12400.030768 kJ/mol
# Density = 1.889069 g / cm^3
# Si number density = 18.933786 Si / 1000 Ang^3
#
#
#
# Elastic Constant Matrix: (Units=GPa)
#
#
# Indices 1 2 3 4 5 6 
#
# 1 104.3142 44.8671 24.8668 0.0000 -0.7460 0.0000
# 2 44.8671 56.7184 25.2830 0.0000 -4.5554 0.0000
# 3 24.8668 25.2830 43.2772 0.0000 -11.8494 0.0000
# 4 0.0000 0.0000 0.0000 15.9935 0.0000 -0.9120
# 5 -0.7460 -4.5554 -11.8494 0.0000 33.7096 0.0000
# 6 0.0000 0.0000 0.0000 -0.9120 0.0000 9.0690
#
#
#
# Elastic Compliance Matrix: (Units=1/GPa)
#
#
# Indices 1 2 3 4 5 6 
#
# 1 0.014824 -0.010602 -0.002906 0.000000 -0.002126 0.000000
# 2 -0.010602 0.031526 -0.012419 0.000000 -0.000340 0.000000
# 3 -0.002906 -0.012419 0.034916 0.000000 0.010531 0.000000
# 4 0.000000 0.000000 0.000000 0.062886 0.000000 0.006324
# 5 -0.002126 -0.000340 0.010531 0.000000 0.033274 0.000000
# 6 0.000000 0.000000 0.000000 0.006324 0.000000 0.110902
#
#
# Mechanical properties :
#
#
# Convention : Reuss Voigt Hill
#
# Bulk Modulus (GPa) = 34.00069 43.81594 38.90831
# Shear Modulus (GPa) = 14.28628 19.04062 16.66345
#
# Velocity S-wave (km/s) = 2.74987 3.17463 2.96985
# Velocity P-wave (km/s) = 5.29896 6.05224 5.68808
#
# Compressibility (1/GPa) = 0.02941117
#
# Stress axis : x y z
#
# Youngs Moduli (GPa) = 67.45808 31.71954 28.64049
#
# Poissons Ratio (x) = 0.33628 0.08324
# Poissons Ratio (y) = 0.71518 0.35569
# Poissons Ratio (z) = 0.19605 0.39393
#
# Static dielectric constant tensor:
#      x y z
#    x 3.563840 0.000000 0.010960 
#    y 0.000000 3.104860 0.000000 
#    z 0.010960 0.000000 3.527480 
# 
# 
# High freq. dielectric constant tensor:
#      x y z
#    x 1.744000 0.000000 -0.002050 
#    y 0.000000 1.698450 0.000000 
#    z -0.002050 0.000000 1.737980 
# 
# From -- ./inp_files/71476.got.cif
#   From: 2010.06.25/outbox.cif.g09.slc.cpg/sg10_36_cif.got.tgz:71476.got - 2010.06.27 22:07:45.
