data_PCOD8064178
_publ_section_title
;
Structure prediction by ZEFSAII (Michael W. Deem and Ramdas Pophale) SiO2 
 PCOD8064178
Probable space group: P 2/M
;
_chemical_formula_sum "Si O2"
_cell_formula_units_Z 24
_cell_length_a 14.518798
_cell_length_b 13.560640
_cell_length_c 9.362090
_cell_angle_alpha 90.000000
_cell_angle_beta 40.332146
_cell_angle_gamma 90.000000
_cell_volume 1192.982200
_symmetry_space_group_name_H-M "P 2/M"
_symmetry_group_IT_number 10
_symmetry_cell_setting 'monoclinic'
loop_
_space_group_symop_operation_xyz
x,y,z
-x,y,-z
-x,-y,-z
x,-y,z
loop_
_atom_site_type_symbol
_atom_site_label
_atom_site_fract_x
_atom_site_fract_y
_atom_site_fract_z
Si Si1 0.587351 0.280299 0.035447
Si Si2 0.198369 0.847575 0.343676
Si Si3 0.645700 0.386619 0.250085
Si Si4 0.167117 0.221480 0.843709
Si Si5 0.382293 0.888206 0.375738
Si Si6 0.078316 0.106272 0.203541
O O1 0.618175 0.363616 0.115704
O O2 0.518103 0.184027 0.197062
O O3 0.500000 0.319500 0.000000
O O4 0.741684 0.254750 0.788644
O O5 0.317317 0.903003 0.295365
O O6 0.160801 0.915282 0.253138
O O7 0.059188 0.824875 0.604577
O O8 0.500000 0.361178 0.500000
O O9 0.689665 0.500000 0.212025
O O10 0.770072 0.327155 0.184885
O O11 0.263427 0.167061 0.612164
O O12 0.182054 0.155219 0.967126
O O13 0.000000 0.230225 0.000000
O O14 0.421175 0.000000 0.386279
O O15 0.025205 0.000000 0.207946
#
# Coordination Sequence:
#
# PCOD8064178 Si02
#       6
#     4   4   4   4   4   4
#     4  10  22  40  64  93 124 160 205 260 312 364
#     4  10  20  35  55  84 126 166 207 241 289 360
#     4  11  24  47  71  90 117 157 213 270 327 376
#     4  12  24  40  63  91 128 166 209 259 309 363
#     4  11  22  36  57  91 132 169 207 245 295 363
#     4  11  21  33  56  86 123 172 212 239 291 368
#
# _framework density 20.117650999999999
#
# number of rings (size 3 to 8) (size 9 to 14) (size 15 to 20)
#    0.000    1.167    5.000    2.500    0.000    5.667 
#    0.000    0.833    0.000    2.000    0.000    0.000 
#    0.000    0.000    0.000    0.000    0.000    0.000 
#
# Total GULP energy -297327.034871 kJ/mol
# GULP energy per Si atom -12388.626453 kJ/mol
# Density = 2.007186 g / cm^3
# Si number density = 20.117651 Si / 1000 Ang^3
#
#
#
# Elastic Constant Matrix: (Units=GPa)
#
#
# Indices 1 2 3 4 5 6 
#
# 1 59.7529 33.8159 18.2415 0.0000 2.9789 0.0000
# 2 33.8159 77.9883 38.5034 0.0000 1.5691 0.0000
# 3 18.2415 38.5034 97.3911 0.0000 2.6653 0.0000
# 4 0.0000 0.0000 0.0000 24.9481 0.0000 7.4676
# 5 2.9789 1.5691 2.6653 0.0000 28.1354 0.0000
# 6 0.0000 0.0000 0.0000 7.4676 0.0000 27.5142
#
#
#
# Elastic Compliance Matrix: (Units=1/GPa)
#
#
# Indices 1 2 3 4 5 6 
#
# 1 0.022283 -0.009430 -0.000396 0.000000 -0.001796 0.000000
# 2 -0.009430 0.019925 -0.006124 0.000000 0.000467 0.000000
# 3 -0.000396 -0.006124 0.012786 0.000000 -0.000828 0.000000
# 4 0.000000 0.000000 0.000000 0.043627 0.000000 -0.011841
# 5 -0.001796 0.000467 -0.000828 0.000000 0.035785 0.000000
# 6 0.000000 0.000000 0.000000 -0.011841 0.000000 0.039558
#
#
# Mechanical properties :
#
#
# Convention : Reuss Voigt Hill
#
# Bulk Modulus (GPa) = 43.30251 46.25044 44.77648
# Shear Modulus (GPa) = 23.41224 25.75766 24.58495
#
# Velocity S-wave (km/s) = 3.41510 3.58208 3.49959
# Velocity P-wave (km/s) = 6.09278 6.33627 6.21572
#
# Compressibility (1/GPa) = 0.02309335
#
# Stress axis : x y z
#
# Youngs Moduli (GPa) = 44.87750 50.18714 78.21142
#
# Poissons Ratio (x) = 0.47327 0.03099
# Poissons Ratio (y) = 0.42320 0.47897
# Poissons Ratio (z) = 0.01778 0.30735
#
# Static dielectric constant tensor:
#      x y z
#    x 3.741760 0.000000 0.073200 
#    y 0.000000 3.307820 0.000000 
#    z 0.073200 0.000000 3.896490 
# 
# 
# High freq. dielectric constant tensor:
#      x y z
#    x 1.792150 0.000000 0.007810 
#    y 0.000000 1.746180 0.000000 
#    z 0.007810 0.000000 1.801520 
# 
# From -- ./inp_files/29293.got.cif
#   From: 2010.06.25/outbox.cif.g09.slc.cpg/sg10_15_cif.got.tgz:29293.got - 2010.06.27 22:07:45.
