data_PCOD8064635
_publ_section_title
;
Structure prediction by ZEFSAII (Michael W. Deem and Ramdas Pophale) SiO2 
 PCOD8064635
Probable space group: P 2/M
;
_chemical_formula_sum "Si O2"
_cell_formula_units_Z 32
_cell_length_a 10.617867
_cell_length_b 9.284979
_cell_length_c 21.519249
_cell_angle_alpha 90.000000
_cell_angle_beta 51.880048
_cell_angle_gamma 90.000000
_cell_volume 1669.035471
_symmetry_space_group_name_H-M "P 2/M"
_symmetry_group_IT_number 10
_symmetry_cell_setting 'monoclinic'
loop_
_space_group_symop_operation_xyz
x,y,z
-x,y,-z
-x,-y,-z
x,-y,z
loop_
_atom_site_type_symbol
_atom_site_label
_atom_site_fract_x
_atom_site_fract_y
_atom_site_fract_z
Si Si1 0.187458 0.171214 0.447728
Si Si2 0.118162 0.836796 0.911011
Si Si3 0.736347 0.330968 0.697265
Si Si4 0.593439 0.669285 0.139606
Si Si5 0.668278 0.665588 0.478722
Si Si6 0.333861 0.657088 0.018866
Si Si7 0.026146 0.663767 0.695978
Si Si8 0.930637 0.837025 0.841549
O O1 0.276300 0.238462 0.361392
O O2 0.274969 0.235658 0.481507
O O3 0.000000 0.214277 0.500000
O O4 0.209534 0.000000 0.441897
O O5 0.279703 0.745718 0.854320
O O6 0.039037 0.826368 0.868644
O O7 0.161575 0.000000 0.916203
O O8 0.000000 0.771832 0.000000
O O9 0.738789 0.500000 0.679406
O O10 0.585852 0.289203 0.786112
O O11 0.895710 0.284491 0.685398
O O12 0.617433 0.500000 0.136877
O O13 0.633889 0.726878 0.058314
O O14 0.500000 0.717878 0.500000
O O15 0.654908 0.500000 0.505924
O O16 0.797722 0.679724 0.385051
O O17 0.248010 0.500000 0.038756
O O18 0.236397 0.761492 0.093127
O O19 0.500000 0.629924 0.000000
O O20 0.987580 0.500000 0.727134
O O21 0.022028 0.761890 0.757614
O O22 0.894351 0.000000 0.833364
#
# Coordination Sequence:
#
# PCOD8064635 Si02
#       8
#     4   4   4   4   4   4   4   4
#     4  11  23  39  63  94 127 165 208 251 305 371
#     4  10  21  39  57  76 113 158 196 236 291 356
#     4  10  21  39  63  90 120 157 201 249 306 360
#     4  10  21  35  57  87 112 143 195 249 289 342
#     4  10  22  41  67  96 125 163 210 256 308 369
#     4  10  20  36  57  81 113 148 187 237 292 347
#     4  10  21  39  62  87 121 159 195 248 307 355
#     4  11  23  37  57  83 113 155 200 241 291 355
#
# _framework density 19.172751000000002
#
# number of rings (size 3 to 8) (size 9 to 14) (size 15 to 20)
#    0.000    1.750    2.500    1.500    0.000    6.750 
#    0.000    5.000    0.000    0.000    0.000    0.000 
#    0.000    0.000    0.000    0.000    0.000    0.000 
#
# Total GULP energy -396854.870720 kJ/mol
# GULP energy per Si atom -12401.714710 kJ/mol
# Density = 1.912911 g / cm^3
# Si number density = 19.172751 Si / 1000 Ang^3
#
#
#
# Elastic Constant Matrix: (Units=GPa)
#
#
# Indices 1 2 3 4 5 6 
#
# 1 107.9696 45.7688 44.6687 0.0000 -8.8719 0.0000
# 2 45.7688 78.1763 54.5091 0.0000 4.8721 0.0000
# 3 44.6687 54.5091 108.3881 0.0000 2.6974 0.0000
# 4 0.0000 0.0000 0.0000 16.0831 0.0000 12.8815
# 5 -8.8719 4.8721 2.6974 0.0000 36.0289 0.0000
# 6 0.0000 0.0000 0.0000 12.8815 0.0000 23.9833
#
#
#
# Elastic Compliance Matrix: (Units=1/GPa)
#
#
# Indices 1 2 3 4 5 6 
#
# 1 0.013316 -0.006413 -0.002370 0.000000 0.004324 0.000000
# 2 -0.006413 0.022922 -0.008785 0.000000 -0.004021 0.000000
# 3 -0.002370 -0.008785 0.014633 0.000000 -0.000491 0.000000
# 4 0.000000 0.000000 0.000000 0.109118 0.000000 -0.058608
# 5 0.004324 -0.004021 -0.000491 0.000000 0.029401 0.000000
# 6 0.000000 0.000000 0.000000 -0.058608 0.000000 0.073174
#
#
# Mechanical properties :
#
#
# Convention : Reuss Voigt Hill
#
# Bulk Modulus (GPa) = 63.55077 64.93633 64.24355
# Shear Modulus (GPa) = 16.50464 25.19155 20.84809
#
# Velocity S-wave (km/s) = 2.93719 3.62874 3.30112
# Velocity P-wave (km/s) = 6.68739 7.17632 6.93616
#
# Compressibility (1/GPa) = 0.01573545
#
# Stress axis : x y z
#
# Youngs Moduli (GPa) = 75.09644 43.62678 68.33832
#
# Poissons Ratio (x) = 0.27977 0.16199
# Poissons Ratio (y) = 0.48157 0.60033
# Poissons Ratio (z) = 0.17801 0.38324
#
# Static dielectric constant tensor:
#      x y z
#    x 3.490200 0.000000 -0.007900 
#    y 0.000000 3.565700 0.000000 
#    z -0.007900 0.000000 3.800090 
# 
# 
# High freq. dielectric constant tensor:
#      x y z
#    x 1.747390 0.000000 0.001160 
#    y 0.000000 1.741190 0.000000 
#    z 0.001160 0.000000 1.750270 
# 
# From -- ./inp_files/83560.got.cif
#   From: 2010.06.25/outbox.cif.g09.slc.cpg/sg10_42_cif.got.tgz:83560.got - 2010.06.27 22:07:45.
