data_PCOD8064196
_publ_section_title
;
Structure prediction by ZEFSAII (Michael W. Deem and Ramdas Pophale) SiO2 
 PCOD8064196
Probable space group: P 2/M
;
_chemical_formula_sum "Si O2"
_cell_formula_units_Z 28
_cell_length_a 10.909570
_cell_length_b 8.994718
_cell_length_c 15.616580
_cell_angle_alpha 90.000000
_cell_angle_beta 82.760371
_cell_angle_gamma 90.000000
_cell_volume 1520.214771
_symmetry_space_group_name_H-M "P 2/M"
_symmetry_group_IT_number 10
_symmetry_cell_setting 'monoclinic'
loop_
_space_group_symop_operation_xyz
x,y,z
-x,y,-z
-x,-y,-z
x,-y,z
loop_
_atom_site_type_symbol
_atom_site_label
_atom_site_fract_x
_atom_site_fract_y
_atom_site_fract_z
Si Si1 0.303543 0.832963 0.043969
Si Si2 0.533576 0.166329 0.134168
Si Si3 0.902184 0.825928 0.440164
Si Si4 0.088243 0.823648 0.755274
Si Si5 0.373743 0.828634 0.561774
Si Si6 0.660376 0.672753 0.263333
Si Si7 0.940971 0.673341 0.916202
O O1 0.392450 0.822216 0.117712
O O2 0.203096 0.705973 0.064470
O O3 0.246696 0.000000 0.044145
O O4 0.377061 0.795490 0.951896
O O5 0.552367 0.286808 0.206691
O O6 0.560485 0.000000 0.166209
O O7 0.932892 0.767723 0.341135
O O8 0.756761 0.791001 0.475970
O O9 0.000000 0.753448 0.500000
O O10 0.924482 0.000000 0.439478
O O11 0.219806 0.764847 0.776064
O O12 0.987259 0.759752 0.828449
O O13 0.085966 0.000000 0.760355
O O14 0.500000 0.800232 0.500000
O O15 0.386134 0.718679 0.639615
O O16 0.366272 0.000000 0.593192
O O17 0.691373 0.500000 0.258194
O O18 0.966873 0.500000 0.900857
O O19 0.000000 0.731001 0.000000
#
# Coordination Sequence:
#
# PCOD8064196 Si02
#       7
#     4   4   4   4   4   4   4
#     4   9  19  35  55  77 102 136 179 226 266 309
#     4   9  18  35  56  77 102 135 179 223 265 314
#     4   8  15  31  55  80 104 132 173 223 273 320
#     4  10  20  35  56  79 105 139 183 226 264 315
#     4   9  18  34  55  79 105 137 179 225 271 319
#     4  11  21  33  53  79 108 140 174 213 269 327
#     4  11  23  36  51  76 111 146 179 219 270 323
#
# _framework density 18.41845
#
# number of rings (size 3 to 8) (size 9 to 14) (size 15 to 20)
#    0.000    2.429    0.000    4.714    0.000    4.857 
#    2.571    1.429    0.000   10.714    0.000    0.000 
#    0.000    0.000    0.000    0.000    0.000    0.000 
#
# Total GULP energy -347064.367405 kJ/mol
# GULP energy per Si atom -12395.155979 kJ/mol
# Density = 1.837653 g / cm^3
# Si number density = 18.418450 Si / 1000 Ang^3
#
#
#
# Elastic Constant Matrix: (Units=GPa)
#
#
# Indices 1 2 3 4 5 6 
#
# 1 113.2714 33.8946 58.7276 0.0000 1.8240 0.0000
# 2 33.8946 68.9650 36.0580 0.0000 2.7943 0.0000
# 3 58.7276 36.0580 77.1752 0.0000 8.3676 0.0000
# 4 0.0000 0.0000 0.0000 15.7446 0.0000 -2.3569
# 5 1.8240 2.7943 8.3676 0.0000 30.9693 0.0000
# 6 0.0000 0.0000 0.0000 -2.3569 0.0000 19.0306
#
#
#
# Elastic Compliance Matrix: (Units=1/GPa)
#
#
# Indices 1 2 3 4 5 6 
#
# 1 0.014895 -0.001798 -0.010731 0.000000 0.002184 0.000000
# 2 -0.001798 0.019420 -0.007754 0.000000 0.000449 0.000000
# 3 -0.010731 -0.007754 0.025344 0.000000 -0.005516 0.000000
# 4 0.000000 0.000000 0.000000 0.064714 0.000000 0.008014
# 5 0.002184 0.000449 -0.005516 0.000000 0.033611 0.000000
# 6 0.000000 0.000000 0.000000 0.008014 0.000000 0.053540
#
#
# Mechanical properties :
#
#
# Convention : Reuss Voigt Hill
#
# Bulk Modulus (GPa) = 52.37544 57.41912 54.89728
# Shear Modulus (GPa) = 19.34579 21.86433 20.60506
#
# Velocity S-wave (km/s) = 3.24442 3.44915 3.34835
# Velocity P-wave (km/s) = 6.52175 6.86328 6.69469
#
# Compressibility (1/GPa) = 0.01909292
#
# Stress axis : x y z
#
# Youngs Moduli (GPa) = 67.13612 51.49433 39.45649
#
# Poissons Ratio (x) = 0.09260 0.42342
# Poissons Ratio (y) = 0.12073 0.30593
# Poissons Ratio (z) = 0.72046 0.39926
#
# Static dielectric constant tensor:
#      x y z
#    x 3.527930 0.000000 0.140730 
#    y 0.000000 3.183750 0.000000 
#    z 0.140730 0.000000 3.405910 
# 
# 
# High freq. dielectric constant tensor:
#      x y z
#    x 1.716100 0.000000 0.004330 
#    y 0.000000 1.697140 0.000000 
#    z 0.004330 0.000000 1.707590 
# 
# From -- ./inp_files/63397.got.cif
#   From: 2010.06.25/outbox.cif.g09.slc.cpg/sg10_32_cif.got.tgz:63397.got - 2010.06.27 22:07:45.
