data_PCOD8064649
_publ_section_title
;
Structure prediction by ZEFSAII (Michael W. Deem and Ramdas Pophale) SiO2 
 PCOD8064649
Probable space group: P 2/M
;
_chemical_formula_sum "Si O2"
_cell_formula_units_Z 32
_cell_length_a 26.493413
_cell_length_b 8.963207
_cell_length_c 20.655393
_cell_angle_alpha 90.000000
_cell_angle_beta 160.060597
_cell_angle_gamma 90.000000
_cell_volume 1672.716877
_symmetry_space_group_name_H-M "P 2/M"
_symmetry_group_IT_number 10
_symmetry_cell_setting 'monoclinic'
loop_
_space_group_symop_operation_xyz
x,y,z
-x,y,-z
-x,-y,-z
x,-y,z
loop_
_atom_site_type_symbol
_atom_site_label
_atom_site_fract_x
_atom_site_fract_y
_atom_site_fract_z
Si Si1 0.665737 0.326946 0.716625
Si Si2 0.942813 0.827841 0.002995
Si Si3 0.707819 0.673369 0.917856
Si Si4 0.478462 0.823148 0.732756
Si Si5 0.831478 0.323673 0.631025
Si Si6 0.734670 0.823759 0.296964
Si Si7 0.036376 0.324693 0.345406
Si Si8 0.462537 0.176557 0.053949
O O1 0.500000 0.276895 0.500000
O O2 0.690719 0.500000 0.729431
O O3 0.700030 0.294858 0.832619
O O4 0.773385 0.227007 0.802391
O O5 0.036795 0.724600 0.163639
O O6 0.954589 0.000000 0.038437
O O7 0.000000 0.803890 0.000000
O O8 0.679660 0.500000 0.899048
O O9 0.584032 0.770900 0.803057
O O10 0.866871 0.727667 0.135583
O O11 0.317367 0.756445 0.525939
O O12 0.543682 0.763524 0.880120
O O13 0.465361 0.000000 0.716277
O O14 0.810976 0.500000 0.611324
O O15 0.873350 0.272912 0.609083
O O16 0.891007 0.749410 0.503513
O O17 0.610686 0.764025 0.197678
O O18 0.754180 0.000000 0.324704
O O19 0.683066 0.773736 0.162395
O O20 0.043500 0.500000 0.361753
O O21 0.470861 0.000000 0.062841
#
# Coordination Sequence:
#
# PCOD8064649 Si02
#       8
#     4   4   4   4   4   4   4   4
#     4  10  22  42  65  87 114 157 202 233 278 347
#     4  11  25  42  61  91 124 150 187 242 293 336
#     4  10  22  41  58  81 117 155 195 237 281 344
#     4  11  22  37  58  88 119 150 192 241 292 342
#     4  11  22  39  62  86 115 154 195 237 286 341
#     4   9  16  31  56  81 110 149 191 235 287 338
#     4  10  20  36  57  83 114 147 192 241 284 334
#     4   8  16  31  52  81 115 149 186 234 285 343
#
# _framework density 19.130555000000001
#
# number of rings (size 3 to 8) (size 9 to 14) (size 15 to 20)
#    0.000    2.000    2.500    1.875    1.750    2.750 
#    0.000    3.125    0.000    3.750    0.000    0.000 
#    0.000    0.000    0.000    0.000    0.000    0.000 
#
# Total GULP energy -396840.706880 kJ/mol
# GULP energy per Si atom -12401.272090 kJ/mol
# Density = 1.908701 g / cm^3
# Si number density = 19.130555 Si / 1000 Ang^3
#
#
#
# Elastic Constant Matrix: (Units=GPa)
#
#
# Indices 1 2 3 4 5 6 
#
# 1 64.0463 31.6566 31.9022 0.0000 14.2766 0.0000
# 2 31.6566 50.7679 33.2475 0.0000 9.2725 0.0000
# 3 31.9022 33.2475 136.5874 0.0000 5.6900 0.0000
# 4 0.0000 0.0000 0.0000 33.0659 0.0000 -4.0772
# 5 14.2766 9.2725 5.6900 0.0000 32.2490 0.0000
# 6 0.0000 0.0000 0.0000 -4.0772 0.0000 16.9719
#
#
#
# Elastic Compliance Matrix: (Units=1/GPa)
#
#
# Indices 1 2 3 4 5 6 
#
# 1 0.024487 -0.012445 -0.002405 0.000000 -0.006838 0.000000
# 2 -0.012445 0.030876 -0.004502 0.000000 -0.002574 0.000000
# 3 -0.002405 -0.004502 0.008946 0.000000 0.000781 0.000000
# 4 0.000000 0.000000 0.000000 0.031166 0.000000 0.007487
# 5 -0.006838 -0.002574 0.000781 0.000000 0.034638 0.000000
# 6 0.000000 0.000000 0.000000 0.007487 0.000000 0.060720
#
#
# Mechanical properties :
#
#
# Convention : Reuss Voigt Hill
#
# Bulk Modulus (GPa) = 39.05404 49.44601 44.25003
# Shear Modulus (GPa) = 21.00200 26.76370 23.88285
#
# Velocity S-wave (km/s) = 3.31694 3.74438 3.53712
# Velocity P-wave (km/s) = 5.92691 6.67807 6.31367
#
# Compressibility (1/GPa) = 0.02560554
#
# Stress axis : x y z
#
# Youngs Moduli (GPa) = 40.83752 32.38767 111.77733
#
# Poissons Ratio (x) = 0.40307 0.26885
# Poissons Ratio (y) = 0.50823 0.50319
# Poissons Ratio (z) = 0.09822 0.14580
#
# Static dielectric constant tensor:
#      x y z
#    x 3.545540 0.000000 -0.141110 
#    y 0.000000 3.302540 0.000000 
#    z -0.141110 0.000000 3.693430 
# 
# 
# High freq. dielectric constant tensor:
#      x y z
#    x 1.734030 0.000000 -0.009180 
#    y 0.000000 1.729640 0.000000 
#    z -0.009180 0.000000 1.757390 
# 
# From -- ./inp_files/86865.got.cif
#   From: 2010.06.25/outbox.cif.g09.slc.cpg/sg10_44_cif.got.tgz:86865.got - 2010.06.27 22:07:45.
