data_PCOD8064839
_publ_section_title
;
Structure prediction by ZEFSAII (Michael W. Deem and Ramdas Pophale) SiO2 
 PCOD8064839
Probable space group: P 2/M
;
_chemical_formula_sum "Si O2"
_cell_formula_units_Z 20
_cell_length_a 25.154303
_cell_length_b 7.886043
_cell_length_c 10.040212
_cell_angle_alpha 90.000000
_cell_angle_beta 30.540312
_cell_angle_gamma 90.000000
_cell_volume 1012.048922
_symmetry_space_group_name_H-M "P 2/M"
_symmetry_group_IT_number 10
_symmetry_cell_setting 'monoclinic'
loop_
_space_group_symop_operation_xyz
x,y,z
-x,y,-z
-x,-y,-z
x,-y,z
loop_
_atom_site_type_symbol
_atom_site_label
_atom_site_fract_x
_atom_site_fract_y
_atom_site_fract_z
Si Si1 0.744354 0.000000 0.449003
Si Si2 0.403217 0.303596 0.307133
Si Si3 0.829850 0.000000 0.557340
Si Si4 0.210747 0.683406 0.171010
Si Si5 0.000000 0.256710 0.500000
Si Si6 0.947502 0.000000 0.834002
Si Si7 0.583273 0.302373 0.422960
O O1 0.684026 0.824807 0.556500
O O2 0.778406 0.000000 0.526819
O O3 0.842568 0.000000 0.141631
O O4 0.362146 0.500000 0.398020
O O5 0.435612 0.239330 0.385120
O O6 0.500000 0.286889 0.000000
O O7 0.794348 0.830203 0.709550
O O8 0.955190 0.000000 0.273866
O O9 0.243643 0.500000 0.164062
O O10 0.100106 0.642875 0.338247
O O11 0.298206 0.741472 0.875674
O O12 0.048103 0.158248 0.272475
O O13 0.500000 0.216022 0.500000
O O14 0.561871 0.500000 0.468476
#
# Coordination Sequence:
#
# PCOD8064839 Si02
#       7
#     2   4   2   4   2   2   4
#     4  12  23  39  62  83 117 158 201 233 291 359
#     4  10  23  41  61  87 119 154 195 244 296 348
#     4  10  24  38  55  88 117 157 199 236 292 349
#     4  10  20  36  59  86 117 151 197 246 293 344
#     4   9  17  34  62  89 111 148 195 241 300 353
#     4   9  19  37  59  84 121 151 186 248 294 341
#     4   9  19  36  60  87 116 152 191 238 297 349
#
# _framework density 19.761892
#
# number of rings (size 3 to 8) (size 9 to 14) (size 15 to 20)
#    0.000    2.200    0.000    2.700    2.800    1.600 
#    0.000    5.000    0.000    6.000    0.000    0.000 
#    0.000    0.000    0.000    0.000    0.000    0.000 
#
# Total GULP energy -247785.858044 kJ/mol
# GULP energy per Si atom -12389.292902 kJ/mol
# Density = 1.971691 g / cm^3
# Si number density = 19.761892 Si / 1000 Ang^3
#
#
#
# Elastic Constant Matrix: (Units=GPa)
#
#
# Indices 1 2 3 4 5 6 
#
# 1 149.7382 58.4045 68.3367 0.0000 13.8489 0.0000
# 2 58.4045 114.8453 57.5176 0.0000 4.6761 0.0000
# 3 68.3367 57.5176 156.0822 0.0000 5.1260 0.0000
# 4 0.0000 0.0000 0.0000 51.2913 0.0000 35.2389
# 5 13.8489 4.6761 5.1260 0.0000 24.1352 0.0000
# 6 0.0000 0.0000 0.0000 35.2389 0.0000 46.3877
#
#
#
# Elastic Compliance Matrix: (Units=1/GPa)
#
#
# Indices 1 2 3 4 5 6 
#
# 1 0.009679 -0.003306 -0.002878 0.000000 -0.004302 0.000000
# 2 -0.003306 0.011844 -0.002925 0.000000 0.000223 0.000000
# 3 -0.002878 -0.002925 0.008733 0.000000 0.000364 0.000000
# 4 0.000000 0.000000 0.000000 0.040780 0.000000 -0.030979
# 5 -0.004302 0.000223 0.000364 0.000000 0.043781 0.000000
# 6 0.000000 0.000000 0.000000 -0.030979 0.000000 0.045091
#
#
# Mechanical properties :
#
#
# Convention : Reuss Voigt Hill
#
# Bulk Modulus (GPa) = 83.06415 87.68703 85.37559
# Shear Modulus (GPa) = 27.45153 40.12330 33.78741
#
# Velocity S-wave (km/s) = 3.73113 4.51081 4.13937
# Velocity P-wave (km/s) = 7.79009 8.46156 8.13276
#
# Compressibility (1/GPa) = 0.01203889
#
# Stress axis : x y z
#
# Youngs Moduli (GPa) = 103.31481 84.43010 114.50918
#
# Poissons Ratio (x) = 0.27909 0.32960
# Poissons Ratio (y) = 0.34152 0.33491
# Poissons Ratio (z) = 0.29738 0.24693
#
# Static dielectric constant tensor:
#      x y z
#    x 3.783640 0.000000 -0.034060 
#    y 0.000000 3.505010 0.000000 
#    z -0.034060 0.000000 3.653180 
# 
# 
# High freq. dielectric constant tensor:
#      x y z
#    x 1.768320 0.000000 -0.003330 
#    y 0.000000 1.769440 0.000000 
#    z -0.003330 0.000000 1.777980 
# 
# From -- ./inp_files/35796.got.cif
#   From: 2010.06.25/outbox.cif.g09.slc.cpg/sg10_18_cif.got.tgz:35796.got - 2010.06.27 22:07:45.
