data_PCOD8064539
_publ_section_title
;
Structure prediction by ZEFSAII (Michael W. Deem and Ramdas Pophale) SiO2 
 PCOD8064539
Probable space group: P 2/M
;
_chemical_formula_sum "Si O2"
_cell_formula_units_Z 32
_cell_length_a 15.074796
_cell_length_b 13.273898
_cell_length_c 9.162588
_cell_angle_alpha 90.000000
_cell_angle_beta 116.160932
_cell_angle_gamma 90.000000
_cell_volume 1645.626171
_symmetry_space_group_name_H-M "P 2/M"
_symmetry_group_IT_number 10
_symmetry_cell_setting 'monoclinic'
loop_
_space_group_symop_operation_xyz
x,y,z
-x,y,-z
-x,-y,-z
x,-y,z
loop_
_atom_site_type_symbol
_atom_site_label
_atom_site_fract_x
_atom_site_fract_y
_atom_site_fract_z
Si Si1 0.572425 0.117328 0.865590
Si Si2 0.966337 0.112812 0.626135
Si Si3 0.630440 0.793977 0.189136
Si Si4 0.889304 0.615436 0.417343
Si Si5 0.782505 0.239565 0.540152
Si Si6 0.282006 0.617748 0.918929
Si Si7 0.904755 0.887228 0.017442
Si Si8 0.719620 0.756859 0.813910
O O1 0.476784 0.187707 0.818320
O O2 0.629996 0.163768 0.769567
O O3 0.546062 0.000000 0.820239
O O4 0.641833 0.128304 0.060825
O O5 0.874687 0.166618 0.640068
O O6 0.000000 0.166187 0.500000
O O7 0.065685 0.113471 0.792294
O O8 0.929262 0.000000 0.568462
O O9 0.710182 0.816138 0.372747
O O10 0.643945 0.680499 0.133797
O O11 0.898631 0.500000 0.463598
O O12 0.824494 0.658954 0.501836
O O13 0.831177 0.632565 0.221604
O O14 0.000000 0.662962 0.500000
O O15 0.724665 0.269626 0.646184
O O16 0.312268 0.500000 0.937140
O O17 0.291807 0.657800 0.092707
O O18 0.873464 0.000000 0.943413
O O19 0.818974 0.809407 0.934871
O O20 0.000000 0.849363 0.000000
#
# Coordination Sequence:
#
# PCOD8064539 Si02
#       8
#     4   4   4   4   4   4   4   4
#     4  10  21  40  61  85 113 144 188 230 277 332
#     4  10  22  34  50  77 107 143 188 229 268 321
#     4   9  20  38  60  83 106 144 183 233 279 328
#     4   9  19  36  58  82 109 146 190 235 283 327
#     4  11  22  35  55  81 115 145 184 229 278 330
#     4   9  20  38  59  84 112 144 186 232 277 337
#     4  10  20  36  52  73 111 152 185 222 271 330
#     4  11  23  35  55  83 113 152 184 225 280 337
#
# _framework density 19.445487
#
# number of rings (size 3 to 8) (size 9 to 14) (size 15 to 20)
#    0.000    2.125    1.250    1.500    7.000    2.500 
#    0.000    5.625    0.000    2.625    0.000   11.375 
#    0.000    0.000    0.000    0.000    0.000    0.000 
#
# Total GULP energy -396601.140776 kJ/mol
# GULP energy per Si atom -12393.785649 kJ/mol
# Density = 1.940123 g / cm^3
# Si number density = 19.445487 Si / 1000 Ang^3
#
#
#
# Elastic Constant Matrix: (Units=GPa)
#
#
# Indices 1 2 3 4 5 6 
#
# 1 95.7627 40.4513 35.4499 0.0000 -14.5600 0.0000
# 2 40.4513 96.0405 19.5236 0.0000 2.5347 0.0000
# 3 35.4499 19.5236 76.1805 0.0000 -8.1889 0.0000
# 4 0.0000 0.0000 0.0000 -121.1949 0.0000 -81.2858
# 5 -14.5600 2.5347 -8.1889 0.0000 34.1934 0.0000
# 6 0.0000 0.0000 0.0000 -81.2858 0.0000 -21.7889
#
#
#
# Elastic Compliance Matrix: (Units=1/GPa)
#
#
# Indices 1 2 3 4 5 6 
#
# 1 0.015661 -0.005694 -0.005200 0.000000 0.005845 0.000000
# 2 -0.005694 0.013133 -0.001110 0.000000 -0.003664 0.000000
# 3 -0.005200 -0.001110 0.016014 0.000000 0.001703 0.000000
# 4 0.000000 0.000000 0.000000 0.005493 0.000000 -0.020492
# 5 0.005845 -0.003664 0.001703 0.000000 0.032414 0.000000
# 6 0.000000 0.000000 0.000000 -0.020492 0.000000 0.030553
#
#
# Mechanical properties :
#
#
# Convention : Reuss Voigt Hill
#
# Bulk Modulus (GPa) = 48.07611 50.98146 49.52878
# Shear Modulus (GPa) = 34.67169 -10.25416 12.20877
#
# Velocity S-wave (km/s) = 4.22716 -2.29885 2.50840
# Velocity P-wave (km/s) = 6.97154 4.38500 5.82369
#
# Compressibility (1/GPa) = 0.02080035
#
# Stress axis : x y z
#
# Youngs Moduli (GPa) = 63.85146 76.14595 62.44448
#
# Poissons Ratio (x) = 0.43354 0.32473
# Poissons Ratio (y) = 0.36354 0.06932
# Poissons Ratio (z) = 0.33205 0.08453
#
# Static dielectric constant tensor:
#      x y z
#    x 3.749660 0.000000 -0.047220 
#    y 0.000000 3.430920 0.000000 
#    z -0.047220 0.000000 3.645620 
# 
# 
# High freq. dielectric constant tensor:
#      x y z
#    x 1.753340 0.000000 -0.001720 
#    y 0.000000 1.748060 0.000000 
#    z -0.001720 0.000000 1.751510 
# 
# From -- ./inp_files/29563.got.cif
#   From: 2010.06.25/outbox.cif.g09.slc.cpg/sg10_15_cif.got.tgz:29563.got - 2010.06.27 22:07:45.
