data_PCOD8064489
_publ_section_title
;
Structure prediction by ZEFSAII (Michael W. Deem and Ramdas Pophale) SiO2 
 PCOD8064489
Probable space group: P 2/M
;
_chemical_formula_sum "Si O2"
_cell_formula_units_Z 28
_cell_length_a 13.909482
_cell_length_b 8.858441
_cell_length_c 19.372363
_cell_angle_alpha 90.000000
_cell_angle_beta 141.761425
_cell_angle_gamma 90.000000
_cell_volume 1477.398104
_symmetry_space_group_name_H-M "P 2/M"
_symmetry_group_IT_number 10
_symmetry_cell_setting 'monoclinic'
loop_
_space_group_symop_operation_xyz
x,y,z
-x,y,-z
-x,-y,-z
x,-y,z
loop_
_atom_site_type_symbol
_atom_site_label
_atom_site_fract_x
_atom_site_fract_y
_atom_site_fract_z
Si Si1 0.884436 0.675033 0.633112
Si Si2 0.397521 0.175579 0.752107
Si Si3 0.093293 0.324026 0.619265
Si Si4 0.278537 0.678191 0.064664
Si Si5 0.394451 0.827020 0.590853
Si Si6 0.744542 0.175578 0.803243
Si Si7 0.998065 0.822420 0.834703
O O1 0.890423 0.500000 0.657026
O O2 0.994738 0.712679 0.631181
O O3 0.708298 0.718142 0.514396
O O4 0.939792 0.777067 0.726874
O O5 0.255363 0.235800 0.717606
O O6 0.553577 0.260200 0.862502
O O7 0.360184 0.209131 0.651271
O O8 0.423660 0.000000 0.780556
O O9 0.130415 0.500000 0.632142
O O10 0.000000 0.264290 0.500000
O O11 0.283237 0.500000 0.066129
O O12 0.225655 0.732604 0.110306
O O13 0.157412 0.736672 0.939800
O O14 0.574334 0.791868 0.675958
O O15 0.353370 0.000000 0.550194
O O16 0.869166 0.227845 0.817536
O O17 0.759992 0.000000 0.831687
O O18 0.026978 0.000000 0.853934
#
# Coordination Sequence:
#
# PCOD8064489 Si02
#       7
#     4   4   4   4   4   4   4
#     4  11  23  37  55  82 118 152 188 232 284 342
#     4  10  20  35  59  88 115 146 190 236 279 332
#     4  10  20  36  58  85 117 150 185 230 288 341
#     4  11  22  37  60  87 116 147 187 236 285 335
#     4   9  18  34  55  82 113 146 187 230 279 334
#     4   9  20  38  60  85 112 149 193 236 280 331
#     4  11  23  40  59  79 113 155 194 235 281 334
#
# _framework density 18.952237
#
# number of rings (size 3 to 8) (size 9 to 14) (size 15 to 20)
#    0.000    1.857    1.429    3.857    0.000    7.143 
#    0.000    3.571    0.000    4.286    0.000    0.000 
#    0.000    0.000    0.000    0.000    0.000    0.000 
#
# Total GULP energy -347347.075200 kJ/mol
# GULP energy per Si atom -12405.252686 kJ/mol
# Density = 1.890910 g / cm^3
# Si number density = 18.952237 Si / 1000 Ang^3
#
#
#
# Elastic Constant Matrix: (Units=GPa)
#
#
# Indices 1 2 3 4 5 6 
#
# 1 38.0288 22.4651 31.4591 0.0000 14.0487 0.0000
# 2 22.4651 81.8393 45.6007 0.0000 7.2602 0.0000
# 3 31.4591 45.6007 116.2554 0.0000 11.7825 0.0000
# 4 0.0000 0.0000 0.0000 32.9016 0.0000 0.5605
# 5 14.0487 7.2602 11.7825 0.0000 23.0283 0.0000
# 6 0.0000 0.0000 0.0000 0.5605 0.0000 28.8786
#
#
#
# Elastic Compliance Matrix: (Units=1/GPa)
#
#
# Indices 1 2 3 4 5 6 
#
# 1 0.043681 -0.006050 -0.007319 0.000000 -0.020996 0.000000
# 2 -0.006050 0.016553 -0.004958 0.000000 0.001009 0.000000
# 3 -0.007319 -0.004958 0.012568 0.000000 -0.000402 0.000000
# 4 0.000000 0.000000 0.000000 0.030404 0.000000 -0.000590
# 5 -0.020996 0.001009 -0.000402 0.000000 0.056121 0.000000
# 6 0.000000 0.000000 0.000000 -0.000590 0.000000 0.034639
#
#
# Mechanical properties :
#
#
# Convention : Reuss Voigt Hill
#
# Bulk Modulus (GPa) = 27.66427 48.35258 38.00843
# Shear Modulus (GPa) = 20.60423 26.06826 23.33624
#
# Velocity S-wave (km/s) = 3.30080 3.71276 3.51282
# Velocity P-wave (km/s) = 5.39959 6.62930 6.04579
#
# Compressibility (1/GPa) = 0.03614771
#
# Stress axis : x y z
#
# Youngs Moduli (GPa) = 22.89335 60.41287 79.56809
#
# Poissons Ratio (x) = 0.36548 0.58238
# Poissons Ratio (y) = 0.13850 0.39449
# Poissons Ratio (z) = 0.16756 0.29952
#
# Static dielectric constant tensor:
#      x y z
#    x 3.406920 0.000000 0.170580 
#    y 0.000000 3.419950 0.000000 
#    z 0.170580 0.000000 3.461870 
# 
# 
# High freq. dielectric constant tensor:
#      x y z
#    x 1.726200 0.000000 0.015940 
#    y 0.000000 1.739990 0.000000 
#    z 0.015940 0.000000 1.740490 
# 
# From -- ./inp_files/77730.got.cif
#   From: 2010.06.25/outbox.cif.g09.slc.cpg/sg10_39_cif.got.tgz:77730.got - 2010.06.27 22:07:45.
