data_PCOD8064300
_publ_section_title
;
Structure prediction by ZEFSAII (Michael W. Deem and Ramdas Pophale) SiO2 
 PCOD8064300
Probable space group: P 2/M
;
_chemical_formula_sum "Si O2"
_cell_formula_units_Z 28
_cell_length_a 9.892928
_cell_length_b 7.650731
_cell_length_c 29.131676
_cell_angle_alpha 90.000000
_cell_angle_beta 140.146063
_cell_angle_gamma 90.000000
_cell_volume 1412.986102
_symmetry_space_group_name_H-M "P 2/M"
_symmetry_group_IT_number 10
_symmetry_cell_setting 'monoclinic'
loop_
_space_group_symop_operation_xyz
x,y,z
-x,y,-z
-x,-y,-z
x,-y,z
loop_
_atom_site_type_symbol
_atom_site_label
_atom_site_fract_x
_atom_site_fract_y
_atom_site_fract_z
Si Si1 0.971716 0.198032 0.543114
Si Si2 0.752136 0.000000 0.933387
Si Si3 0.540485 0.696700 0.461846
Si Si4 0.298710 0.292760 0.311396
Si Si5 0.591215 0.294670 0.305820
Si Si6 0.493367 0.700162 0.176821
Si Si7 0.184763 0.297680 0.817838
Si Si8 0.563509 0.000000 0.069171
O O1 0.790933 0.309445 0.520103
O O2 0.000000 0.279287 0.500000
O O3 0.186692 0.203681 0.627390
O O4 0.890260 0.000000 0.518328
O O5 0.685897 0.824539 0.889805
O O6 0.651835 0.000000 0.957864
O O7 0.000000 0.000000 0.000000
O O8 0.500000 0.794316 0.500000
O O9 0.452792 0.500000 0.442785
O O10 0.416912 0.787668 0.387030
O O11 0.314256 0.500000 0.316583
O O12 0.415768 0.223738 0.295959
O O13 0.056147 0.232487 0.248138
O O14 0.622585 0.500000 0.319417
O O15 0.525349 0.242866 0.237507
O O16 0.414587 0.500000 0.152722
O O17 0.710827 0.725385 0.205197
O O18 0.199841 0.500000 0.838247
O O19 0.302902 0.174965 0.885246
O O20 0.500000 0.000000 0.000000
#
# Coordination Sequence:
#
# PCOD8064300 Si02
#       8
#     4   2   4   4   4   4   4   2
#     4  11  23  37  51  76 114 150 190 241 296 341
#     4  10  22  40  62  88 120 150 178 226 278 326
#     4  10  21  36  55  78 105 144 194 242 285 335
#     4   9  18  34  54  78 108 142 187 234 280 331
#     4  10  20  35  57  80 106 147 191 235 283 336
#     4   9  20  37  59  86 115 149 189 227 278 340
#     4   9  19  38  58  82 117 150 183 231 277 328
#     4  10  22  40  60  90 116 144 190 217 270 340
#
# _framework density 19.816188
#
# number of rings (size 3 to 8) (size 9 to 14) (size 15 to 20)
#    0.000    2.286    1.429    0.429    3.000    2.571 
#    2.571    0.000    0.000    0.000    0.000    0.000 
#    0.000    0.000    0.000    0.000    0.000    0.000 
#
# Total GULP energy -347176.455756 kJ/mol
# GULP energy per Si atom -12399.159134 kJ/mol
# Density = 1.977109 g / cm^3
# Si number density = 19.816188 Si / 1000 Ang^3
#
#
#
# Elastic Constant Matrix: (Units=GPa)
#
#
# Indices 1 2 3 4 5 6 
#
# 1 160.4019 34.2934 106.2890 0.0000 -11.0105 0.0000
# 2 34.2934 62.4798 45.8503 0.0000 -4.7901 0.0000
# 3 106.2890 45.8503 161.2132 0.0000 1.1946 0.0000
# 4 0.0000 0.0000 0.0000 37.7754 0.0000 1.4716
# 5 -11.0105 -4.7901 1.1946 0.0000 46.1430 0.0000
# 6 0.0000 0.0000 0.0000 1.4716 0.0000 14.2721
#
#
#
# Elastic Compliance Matrix: (Units=1/GPa)
#
#
# Indices 1 2 3 4 5 6 
#
# 1 0.011474 -0.000646 -0.007402 0.000000 0.002863 0.000000
# 2 -0.000646 0.020499 -0.005420 0.000000 0.002114 0.000000
# 3 -0.007402 -0.005420 0.012645 0.000000 -0.002656 0.000000
# 4 0.000000 0.000000 0.000000 0.026579 0.000000 -0.002741
# 5 0.002863 0.002114 -0.002656 0.000000 0.022643 0.000000
# 6 0.000000 0.000000 0.000000 -0.002741 0.000000 0.070349
#
#
# Mechanical properties :
#
#
# Convention : Reuss Voigt Hill
#
# Bulk Modulus (GPa) = 56.55744 84.10670 70.33207
# Shear Modulus (GPa) = 25.37820 32.81559 29.09690
#
# Velocity S-wave (km/s) = 3.58254 4.07381 3.83605
# Velocity P-wave (km/s) = 6.76135 8.04136 7.42897
#
# Compressibility (1/GPa) = 0.01768114
#
# Stress axis : x y z
#
# Youngs Moduli (GPa) = 87.15261 48.78248 79.08555
#
# Poissons Ratio (x) = 0.03152 0.58542
# Poissons Ratio (y) = 0.05631 0.42863
# Poissons Ratio (z) = 0.64514 0.26439
#
# Static dielectric constant tensor:
#      x y z
#    x 3.822900 0.000000 -0.056730 
#    y 0.000000 3.527260 0.000000 
#    z -0.056730 0.000000 3.420440 
# 
# 
# High freq. dielectric constant tensor:
#      x y z
#    x 1.781860 0.000000 -0.000380 
#    y 0.000000 1.766690 0.000000 
#    z -0.000380 0.000000 1.757380 
# 
# From -- ./inp_files/94559.got.cif
#   From: 2010.06.25/outbox.cif.g09.slc.cpg/sg10_48_cif.got.tgz:94559.got - 2010.06.27 22:07:45.
