data_PCOD8064733
_publ_section_title
;
Structure prediction by ZEFSAII (Michael W. Deem and Ramdas Pophale) SiO2 
 PCOD8064733
Probable space group: P 2/M
;
_chemical_formula_sum "Si O2"
_cell_formula_units_Z 24
_cell_length_a 15.218043
_cell_length_b 18.332764
_cell_length_c 8.874524
_cell_angle_alpha 90.000000
_cell_angle_beta 151.609467
_cell_angle_gamma 90.000000
_cell_volume 1177.234643
_symmetry_space_group_name_H-M "P 2/M"
_symmetry_group_IT_number 10
_symmetry_cell_setting 'monoclinic'
loop_
_space_group_symop_operation_xyz
x,y,z
-x,y,-z
-x,-y,-z
x,-y,z
loop_
_atom_site_type_symbol
_atom_site_label
_atom_site_fract_x
_atom_site_fract_y
_atom_site_fract_z
Si Si1 0.324946 0.583538 0.137116
Si Si2 0.458138 0.162165 0.107830
Si Si3 0.171058 0.184391 0.151040
Si Si4 0.036083 0.340663 0.887516
Si Si5 0.198705 0.698245 0.721516
Si Si6 0.826598 0.084057 0.137553
O O1 0.500000 0.606336 0.500000
O O2 0.335054 0.500000 0.099380
O O3 0.142716 0.595346 0.962451
O O4 0.314981 0.633951 0.974943
O O5 0.645591 0.180661 0.474700
O O6 0.500000 0.138762 0.000000
O O7 0.319474 0.229812 0.905487
O O8 0.359159 0.095773 0.045201
O O9 0.155810 0.266430 0.065606
O O10 0.177878 0.130077 0.021705
O O11 0.000000 0.163838 0.000000
O O12 0.840069 0.325137 0.509740
O O13 0.000000 0.369095 0.000000
O O14 0.000000 0.712157 0.500000
O O15 0.000000 0.108426 0.500000
O O16 0.840295 0.000000 0.111052
#
# Coordination Sequence:
#
# PCOD8064733 Si02
#       6
#     4   4   4   4   4   4
#     4  10  21  37  56  80 113 153 194 234 283 343
#     4  12  23  38  63  89 118 153 194 242 290 344
#     4  11  23  40  62  89 119 152 195 241 289 344
#     4  10  20  36  58  84 114 145 187 238 287 339
#     4  10  21  37  60  85 114 150 194 239 287 345
#     4  11  24  42  62  86 119 156 194 238 290 347
#
# _framework density 20.386759999999999
#
# number of rings (size 3 to 8) (size 9 to 14) (size 15 to 20)
#    0.000    1.333    0.000    8.000    0.000    5.333 
#    0.000    0.000    0.000    2.500    0.000    0.000 
#    0.000    0.000    0.000    0.000    0.000    0.000 
#
# Total GULP energy -297672.094923 kJ/mol
# GULP energy per Si atom -12403.003955 kJ/mol
# Density = 2.034036 g / cm^3
# Si number density = 20.386760 Si / 1000 Ang^3
#
#
#
# Elastic Constant Matrix: (Units=GPa)
#
#
# Indices 1 2 3 4 5 6 
#
# 1 98.3900 19.3512 22.3427 0.0000 -9.6311 0.0000
# 2 19.3512 46.0467 17.0448 0.0000 -0.9536 0.0000
# 3 22.3427 17.0448 138.1308 0.0000 -8.9875 0.0000
# 4 0.0000 0.0000 0.0000 38.1847 0.0000 -6.5538
# 5 -9.6311 -0.9536 -8.9875 0.0000 37.4765 0.0000
# 6 0.0000 0.0000 0.0000 -6.5538 0.0000 5.0664
#
#
#
# Elastic Compliance Matrix: (Units=1/GPa)
#
#
# Indices 1 2 3 4 5 6 
#
# 1 0.011538 -0.004366 -0.001160 0.000000 0.002576 0.000000
# 2 -0.004366 0.024409 -0.002375 0.000000 -0.001071 0.000000
# 3 -0.001160 -0.002375 0.007819 0.000000 0.001517 0.000000
# 4 0.000000 0.000000 0.000000 0.033662 0.000000 0.043545
# 5 0.002576 -0.001071 0.001517 0.000000 0.027682 0.000000
# 6 0.000000 0.000000 0.000000 0.043545 0.000000 0.253708
#
#
# Mechanical properties :
#
#
# Convention : Reuss Voigt Hill
#
# Bulk Modulus (GPa) = 35.76152 44.44943 40.10547
# Shear Modulus (GPa) = 13.02280 31.06743 22.04511
#
# Velocity S-wave (km/s) = 2.53017 3.90795 3.29195
# Velocity P-wave (km/s) = 5.11031 6.49717 5.84502
#
# Compressibility (1/GPa) = 0.02796302
#
# Stress axis : x y z
#
# Youngs Moduli (GPa) = 86.67097 40.96834 127.89487
#
# Poissons Ratio (x) = 0.17887 0.14834
# Poissons Ratio (y) = 0.37842 0.30380
# Poissons Ratio (z) = 0.10053 0.09732
#
# Static dielectric constant tensor:
#      x y z
#    x 3.796160 0.000000 -0.141430 
#    y 0.000000 3.516100 0.000000 
#    z -0.141430 0.000000 4.083420 
# 
# 
# High freq. dielectric constant tensor:
#      x y z
#    x 1.796570 0.000000 -0.012720 
#    y 0.000000 1.786460 0.000000 
#    z -0.012720 0.000000 1.819170 
# 
# From -- ./inp_files/30236.got.cif
#   From: 2010.06.25/outbox.cif.g09.slc.cpg/sg10_16_cif.got.tgz:30236.got - 2010.06.27 22:07:45.
