data_PCOD8064324
_publ_section_title
;
Structure prediction by ZEFSAII (Michael W. Deem and Ramdas Pophale) SiO2 
 PCOD8064324
Probable space group: P 2/M
;
_chemical_formula_sum "Si O2"
_cell_formula_units_Z 32
_cell_length_a 24.135534
_cell_length_b 8.952250
_cell_length_c 25.278054
_cell_angle_alpha 90.000000
_cell_angle_beta 17.518523
_cell_angle_gamma 90.000000
_cell_volume 1644.067341
_symmetry_space_group_name_H-M "P 2/M"
_symmetry_group_IT_number 10
_symmetry_cell_setting 'monoclinic'
loop_
_space_group_symop_operation_xyz
x,y,z
-x,y,-z
-x,-y,-z
x,-y,z
loop_
_atom_site_type_symbol
_atom_site_label
_atom_site_fract_x
_atom_site_fract_y
_atom_site_fract_z
Si Si1 0.805545 0.163613 0.205024
Si Si2 0.201051 0.323880 0.299892
Si Si3 0.668562 0.176118 0.220677
Si Si4 0.035666 0.323575 0.845232
Si Si5 0.804490 0.171061 0.804571
Si Si6 0.584677 0.829022 0.803883
Si Si7 0.815247 0.177038 0.495915
Si Si8 0.269125 0.822552 0.544016
O O1 0.664949 0.216863 0.286937
O O2 0.819686 0.280234 0.239997
O O3 0.746951 0.000000 0.280949
O O4 0.000000 0.147794 0.000000
O O5 0.214681 0.500000 0.285314
O O6 0.247796 0.261717 0.199890
O O7 0.347806 0.265560 0.208043
O O8 0.000000 0.267820 0.500000
O O9 0.473386 0.227435 0.375237
O O10 0.703558 0.000000 0.181212
O O11 0.831567 0.261074 0.041743
O O12 0.024903 0.500000 0.850731
O O13 0.111916 0.255246 0.721721
O O14 0.984164 0.238142 0.669730
O O15 0.839279 0.000000 0.756120
O O16 0.635772 0.184544 0.999240
O O17 0.668127 0.765922 0.673223
O O18 0.647046 0.000000 0.755864
O O19 0.759656 0.238787 0.489210
O O20 0.816687 0.000000 0.491505
O O21 0.245270 0.000000 0.570523
#
# Coordination Sequence:
#
# PCOD8064324 Si02
#       8
#     4   4   4   4   4   4   4   4
#     4   8  15  31  54  80 110 144 183 227 275 330
#     4  11  22  35  54  81 112 147 180 214 261 318
#     4   9  19  36  59  84 110 144 187 233 279 329
#     4  11  22  35  54  82 116 150 182 225 281 338
#     4  10  20  35  58  85 110 139 174 218 272 325
#     4  10  20  35  57  83 108 138 177 220 271 322
#     4   9  19  36  57  81 107 136 178 231 273 311
#     4  10  21  38  60  83 107 144 191 235 277 326
#
# _framework density 19.463923999999999
#
# number of rings (size 3 to 8) (size 9 to 14) (size 15 to 20)
#    0.000    2.250    1.250    2.625    0.000    6.750 
#    0.000    7.500    0.000    1.500    0.000    0.000 
#    0.000    0.000    0.000    0.000    0.000    0.000 
#
# Total GULP energy -396784.111724 kJ/mol
# GULP energy per Si atom -12399.503491 kJ/mol
# Density = 1.941962 g / cm^3
# Si number density = 19.463924 Si / 1000 Ang^3
#
#
#
# Elastic Constant Matrix: (Units=GPa)
#
#
# Indices 1 2 3 4 5 6 
#
# 1 115.4810 24.5424 40.1795 0.0000 16.0463 0.0000
# 2 24.5424 59.5065 31.9205 0.0000 4.6429 0.0000
# 3 40.1795 31.9205 103.2074 0.0000 8.1987 0.0000
# 4 0.0000 0.0000 0.0000 16.9926 0.0000 0.3950
# 5 16.0463 4.6429 8.1987 0.0000 17.4328 0.0000
# 6 0.0000 0.0000 0.0000 0.3950 0.0000 -2.5046
#
#
#
# Elastic Compliance Matrix: (Units=1/GPa)
#
#
# Indices 1 2 3 4 5 6 
#
# 1 0.011395 -0.002424 -0.003017 0.000000 -0.008424 0.000000
# 2 -0.002424 0.020771 -0.005421 0.000000 -0.000751 0.000000
# 3 -0.003017 -0.005421 0.012679 0.000000 -0.001742 0.000000
# 4 0.000000 0.000000 0.000000 0.058634 0.000000 0.009247
# 5 -0.008424 -0.000751 -0.001742 0.000000 0.066136 0.000000
# 6 0.000000 0.000000 0.000000 0.009247 0.000000 -0.397808
#
#
# Mechanical properties :
#
#
# Convention : Reuss Voigt Hill
#
# Bulk Modulus (GPa) = 43.25101 52.38664 47.81882
# Shear Modulus (GPa) = -25.15574 18.48767 -3.33404
#
# Velocity S-wave (km/s) = -3.59894 3.08530 -1.31021
# Velocity P-wave (km/s) = 2.23597 6.29803 4.72572
#
# Compressibility (1/GPa) = 0.02312085
#
# Stress axis : x y z
#
# Youngs Moduli (GPa) = 87.75853 48.14393 78.87151
#
# Poissons Ratio (x) = 0.11669 0.23798
# Poissons Ratio (y) = 0.21271 0.42755
# Poissons Ratio (z) = 0.26479 0.26098
#
# Static dielectric constant tensor:
#      x y z
#    x 3.783090 0.000000 -0.037910 
#    y 0.000000 3.245900 0.000000 
#    z -0.037910 0.000000 3.620010 
# 
# 
# High freq. dielectric constant tensor:
#      x y z
#    x 1.756500 0.000000 -0.000650 
#    y 0.000000 1.727500 0.000000 
#    z -0.000650 0.000000 1.765130 
# 
# From -- ./inp_files/90564.got.cif
#   From: 2010.06.25/outbox.cif.g09.slc.cpg/sg10_46_cif.got.tgz:90564.got - 2010.06.27 22:07:45.
