data_PCOD8064880
_publ_section_title
;
Structure prediction by ZEFSAII (Michael W. Deem and Ramdas Pophale) SiO2 
 PCOD8064880
Probable space group: P 2/M
;
_chemical_formula_sum "Si O2"
_cell_formula_units_Z 26
_cell_length_a 8.197706
_cell_length_b 22.328195
_cell_length_c 8.757165
_cell_angle_alpha 90.000000
_cell_angle_beta 123.859552
_cell_angle_gamma 90.000000
_cell_volume 1331.066862
_symmetry_space_group_name_H-M "P 2/M"
_symmetry_group_IT_number 10
_symmetry_cell_setting 'monoclinic'
loop_
_space_group_symop_operation_xyz
x,y,z
-x,y,-z
-x,-y,-z
x,-y,z
loop_
_atom_site_type_symbol
_atom_site_label
_atom_site_fract_x
_atom_site_fract_y
_atom_site_fract_z
Si Si1 0.207373 0.659573 0.166153
Si Si2 0.436954 0.882149 0.291964
Si Si3 0.202803 0.348061 0.523849
Si Si4 0.524516 0.569446 0.834406
Si Si5 0.337508 0.000000 0.656907
Si Si6 0.000000 0.906717 0.000000
Si Si7 0.984934 0.000000 0.249922
Si Si8 0.526619 0.245457 0.334928
O O1 0.196478 0.647208 0.339413
O O2 0.271550 0.598438 0.115440
O O3 0.348520 0.713196 0.185660
O O4 0.000000 0.681107 0.000000
O O5 0.500000 0.888359 0.500000
O O6 0.530852 0.821597 0.266220
O O7 0.521872 0.941766 0.255120
O O8 0.202145 0.871683 0.144190
O O9 0.348154 0.399772 0.652373
O O10 0.274810 0.280941 0.605806
O O11 0.000000 0.360622 0.500000
O O12 0.526663 0.500000 0.793383
O O13 0.500000 0.580619 0.000000
O O14 0.183441 0.000000 0.712806
O O15 0.207552 0.000000 0.433876
O O16 0.045192 0.942866 0.870732
O O17 0.500000 0.236759 0.500000
#
# Coordination Sequence:
#
# PCOD8064880 Si02
#       8
#     4   4   4   4   2   2   2   4
#     4  10  20  36  60  84 115 156 194 237 287 342
#     4  11  21  38  60  87 118 154 190 247 299 357
#     4  10  20  38  60  83 116 156 195 238 289 343
#     4  10  21  37  59  88 120 152 192 240 287 338
#     4  11  21  39  61  80 124 151 186 248 306 347
#     4  11  22  36  64  84 110 152 199 232 294 364
#     4  10  22  39  57  88 111 154 193 233 297 368
#     4   8  19  37  56  82 113 149 191 238 290 340
#
# _framework density 19.533204000000001
#
# number of rings (size 3 to 8) (size 9 to 14) (size 15 to 20)
#    0.000    2.000    1.538    3.462    1.077    3.077 
#    2.769    0.000   16.923    0.000    0.000    0.000 
#    0.000    0.000    0.000    0.000    0.000    0.000 
#
# Total GULP energy -322222.602337 kJ/mol
# GULP energy per Si atom -12393.177013 kJ/mol
# Density = 1.948875 g / cm^3
# Si number density = 19.533204 Si / 1000 Ang^3
#
#
#
# Elastic Constant Matrix: (Units=GPa)
#
#
# Indices 1 2 3 4 5 6 
#
# 1 68.0056 29.2522 19.5754 0.0000 7.5550 0.0000
# 2 29.2522 136.1389 31.4690 0.0000 -3.1929 0.0000
# 3 19.5754 31.4690 96.0205 0.0000 13.0281 0.0000
# 4 0.0000 0.0000 0.0000 8.5487 0.0000 0.7054
# 5 7.5550 -3.1929 13.0281 0.0000 30.7156 0.0000
# 6 0.0000 0.0000 0.0000 0.7054 0.0000 21.0333
#
#
#
# Elastic Compliance Matrix: (Units=1/GPa)
#
#
# Indices 1 2 3 4 5 6 
#
# 1 0.017095 -0.003325 -0.001886 0.000000 -0.003750 0.000000
# 2 -0.003325 0.008718 -0.002560 0.000000 0.002810 0.000000
# 3 -0.001886 -0.002560 0.012320 0.000000 -0.005028 0.000000
# 4 0.000000 0.000000 0.000000 0.117301 0.000000 -0.003934
# 5 -0.003750 0.002810 -0.005028 0.000000 0.035904 0.000000
# 6 0.000000 0.000000 0.000000 -0.003934 0.000000 0.047676
#
#
# Mechanical properties :
#
#
# Convention : Reuss Voigt Hill
#
# Bulk Modulus (GPa) = 44.26998 51.19534 47.73266
# Shear Modulus (GPa) = 19.07764 26.71741 22.89753
#
# Velocity S-wave (km/s) = 3.12857 3.70238 3.42751
# Velocity P-wave (km/s) = 5.98028 6.67406 6.33668
#
# Compressibility (1/GPa) = 0.02258867
#
# Stress axis : x y z
#
# Youngs Moduli (GPa) = 58.49819 114.70988 81.16646
#
# Poissons Ratio (x) = 0.38141 0.15312
# Poissons Ratio (y) = 0.19451 0.20782
# Poissons Ratio (z) = 0.11036 0.29371
#
# Static dielectric constant tensor:
#      x y z
#    x 3.524850 0.000000 0.159600 
#    y 0.000000 3.832280 0.000000 
#    z 0.159600 0.000000 3.634770 
# 
# 
# High freq. dielectric constant tensor:
#      x y z
#    x 1.753010 0.000000 0.009870 
#    y 0.000000 1.761790 0.000000 
#    z 0.009870 0.000000 1.766260 
# 
# From -- ./inp_files/20509.got.cif
#   From: 2010.06.25/outbox.cif.g09.slc.cpg/sg10_11_cif.got.tgz:20509.got - 2010.06.27 22:07:45.
