data_PCOD8064235
_publ_section_title
;
Structure prediction by ZEFSAII (Michael W. Deem and Ramdas Pophale) SiO2 
 PCOD8064235
Probable space group: P 2/M
;
_chemical_formula_sum "Si O2"
_cell_formula_units_Z 28
_cell_length_a 15.818916
_cell_length_b 9.037583
_cell_length_c 11.242459
_cell_angle_alpha 90.000000
_cell_angle_beta 117.973677
_cell_angle_gamma 90.000000
_cell_volume 1419.486572
_symmetry_space_group_name_H-M "P 2/M"
_symmetry_group_IT_number 10
_symmetry_cell_setting 'monoclinic'
loop_
_space_group_symop_operation_xyz
x,y,z
-x,y,-z
-x,-y,-z
x,-y,z
loop_
_atom_site_type_symbol
_atom_site_label
_atom_site_fract_x
_atom_site_fract_y
_atom_site_fract_z
Si Si1 0.780177 0.828149 0.852293
Si Si2 0.667789 0.672195 0.106065
Si Si3 0.387849 0.674441 0.664492
Si Si4 0.419474 0.825845 0.165013
Si Si5 0.039872 0.672874 0.396457
Si Si6 0.778282 0.174640 0.579574
Si Si7 0.865944 0.672892 0.120720
O O1 0.672781 0.782422 0.817823
O O2 0.799176 0.781697 0.729614
O O3 0.795744 0.000000 0.883382
O O4 0.857857 0.747410 0.986367
O O5 0.646685 0.500000 0.068314
O O6 0.652442 0.714867 0.232246
O O7 0.776288 0.715803 0.144913
O O8 0.593983 0.765944 0.977915
O O9 0.393034 0.500000 0.647116
O O10 0.491956 0.744602 0.714723
O O11 0.319462 0.746622 0.521893
O O12 0.438375 0.000000 0.173809
O O13 0.064435 0.500000 0.398189
O O14 0.135507 0.766859 0.444049
O O15 0.000000 0.706431 0.500000
O O16 0.962034 0.727198 0.248871
O O17 0.766447 0.000000 0.555317
O O18 0.869502 0.500000 0.101825
#
# Coordination Sequence:
#
# PCOD8064235 Si02
#       7
#     4   4   4   4   4   4   4
#     4   9  21  40  57  77 110 148 183 226 278 324
#     4   9  18  34  55  81 112 144 179 221 273 330
#     4  11  22  36  55  80 112 148 184 228 281 329
#     4  10  20  35  56  81 110 145 185 228 274 327
#     4  10  21  39  61  86 116 146 177 219 275 330
#     4  11  24  40  57  79 109 146 188 230 272 324
#     4   9  18  34  59  84 107 142 184 223 265 323
#
# _framework density 19.725442999999999
#
# number of rings (size 3 to 8) (size 9 to 14) (size 15 to 20)
#    0.000    2.143    0.000    2.571    0.000    8.857 
#    0.000    8.571    0.000    0.000    0.000    0.000 
#    0.000    0.000    0.000    0.000    0.000    0.000 
#
# Total GULP energy -347337.539865 kJ/mol
# GULP energy per Si atom -12404.912138 kJ/mol
# Density = 1.968055 g / cm^3
# Si number density = 19.725443 Si / 1000 Ang^3
#
#
#
# Elastic Constant Matrix: (Units=GPa)
#
#
# Indices 1 2 3 4 5 6 
#
# 1 50.3006 28.6297 33.7595 0.0000 4.5760 0.0000
# 2 28.6297 68.2006 49.8989 0.0000 4.8794 0.0000
# 3 33.7595 49.8989 120.6109 0.0000 14.8577 0.0000
# 4 0.0000 0.0000 0.0000 24.0374 0.0000 -9.2649
# 5 4.5760 4.8794 14.8577 0.0000 33.8890 0.0000
# 6 0.0000 0.0000 0.0000 -9.2649 0.0000 20.5860
#
#
#
# Elastic Compliance Matrix: (Units=1/GPa)
#
#
# Indices 1 2 3 4 5 6 
#
# 1 0.027541 -0.008510 -0.004102 0.000000 -0.000695 0.000000
# 2 -0.008510 0.023679 -0.007544 0.000000 0.001047 0.000000
# 3 -0.004102 -0.007544 0.013064 0.000000 -0.004087 0.000000
# 4 0.000000 0.000000 0.000000 0.050333 0.000000 0.022653
# 5 -0.000695 0.001047 -0.004087 0.000000 0.031243 0.000000
# 6 0.000000 0.000000 0.000000 0.022653 0.000000 0.058772
#
#
# Mechanical properties :
#
#
# Convention : Reuss Voigt Hill
#
# Bulk Modulus (GPa) = 41.71541 51.52092 46.61816
# Shear Modulus (GPa) = 19.76795 24.15741 21.96268
#
# Velocity S-wave (km/s) = 3.16912 3.50334 3.34041
# Velocity P-wave (km/s) = 5.88090 6.52229 6.20988
#
# Compressibility (1/GPa) = 0.02397196
#
# Stress axis : x y z
#
# Youngs Moduli (GPa) = 36.30988 42.23086 76.54719
#
# Poissons Ratio (x) = 0.35938 0.31403
# Poissons Ratio (y) = 0.30900 0.57744
# Poissons Ratio (z) = 0.14896 0.31857
#
# Static dielectric constant tensor:
#      x y z
#    x 3.583650 0.000000 0.076190 
#    y 0.000000 3.515220 0.000000 
#    z 0.076190 0.000000 3.721010 
# 
# 
# High freq. dielectric constant tensor:
#      x y z
#    x 1.767430 0.000000 0.005390 
#    y 0.000000 1.765660 0.000000 
#    z 0.005390 0.000000 1.775730 
# 
# From -- ./inp_files/49608.got.cif
#   From: 2010.06.25/outbox.cif.g09.slc.cpg/sg10_25_cif.got.tgz:49608.got - 2010.06.27 22:07:45.
