data_PCOD8064245
_publ_section_title
;
Structure prediction by ZEFSAII (Michael W. Deem and Ramdas Pophale) SiO2 
 PCOD8064245
Probable space group: P 2/M
;
_chemical_formula_sum "Si O2"
_cell_formula_units_Z 28
_cell_length_a 9.273356
_cell_length_b 8.614287
_cell_length_c 29.357567
_cell_angle_alpha 90.000000
_cell_angle_beta 37.817011
_cell_angle_gamma 90.000000
_cell_volume 1437.927960
_symmetry_space_group_name_H-M "P 2/M"
_symmetry_group_IT_number 10
_symmetry_cell_setting 'monoclinic'
loop_
_space_group_symop_operation_xyz
x,y,z
-x,y,-z
-x,-y,-z
x,-y,z
loop_
_atom_site_type_symbol
_atom_site_label
_atom_site_fract_x
_atom_site_fract_y
_atom_site_fract_z
Si Si1 0.338907 0.817161 0.725070
Si Si2 0.660150 0.682697 0.001229
Si Si3 0.489082 0.182002 0.137385
Si Si4 0.431732 0.681342 0.565097
Si Si5 0.008523 0.680861 0.730915
Si Si6 0.734398 0.684575 0.572230
Si Si7 0.823328 0.182799 0.135104
O O1 0.606208 0.764288 0.647298
O O2 0.291618 0.765789 0.788633
O O3 0.152668 0.728614 0.739788
O O4 0.307674 0.000000 0.725823
O O5 0.675658 0.500000 0.993741
O O6 0.919696 0.748477 0.933460
O O7 0.500000 0.749475 0.000000
O O8 0.542763 0.728565 0.077823
O O9 0.222295 0.216796 0.217990
O O10 0.660505 0.243779 0.134468
O O11 0.523052 0.000000 0.120832
O O12 0.500000 0.761266 0.500000
O O13 0.483421 0.500000 0.548871
O O14 0.602627 0.749849 0.560703
O O15 0.162767 0.712609 0.646926
O O16 0.943330 0.500000 0.751787
O O17 0.716059 0.500000 0.582740
O O18 0.000000 0.741201 0.500000
O O19 0.846276 0.000000 0.126436
#
# Coordination Sequence:
#
# PCOD8064245 Si02
#       7
#     4   4   4   4   4   4   4
#     4  10  20  36  57  79 108 147 186 223 269 325
#     4  11  24  40  60  86 112 140 179 224 267 317
#     4  11  23  39  58  81 112 145 179 221 269 322
#     4   8  15  29  49  73 102 136 174 218 267 317
#     4  10  20  35  56  82 110 141 183 229 271 322
#     4   9  18  32  51  76 106 140 181 228 273 319
#     4  10  23  40  57  81 112 146 182 221 268 322
#
# _framework density 19.472463000000001
#
# number of rings (size 3 to 8) (size 9 to 14) (size 15 to 20)
#    0.000    2.143    0.000    3.857    0.000    8.857 
#    0.000    1.429    0.000   10.714    0.000    0.000 
#    0.000    0.000    0.000    0.000    0.000    0.000 
#
# Total GULP energy -347207.102590 kJ/mol
# GULP energy per Si atom -12400.253664 kJ/mol
# Density = 1.942814 g / cm^3
# Si number density = 19.472463 Si / 1000 Ang^3
#
#
#
# Elastic Constant Matrix: (Units=GPa)
#
#
# Indices 1 2 3 4 5 6 
#
# 1 218.6063 250.0990 193.5997 0.0000 -11.7741 0.0000
# 2 250.0990 577.2031 314.0778 0.0000 -21.1170 0.0000
# 3 193.5997 314.0778 298.3698 0.0000 -12.5016 0.0000
# 4 0.0000 0.0000 0.0000 717.8248 0.0000 116.5457
# 5 -11.7741 -21.1170 -12.5016 0.0000 43.3139 0.0000
# 6 0.0000 0.0000 0.0000 116.5457 0.0000 47.3463
#
#
#
# Elastic Compliance Matrix: (Units=1/GPa)
#
#
# Indices 1 2 3 4 5 6 
#
# 1 0.011879 -0.002211 -0.005355 0.000000 0.000606 0.000000
# 2 -0.002211 0.004491 -0.003266 0.000000 0.000646 0.000000
# 3 -0.005355 -0.003266 0.010260 0.000000 -0.000086 0.000000
# 4 0.000000 0.000000 0.000000 0.002321 0.000000 -0.005712
# 5 0.000606 0.000646 -0.000086 0.000000 0.023542 0.000000
# 6 0.000000 0.000000 0.000000 -0.005712 0.000000 0.035182
#
#
# Mechanical properties :
#
#
# Convention : Reuss Voigt Hill
#
# Bulk Modulus (GPa) = 201.33879 289.97024 245.65452
# Shear Modulus (GPa) = 45.04721 184.12386 114.58554
#
# Velocity S-wave (km/s) = 4.81498 9.73454 7.67937
# Velocity P-wave (km/s) = 11.59884 16.60074 14.31988
#
# Compressibility (1/GPa) = 0.00496675
#
# Stress axis : x y z
#
# Youngs Moduli (GPa) = 84.18111 222.64773 97.46197
#
# Poissons Ratio (x) = 0.49233 0.52189
# Poissons Ratio (y) = 0.18614 0.31831
# Poissons Ratio (z) = 0.45078 0.72717
#
# Static dielectric constant tensor:
#      x y z
#    x 3.672000 0.000000 0.077910 
#    y 0.000000 3.383810 0.000000 
#    z 0.077910 0.000000 3.834060 
# 
# 
# High freq. dielectric constant tensor:
#      x y z
#    x 1.757790 0.000000 -0.000170 
#    y 0.000000 1.744320 0.000000 
#    z -0.000170 0.000000 1.776300 
# 
# From -- ./inp_files/91993.got.cif
#   From: 2010.06.25/outbox.cif.g09.slc.cpg/sg10_46_cif.got.tgz:91993.got - 2010.06.27 22:07:45.
