data_PCOD8064336
_publ_section_title
;
Structure prediction by ZEFSAII (Michael W. Deem and Ramdas Pophale) SiO2 
 PCOD8064336
Probable space group: P 2/M
;
_chemical_formula_sum "Si O2"
_cell_formula_units_Z 28
_cell_length_a 16.050424
_cell_length_b 8.989176
_cell_length_c 20.303351
_cell_angle_alpha 90.000000
_cell_angle_beta 150.086496
_cell_angle_gamma 90.000000
_cell_volume 1460.853131
_symmetry_space_group_name_H-M "P 2/M"
_symmetry_group_IT_number 10
_symmetry_cell_setting 'monoclinic'
loop_
_space_group_symop_operation_xyz
x,y,z
-x,y,-z
-x,-y,-z
x,-y,z
loop_
_atom_site_type_symbol
_atom_site_label
_atom_site_fract_x
_atom_site_fract_y
_atom_site_fract_z
Si Si1 0.058435 0.324297 0.220962
Si Si2 0.921345 0.175324 0.377171
Si Si3 0.648696 0.173640 0.649434
Si Si4 0.155686 0.324258 0.433841
Si Si5 0.545485 0.823506 0.102578
Si Si6 0.502044 0.827382 0.689460
Si Si7 0.294321 0.175124 0.041625
O O1 0.049015 0.500000 0.209619
O O2 0.185421 0.264347 0.253271
O O3 0.121598 0.271623 0.335886
O O4 0.878728 0.259043 0.082178
O O5 0.730200 0.228618 0.248659
O O6 0.000000 0.224192 0.500000
O O7 0.009705 0.258102 0.378129
O O8 0.938830 0.000000 0.376978
O O9 0.500000 0.226651 0.500000
O O10 0.600010 0.213381 0.690365
O O11 0.686186 0.000000 0.665414
O O12 0.153613 0.500000 0.438762
O O13 0.333283 0.265477 0.580081
O O14 0.414836 0.763250 0.066699
O O15 0.536612 0.000000 0.095167
O O16 0.500000 0.756908 0.000000
O O17 0.622272 0.785152 0.831739
O O18 0.450826 0.000000 0.656149
O O19 0.262333 0.000000 0.012718
#
# Coordination Sequence:
#
# PCOD8064336 Si02
#       7
#     4   4   4   4   4   4   4
#     4  11  24  39  57  84 119 155 192 232 281 347
#     4  10  20  35  57  83 111 145 190 242 289 335
#     4  10  20  37  62  88 112 145 192 242 290 337
#     4  11  23  37  56  84 117 155 194 233 284 345
#     4   9  17  31  53  80 107 140 183 229 277 327
#     4  10  21  38  61  87 114 147 192 244 293 342
#     4  10  21  38  60  85 114 148 189 239 290 339
#
# _framework density 19.166882999999999
#
# number of rings (size 3 to 8) (size 9 to 14) (size 15 to 20)
#    0.000    1.857    1.429    2.571    0.000    7.429 
#    0.000    3.571    0.000    2.571    0.000    0.000 
#    0.000    0.000    0.000    0.000    0.000    0.000 
#
# Total GULP energy -347339.061142 kJ/mol
# GULP energy per Si atom -12404.966469 kJ/mol
# Density = 1.912326 g / cm^3
# Si number density = 19.166883 Si / 1000 Ang^3
#
#
#
# Elastic Constant Matrix: (Units=GPa)
#
#
# Indices 1 2 3 4 5 6 
#
# 1 143.2388 34.0936 71.9746 0.0000 6.8697 0.0000
# 2 34.0936 42.9645 39.5089 0.0000 6.3890 0.0000
# 3 71.9746 39.5089 146.5120 0.0000 14.2260 0.0000
# 4 0.0000 0.0000 0.0000 5.6364 0.0000 -10.0465
# 5 6.8697 6.3890 14.2260 0.0000 38.6213 0.0000
# 6 0.0000 0.0000 0.0000 -10.0465 0.0000 10.2179
#
#
#
# Elastic Compliance Matrix: (Units=1/GPa)
#
#
# Indices 1 2 3 4 5 6 
#
# 1 0.009885 -0.004520 -0.003670 0.000000 0.000341 0.000000
# 2 -0.004520 0.033185 -0.006506 0.000000 -0.002289 0.000000
# 3 -0.003670 -0.006506 0.010594 0.000000 -0.002173 0.000000
# 4 0.000000 0.000000 0.000000 -0.235760 0.000000 -0.231805
# 5 0.000341 -0.002289 -0.002173 0.000000 0.027011 0.000000
# 6 0.000000 0.000000 0.000000 -0.231805 0.000000 -0.130049
#
#
# Mechanical properties :
#
#
# Convention : Reuss Voigt Hill
#
# Bulk Modulus (GPa) = 41.20083 69.31883 55.25983
# Shear Modulus (GPa) = -20.18967 23.37097 1.59065
#
# Velocity S-wave (km/s) = -3.24908 3.49569 0.91197
# Velocity P-wave (km/s) = 2.73262 7.24828 5.47745
#
# Compressibility (1/GPa) = 0.02427135
#
# Stress axis : x y z
#
# Youngs Moduli (GPa) = 101.16279 30.13432 94.39317
#
# Poissons Ratio (x) = 0.13619 0.34647
# Poissons Ratio (y) = 0.45721 0.61414
# Poissons Ratio (z) = 0.37131 0.19606
#
# Static dielectric constant tensor:
#      x y z
#    x 3.757600 0.000000 -0.084050 
#    y 0.000000 3.242260 0.000000 
#    z -0.084050 0.000000 3.593220 
# 
# 
# High freq. dielectric constant tensor:
#      x y z
#    x 1.762270 0.000000 0.001050 
#    y 0.000000 1.721000 0.000000 
#    z 0.001050 0.000000 1.757590 
# 
# From -- ./inp_files/49600.got.cif
#   From: 2010.06.25/outbox.cif.g09.slc.cpg/sg10_25_cif.got.tgz:49600.got - 2010.06.27 22:07:45.
