data_PCOD8064658
_publ_section_title
;
Structure prediction by ZEFSAII (Michael W. Deem and Ramdas Pophale) SiO2 
 PCOD8064658
Probable space group: P 2/M
;
_chemical_formula_sum "Si O2"
_cell_formula_units_Z 32
_cell_length_a 14.286643
_cell_length_b 17.538215
_cell_length_c 11.615046
_cell_angle_alpha 90.000000
_cell_angle_beta 30.404516
_cell_angle_gamma 90.000000
_cell_volume 1472.903693
_symmetry_space_group_name_H-M "P 2/M"
_symmetry_group_IT_number 10
_symmetry_cell_setting 'monoclinic'
loop_
_space_group_symop_operation_xyz
x,y,z
-x,y,-z
-x,-y,-z
x,-y,z
loop_
_atom_site_type_symbol
_atom_site_label
_atom_site_fract_x
_atom_site_fract_y
_atom_site_fract_z
Si Si1 0.062352 0.085795 0.279602
Si Si2 0.826405 0.584529 0.459005
Si Si3 0.684073 0.746283 0.586853
Si Si4 0.290730 0.143330 0.237200
Si Si5 0.307477 0.587334 0.160957
Si Si6 0.383831 0.729476 0.735361
Si Si7 0.024351 0.174504 0.103465
Si Si8 0.238057 0.413991 0.985116
O O1 0.187099 0.145726 0.222500
O O2 0.083634 0.104505 0.122438
O O3 0.843648 0.089633 0.544053
O O4 0.133550 0.000000 0.226530
O O5 0.735485 0.500000 0.532206
O O6 0.698476 0.654500 0.555507
O O7 0.849846 0.594338 0.573321
O O8 0.020207 0.588193 0.187847
O O9 0.693159 0.775272 0.710845
O O10 0.487754 0.765870 0.736320
O O11 0.841071 0.786429 0.345698
O O12 0.500000 0.110603 0.000000
O O13 0.345136 0.500000 0.089740
O O14 0.251971 0.624223 0.098220
O O15 0.500000 0.625313 0.000000
O O16 0.500000 0.748984 0.500000
O O17 0.181632 0.762768 0.938768
O O18 0.354807 0.638248 0.775002
O O19 0.000000 0.142779 0.000000
O O20 0.313272 0.500000 0.893493
#
# Coordination Sequence:
#
# PCOD8064658 Si02
#       8
#     4   4   4   4   4   4   4   4
#     4  10  23  42  70 105 134 170 206 244 310 382
#     4  10  20  36  57  84 122 164 211 270 332 385
#     4  11  23  39  64  94 122 174 221 262 326 379
#     4  10  21  40  65  99 142 171 204 254 307 377
#     4   9  17  30  48  73 108 149 190 244 313 380
#     4  12  24  40  66  87 118 168 225 270 320 378
#     4  11  23  45  66  90 132 168 212 268 309 370
#     4  10  21  37  56  83 119 161 214 276 335 382
#
# _framework density 21.725791999999998
#
# number of rings (size 3 to 8) (size 9 to 14) (size 15 to 20)
#    0.000    1.625    2.500    2.625    0.000    7.000 
#    4.500    0.000    0.000    2.625    0.000    0.000 
#    0.000    0.000    0.000    0.000    0.000    0.000 
#
# Total GULP energy -396461.416458 kJ/mol
# GULP energy per Si atom -12389.419264 kJ/mol
# Density = 2.167634 g / cm^3
# Si number density = 21.725792 Si / 1000 Ang^3
#
#
#
# Elastic Constant Matrix: (Units=GPa)
#
#
# Indices 1 2 3 4 5 6 
#
# 1 124.7154 41.1631 34.6073 0.0000 7.8136 0.0000
# 2 41.1631 81.4079 18.9014 0.0000 6.7618 0.0000
# 3 34.6073 18.9014 84.6649 0.0000 -4.5946 0.0000
# 4 0.0000 0.0000 0.0000 9.2520 0.0000 0.5833
# 5 7.8136 6.7618 -4.5946 0.0000 33.5387 0.0000
# 6 0.0000 0.0000 0.0000 0.5833 0.0000 20.6008
#
#
#
# Elastic Compliance Matrix: (Units=1/GPa)
#
#
# Indices 1 2 3 4 5 6 
#
# 1 0.010542 -0.004360 -0.003447 0.000000 -0.002049 0.000000
# 2 -0.004360 0.015072 -0.001705 0.000000 -0.002256 0.000000
# 3 -0.003447 -0.001705 0.013765 0.000000 0.003033 0.000000
# 4 0.000000 0.000000 0.000000 0.108278 0.000000 -0.003066
# 5 -0.002049 -0.002256 0.003033 0.000000 0.031164 0.000000
# 6 0.000000 0.000000 0.000000 -0.003066 0.000000 0.048629
#
#
# Mechanical properties :
#
#
# Convention : Reuss Voigt Hill
#
# Bulk Modulus (GPa) = 49.12732 53.34797 51.23764
# Shear Modulus (GPa) = 19.74259 25.75271 22.74765
#
# Velocity S-wave (km/s) = 3.01776 3.44663 3.23930
# Velocity P-wave (km/s) = 5.89950 6.35983 6.13398
#
# Compressibility (1/GPa) = 0.02035527
#
# Stress axis : x y z
#
# Youngs Moduli (GPa) = 94.85678 66.34940 72.64550
#
# Poissons Ratio (x) = 0.28928 0.25041
# Poissons Ratio (y) = 0.41358 0.12386
# Poissons Ratio (z) = 0.32697 0.11313
#
# Static dielectric constant tensor:
#      x y z
#    x 3.976630 0.000000 0.011500 
#    y 0.000000 3.612220 0.000000 
#    z 0.011500 0.000000 3.939760 
# 
# 
# High freq. dielectric constant tensor:
#      x y z
#    x 1.842540 0.000000 -0.006430 
#    y 0.000000 1.819110 0.000000 
#    z -0.006430 0.000000 1.859700 
# 
# From -- ./inp_files/51951.got.cif
#   From: 2010.06.25/outbox.cif.g09.slc.cpg/sg10_26_cif.got.tgz:51951.got - 2010.06.27 22:07:45.
