data_PCOD8064778
_publ_section_title
;
Structure prediction by ZEFSAII (Michael W. Deem and Ramdas Pophale) SiO2 
 PCOD8064778
Probable space group: P 2/M
;
_chemical_formula_sum "Si O2"
_cell_formula_units_Z 32
_cell_length_a 26.336830
_cell_length_b 8.944287
_cell_length_c 20.900436
_cell_angle_alpha 90.000000
_cell_angle_beta 21.025077
_cell_angle_gamma 90.000000
_cell_volume 1766.398092
_symmetry_space_group_name_H-M "P 2/M"
_symmetry_group_IT_number 10
_symmetry_cell_setting 'monoclinic'
loop_
_space_group_symop_operation_xyz
x,y,z
-x,y,-z
-x,-y,-z
x,-y,z
loop_
_atom_site_type_symbol
_atom_site_label
_atom_site_fract_x
_atom_site_fract_y
_atom_site_fract_z
Si Si1 0.907329 0.670190 0.915230
Si Si2 0.408222 0.321765 0.022862
Si Si3 0.399323 0.670699 0.774308
Si Si4 0.314293 0.177470 0.261531
Si Si5 0.881598 0.327125 0.087946
Si Si6 0.008510 0.825299 0.674172
Si Si7 0.258230 0.324143 0.068460
Si Si8 0.589428 0.176046 0.454414
O O1 0.949564 0.500000 0.849679
O O2 0.993279 0.773989 0.765499
O O3 0.739670 0.692923 0.105224
O O4 0.945012 0.714144 0.943617
O O5 0.420751 0.500000 0.015802
O O6 0.564342 0.249515 0.836576
O O7 0.320848 0.251989 0.184056
O O8 0.325035 0.275470 0.056885
O O9 0.450241 0.500000 0.714846
O O10 0.525539 0.767429 0.596569
O O11 0.365429 0.726611 0.886126
O O12 0.164234 0.219730 0.468059
O O13 0.337621 0.000000 0.228632
O O14 0.834639 0.500000 0.144368
O O15 0.749778 0.225960 0.260409
O O16 0.000000 0.290088 0.000000
O O17 0.894641 0.750401 0.760960
O O18 0.983067 0.000000 0.700506
O O19 0.232735 0.500000 0.093612
O O20 0.500000 0.242255 0.500000
O O21 0.582698 0.000000 0.462332
#
# Coordination Sequence:
#
# PCOD8064778 Si02
#       8
#     4   4   4   4   4   4   4   4
#     4   9  18  34  56  79 105 139 178 223 269 313
#     4  10  20  36  59  83 107 140 181 225 269 309
#     4   9  17  33  56  78 104 139 178 221 267 316
#     4  10  21  37  55  79 112 148 182 214 260 323
#     4  10  21  38  58  79 105 140 181 223 271 321
#     4  10  21  35  55  81 109 144 180 215 263 323
#     4   9  20  37  56  82 111 138 176 227 273 311
#     4  11  22  34  53  81 109 140 179 221 265 317
#
# _framework density 18.115960999999999
#
# number of rings (size 3 to 8) (size 9 to 14) (size 15 to 20)
#    0.000    2.250    1.250    3.000    0.000    6.750 
#    2.250    2.500    0.000    0.000    0.000    0.000 
#    0.000    0.000    0.000    0.000    0.000    0.000 
#
# Total GULP energy -396846.706033 kJ/mol
# GULP energy per Si atom -12401.459564 kJ/mol
# Density = 1.807473 g / cm^3
# Si number density = 18.115961 Si / 1000 Ang^3
#
#
#
# Elastic Constant Matrix: (Units=GPa)
#
#
# Indices 1 2 3 4 5 6 
#
# 1 140.1452 39.5590 62.4657 0.0000 0.7083 0.0000
# 2 39.5590 67.9947 53.3508 0.0000 -0.2081 0.0000
# 3 62.4657 53.3508 129.8135 0.0000 5.1636 0.0000
# 4 0.0000 0.0000 0.0000 32.9664 0.0000 2.0394
# 5 0.7083 -0.2081 5.1636 0.0000 15.6926 0.0000
# 6 0.0000 0.0000 0.0000 2.0394 0.0000 8.3678
#
#
#
# Elastic Compliance Matrix: (Units=1/GPa)
#
#
# Indices 1 2 3 4 5 6 
#
# 1 0.009449 -0.002815 -0.003416 0.000000 0.000660 0.000000
# 2 -0.002815 0.022712 -0.008103 0.000000 0.003094 0.000000
# 3 -0.003416 -0.008103 0.012844 0.000000 -0.004179 0.000000
# 4 0.000000 0.000000 0.000000 0.030798 0.000000 -0.007506
# 5 0.000660 0.003094 -0.004179 0.000000 0.065111 0.000000
# 6 0.000000 0.000000 0.000000 -0.007506 0.000000 0.121336
#
#
# Mechanical properties :
#
#
# Convention : Reuss Voigt Hill
#
# Bulk Modulus (GPa) = 61.21151 72.07829 66.64490
# Shear Modulus (GPa) = 16.87120 23.57722 20.22421
#
# Velocity S-wave (km/s) = 3.05501 3.61149 3.34484
# Velocity P-wave (km/s) = 6.80487 7.56730 7.19619
#
# Compressibility (1/GPa) = 0.01633680
#
# Stress axis : x y z
#
# Youngs Moduli (GPa) = 105.82594 44.02987 77.85993
#
# Poissons Ratio (x) = 0.12395 0.26600
# Poissons Ratio (y) = 0.29790 0.63087
# Poissons Ratio (z) = 0.36154 0.35676
#
# Static dielectric constant tensor:
#      x y z
#    x 3.623410 0.000000 0.114080 
#    y 0.000000 3.310370 0.000000 
#    z 0.114080 0.000000 3.251590 
# 
# 
# High freq. dielectric constant tensor:
#      x y z
#    x 1.701560 0.000000 0.009290 
#    y 0.000000 1.703410 0.000000 
#    z 0.009290 0.000000 1.698520 
# 
# From -- ./inp_files/86895.got.cif
#   From: 2010.06.25/outbox.cif.g09.slc.cpg/sg10_44_cif.got.tgz:86895.got - 2010.06.27 22:07:45.
