data_PCOD8064031
_publ_section_title
;
Structure prediction by ZEFSAII (Michael W. Deem and Ramdas Pophale) SiO2 
 PCOD8064031
Probable space group: P 2/M
;
_chemical_formula_sum "Si O2"
_cell_formula_units_Z 24
_cell_length_a 23.442320
_cell_length_b 8.690753
_cell_length_c 16.699585
_cell_angle_alpha 90.000000
_cell_angle_beta 22.826612
_cell_angle_gamma 90.000000
_cell_volume 1319.873779
_symmetry_space_group_name_H-M "P 2/M"
_symmetry_group_IT_number 10
_symmetry_cell_setting 'monoclinic'
loop_
_space_group_symop_operation_xyz
x,y,z
-x,y,-z
-x,-y,-z
x,-y,z
loop_
_atom_site_type_symbol
_atom_site_label
_atom_site_fract_x
_atom_site_fract_y
_atom_site_fract_z
Si Si1 0.836688 0.318969 0.714676
Si Si2 0.174989 0.679195 0.093927
Si Si3 0.341605 0.680554 0.724226
Si Si4 0.332504 0.317196 0.219453
Si Si5 0.900162 0.180932 0.368438
Si Si6 0.044433 0.682991 0.030479
O O1 0.845332 0.500000 0.690065
O O2 0.767946 0.279745 0.890850
O O3 0.738722 0.249895 0.770251
O O4 0.000000 0.247763 0.500000
O O5 0.130804 0.500000 0.144160
O O6 0.028623 0.773730 0.263875
O O7 0.304680 0.720068 0.864276
O O8 0.500000 0.758307 0.500000
O O9 0.353951 0.500000 0.693832
O O10 0.209486 0.743212 0.838557
O O11 0.319564 0.500000 0.242797
O O12 0.253738 0.244214 0.398542
O O13 0.500000 0.262356 0.000000
O O14 0.928222 0.252005 0.244522
O O15 0.891507 0.000000 0.370738
O O16 0.038448 0.500000 0.043414
O O17 0.000000 0.742733 0.000000
#
# Coordination Sequence:
#
# PCOD8064031 Si02
#       6
#     4   4   4   4   4   4
#     4   9  15  27  51  76  97 125 165 212 252 292
#     4   9  16  30  52  73  98 131 171 210 250 299
#     4   8  14  26  46  74 102 124 151 200 257 297
#     4  10  20  35  53  76 104 134 171 214 260 304
#     4  11  21  33  52  75 103 138 173 207 255 309
#     4   9  18  34  55  77  99 129 171 215 253 297
#
# _framework density 18.183557
#
# number of rings (size 3 to 8) (size 9 to 14) (size 15 to 20)
#    0.000    2.667    1.667    2.500    0.000    0.667 
#    3.000    1.667    0.000    8.000    0.000    0.000 
#    0.000    0.000    0.000    0.000    0.000    0.000 
#
# Total GULP energy -297491.798440 kJ/mol
# GULP energy per Si atom -12395.491602 kJ/mol
# Density = 1.814217 g / cm^3
# Si number density = 18.183557 Si / 1000 Ang^3
#
#
#
# Elastic Constant Matrix: (Units=GPa)
#
#
# Indices 1 2 3 4 5 6 
#
# 1 158.5601 21.0859 86.0686 0.0000 9.8832 0.0000
# 2 21.0859 31.7569 25.4614 0.0000 2.9061 0.0000
# 3 86.0686 25.4614 163.8580 0.0000 10.0487 0.0000
# 4 0.0000 0.0000 0.0000 7.1162 0.0000 1.5441
# 5 9.8832 2.9061 10.0487 0.0000 25.5680 0.0000
# 6 0.0000 0.0000 0.0000 1.5441 0.0000 7.7063
#
#
#
# Elastic Compliance Matrix: (Units=1/GPa)
#
#
# Indices 1 2 3 4 5 6 
#
# 1 0.009050 -0.002436 -0.004281 0.000000 -0.001539 0.000000
# 2 -0.002436 0.036720 -0.004332 0.000000 -0.001529 0.000000
# 3 -0.004281 -0.004332 0.009113 0.000000 -0.001434 0.000000
# 4 0.000000 0.000000 0.000000 0.146912 0.000000 -0.029436
# 5 -0.001539 -0.001529 -0.001434 0.000000 0.040444 0.000000
# 6 0.000000 0.000000 0.000000 -0.029436 0.000000 0.135662
#
#
# Mechanical properties :
#
#
# Convention : Reuss Voigt Hill
#
# Bulk Modulus (GPa) = 30.50245 68.82297 49.66271
# Shear Modulus (GPa) = 12.16757 22.84870 17.50813
#
# Velocity S-wave (km/s) = 2.58960 3.54864 3.10636
# Velocity P-wave (km/s) = 5.07470 7.39741 6.34327
#
# Compressibility (1/GPa) = 0.03278426
#
# Stress axis : x y z
#
# Youngs Moduli (GPa) = 110.49243 27.23292 109.73812
#
# Poissons Ratio (x) = 0.06634 0.46978
# Poissons Ratio (y) = 0.26918 0.47543
# Poissons Ratio (z) = 0.47301 0.11798
#
# Static dielectric constant tensor:
#      x y z
#    x 3.577860 0.000000 0.060510 
#    y 0.000000 2.883400 0.000000 
#    z 0.060510 0.000000 3.519300 
# 
# 
# High freq. dielectric constant tensor:
#      x y z
#    x 1.707430 0.000000 0.014680 
#    y 0.000000 1.658130 0.000000 
#    z 0.014680 0.000000 1.701260 
# 
# From -- ./inp_files/80045.got.cif
#   From: 2010.06.25/outbox.cif.g09.slc.cpg/sg10_41_cif.got.tgz:80045.got - 2010.06.27 22:07:45.
