data_PCOD8064923
_publ_section_title
;
Structure prediction by ZEFSAII (Michael W. Deem and Ramdas Pophale) SiO2 
 PCOD8064923
Probable space group: P 2/M
;
_chemical_formula_sum "Si O2"
_cell_formula_units_Z 28
_cell_length_a 14.706921
_cell_length_b 21.312394
_cell_length_c 8.700841
_cell_angle_alpha 90.000000
_cell_angle_beta 150.885818
_cell_angle_gamma 90.000000
_cell_volume 1326.918266
_symmetry_space_group_name_H-M "P 2/M"
_symmetry_group_IT_number 10
_symmetry_cell_setting 'monoclinic'
loop_
_space_group_symop_operation_xyz
x,y,z
-x,y,-z
-x,-y,-z
x,-y,z
loop_
_atom_site_type_symbol
_atom_site_label
_atom_site_fract_x
_atom_site_fract_y
_atom_site_fract_z
Si Si1 0.455750 0.660728 0.114967
Si Si2 0.172625 0.675396 0.136176
Si Si3 0.199420 0.073251 0.367902
Si Si4 0.457344 0.880839 0.271589
Si Si5 0.159944 0.930417 0.640801
Si Si6 0.804607 0.240405 0.127800
Si Si7 0.307081 0.569133 0.128373
O O1 0.638932 0.678417 0.484774
O O2 0.354747 0.598218 0.031424
O O3 0.500000 0.651927 0.000000
O O4 0.302868 0.714439 0.913226
O O5 0.167252 0.611812 0.025060
O O6 0.168059 0.732021 0.004593
O O7 0.000000 0.678006 0.000000
O O8 0.337666 0.124205 0.498342
O O9 0.189599 0.102695 0.523228
O O10 0.266830 0.000000 0.460557
O O11 0.000000 0.080717 0.000000
O O12 0.500000 0.908619 0.500000
O O13 0.350193 0.933846 0.017073
O O14 0.332309 0.818908 0.089878
O O15 0.000000 0.893706 0.500000
O O16 0.085450 0.000000 0.493041
O O17 0.000000 0.224021 0.500000
O O18 0.500000 0.562700 0.500000
O O19 0.216046 0.500000 0.971577
#
# Coordination Sequence:
#
# PCOD8064923 Si02
#       7
#     4   4   4   4   4   4   4
#     4  10  20  36  60  88 118 159 204 244 297 358
#     4  10  20  38  63  87 118 158 203 249 298 357
#     4  10  22  41  65  92 122 157 195 237 291 355
#     4  12  24  39  60  88 120 153 194 242 295 351
#     4  10  21  39  62  88 119 153 190 234 287 346
#     4  11  24  43  62  83 114 152 200 252 303 355
#     4   8  16  32  55  86 125 162 198 246 297 349
#
# _framework density 21.101527000000001
#
# number of rings (size 3 to 8) (size 9 to 14) (size 15 to 20)
#    0.000    1.857    0.000    5.143    0.000    5.143 
#    0.000    8.571    0.000   14.571    0.000    0.000 
#    0.000    0.000    0.000    0.000    0.000    0.000 
#
# Total GULP energy -346872.600651 kJ/mol
# GULP energy per Si atom -12388.307166 kJ/mol
# Density = 2.105350 g / cm^3
# Si number density = 21.101527 Si / 1000 Ang^3
#
#
#
# Elastic Constant Matrix: (Units=GPa)
#
#
# Indices 1 2 3 4 5 6 
#
# 1 213.3247 52.4881 71.6923 0.0000 -5.1232 0.0000
# 2 52.4881 74.0396 40.0531 0.0000 8.6909 0.0000
# 3 71.6923 40.0531 127.3571 0.0000 -8.0560 0.0000
# 4 0.0000 0.0000 0.0000 20.9381 0.0000 3.5360
# 5 -5.1232 8.6909 -8.0560 0.0000 45.5991 0.0000
# 6 0.0000 0.0000 0.0000 3.5360 0.0000 22.1763
#
#
#
# Elastic Compliance Matrix: (Units=1/GPa)
#
#
# Indices 1 2 3 4 5 6 
#
# 1 0.006348 -0.003257 -0.002493 0.000000 0.000894 0.000000
# 2 -0.003257 0.018721 -0.004352 0.000000 -0.004703 0.000000
# 3 -0.002493 -0.004352 0.010779 0.000000 0.002454 0.000000
# 4 0.000000 0.000000 0.000000 0.049082 0.000000 -0.007826
# 5 0.000894 -0.004703 0.002454 0.000000 0.023361 0.000000
# 6 0.000000 0.000000 0.000000 -0.007826 0.000000 0.046341
#
#
# Mechanical properties :
#
#
# Convention : Reuss Voigt Hill
#
# Bulk Modulus (GPa) = 63.91555 82.57649 73.24602
# Shear Modulus (GPa) = 27.77007 34.44189 31.10598
#
# Velocity S-wave (km/s) = 3.63164 4.04443 3.84358
# Velocity P-wave (km/s) = 6.92390 7.81203 7.38133
#
# Compressibility (1/GPa) = 0.01564564
#
# Stress axis : x y z
#
# Youngs Moduli (GPa) = 157.52428 53.41498 92.77225
#
# Poissons Ratio (x) = 0.17396 0.23127
# Poissons Ratio (y) = 0.51301 0.40374
# Poissons Ratio (z) = 0.39268 0.23246
#
# Static dielectric constant tensor:
#      x y z
#    x 4.100370 0.000000 0.005900 
#    y 0.000000 3.907880 0.000000 
#    z 0.005900 0.000000 3.856120 
# 
# 
# High freq. dielectric constant tensor:
#      x y z
#    x 1.842410 0.000000 -0.001950 
#    y 0.000000 1.810700 0.000000 
#    z -0.001950 0.000000 1.830570 
# 
# From -- ./inp_files/30467.got.cif
#   From: 2010.06.25/outbox.cif.g09.slc.cpg/sg10_16_cif.got.tgz:30467.got - 2010.06.27 22:07:45.
