data_PCOD8064681
_publ_section_title
;
Structure prediction by ZEFSAII (Michael W. Deem and Ramdas Pophale) SiO2 
 PCOD8064681
Probable space group: P 2/M
;
_chemical_formula_sum "Si O2"
_cell_formula_units_Z 24
_cell_length_a 8.843252
_cell_length_b 29.606598
_cell_length_c 8.046465
_cell_angle_alpha 90.000000
_cell_angle_beta 145.232247
_cell_angle_gamma 90.000000
_cell_volume 1201.356589
_symmetry_space_group_name_H-M "P 2/M"
_symmetry_group_IT_number 10
_symmetry_cell_setting 'monoclinic'
loop_
_space_group_symop_operation_xyz
x,y,z
-x,y,-z
-x,-y,-z
x,-y,z
loop_
_atom_site_type_symbol
_atom_site_label
_atom_site_fract_x
_atom_site_fract_y
_atom_site_fract_z
Si Si1 0.059182 0.136848 0.361706
Si Si2 0.771769 0.950063 0.660646
Si Si3 0.778612 0.452445 0.162785
Si Si4 0.724852 0.720145 0.835145
Si Si5 0.557751 0.810816 0.857144
Si Si6 0.222011 0.645925 0.840455
O O1 0.135488 0.085321 0.393519
O O2 0.301821 0.169559 0.531737
O O3 0.000000 0.139694 0.500000
O O4 0.799421 0.154975 0.032007
O O5 0.500000 0.933707 0.500000
O O6 0.731586 0.000000 0.543131
O O7 0.000000 0.952726 0.000000
O O8 0.798552 0.500000 0.073128
O O9 0.811948 0.403936 0.102344
O O10 0.000000 0.454796 0.500000
O O11 0.500000 0.451686 0.000000
O O12 0.500000 0.704778 0.500000
O O13 0.611732 0.761492 0.837799
O O14 0.797813 0.679992 0.025560
O O15 0.000000 0.734916 0.000000
O O16 0.500000 0.807002 0.000000
O O17 0.000000 0.655576 0.500000
O O18 0.500000 0.651161 0.000000
#
# Coordination Sequence:
#
# PCOD8064681 Si02
#       6
#     4   4   4   4   4   4
#     4  10  21  37  58  82 106 136 177 224 267 313
#     4  10  21  36  55  80 110 143 175 210 258 317
#     4   8  14  26  48  78 104 130 176 229 266 309
#     4  12  25  38  55  82 113 144 184 230 275 326
#     4  10  22  39  57  78 106 141 181 222 270 325
#     4  10  20  36  58  80 108 148 185 223 276 328
#
# _framework density 19.977415000000001
#
# number of rings (size 3 to 8) (size 9 to 14) (size 15 to 20)
#    0.000    2.000    0.000    3.500    0.000    6.333 
#    0.000    0.000    0.000    7.000    0.000    0.000 
#    0.000    0.000    0.000    0.000    0.000    0.000 
#
# Total GULP energy -297362.258948 kJ/mol
# GULP energy per Si atom -12390.094123 kJ/mol
# Density = 1.993195 g / cm^3
# Si number density = 19.977415 Si / 1000 Ang^3
#
#
#
# Elastic Constant Matrix: (Units=GPa)
#
#
# Indices 1 2 3 4 5 6 
#
# 1 42.2568 46.6410 39.9729 0.0000 17.3992 0.0000
# 2 46.6410 169.6425 37.1827 0.0000 5.0040 0.0000
# 3 39.9729 37.1827 136.1155 0.0000 24.0151 0.0000
# 4 0.0000 0.0000 0.0000 28.4442 0.0000 6.8145
# 5 17.3992 5.0040 24.0151 0.0000 27.4997 0.0000
# 6 0.0000 0.0000 0.0000 6.8145 0.0000 10.0690
#
#
#
# Elastic Compliance Matrix: (Units=1/GPa)
#
#
# Indices 1 2 3 4 5 6 
#
# 1 0.056829 -0.012984 -0.008529 0.000000 -0.026145 0.000000
# 2 -0.012984 0.009241 0.000161 0.000000 0.006393 0.000000
# 3 -0.008529 0.000161 0.010475 0.000000 -0.003780 0.000000
# 4 0.000000 0.000000 0.000000 0.041960 0.000000 -0.028398
# 5 -0.026145 0.006393 -0.003780 0.000000 0.055044 0.000000
# 6 0.000000 0.000000 0.000000 -0.028398 0.000000 0.118534
#
#
# Mechanical properties :
#
#
# Convention : Reuss Voigt Hill
#
# Bulk Modulus (GPa) = 29.55118 66.17865 47.86492
# Shear Modulus (GPa) = 14.44805 28.15045 21.29925
#
# Velocity S-wave (km/s) = 2.69219 3.75789 3.26876
# Velocity P-wave (km/s) = 4.94856 7.21302 6.18530
#
# Compressibility (1/GPa) = 0.03383959
#
# Stress axis : x y z
#
# Youngs Moduli (GPa) = 17.59651 108.21726 95.46980
#
# Poissons Ratio (x) = 1.40507 0.81431
# Poissons Ratio (y) = 0.22847 -0.01534
# Poissons Ratio (z) = 0.15009 -0.01739
#
# Static dielectric constant tensor:
#      x y z
#    x 3.316860 0.000000 0.331310 
#    y 0.000000 4.385410 0.000000 
#    z 0.331310 0.000000 3.708000 
# 
# 
# High freq. dielectric constant tensor:
#      x y z
#    x 1.742440 0.000000 0.029650 
#    y 0.000000 1.803320 0.000000 
#    z 0.029650 0.000000 1.798450 
# 
# From -- ./inp_files/20906.got.cif
#   From: 2010.06.25/outbox.cif.g09.slc.cpg/sg10_11_cif.got.tgz:20906.got - 2010.06.27 22:07:45.
