data_PCOD8064369
_publ_section_title
;
Structure prediction by ZEFSAII (Michael W. Deem and Ramdas Pophale) SiO2 
 PCOD8064369
Probable space group: P 2/M
;
_chemical_formula_sum "Si O2"
_cell_formula_units_Z 20
_cell_length_a 15.625553
_cell_length_b 12.012938
_cell_length_c 12.358852
_cell_angle_alpha 90.000000
_cell_angle_beta 153.822290
_cell_angle_gamma 90.000000
_cell_volume 1023.424236
_symmetry_space_group_name_H-M "P 2/M"
_symmetry_group_IT_number 10
_symmetry_cell_setting 'monoclinic'
loop_
_space_group_symop_operation_xyz
x,y,z
-x,y,-z
-x,-y,-z
x,-y,z
loop_
_atom_site_type_symbol
_atom_site_label
_atom_site_fract_x
_atom_site_fract_y
_atom_site_fract_z
Si Si1 0.652924 0.270693 0.258726
Si Si2 0.162594 0.500000 0.587807
Si Si3 0.633313 0.269911 0.879367
Si Si4 0.982293 0.874098 0.352405
Si Si5 0.810089 0.500000 0.063461
Si Si6 0.223350 0.500000 0.222664
Si Si7 0.500000 0.317734 0.500000
O O1 0.704823 0.390404 0.264038
O O2 0.565495 0.269917 0.279652
O O3 0.842782 0.198112 0.495475
O O4 0.500000 0.216177 0.000000
O O5 0.000000 0.500000 0.500000
O O6 0.042219 0.500000 0.339176
O O7 0.599244 0.249171 0.710878
O O8 0.776549 0.172799 0.079682
O O9 0.725317 0.388084 0.019215
O O10 0.000000 0.868708 0.500000
O O11 0.000095 0.000000 0.329707
O O12 0.749040 0.500000 0.872575
O O13 0.340567 0.389315 0.389048
O O14 0.000000 0.500000 0.000000
#
# Coordination Sequence:
#
# PCOD8064369 Si02
#       7
#     4   2   4   4   2   2   2
#     4  12  23  37  62  91 119 159 200 241 302 370
#     4  12  22  34  56  88 131 156 185 240 308 363
#     4  11  22  41  61  90 124 158 200 246 298 356
#     4  11  24  43  63  87 119 156 202 255 304 351
#     4  10  20  35  57  84 122 161 188 233 296 349
#     4   9  19  33  55  82 118 160 202 239 278 341
#     4   9  22  36  57  88 120 158 203 241 292 358
#
# _framework density 19.542238000000001
#
# number of rings (size 3 to 8) (size 9 to 14) (size 15 to 20)
#    0.000    1.200    4.000    3.300    2.800    1.200 
#    0.000    0.500    0.000    1.200    0.000    0.000 
#    0.000    0.000    0.000    0.000    0.000    0.000 
#
# Total GULP energy -247855.806333 kJ/mol
# GULP energy per Si atom -12392.790317 kJ/mol
# Density = 1.949776 g / cm^3
# Si number density = 19.542238 Si / 1000 Ang^3
#
#
#
# Elastic Constant Matrix: (Units=GPa)
#
#
# Indices 1 2 3 4 5 6 
#
# 1 84.3662 34.3689 36.6702 0.0000 10.0792 0.0000
# 2 34.3689 114.2097 40.0576 0.0000 9.7306 0.0000
# 3 36.6702 40.0576 101.8501 0.0000 9.8452 0.0000
# 4 0.0000 0.0000 0.0000 9.4193 0.0000 2.1180
# 5 10.0792 9.7306 9.8452 0.0000 46.0990 0.0000
# 6 0.0000 0.0000 0.0000 2.1180 0.0000 -0.1307
#
#
#
# Elastic Compliance Matrix: (Units=1/GPa)
#
#
# Indices 1 2 3 4 5 6 
#
# 1 0.015041 -0.002940 -0.004085 0.000000 -0.001795 0.000000
# 2 -0.002940 0.010811 -0.003099 0.000000 -0.000977 0.000000
# 3 -0.004085 -0.003099 0.012619 0.000000 -0.001148 0.000000
# 4 0.000000 0.000000 0.000000 0.022864 0.000000 0.370455
# 5 -0.001795 -0.000977 -0.001148 0.000000 0.022536 0.000000
# 6 0.000000 0.000000 0.000000 0.370455 0.000000 -1.647480
#
#
# Mechanical properties :
#
#
# Convention : Reuss Voigt Hill
#
# Bulk Modulus (GPa) = 54.87947 58.06881 56.47414
# Shear Modulus (GPa) = -3.25249 23.69947 10.22349
#
# Velocity S-wave (km/s) = -1.29149 3.48621 2.28972
# Velocity P-wave (km/s) = 5.09112 6.78114 5.99597
#
# Compressibility (1/GPa) = 0.01822175
#
# Stress axis : x y z
#
# Youngs Moduli (GPa) = 66.48410 92.50020 79.24599
#
# Poissons Ratio (x) = 0.27199 0.32375
# Poissons Ratio (y) = 0.19549 0.24556
# Poissons Ratio (z) = 0.27161 0.28663
#
# Static dielectric constant tensor:
#      x y z
#    x 3.818900 0.000000 0.102290 
#    y 0.000000 3.665790 0.000000 
#    z 0.102290 0.000000 3.923480 
# 
# 
# High freq. dielectric constant tensor:
#      x y z
#    x 1.751830 0.000000 0.000880 
#    y 0.000000 1.731830 0.000000 
#    z 0.000880 0.000000 1.783850 
# 
# From -- ./inp_files/69136.got.cif
#   From: 2010.06.25/outbox.cif.g09.slc.cpg/sg10_35_cif.got.tgz:69136.got - 2010.06.27 22:07:45.
