data_PCOD8064526
_publ_section_title
;
Structure prediction by ZEFSAII (Michael W. Deem and Ramdas Pophale) SiO2 
 PCOD8064526
Probable space group: P 2/M
;
_chemical_formula_sum "Si O2"
_cell_formula_units_Z 32
_cell_length_a 19.181434
_cell_length_b 14.332007
_cell_length_c 13.005440
_cell_angle_alpha 90.000000
_cell_angle_beta 26.538824
_cell_angle_gamma 90.000000
_cell_volume 1597.461155
_symmetry_space_group_name_H-M "P 2/M"
_symmetry_group_IT_number 10
_symmetry_cell_setting 'monoclinic'
loop_
_space_group_symop_operation_xyz
x,y,z
-x,y,-z
-x,-y,-z
x,-y,z
loop_
_atom_site_type_symbol
_atom_site_label
_atom_site_fract_x
_atom_site_fract_y
_atom_site_fract_z
Si Si1 0.631442 0.109949 0.905646
Si Si2 0.611942 0.397633 0.617049
Si Si3 0.542279 0.785254 0.223657
Si Si4 0.681325 0.395080 0.747081
Si Si5 0.908345 0.237342 0.513936
Si Si6 0.175003 0.236090 0.997631
Si Si7 0.858771 0.606299 0.118015
Si Si8 0.347264 0.894910 0.631330
O O1 0.799867 0.146784 0.649711
O O2 0.638827 0.000000 0.895790
O O3 0.500000 0.146812 0.000000
O O4 0.598481 0.143053 0.064138
O O5 0.528826 0.500000 0.729686
O O6 0.487995 0.314811 0.788123
O O7 0.723694 0.389773 0.569582
O O8 0.703966 0.387459 0.389970
O O9 0.673847 0.764341 0.131989
O O10 0.388253 0.830853 0.478566
O O11 0.705708 0.500000 0.757327
O O12 0.799226 0.328722 0.652631
O O13 0.500000 0.364981 0.000000
O O14 0.000000 0.242094 0.500000
O O15 0.021611 0.224615 0.267920
O O16 0.165157 0.334490 0.952793
O O17 0.198415 0.151165 0.885613
O O18 0.894100 0.500000 0.037631
O O19 0.000000 0.646516 0.000000
O O20 0.500000 0.899245 0.500000
O O21 0.300240 0.000000 0.659842
#
# Coordination Sequence:
#
# PCOD8064526 Si02
#       8
#     4   4   4   4   4   4   4   4
#     4  11  25  45  69  94 123 169 218 264 319 385
#     4  10  20  35  61  90 123 165 207 257 311 370
#     4  11  20  39  63  93 127 160 212 265 313 379
#     4  10  22  41  65  92 124 170 220 261 310 380
#     4  12  24  41  62  95 130 165 206 262 330 385
#     4  11  23  38  60  92 126 164 204 260 325 379
#     4  10  21  38  59  87 122 166 212 254 310 379
#     4   9  19  36  59  86 116 158 203 249 308 372
#
# _framework density 20.031784999999999
#
# number of rings (size 3 to 8) (size 9 to 14) (size 15 to 20)
#    0.000    1.500    2.500    3.000    0.000    3.500 
#    0.000    1.250    0.000    0.375    0.000    0.000 
#    0.000    0.000    0.000    0.000    0.000    0.000 
#
# Total GULP energy -396769.645024 kJ/mol
# GULP energy per Si atom -12399.051407 kJ/mol
# Density = 1.998619 g / cm^3
# Si number density = 20.031785 Si / 1000 Ang^3
#
#
#
# Elastic Constant Matrix: (Units=GPa)
#
#
# Indices 1 2 3 4 5 6 
#
# 1 106.0834 54.7826 42.1291 0.0000 2.0335 0.0000
# 2 54.7826 133.6555 51.5557 0.0000 -4.4880 0.0000
# 3 42.1291 51.5557 124.6970 0.0000 9.9271 0.0000
# 4 0.0000 0.0000 0.0000-1345.6415 0.0000 -245.3543
# 5 2.0335 -4.4880 9.9271 0.0000 32.0311 0.0000
# 6 0.0000 0.0000 0.0000 -245.3543 0.0000 -14.8087
#
#
#
# Elastic Compliance Matrix: (Units=1/GPa)
#
#
# Indices 1 2 3 4 5 6 
#
# 1 0.012603 -0.004240 -0.002454 0.000000 -0.000634 0.000000
# 2 -0.004240 0.010519 -0.003133 0.000000 0.002714 0.000000
# 3 -0.002454 -0.003133 0.010424 0.000000 -0.003514 0.000000
# 4 0.000000 0.000000 0.000000 0.000368 0.000000 -0.006092
# 5 -0.000634 0.002714 -0.003514 0.000000 0.032729 0.000000
# 6 0.000000 0.000000 0.000000 -0.006092 0.000000 0.033414
#
#
# Mechanical properties :
#
#
# Convention : Reuss Voigt Hill
#
# Bulk Modulus (GPa) = 71.98723 73.48565 72.73644
# Shear Modulus (GPa) = 40.21152 -251.28592 -105.53720
#
# Velocity S-wave (km/s) = 4.48525 -11.21231 -7.26631
# Velocity P-wave (km/s) = 7.92703 11.43928 5.83178
#
# Compressibility (1/GPa) = 0.01389135
#
# Stress axis : x y z
#
# Youngs Moduli (GPa) = 79.34527 95.06184 95.93614
#
# Poissons Ratio (x) = 0.40309 0.23547
# Poissons Ratio (y) = 0.33645 0.30054
# Poissons Ratio (z) = 0.19475 0.29780
#
# Static dielectric constant tensor:
#      x y z
#    x 3.587340 0.000000 0.183060 
#    y 0.000000 3.814580 0.000000 
#    z 0.183060 0.000000 3.729230 
# 
# 
# High freq. dielectric constant tensor:
#      x y z
#    x 1.771550 0.000000 0.019380 
#    y 0.000000 1.792200 0.000000 
#    z 0.019380 0.000000 1.783350 
# 
# From -- ./inp_files/53978.got.cif
#   From: 2010.06.25/outbox.cif.g09.slc.cpg/sg10_27_cif.got.tgz:53978.got - 2010.06.27 22:07:45.
