data_PCOD8064481
_publ_section_title
;
Structure prediction by ZEFSAII (Michael W. Deem and Ramdas Pophale) SiO2 
 PCOD8064481
Probable space group: P 2/M
;
_chemical_formula_sum "Si O2"
_cell_formula_units_Z 32
_cell_length_a 25.699429
_cell_length_b 9.129688
_cell_length_c 19.887969
_cell_angle_alpha 90.000000
_cell_angle_beta 21.212446
_cell_angle_gamma 90.000000
_cell_volume 1688.382792
_symmetry_space_group_name_H-M "P 2/M"
_symmetry_group_IT_number 10
_symmetry_cell_setting 'monoclinic'
loop_
_space_group_symop_operation_xyz
x,y,z
-x,y,-z
-x,-y,-z
x,-y,z
loop_
_atom_site_type_symbol
_atom_site_label
_atom_site_fract_x
_atom_site_fract_y
_atom_site_fract_z
Si Si1 0.833264 0.668885 0.706172
Si Si2 0.358245 0.826585 0.958244
Si Si3 0.107319 0.827015 0.744104
Si Si4 0.666324 0.827909 0.641362
Si Si5 0.655621 0.670964 0.790073
Si Si6 0.722160 0.670621 0.349941
Si Si7 0.812984 0.330473 0.090936
Si Si8 0.599713 0.328517 0.228240
O O1 0.802055 0.500000 0.762165
O O2 0.766720 0.709646 0.714626
O O3 0.000000 0.703351 0.500000
O O4 0.768854 0.770309 0.841475
O O5 0.510012 0.773141 0.805785
O O6 0.335742 0.759315 0.911944
O O7 0.350645 0.000000 0.961582
O O8 0.218682 0.778781 0.552491
O O9 0.157976 0.758995 0.753489
O O10 0.099984 0.000000 0.761347
O O11 0.952463 0.767146 0.909821
O O12 0.709343 0.752164 0.658972
O O13 0.667743 0.000000 0.651301
O O14 0.648706 0.500000 0.781957
O O15 0.500000 0.730279 0.000000
O O16 0.744303 0.500000 0.338526
O O17 0.743161 0.706196 0.246614
O O18 0.563170 0.723148 0.561965
O O19 0.857932 0.500000 0.031995
O O20 0.694379 0.288865 0.178816
O O21 0.605575 0.500000 0.205038
#
# Coordination Sequence:
#
# PCOD8064481 Si02
#       8
#     4   4   4   4   4   4   4   4
#     4  10  22  40  60  86 119 149 183 232 288 341
#     4  11  22  38  60  85 116 152 192 236 282 343
#     4  11  23  39  57  84 120 156 195 238 290 347
#     4  10  22  38  57  82 114 151 190 235 280 334
#     4  10  20  35  59  87 110 140 186 233 274 328
#     4  10  20  37  62  87 113 151 197 244 291 345
#     4  10  22  39  58  86 119 150 193 244 295 348
#     4  10  21  38  62  87 115 153 195 242 294 345
#
# _framework density 18.953047999999999
#
# number of rings (size 3 to 8) (size 9 to 14) (size 15 to 20)
#    0.000    1.750    2.500    1.500    0.000    7.500 
#    0.000    3.750    0.000    2.250    0.000    0.000 
#    0.000    0.000    0.000    0.000    0.000    0.000 
#
# Total GULP energy -397007.654781 kJ/mol
# GULP energy per Si atom -12406.489212 kJ/mol
# Density = 1.890991 g / cm^3
# Si number density = 18.953048 Si / 1000 Ang^3
#
#
#
# Elastic Constant Matrix: (Units=GPa)
#
#
# Indices 1 2 3 4 5 6 
#
# 1 113.3167 41.1561 48.2586 0.0000 8.1319 0.0000
# 2 41.1561 52.0291 38.5215 0.0000 6.8519 0.0000
# 3 48.2586 38.5215 95.7843 0.0000 -1.7350 0.0000
# 4 0.0000 0.0000 0.0000 13.8697 0.0000 -8.2520
# 5 8.1319 6.8519 -1.7350 0.0000 35.9694 0.0000
# 6 0.0000 0.0000 0.0000 -8.2520 0.0000 6.4709
#
#
#
# Elastic Compliance Matrix: (Units=1/GPa)
#
#
# Indices 1 2 3 4 5 6 
#
# 1 0.013251 -0.007528 -0.003680 0.000000 -0.001739 0.000000
# 2 -0.007528 0.032888 -0.009525 0.000000 -0.005022 0.000000
# 3 -0.003680 -0.009525 0.016187 0.000000 0.003427 0.000000
# 4 0.000000 0.000000 0.000000 0.298836 0.000000 0.381091
# 5 -0.001739 -0.005022 0.003427 0.000000 0.029317 0.000000
# 6 0.000000 0.000000 0.000000 0.381091 0.000000 0.640526
#
#
# Mechanical properties :
#
#
# Convention : Reuss Voigt Hill
#
# Bulk Modulus (GPa) = 47.93810 57.44471 52.69140
# Shear Modulus (GPa) = 4.63210 20.14158 12.38684
#
# Velocity S-wave (km/s) = 1.56502 3.26346 2.55924
# Velocity P-wave (km/s) = 5.34918 6.67645 6.04933
#
# Compressibility (1/GPa) = 0.02086023
#
# Stress axis : x y z
#
# Youngs Moduli (GPa) = 75.46540 30.40590 61.77808
#
# Poissons Ratio (x) = 0.22890 0.22735
# Poissons Ratio (y) = 0.56811 0.58842
# Poissons Ratio (z) = 0.27773 0.28961
#
# Static dielectric constant tensor:
#      x y z
#    x 3.597430 0.000000 0.028530 
#    y 0.000000 3.351710 0.000000 
#    z 0.028530 0.000000 3.552830 
# 
# 
# High freq. dielectric constant tensor:
#      x y z
#    x 1.747280 0.000000 0.002730 
#    y 0.000000 1.728980 0.000000 
#    z 0.002730 0.000000 1.742660 
# 
# From -- ./inp_files/86874.got.cif
#   From: 2010.06.25/outbox.cif.g09.slc.cpg/sg10_44_cif.got.tgz:86874.got - 2010.06.27 22:07:45.
