data_PCOD8064121
_publ_section_title
;
Structure prediction by ZEFSAII (Michael W. Deem and Ramdas Pophale) SiO2 
 PCOD8064121
Probable space group: P 2/M
;
_chemical_formula_sum "Si O2"
_cell_formula_units_Z 24
_cell_length_a 14.187715
_cell_length_b 13.975334
_cell_length_c 8.909516
_cell_angle_alpha 90.000000
_cell_angle_beta 135.284372
_cell_angle_gamma 90.000000
_cell_volume 1242.932460
_symmetry_space_group_name_H-M "P 2/M"
_symmetry_group_IT_number 10
_symmetry_cell_setting 'monoclinic'
loop_
_space_group_symop_operation_xyz
x,y,z
-x,y,-z
-x,-y,-z
x,-y,z
loop_
_atom_site_type_symbol
_atom_site_label
_atom_site_fract_x
_atom_site_fract_y
_atom_site_fract_z
Si Si1 0.378069 0.103185 0.470598
Si Si2 0.705388 0.610377 0.066078
Si Si3 0.962259 0.720102 0.286540
Si Si4 0.457561 0.699570 0.625467
Si Si5 0.218029 0.609119 0.507570
Si Si6 0.109320 0.891405 0.997606
O O1 0.500000 0.085275 0.500000
O O2 0.414453 0.191283 0.621733
O O3 0.349434 0.000000 0.521447
O O4 0.252055 0.135039 0.228714
O O5 0.683444 0.500000 0.998792
O O6 0.839363 0.646188 0.135249
O O7 0.715627 0.625616 0.255306
O O8 0.578967 0.670756 0.868897
O O9 0.920935 0.822189 0.174551
O O10 0.000000 0.738469 0.500000
O O11 0.087466 0.675287 0.338078
O O12 0.500000 0.691838 0.500000
O O13 0.328871 0.632624 0.507450
O O14 0.171142 0.500000 0.436073
O O15 0.107164 0.000000 0.933927
O O16 0.000000 0.875153 0.000000
#
# Coordination Sequence:
#
# PCOD8064121 Si02
#       6
#     4   4   4   4   4   4
#     4   9  18  33  53  75 101 135 171 207 254 311
#     4  10  21  37  55  76 105 142 179 214 260 316
#     4  10  20  35  56  80 105 136 178 223 260 302
#     4  11  21  34  55  81 107 134 175 223 261 305
#     4  10  21  37  55  75 105 144 178 211 260 318
#     4  10  20  35  55  78 106 140 174 210 260 319
#
# _framework density 19.309173999999999
#
# number of rings (size 3 to 8) (size 9 to 14) (size 15 to 20)
#    0.000    2.000    0.000    4.500    0.000    5.000 
#    0.000    0.000    0.000    8.000    0.000    0.000 
#    0.000    0.000    0.000    0.000    0.000    0.000 
#
# Total GULP energy -297562.122467 kJ/mol
# GULP energy per Si atom -12398.421769 kJ/mol
# Density = 1.926523 g / cm^3
# Si number density = 19.309174 Si / 1000 Ang^3
#
#
#
# Elastic Constant Matrix: (Units=GPa)
#
#
# Indices 1 2 3 4 5 6 
#
# 1 94.9867 33.0776 37.5677 0.0000 23.2371 0.0000
# 2 33.0776 153.1876 77.6060 0.0000 5.3736 0.0000
# 3 37.5677 77.6060 89.9129 0.0000 32.3036 0.0000
# 4 0.0000 0.0000 0.0000 40.0688 0.0000 2.9869
# 5 23.2371 5.3736 32.3036 0.0000 27.7024 0.0000
# 6 0.0000 0.0000 0.0000 2.9869 0.0000 26.7546
#
#
#
# Elastic Compliance Matrix: (Units=1/GPa)
#
#
# Indices 1 2 3 4 5 6 
#
# 1 0.014352 -0.003743 0.002234 0.000000 -0.013918 0.000000
# 2 -0.003743 0.019248 -0.025533 0.000000 0.029180 0.000000
# 3 0.002234 -0.025533 0.053559 0.000000 -0.059376 0.000000
# 4 0.000000 0.000000 0.000000 0.025167 0.000000 -0.002810
# 5 -0.013918 0.029180 -0.059376 0.000000 0.111351 0.000000
# 6 0.000000 0.000000 0.000000 -0.002810 0.000000 0.037690
#
#
# Mechanical properties :
#
#
# Convention : Reuss Voigt Hill
#
# Bulk Modulus (GPa) = 30.23343 70.50997 50.37170
# Shear Modulus (GPa) = 15.31510 31.56088 23.43799
#
# Velocity S-wave (km/s) = 2.81935 4.04728 3.48778
# Velocity P-wave (km/s) = 5.12736 7.64436 6.50869
#
# Compressibility (1/GPa) = 0.03307597
#
# Stress axis : x y z
#
# Youngs Moduli (GPa) = 69.67489 51.95424 18.67097
#
# Poissons Ratio (x) = 0.19445 -0.04171
# Poissons Ratio (y) = 0.26077 0.47673
# Poissons Ratio (z) = -0.15566 1.32655
#
# Static dielectric constant tensor:
#      x y z
#    x 3.506090 0.000000 0.287100 
#    y 0.000000 3.934990 0.000000 
#    z 0.287100 0.000000 3.431560 
# 
# 
# High freq. dielectric constant tensor:
#      x y z
#    x 1.745790 0.000000 0.032280 
#    y 0.000000 1.767950 0.000000 
#    z 0.032280 0.000000 1.742630 
# 
# From -- ./inp_files/29287.got.cif
#   From: 2010.06.25/outbox.cif.g09.slc.cpg/sg10_15_cif.got.tgz:29287.got - 2010.06.27 22:07:45.
