data_PCOD8064445
_publ_section_title
;
Structure prediction by ZEFSAII (Michael W. Deem and Ramdas Pophale) SiO2 
 PCOD8064445
Probable space group: P 2/M
;
_chemical_formula_sum "Si O2"
_cell_formula_units_Z 32
_cell_length_a 10.884173
_cell_length_b 18.160141
_cell_length_c 13.617473
_cell_angle_alpha 90.000000
_cell_angle_beta 143.980399
_cell_angle_gamma 90.000000
_cell_volume 1582.830026
_symmetry_space_group_name_H-M "P 2/M"
_symmetry_group_IT_number 10
_symmetry_cell_setting 'monoclinic'
loop_
_space_group_symop_operation_xyz
x,y,z
-x,y,-z
-x,-y,-z
x,-y,z
loop_
_atom_site_type_symbol
_atom_site_label
_atom_site_fract_x
_atom_site_fract_y
_atom_site_fract_z
Si Si1 0.701046 0.328735 0.691113
Si Si2 0.811357 0.829665 0.811571
Si Si3 0.457105 0.084338 0.694873
Si Si4 0.584756 0.414941 0.795815
Si Si5 0.696350 0.084178 0.196213
Si Si6 0.121247 0.584474 0.491201
Si Si7 0.929941 0.915575 0.693922
Si Si8 0.059722 0.582902 0.832541
O O1 0.500000 0.356850 0.500000
O O2 0.688693 0.240836 0.691285
O O3 0.718921 0.367921 0.807157
O O4 0.912535 0.353050 0.776110
O O5 0.661922 0.875708 0.786983
O O6 0.907793 0.875421 0.783581
O O7 0.000000 0.800948 0.000000
O O8 0.362239 0.119639 0.735029
O O9 0.290255 0.090482 0.501218
O O10 0.520502 0.000000 0.757437
O O11 0.584696 0.500000 0.763258
O O12 0.352191 0.379952 0.636447
O O13 0.699986 0.404923 0.976283
O O14 0.893445 0.120034 0.264837
O O15 0.758794 0.000000 0.257806
O O16 0.500000 0.092739 0.000000
O O17 0.164844 0.500000 0.547270
O O18 0.963383 0.591173 0.298572
O O19 0.000000 0.625447 0.500000
O O20 0.991471 0.000000 0.756515
O O21 0.987164 0.500000 0.817492
#
# Coordination Sequence:
#
# PCOD8064445 Si02
#       8
#     4   4   4   4   4   4   4   4
#     4  12  23  38  59  80 111 148 186 232 288 343
#     4  12  25  38  55  81 115 150 187 235 290 342
#     4  10  20  36  58  84 113 147 188 231 279 338
#     4  10  20  35  58  87 116 148 189 236 284 336
#     4   9  17  31  55  85 113 143 182 229 278 329
#     4   9  18  33  55  85 117 150 189 232 281 334
#     4  10  20  36  58  84 113 147 188 231 279 338
#     4  10  20  35  58  87 116 148 189 236 284 336
#
# _framework density 20.216954000000001
#
# number of rings (size 3 to 8) (size 9 to 14) (size 15 to 20)
#    0.000    1.750    1.250    4.125    0.000    6.500 
#    0.000    2.500    2.750    0.000    0.000    0.000 
#    0.000    0.000    0.000    0.000    0.000    0.000 
#
# Total GULP energy -396578.300114 kJ/mol
# GULP energy per Si atom -12393.071879 kJ/mol
# Density = 2.017094 g / cm^3
# Si number density = 20.216954 Si / 1000 Ang^3
#
#
#
# Elastic Constant Matrix: (Units=GPa)
#
#
# Indices 1 2 3 4 5 6 
#
# 1 140.7306 34.7549 26.9867 0.0000 -5.7037 0.0000
# 2 34.7549 56.1600 15.9083 0.0000 -2.9373 0.0000
# 3 26.9867 15.9083 111.1957 0.0000 -11.6964 0.0000
# 4 0.0000 0.0000 0.0000 26.1300 0.0000 -29.9739
# 5 -5.7037 -2.9373 -11.6964 0.0000 30.4178 0.0000
# 6 0.0000 0.0000 0.0000 -29.9739 0.0000 263.4088
#
#
#
# Elastic Compliance Matrix: (Units=1/GPa)
#
#
# Indices 1 2 3 4 5 6 
#
# 1 0.008598 -0.004915 -0.001317 0.000000 0.000631 0.000000
# 2 -0.004915 0.021387 -0.001820 0.000000 0.000444 0.000000
# 3 -0.001317 -0.001820 0.009930 0.000000 0.003396 0.000000
# 4 0.000000 0.000000 0.000000 0.044016 0.000000 0.005009
# 5 0.000631 0.000444 0.003396 0.000000 0.034342 0.000000
# 6 0.000000 0.000000 0.000000 0.005009 0.000000 0.004366
#
#
# Mechanical properties :
#
#
# Convention : Reuss Voigt Hill
#
# Bulk Modulus (GPa) = 41.99799 51.48733 46.74266
# Shear Modulus (GPa) = 34.08788 79.35376 56.72082
#
# Velocity S-wave (km/s) = 4.11067 6.27187 5.30254
# Velocity P-wave (km/s) = 6.58399 8.83012 7.78845
#
# Compressibility (1/GPa) = 0.02381066
#
# Stress axis : x y z
#
# Youngs Moduli (GPa) = 116.31103 46.75838 100.70073
#
# Poissons Ratio (x) = 0.22980 0.13263
# Poissons Ratio (y) = 0.57162 0.18330
# Poissons Ratio (z) = 0.15319 0.08511
#
# Static dielectric constant tensor:
#      x y z
#    x 3.864840 0.000000 0.005840 
#    y 0.000000 3.303500 0.000000 
#    z 0.005840 0.000000 3.821270 
# 
# 
# High freq. dielectric constant tensor:
#      x y z
#    x 1.793450 0.000000 -0.004060 
#    y 0.000000 1.742270 0.000000 
#    z -0.004060 0.000000 1.808910 
# 
# From -- ./inp_files/65424.got.cif
#   From: 2010.06.25/outbox.cif.g09.slc.cpg/sg10_33_cif.got.tgz:65424.got - 2010.06.27 22:07:45.
