data_PCOD8064200
_publ_section_title
;
Structure prediction by ZEFSAII (Michael W. Deem and Ramdas Pophale) SiO2 
 PCOD8064200
Probable space group: P 2/M
;
_chemical_formula_sum "Si O2"
_cell_formula_units_Z 32
_cell_length_a 6.924210
_cell_length_b 8.932675
_cell_length_c 28.100175
_cell_angle_alpha 90.000000
_cell_angle_beta 91.636783
_cell_angle_gamma 90.000000
_cell_volume 1737.334937
_symmetry_space_group_name_H-M "P 2/M"
_symmetry_group_IT_number 10
_symmetry_cell_setting 'monoclinic'
loop_
_space_group_symop_operation_xyz
x,y,z
-x,y,-z
-x,-y,-z
x,-y,z
loop_
_atom_site_type_symbol
_atom_site_label
_atom_site_fract_x
_atom_site_fract_y
_atom_site_fract_z
Si Si1 0.504860 0.327025 0.300300
Si Si2 0.493355 0.173745 0.054208
Si Si3 0.483987 0.174100 0.799199
Si Si4 0.234747 0.324151 0.127928
Si Si5 0.833927 0.170434 0.125793
Si Si6 0.775085 0.173678 0.633011
Si Si7 0.458991 0.173532 0.553176
Si Si8 0.176420 0.672652 0.618342
O O1 0.467693 0.500000 0.289206
O O2 0.553156 0.242356 0.252404
O O3 0.311980 0.261245 0.322662
O O4 0.686290 0.301097 0.335720
O O5 0.329635 0.267386 0.079802
O O6 0.702818 0.201579 0.078610
O O7 0.434961 0.000000 0.058031
O O8 0.500000 0.228220 0.000000
O O9 0.667204 0.250275 0.825409
O O10 0.291037 0.202230 0.828076
O O11 0.531853 0.000000 0.795148
O O12 0.261270 0.500000 0.131868
O O13 0.009651 0.284726 0.126109
O O14 0.910791 0.000000 0.125976
O O15 0.650722 0.204607 0.584962
O O16 0.988516 0.229467 0.624803
O O17 0.779053 0.000000 0.646368
O O18 0.500000 0.226337 0.500000
O O19 0.281951 0.271293 0.571431
O O20 0.398241 0.000000 0.554856
O O21 0.119745 0.500000 0.611614
#
# Coordination Sequence:
#
# PCOD8064200 Si02
#       8
#     4   4   4   4   4   4   4   4
#     4  10  21  37  56  79 108 139 173 217 267 316
#     4   9  19  37  59  80 105 141 183 224 264 310
#     4  10  21  38  59  80 104 138 180 222 262 310
#     4  11  22  35  54  80 112 144 174 217 269 319
#     4   9  19  36  56  78 106 140 180 222 261 311
#     4  10  20  35  56  79 106 141 179 219 262 313
#     4   9  19  36  56  78 105 139 181 225 266 312
#     4  10  21  36  54  78 110 143 175 217 267 319
#
# _framework density 18.419015999999999
#
# number of rings (size 3 to 8) (size 9 to 14) (size 15 to 20)
#    0.000    2.250    0.000    3.375    0.000    7.000 
#    0.000    7.500    0.000    0.000    0.000    0.000 
#    0.000    0.000    0.000    0.000    0.000    0.000 
#
# Total GULP energy -396950.266856 kJ/mol
# GULP energy per Si atom -12404.695839 kJ/mol
# Density = 1.837709 g / cm^3
# Si number density = 18.419016 Si / 1000 Ang^3
#
#
#
# Elastic Constant Matrix: (Units=GPa)
#
#
# Indices 1 2 3 4 5 6 
#
# 1 101.1815 52.9859 34.8044 0.0000 -8.4570 0.0000
# 2 52.9859 109.4310 54.7003 0.0000 -6.1515 0.0000
# 3 34.8044 54.7003 127.1799 0.0000 -9.2931 0.0000
# 4 0.0000 0.0000 0.0000 26.1405 0.0000 -0.5120
# 5 -8.4570 -6.1515 -9.2931 0.0000 12.5178 0.0000
# 6 0.0000 0.0000 0.0000 -0.5120 0.0000 29.5264
#
#
#
# Elastic Compliance Matrix: (Units=1/GPa)
#
#
# Indices 1 2 3 4 5 6 
#
# 1 0.013747 -0.005938 -0.000785 0.000000 0.005786 0.000000
# 2 -0.005938 0.014260 -0.004535 0.000000 -0.000371 0.000000
# 3 -0.000785 -0.004535 0.010390 0.000000 0.004955 0.000000
# 4 0.000000 0.000000 0.000000 0.038268 0.000000 0.000664
# 5 0.005786 -0.000371 0.004955 0.000000 0.087291 0.000000
# 6 0.000000 0.000000 0.000000 0.000664 0.000000 0.033880
#
#
# Mechanical properties :
#
#
# Convention : Reuss Voigt Hill
#
# Bulk Modulus (GPa) = 62.97429 69.19708 66.08568
# Shear Modulus (GPa) = 22.15871 26.65706 24.40789
#
# Velocity S-wave (km/s) = 3.47224 3.80841 3.64420
# Velocity P-wave (km/s) = 7.09502 7.54907 7.32557
#
# Compressibility (1/GPa) = 0.01587950
#
# Stress axis : x y z
#
# Youngs Moduli (GPa) = 72.74506 70.12847 96.24354
#
# Poissons Ratio (x) = 0.41645 0.07556
# Poissons Ratio (y) = 0.43199 0.43647
# Poissons Ratio (z) = 0.05711 0.31804
#
# Static dielectric constant tensor:
#      x y z
#    x 3.273320 0.000000 -0.018450 
#    y 0.000000 3.433030 0.000000 
#    z -0.018450 0.000000 3.494640 
# 
# 
# High freq. dielectric constant tensor:
#      x y z
#    x 1.713120 0.000000 -0.003020 
#    y 0.000000 1.721240 0.000000 
#    z -0.003020 0.000000 1.718320 
# 
# From -- ./inp_files/94331.got.cif
#   From: 2010.06.25/outbox.cif.g09.slc.cpg/sg10_48_cif.got.tgz:94331.got - 2010.06.27 22:07:45.
