data_PCOD8064696
_publ_section_title
;
Structure prediction by ZEFSAII (Michael W. Deem and Ramdas Pophale) SiO2 
 PCOD8064696
Probable space group: P 2/M
;
_chemical_formula_sum "Si O2"
_cell_formula_units_Z 16
_cell_length_a 15.660093
_cell_length_b 7.852895
_cell_length_c 20.199320
_cell_angle_alpha 90.000000
_cell_angle_beta 160.723358
_cell_angle_gamma 90.000000
_cell_volume 820.059465
_symmetry_space_group_name_H-M "P 2/M"
_symmetry_group_IT_number 10
_symmetry_cell_setting 'monoclinic'
loop_
_space_group_symop_operation_xyz
x,y,z
-x,y,-z
-x,-y,-z
x,-y,z
loop_
_atom_site_type_symbol
_atom_site_label
_atom_site_fract_x
_atom_site_fract_y
_atom_site_fract_z
Si Si1 0.737896 0.809729 0.470215
Si Si2 0.684465 0.688790 0.934493
Si Si3 0.964536 0.000000 0.080666
Si Si4 0.694636 0.202117 0.085423
Si Si5 0.589151 0.000000 0.682745
O O1 0.571743 0.697825 0.298167
O O2 0.018723 0.727545 0.687053
O O3 0.763398 0.000000 0.457096
O O4 0.589206 0.831894 0.433223
O O5 0.803642 0.500000 0.012094
O O6 0.900797 0.830260 0.075534
O O7 0.597225 0.714130 0.946347
O O8 0.272458 0.000000 0.287676
O O9 0.805443 0.000000 0.897615
O O10 0.701088 0.000000 0.081876
O O11 0.500000 0.261644 0.000000
#
# Coordination Sequence:
#
# PCOD8064696 Si02
#       5
#     4   4   2   4   2
#     4   8  17  36  57  79 108 146 181 222 274 319
#     4  11  21  35  57  82 113 147 179 226 275 323
#     4   9  16  35  55  80 113 141 186 222 264 332
#     4  10  20  36  58  82 108 144 187 228 272 325
#     4   7  14  31  59  78 105 149 180 218 276 316
#
# _framework density 19.510781000000001
#
# number of rings (size 3 to 8) (size 9 to 14) (size 15 to 20)
#    0.750    2.000    2.500    0.000    0.000    2.500 
#    0.000   17.500    0.000    1.500    0.000    0.000 
#    0.000    0.000    0.000    0.000    0.000    0.000 
#
# Total GULP energy -198217.258758 kJ/mol
# GULP energy per Si atom -12388.578672 kJ/mol
# Density = 1.946637 g / cm^3
# Si number density = 19.510781 Si / 1000 Ang^3
#
#
#
# Elastic Constant Matrix: (Units=GPa)
#
#
# Indices 1 2 3 4 5 6 
#
# 1 98.9343 42.7266 55.8727 0.0000 26.8557 0.0000
# 2 42.7266 100.0143 23.6378 0.0000 8.5284 0.0000
# 3 55.8727 23.6378 106.4574 0.0000 25.4928 0.0000
# 4 0.0000 0.0000 0.0000 7.9911 0.0000 -4.4431
# 5 26.8557 8.5284 25.4928 0.0000 30.3124 0.0000
# 6 0.0000 0.0000 0.0000 -4.4431 0.0000 1.3734
#
#
#
# Elastic Compliance Matrix: (Units=1/GPa)
#
#
# Indices 1 2 3 4 5 6 
#
# 1 0.018737 -0.005700 -0.006232 0.000000 -0.009755 0.000000
# 2 -0.005700 0.012324 -0.000155 0.000000 0.001713 0.000000
# 3 -0.006232 -0.000155 0.014232 0.000000 -0.006404 0.000000
# 4 0.000000 0.000000 0.000000 -0.156671 0.000000 -0.506847
# 5 -0.009755 0.001713 -0.006404 0.000000 0.046537 0.000000
# 6 0.000000 0.000000 0.000000 -0.506847 0.000000 -0.911587
#
#
# Mechanical properties :
#
#
# Convention : Reuss Voigt Hill
#
# Bulk Modulus (GPa) = 47.35028 61.09781 54.22405
# Shear Modulus (GPa) = -5.28981 20.14665 7.42842
#
# Velocity S-wave (km/s) = -1.64837 3.21688 1.95336
# Velocity P-wave (km/s) = 4.54958 6.72165 5.73931
#
# Compressibility (1/GPa) = 0.02111920
#
# Stress axis : x y z
#
# Youngs Moduli (GPa) = 53.37052 81.14162 70.26243
#
# Poissons Ratio (x) = 0.46248 0.43789
# Poissons Ratio (y) = 0.30420 0.01091
# Poissons Ratio (z) = 0.33262 0.01259
#
# Static dielectric constant tensor:
#      x y z
#    x 3.617790 0.000000 0.288730 
#    y 0.000000 3.229280 0.000000 
#    z 0.288730 0.000000 3.683080 
# 
# 
# High freq. dielectric constant tensor:
#      x y z
#    x 1.749040 0.000000 -0.000190 
#    y 0.000000 1.728900 0.000000 
#    z -0.000190 0.000000 1.755950 
# 
# From -- ./inp_files/84543.got.cif
#   From: 2010.06.25/outbox.cif.g09.slc.cpg/sg10_43_cif.got.tgz:84543.got - 2010.06.27 22:07:45.
