data_PCOD8064808
_publ_section_title
;
Structure prediction by ZEFSAII (Michael W. Deem and Ramdas Pophale) SiO2 
 PCOD8064808
Probable space group: P 2/M
;
_chemical_formula_sum "Si O2"
_cell_formula_units_Z 32
_cell_length_a 17.230214
_cell_length_b 15.017017
_cell_length_c 6.730876
_cell_angle_alpha 90.000000
_cell_angle_beta 81.501453
_cell_angle_gamma 90.000000
_cell_volume 1722.466710
_symmetry_space_group_name_H-M "P 2/M"
_symmetry_group_IT_number 10
_symmetry_cell_setting 'monoclinic'
loop_
_space_group_symop_operation_xyz
x,y,z
-x,y,-z
-x,-y,-z
x,-y,z
loop_
_atom_site_type_symbol
_atom_site_label
_atom_site_fract_x
_atom_site_fract_y
_atom_site_fract_z
Si Si1 0.588845 0.749531 0.004367
Si Si2 0.088844 0.750469 0.004367
Si Si3 0.651265 0.601428 0.243262
Si Si4 0.695314 0.678950 0.625193
Si Si5 0.804686 0.821050 0.374807
Si Si6 0.203421 0.600553 0.078200
Si Si7 0.848735 0.898572 0.756738
Si Si8 0.296579 0.899447 0.921800
O O1 0.629974 0.728102 0.780662
O O2 0.500000 0.777739 0.000000
O O3 0.590450 0.664829 0.151184
O O4 0.630774 0.832489 0.095628
O O5 0.130774 0.667511 0.095628
O O6 0.090450 0.835171 0.151184
O O7 0.129974 0.771898 0.780662
O O8 0.000000 0.722261 0.000000
O O9 0.625490 0.500000 0.212229
O O10 0.650272 0.620362 0.478091
O O11 0.738907 0.620314 0.128369
O O12 0.750000 0.750000 0.500000
O O13 0.748654 0.613975 0.737028
O O14 0.849728 0.879638 0.521910
O O15 0.751346 0.886025 0.262972
O O16 0.171066 0.500000 0.083948
O O17 0.874510 0.000000 0.787771
O O18 0.761093 0.879686 0.871631
O O19 0.328934 0.000000 0.916052
#
# Coordination Sequence:
#
# PCOD8064808 Si02
#       8
#     4   4   4   4   4   4   4   4
#     4  11  23  37  55  84 120 149 177 225 284 334
#     4  11  23  37  55  84 120 149 177 225 284 334
#     4  10  20  37  61  84 108 145 191 232 272 325
#     4  11  18  37  62  81 105 146 192 229 269 320
#     4  11  18  37  62  81 105 146 192 229 269 320
#     4  10  20  36  59  85 111 145 188 230 272 327
#     4  10  20  37  61  84 108 145 191 232 272 325
#     4  10  20  36  59  85 111 145 188 230 272 327
#
# _framework density 18.578008000000001
#
# number of rings (size 3 to 8) (size 9 to 14) (size 15 to 20)
#    0.000    1.500    5.000    2.250    0.000    3.000 
#    0.000    1.250    0.000    1.500    0.000    0.000 
#    0.000    0.000    0.000    0.000    0.000    0.000 
#
# Total GULP energy -396934.859829 kJ/mol
# GULP energy per Si atom -12404.214370 kJ/mol
# Density = 1.853572 g / cm^3
# Si number density = 18.578008 Si / 1000 Ang^3
#
#
#
# Elastic Constant Matrix: (Units=GPa)
#
#
# Indices 1 2 3 4 5 6 
#
# 1 79.4494 27.2526 24.6236 0.0000 1.9971 0.0000
# 2 27.2526 92.7201 26.3459 0.0000 1.2019 0.0000
# 3 24.6236 26.3459 114.6368 0.0000 4.2962 0.0000
# 4 0.0000 0.0000 0.0000 28.9854 0.0000 2.4753
# 5 1.9971 1.2019 4.2962 0.0000 14.6104 0.0000
# 6 0.0000 0.0000 0.0000 2.4753 0.0000 9.5038
#
#
#
# Elastic Compliance Matrix: (Units=1/GPa)
#
#
# Indices 1 2 3 4 5 6 
#
# 1 0.014554 -0.003624 -0.002255 0.000000 -0.001028 0.000000
# 2 -0.003624 0.012441 -0.002084 0.000000 0.000085 0.000000
# 3 -0.002255 -0.002084 0.009776 0.000000 -0.002395 0.000000
# 4 0.000000 0.000000 0.000000 0.035285 0.000000 -0.009190
# 5 -0.001028 0.000085 -0.002395 0.000000 0.069282 0.000000
# 6 0.000000 0.000000 0.000000 -0.009190 0.000000 0.107614
#
#
# Mechanical properties :
#
#
# Convention : Reuss Voigt Hill
#
# Bulk Modulus (GPa) = 47.96977 49.25004 48.60991
# Shear Modulus (GPa) = 18.39403 24.52555 21.45979
#
# Velocity S-wave (km/s) = 3.14999 3.63731 3.40239
# Velocity P-wave (km/s) = 6.25354 6.64887 6.45423
#
# Compressibility (1/GPa) = 0.02084646
#
# Stress axis : x y z
#
# Youngs Moduli (GPa) = 68.70795 80.37709 102.28863
#
# Poissons Ratio (x) = 0.29127 0.23065
# Poissons Ratio (y) = 0.24899 0.21318
# Poissons Ratio (z) = 0.15493 0.16751
#
# Static dielectric constant tensor:
#      x y z
#    x 3.041240 0.000000 0.039810 
#    y 0.000000 3.458690 0.000000 
#    z 0.039810 0.000000 3.754230 
# 
# 
# High freq. dielectric constant tensor:
#      x y z
#    x 1.686950 0.000000 0.008070 
#    y 0.000000 1.729980 0.000000 
#    z 0.008070 0.000000 1.732830 
# 
# From -- ./inp_files/11427.got.cif
#   From: 2010.06.25/outbox.cif.g09.slc.cpg/sg10_6_cif.got.tgz:11427.got - 2010.06.27 22:07:45.
