data_PCOD8064726
_publ_section_title
;
Structure prediction by ZEFSAII (Michael W. Deem and Ramdas Pophale) SiO2 
 PCOD8064726
Probable space group: P 2/M
;
_chemical_formula_sum "Si O2"
_cell_formula_units_Z 28
_cell_length_a 12.533723
_cell_length_b 9.100006
_cell_length_c 14.447805
_cell_angle_alpha 90.000000
_cell_angle_beta 60.348895
_cell_angle_gamma 90.000000
_cell_volume 1432.090327
_symmetry_space_group_name_H-M "P 2/M"
_symmetry_group_IT_number 10
_symmetry_cell_setting 'monoclinic'
loop_
_space_group_symop_operation_xyz
x,y,z
-x,y,-z
-x,-y,-z
x,-y,z
loop_
_atom_site_type_symbol
_atom_site_label
_atom_site_fract_x
_atom_site_fract_y
_atom_site_fract_z
Si Si1 0.480353 0.834919 0.400474
Si Si2 0.892146 0.168871 0.118597
Si Si3 0.537536 0.674553 0.884250
Si Si4 0.978015 0.827577 0.284488
Si Si5 0.193040 0.325216 0.290126
Si Si6 0.644957 0.673480 0.194833
Si Si7 0.206091 0.827899 0.472850
O O1 0.500000 0.832386 0.500000
O O2 0.581476 0.726957 0.315875
O O3 0.344809 0.778131 0.433816
O O4 0.499962 0.000000 0.353805
O O5 0.931855 0.222665 0.203400
O O6 0.780413 0.263358 0.128018
O O7 0.850638 0.000000 0.141387
O O8 0.000000 0.193691 0.000000
O O9 0.538576 0.500000 0.886898
O O10 0.671508 0.731034 0.796291
O O11 0.436608 0.732415 0.855379
O O12 0.500000 0.739841 0.000000
O O13 0.874107 0.786361 0.403519
O O14 0.100446 0.736398 0.253170
O O15 0.009283 0.000000 0.272643
O O16 0.184594 0.500000 0.297297
O O17 0.156244 0.260569 0.405905
O O18 0.653228 0.500000 0.192015
O O19 0.196005 0.000000 0.455280
#
# Coordination Sequence:
#
# PCOD8064726 Si02
#       7
#     4   4   4   4   4   4   4
#     4  10  20  36  60  86 116 158 201 239 289 350
#     4  10  23  43  64  86 118 157 198 247 295 346
#     4   9  20  38  58  83 118 158 191 233 294 350
#     4  10  22  40  60  84 117 156 197 237 290 350
#     4  11  22  37  60  88 119 152 193 242 292 346
#     4  11  22  38  62  90 120 153 194 245 296 351
#     4  10  20  36  58  83 116 156 194 236 287 351
#
# _framework density 19.551839999999999
#
# number of rings (size 3 to 8) (size 9 to 14) (size 15 to 20)
#    0.000    1.857    1.429    2.143    2.000    5.714 
#    0.000    1.429    0.000    3.429    0.000    0.000 
#    0.000    0.000    0.000    0.000    0.000    0.000 
#
# Total GULP energy -347326.496294 kJ/mol
# GULP energy per Si atom -12404.517725 kJ/mol
# Density = 1.950734 g / cm^3
# Si number density = 19.551840 Si / 1000 Ang^3
#
#
#
# Elastic Constant Matrix: (Units=GPa)
#
#
# Indices 1 2 3 4 5 6 
#
# 1 127.9251 47.9720 50.5673 0.0000 -8.0880 0.0000
# 2 47.9720 58.4502 37.8125 0.0000 -5.8122 0.0000
# 3 50.5673 37.8125 123.3361 0.0000 5.0779 0.0000
# 4 0.0000 0.0000 0.0000 10.9493 0.0000 -7.3913
# 5 -8.0880 -5.8122 5.0779 0.0000 26.2014 0.0000
# 6 0.0000 0.0000 0.0000 -7.3913 0.0000 34.2974
#
#
#
# Elastic Compliance Matrix: (Units=1/GPa)
#
#
# Indices 1 2 3 4 5 6 
#
# 1 0.011953 -0.007899 -0.002579 0.000000 0.002437 0.000000
# 2 -0.007899 0.027557 -0.005404 0.000000 0.004722 0.000000
# 3 -0.002579 -0.005404 0.010992 0.000000 -0.004125 0.000000
# 4 0.000000 0.000000 0.000000 0.106879 0.000000 0.023033
# 5 0.002437 0.004722 -0.004125 0.000000 0.040765 0.000000
# 6 0.000000 0.000000 0.000000 0.023033 0.000000 0.034120
#
#
# Mechanical properties :
#
#
# Convention : Reuss Voigt Hill
#
# Bulk Modulus (GPa) = 53.37073 64.71276 59.04174
# Shear Modulus (GPa) = 18.49947 25.84693 22.17320
#
# Velocity S-wave (km/s) = 3.07933 3.63983 3.37125
# Velocity P-wave (km/s) = 6.32450 7.12983 6.73920
#
# Compressibility (1/GPa) = 0.01873686
#
# Stress axis : x y z
#
# Youngs Moduli (GPa) = 83.66135 36.28777 90.97426
#
# Poissons Ratio (x) = 0.28665 0.23465
# Poissons Ratio (y) = 0.66086 0.49166
# Poissons Ratio (z) = 0.21578 0.19611
#
# Static dielectric constant tensor:
#      x y z
#    x 3.791800 0.000000 0.027890 
#    y 0.000000 3.392110 0.000000 
#    z 0.027890 0.000000 3.638950 
# 
# 
# High freq. dielectric constant tensor:
#      x y z
#    x 1.776730 0.000000 0.000100 
#    y 0.000000 1.741720 0.000000 
#    z 0.000100 0.000000 1.769610 
# 
# From -- ./inp_files/49642.got.cif
#   From: 2010.06.25/outbox.cif.g09.slc.cpg/sg10_25_cif.got.tgz:49642.got - 2010.06.27 22:07:45.
