data_PCOD8064871
_publ_section_title
;
Structure prediction by ZEFSAII (Michael W. Deem and Ramdas Pophale) SiO2 
 PCOD8064871
Probable space group: P 2/M
;
_chemical_formula_sum "Si O2"
_cell_formula_units_Z 28
_cell_length_a 15.409890
_cell_length_b 8.922554
_cell_length_c 11.747459
_cell_angle_alpha 90.000000
_cell_angle_beta 123.303747
_cell_angle_gamma 90.000000
_cell_volume 1349.957810
_symmetry_space_group_name_H-M "P 2/M"
_symmetry_group_IT_number 10
_symmetry_cell_setting 'monoclinic'
loop_
_space_group_symop_operation_xyz
x,y,z
-x,y,-z
-x,-y,-z
x,-y,z
loop_
_atom_site_type_symbol
_atom_site_label
_atom_site_fract_x
_atom_site_fract_y
_atom_site_fract_z
Si Si1 0.004368 0.326641 0.134902
Si Si2 0.381545 0.177153 0.401961
Si Si3 0.765765 0.825934 0.339707
Si Si4 0.818095 0.174933 0.124594
Si Si5 0.790384 0.325902 0.581687
Si Si6 0.350410 0.671612 0.147849
Si Si7 0.551970 0.671157 0.154155
O O1 0.973532 0.500000 0.129970
O O2 0.119335 0.293242 0.262903
O O3 0.926119 0.223505 0.147945
O O4 0.000000 0.280962 0.000000
O O5 0.500000 0.232231 0.500000
O O6 0.315020 0.243427 0.457362
O O7 0.332521 0.236258 0.249602
O O8 0.373417 0.000000 0.398791
O O9 0.822313 0.788035 0.261803
O O10 0.823844 0.735745 0.481888
O O11 0.645609 0.780413 0.249406
O O12 0.772789 0.000000 0.373607
O O13 0.799059 0.000000 0.089275
O O14 0.722980 0.265774 0.003364
O O15 0.765322 0.500000 0.553439
O O16 0.319208 0.500000 0.148817
O O17 0.469393 0.686052 0.195949
O O18 0.591840 0.500000 0.170956
O O19 0.500000 0.725303 0.000000
#
# Coordination Sequence:
#
# PCOD8064871 Si02
#       7
#     4   4   4   4   4   4   4
#     4  10  23  44  68  93 120 154 202 259 316 371
#     4  11  24  41  62  91 127 164 204 251 307 369
#     4  11  24  40  60  90 129 168 206 253 309 371
#     4  11  24  40  62  92 123 161 206 253 309 370
#     4  11  24  42  66  93 123 163 208 256 311 368
#     4  11  22  37  61  90 124 163 207 259 307 362
#     4  10  20  36  59  89 123 164 209 253 304 360
#
# _framework density 20.741389999999999
#
# number of rings (size 3 to 8) (size 9 to 14) (size 15 to 20)
#    0.000    1.286    1.429    3.857    0.000    9.714 
#    0.000    2.857    0.000    0.000    0.000    0.000 
#    0.000    0.000    0.000    0.000    0.000    0.000 
#
# Total GULP energy -347401.247109 kJ/mol
# GULP energy per Si atom -12407.187397 kJ/mol
# Density = 2.069418 g / cm^3
# Si number density = 20.741390 Si / 1000 Ang^3
#
#
#
# Elastic Constant Matrix: (Units=GPa)
#
#
# Indices 1 2 3 4 5 6 
#
# 1 109.9242 52.6357 44.2535 0.0000 -8.1454 0.0000
# 2 52.6357 97.3445 52.0821 0.0000 -3.9576 0.0000
# 3 44.2535 52.0821 129.5422 0.0000 -14.2326 0.0000
# 4 0.0000 0.0000 0.0000 36.5810 0.0000 -2.2173
# 5 -8.1454 -3.9576 -14.2326 0.0000 31.5174 0.0000
# 6 0.0000 0.0000 0.0000 -2.2173 0.0000 30.8657
#
#
#
# Elastic Compliance Matrix: (Units=1/GPa)
#
#
# Indices 1 2 3 4 5 6 
#
# 1 0.012762 -0.005860 -0.001812 0.000000 0.001744 0.000000
# 2 -0.005860 0.015797 -0.004522 0.000000 -0.001573 0.000000
# 3 -0.001812 -0.004522 0.010567 0.000000 0.003736 0.000000
# 4 0.000000 0.000000 0.000000 0.027456 0.000000 0.001972
# 5 0.001744 -0.001573 0.003736 0.000000 0.033669 0.000000
# 6 0.000000 0.000000 0.000000 0.001972 0.000000 0.032540
#
#
# Mechanical properties :
#
#
# Convention : Reuss Voigt Hill
#
# Bulk Modulus (GPa) = 67.85405 70.52818 69.19111
# Shear Modulus (GPa) = 30.84670 32.31546 31.58108
#
# Velocity S-wave (km/s) = 3.86061 3.95146 3.90630
# Velocity P-wave (km/s) = 7.25657 7.40919 7.33328
#
# Compressibility (1/GPa) = 0.01473751
#
# Stress axis : x y z
#
# Youngs Moduli (GPa) = 78.35776 63.30321 94.63438
#
# Poissons Ratio (x) = 0.37097 0.17147
# Poissons Ratio (y) = 0.45920 0.42794
# Poissons Ratio (z) = 0.14198 0.28626
#
# Static dielectric constant tensor:
#      x y z
#    x 3.716150 0.000000 -0.144170 
#    y 0.000000 3.749490 0.000000 
#    z -0.144170 0.000000 3.852780 
# 
# 
# High freq. dielectric constant tensor:
#      x y z
#    x 1.812660 0.000000 -0.010840 
#    y 0.000000 1.815570 0.000000 
#    z -0.010840 0.000000 1.822360 
# 
# From -- ./inp_files/50024.got.cif
#   From: 2010.06.25/outbox.cif.g09.slc.cpg/sg10_26_cif.got.tgz:50024.got - 2010.06.27 22:07:45.
