data_PCOD8064231
_publ_section_title
;
Structure prediction by ZEFSAII (Michael W. Deem and Ramdas Pophale) SiO2 
 PCOD8064231
Probable space group: P 2/M
;
_chemical_formula_sum "Si O2"
_cell_formula_units_Z 30
_cell_length_a 11.320861
_cell_length_b 14.135695
_cell_length_c 13.024336
_cell_angle_alpha 90.000000
_cell_angle_beta 51.086340
_cell_angle_gamma 90.000000
_cell_volume 1621.750177
_symmetry_space_group_name_H-M "P 2/M"
_symmetry_group_IT_number 10
_symmetry_cell_setting 'monoclinic'
loop_
_space_group_symop_operation_xyz
x,y,z
-x,y,-z
-x,-y,-z
x,-y,z
loop_
_atom_site_type_symbol
_atom_site_label
_atom_site_fract_x
_atom_site_fract_y
_atom_site_fract_z
Si Si1 0.922620 0.215341 0.323416
Si Si2 0.000000 0.159543 0.500000
Si Si3 0.785176 0.887143 0.907441
Si Si4 0.315616 0.103004 0.260734
Si Si5 0.466179 0.605723 0.685595
Si Si6 0.663910 0.893567 0.361818
Si Si7 0.591606 0.795803 0.192649
Si Si8 0.745865 0.394639 0.394165
O O1 0.773965 0.151798 0.386324
O O2 0.887484 0.322922 0.309497
O O3 0.967021 0.223128 0.418584
O O4 0.054311 0.166808 0.184325
O O5 0.145925 0.095031 0.398332
O O6 0.691011 0.868327 0.855081
O O7 0.808719 0.000000 0.913353
O O8 0.692777 0.836565 0.046901
O O9 0.417517 0.173444 0.271086
O O10 0.392048 0.000000 0.229079
O O11 0.467685 0.500000 0.733144
O O12 0.415506 0.681401 0.799751
O O13 0.345996 0.610044 0.660381
O O14 0.632598 0.631622 0.549874
O O15 0.500000 0.892901 0.500000
O O16 0.663706 0.832926 0.258510
O O17 0.716953 0.000000 0.307486
O O18 0.811980 0.500000 0.374255
#
# Coordination Sequence:
#
# PCOD8064231 Si02
#       8
#     4   2   4   4   4   4   4   4
#     4  11  21  37  54  79 114 146 184 227 277 331
#     4  10  21  34  57  80 110 148 183 228 287 334
#     4  10  23  39  54  76 112 160 198 221 259 328
#     4  10  20  35  56  81 109 145 191 232 271 329
#     4   9  18  33  57  86 110 138 179 229 286 342
#     4  11  22  33  51  81 110 136 176 234 286 327
#     4  12  21  35  58  80 110 146 189 230 273 326
#     4   9  17  34  59  83 110 140 177 230 289 338
#
# _framework density 18.498532000000001
#
# number of rings (size 3 to 8) (size 9 to 14) (size 15 to 20)
#    0.000    1.733    1.333    5.400    0.000    4.267 
#    0.000    2.333    0.000    6.400    0.000    0.000 
#    0.000    0.000    0.000    0.000    0.000    0.000 
#
# Total GULP energy -371906.388913 kJ/mol
# GULP energy per Si atom -12396.879630 kJ/mol
# Density = 1.845643 g / cm^3
# Si number density = 18.498532 Si / 1000 Ang^3
#
#
#
# Elastic Constant Matrix: (Units=GPa)
#
#
# Indices 1 2 3 4 5 6 
#
# 1 84.7466 46.2264 27.5625 0.0000 -6.6070 0.0000
# 2 46.2264 155.9225 47.2871 0.0000 -5.3509 0.0000
# 3 27.5625 47.2871 89.2613 0.0000 0.0653 0.0000
# 4 0.0000 0.0000 0.0000 29.9671 0.0000 -2.8975
# 5 -6.6070 -5.3509 0.0653 0.0000 20.6622 0.0000
# 6 0.0000 0.0000 0.0000 -2.8975 0.0000 26.1766
#
#
#
# Elastic Compliance Matrix: (Units=1/GPa)
#
#
# Indices 1 2 3 4 5 6 
#
# 1 0.014880 -0.003436 -0.002777 0.000000 0.003877 0.000000
# 2 -0.003436 0.008517 -0.003452 0.000000 0.001118 0.000000
# 3 -0.002777 -0.003452 0.013891 0.000000 -0.001826 0.000000
# 4 0.000000 0.000000 0.000000 0.033731 0.000000 0.003734
# 5 0.003877 0.001118 -0.001826 0.000000 0.049932 0.000000
# 6 0.000000 0.000000 0.000000 0.003734 0.000000 0.038615
#
#
# Mechanical properties :
#
#
# Convention : Reuss Voigt Hill
#
# Bulk Modulus (GPa) = 55.68778 63.56471 59.62625
# Shear Modulus (GPa) = 27.04419 29.28481 28.16450
#
# Velocity S-wave (km/s) = 3.82771 3.98312 3.90619
# Velocity P-wave (km/s) = 7.05014 7.45589 7.25585
#
# Compressibility (1/GPa) = 0.01795726
#
# Stress axis : x y z
#
# Youngs Moduli (GPa) = 67.20599 117.40669 71.99078
#
# Poissons Ratio (x) = 0.40342 0.19993
# Poissons Ratio (y) = 0.23093 0.24851
# Poissons Ratio (z) = 0.18664 0.40529
#
# Static dielectric constant tensor:
#      x y z
#    x 3.537830 0.000000 0.037630 
#    y 0.000000 3.604340 0.000000 
#    z 0.037630 0.000000 3.278200 
# 
# 
# High freq. dielectric constant tensor:
#      x y z
#    x 1.716380 0.000000 -0.000360 
#    y 0.000000 1.716490 0.000000 
#    z -0.000360 0.000000 1.701070 
# 
# From -- ./inp_files/47614.got.cif
#   From: 2010.06.25/outbox.cif.g09.slc.cpg/sg10_24_cif.got.tgz:47614.got - 2010.06.27 22:07:45.
