data_PCOD8064296
_publ_section_title
;
Structure prediction by ZEFSAII (Michael W. Deem and Ramdas Pophale) SiO2 
 PCOD8064296
Probable space group: P 2/M
;
_chemical_formula_sum "Si O2"
_cell_formula_units_Z 32
_cell_length_a 14.844148
_cell_length_b 8.881669
_cell_length_c 12.900078
_cell_angle_alpha 90.000000
_cell_angle_beta 98.473211
_cell_angle_gamma 90.000000
_cell_volume 1682.192731
_symmetry_space_group_name_H-M "P 2/M"
_symmetry_group_IT_number 10
_symmetry_cell_setting 'monoclinic'
loop_
_space_group_symop_operation_xyz
x,y,z
-x,y,-z
-x,-y,-z
x,-y,z
loop_
_atom_site_type_symbol
_atom_site_label
_atom_site_fract_x
_atom_site_fract_y
_atom_site_fract_z
Si Si1 0.595659 0.325228 0.048595
Si Si2 0.927618 0.822227 0.178266
Si Si3 0.401697 0.671520 0.508640
Si Si4 0.786514 0.679112 0.995210
Si Si5 0.664876 0.668321 0.279115
Si Si6 0.160787 0.174602 0.633383
Si Si7 0.782457 0.178783 0.576115
Si Si8 0.135223 0.177122 0.193000
O O1 0.591382 0.500000 0.018794
O O2 0.601153 0.296149 0.171675
O O3 0.500000 0.246705 0.000000
O O4 0.685586 0.259076 0.007066
O O5 0.915336 0.768216 0.297181
O O6 0.029432 0.781931 0.161262
O O7 0.908721 0.000000 0.166754
O O8 0.858972 0.738903 0.090436
O O9 0.500000 0.743080 0.500000
O O10 0.395359 0.500000 0.467215
O O11 0.397308 0.680608 0.631230
O O12 0.321048 0.763197 0.440132
O O13 0.790468 0.500000 0.999450
O O14 0.808236 0.735861 0.883987
O O15 0.707949 0.500000 0.276639
O O16 0.743952 0.791229 0.294979
O O17 0.162810 0.245086 0.516563
O O18 0.146819 0.000000 0.614977
O O19 0.832513 0.233620 0.688390
O O20 0.779609 0.000000 0.569672
O O21 0.151880 0.000000 0.182757
#
# Coordination Sequence:
#
# PCOD8064296 Si02
#       8
#     4   4   4   4   4   4   4   4
#     4   9  18  32  51  76 102 133 172 214 264 313
#     4  10  20  35  57  80 105 141 180 218 267 325
#     4   9  18  31  51  78 104 136 177 217 261 317
#     4  11  22  36  56  80 106 139 182 227 264 311
#     4   9  16  30  50  71 100 134 167 210 260 309
#     4   9  17  31  54  79 101 131 172 217 258 306
#     4   9  19  35  53  76 107 139 175 220 267 314
#     4  10  22  38  54  76 110 148 178 214 271 326
#
# _framework density 19.022789
#
# number of rings (size 3 to 8) (size 9 to 14) (size 15 to 20)
#    0.000    2.500    1.250    0.750    0.000    4.250 
#    0.000    5.000    0.000    3.375    0.000    5.250 
#    0.000    0.000    0.000    0.000    0.000    0.000 
#
# Total GULP energy -396574.222306 kJ/mol
# GULP energy per Si atom -12392.944447 kJ/mol
# Density = 1.897949 g / cm^3
# Si number density = 19.022789 Si / 1000 Ang^3
#
#
#
# Elastic Constant Matrix: (Units=GPa)
#
#
# Indices 1 2 3 4 5 6 
#
# 1 125.2319 24.6424 69.9007 0.0000 -1.2031 0.0000
# 2 24.6424 22.8868 31.6241 0.0000 -1.9517 0.0000
# 3 69.9007 31.6241 136.2246 0.0000 3.7903 0.0000
# 4 0.0000 0.0000 0.0000 22.0115 0.0000 -0.0664
# 5 -1.2031 -1.9517 3.7903 0.0000 28.6182 0.0000
# 6 0.0000 0.0000 0.0000 -0.0664 0.0000 24.1706
#
#
#
# Elastic Compliance Matrix: (Units=1/GPa)
#
#
# Indices 1 2 3 4 5 6 
#
# 1 0.011804 -0.006266 -0.004621 0.000000 0.000681 0.000000
# 2 -0.006266 0.068839 -0.012936 0.000000 0.006145 0.000000
# 3 -0.004621 -0.012936 0.012792 0.000000 -0.002771 0.000000
# 4 0.000000 0.000000 0.000000 0.045431 0.000000 0.000125
# 5 0.000681 0.006145 -0.002771 0.000000 0.035757 0.000000
# 6 0.000000 0.000000 0.000000 0.000125 0.000000 0.041373
#
#
# Mechanical properties :
#
#
# Convention : Reuss Voigt Hill
#
# Bulk Modulus (GPa) = 21.83979 59.63086 40.73532
# Shear Modulus (GPa) = 17.92709 25.50513 21.71611
#
# Velocity S-wave (km/s) = 3.07318 3.66562 3.38240
# Velocity P-wave (km/s) = 4.90901 7.02359 6.05926
#
# Compressibility (1/GPa) = 0.04578799
#
# Stress axis : x y z
#
# Youngs Moduli (GPa) = 84.71527 14.52666 78.17111
#
# Poissons Ratio (x) = 0.09102 0.36126
# Poissons Ratio (y) = 0.53082 1.01126
# Poissons Ratio (z) = 0.39151 0.18792
#
# Static dielectric constant tensor:
#      x y z
#    x 3.599260 0.000000 -0.179540 
#    y 0.000000 3.276960 0.000000 
#    z -0.179540 0.000000 3.780680 
# 
# 
# High freq. dielectric constant tensor:
#      x y z
#    x 1.736710 0.000000 -0.011000 
#    y 0.000000 1.709670 0.000000 
#    z -0.011000 0.000000 1.753400 
# 
# From -- ./inp_files/49859.got.cif
#   From: 2010.06.25/outbox.cif.g09.slc.cpg/sg10_25_cif.got.tgz:49859.got - 2010.06.27 22:07:45.
