data_PCOD8064096
_publ_section_title
;
Structure prediction by ZEFSAII (Michael W. Deem and Ramdas Pophale) SiO2 
 PCOD8064096
Probable space group: P 2/M
;
_chemical_formula_sum "Si O2"
_cell_formula_units_Z 32
_cell_length_a 22.515355
_cell_length_b 9.065747
_cell_length_c 27.997345
_cell_angle_alpha 90.000000
_cell_angle_beta 17.963946
_cell_angle_gamma 90.000000
_cell_volume 1762.542597
_symmetry_space_group_name_H-M "P 2/M"
_symmetry_group_IT_number 10
_symmetry_cell_setting 'monoclinic'
loop_
_space_group_symop_operation_xyz
x,y,z
-x,y,-z
-x,-y,-z
x,-y,z
loop_
_atom_site_type_symbol
_atom_site_label
_atom_site_fract_x
_atom_site_fract_y
_atom_site_fract_z
Si Si1 0.064458 0.173224 0.559058
Si Si2 0.409015 0.828288 0.225382
Si Si3 0.119593 0.170332 0.621711
Si Si4 0.835237 0.171017 0.921574
Si Si5 0.424670 0.824208 0.463564
Si Si6 0.177826 0.333527 0.328134
Si Si7 0.820015 0.670723 0.170078
Si Si8 0.858526 0.671981 0.251335
O O1 0.257378 0.209975 0.382510
O O2 0.094117 0.243441 0.589115
O O3 0.879294 0.250080 0.676793
O O4 0.020696 0.000000 0.593606
O O5 0.360149 0.743591 0.213759
O O6 0.410378 0.000000 0.211536
O O7 0.615254 0.776412 0.087288
O O8 0.302909 0.232502 0.510771
O O9 0.926928 0.197504 0.799409
O O10 0.159157 0.000000 0.582143
O O11 0.943084 0.267795 0.878534
O O12 0.854323 0.000000 0.921936
O O13 0.640845 0.769849 0.291157
O O14 0.328067 0.755164 0.584838
O O15 0.416616 0.000000 0.474872
O O16 0.234467 0.500000 0.272062
O O17 0.000000 0.324895 0.500000
O O18 0.766970 0.500000 0.202517
O O19 0.870748 0.702951 0.185939
O O20 0.000000 0.718408 0.000000
O O21 0.836912 0.500000 0.279524
#
# Coordination Sequence:
#
# PCOD8064096 Si02
#       8
#     4   4   4   4   4   4   4   4
#     4   9  16  29  49  69  91 122 160 197 236 288
#     4   9  17  29  48  71  92 121 160 199 239 285
#     4   8  16  31  49  70  96 124 154 194 242 288
#     4   9  18  33  51  72  99 127 160 203 246 290
#     4  10  20  35  56  79 102 131 170 211 250 297
#     4   9  17  29  45  67  95 124 156 196 239 284
#     4  10  22  38  53  74 106 138 168 206 251 299
#     4  10  20  35  55  75  99 136 174 204 245 302
#
# _framework density 18.155588999999999
#
# number of rings (size 3 to 8) (size 9 to 14) (size 15 to 20)
#    0.000    2.750    0.000    2.250    0.000    5.750 
#    0.000    5.000    0.000    3.750    0.000    0.000 
#    0.000    0.000    0.000    0.000    0.000    0.000 
#
# Total GULP energy -396792.069818 kJ/mol
# GULP energy per Si atom -12399.752182 kJ/mol
# Density = 1.811427 g / cm^3
# Si number density = 18.155589 Si / 1000 Ang^3
#
#
#
# Elastic Constant Matrix: (Units=GPa)
#
#
# Indices 1 2 3 4 5 6 
#
# 1 109.4979 38.4528 27.7621 0.0000 7.4131 0.0000
# 2 38.4528 63.9244 27.6439 0.0000 -1.6512 0.0000
# 3 27.7621 27.6439 65.8436 0.0000 -4.9460 0.0000
# 4 0.0000 0.0000 0.0000 22.8430 0.0000 -2.9541
# 5 7.4131 -1.6512 -4.9460 0.0000 21.9282 0.0000
# 6 0.0000 0.0000 0.0000 -2.9541 0.0000 21.3051
#
#
#
# Elastic Compliance Matrix: (Units=1/GPa)
#
#
# Indices 1 2 3 4 5 6 
#
# 1 0.012489 -0.006353 -0.003003 0.000000 -0.005378 0.000000
# 2 -0.006353 0.022349 -0.006527 0.000000 0.002358 0.000000
# 3 -0.003003 -0.006527 0.019565 0.000000 0.004936 0.000000
# 4 0.000000 0.000000 0.000000 0.044576 0.000000 0.006181
# 5 -0.005378 0.002358 0.004936 0.000000 0.048712 0.000000
# 6 0.000000 0.000000 0.000000 0.006181 0.000000 0.047794
#
#
# Mechanical properties :
#
#
# Convention : Reuss Voigt Hill
#
# Bulk Modulus (GPa) = 44.17547 47.44261 45.80904
# Shear Modulus (GPa) = 21.29511 22.90907 22.10209
#
# Velocity S-wave (km/s) = 3.42851 3.55606 3.49287
# Velocity P-wave (km/s) = 6.32909 6.56115 6.44616
#
# Compressibility (1/GPa) = 0.02263700
#
# Stress axis : x y z
#
# Youngs Moduli (GPa) = 80.07092 44.74569 51.11270
#
# Poissons Ratio (x) = 0.28427 0.15347
# Poissons Ratio (y) = 0.50869 0.33361
# Poissons Ratio (z) = 0.24041 0.29206
#
# Static dielectric constant tensor:
#      x y z
#    x 3.543750 0.000000 -0.104700 
#    y 0.000000 3.244810 0.000000 
#    z -0.104700 0.000000 3.270230 
# 
# 
# High freq. dielectric constant tensor:
#      x y z
#    x 1.709720 0.000000 -0.011640 
#    y 0.000000 1.690720 0.000000 
#    z -0.011640 0.000000 1.690590 
# 
# From -- ./inp_files/93602.got.cif
#   From: 2010.06.25/outbox.cif.g09.slc.cpg/sg10_47_cif.got.tgz:93602.got - 2010.06.27 22:07:45.
