data_PCOD8064676
_publ_section_title
;
Structure prediction by ZEFSAII (Michael W. Deem and Ramdas Pophale) SiO2 
 PCOD8064676
Probable space group: P 2/M
;
_chemical_formula_sum "Si O2"
_cell_formula_units_Z 28
_cell_length_a 19.976178
_cell_length_b 8.917793
_cell_length_c 23.957000
_cell_angle_alpha 90.000000
_cell_angle_beta 158.048937
_cell_angle_gamma 90.000000
_cell_volume 1595.358928
_symmetry_space_group_name_H-M "P 2/M"
_symmetry_group_IT_number 10
_symmetry_cell_setting 'monoclinic'
loop_
_space_group_symop_operation_xyz
x,y,z
-x,y,-z
-x,-y,-z
x,-y,z
loop_
_atom_site_type_symbol
_atom_site_label
_atom_site_fract_x
_atom_site_fract_y
_atom_site_fract_z
Si Si1 0.287746 0.821759 0.478001
Si Si2 0.417034 0.670834 0.992024
Si Si3 0.641120 0.175552 0.946758
Si Si4 0.999853 0.173055 0.065819
Si Si5 0.941015 0.329309 0.234232
Si Si6 0.614718 0.823818 0.802638
Si Si7 0.305179 0.676462 0.371594
O O1 0.120209 0.763727 0.385282
O O2 0.466526 0.757340 0.645959
O O3 0.270606 0.758260 0.403008
O O4 0.286167 0.000000 0.475443
O O5 0.484207 0.500000 0.049861
O O6 0.198280 0.678631 0.820889
O O7 0.500000 0.743211 0.000000
O O8 0.483427 0.760655 0.098893
O O9 0.556268 0.213992 0.821015
O O10 0.668284 0.000000 0.976001
O O11 0.837096 0.254543 0.101093
O O12 0.160619 0.270009 0.214907
O O13 0.025479 0.000000 0.103839
O O14 0.000000 0.189918 0.000000
O O15 0.811454 0.241055 0.941985
O O16 0.991039 0.500000 0.258151
O O17 0.624293 0.000000 0.800176
O O18 0.500000 0.722418 0.500000
O O19 0.288057 0.500000 0.367515
#
# Coordination Sequence:
#
# PCOD8064676 Si02
#       7
#     4   4   4   4   4   4   4
#     4  11  21  35  55  76 102 138 177 216 261 311
#     4   8  16  31  51  76 108 140 172 215 263 312
#     4   9  16  29  50  76 103 133 173 215 257 305
#     4  10  20  36  58  80 103 135 177 219 261 311
#     4   9  18  32  50  76 106 134 169 211 258 310
#     4   9  19  33  50  75 105 134 170 218 263 307
#     4  11  24  39  54  76 107 139 174 218 266 314
#
# _framework density 17.550909999999998
#
# number of rings (size 3 to 8) (size 9 to 14) (size 15 to 20)
#    0.857    1.571    0.000    3.000    0.000    4.000 
#    0.000    4.286    0.000    0.857    0.000    6.000 
#    0.000    0.000    0.000    0.000    0.000    0.000 
#
# Total GULP energy -346980.735124 kJ/mol
# GULP energy per Si atom -12392.169112 kJ/mol
# Density = 1.751096 g / cm^3
# Si number density = 17.550910 Si / 1000 Ang^3
#
#
#
# Elastic Constant Matrix: (Units=GPa)
#
#
# Indices 1 2 3 4 5 6 
#
# 1 105.0117 33.7107 38.9425 0.0000 1.3533 0.0000
# 2 33.7107 69.4533 34.3786 0.0000 -0.5352 0.0000
# 3 38.9425 34.3786 106.7460 0.0000 -0.6281 0.0000
# 4 0.0000 0.0000 0.0000 12.2019 0.0000 8.0577
# 5 1.3533 -0.5352 -0.6281 0.0000 21.9227 0.0000
# 6 0.0000 0.0000 0.0000 8.0577 0.0000 22.1505
#
#
#
# Elastic Compliance Matrix: (Units=1/GPa)
#
#
# Indices 1 2 3 4 5 6 
#
# 1 0.012049 -0.004374 -0.002992 0.000000 -0.000936 0.000000
# 2 -0.004374 0.018718 -0.004429 0.000000 0.000600 0.000000
# 3 -0.002992 -0.004429 0.011889 0.000000 0.000417 0.000000
# 4 0.000000 0.000000 0.000000 0.107866 0.000000 -0.039239
# 5 -0.000936 0.000600 0.000417 0.000000 0.045699 0.000000
# 6 0.000000 0.000000 0.000000 -0.039239 0.000000 0.059420
#
#
# Mechanical properties :
#
#
# Convention : Reuss Voigt Hill
#
# Bulk Modulus (GPa) = 52.45394 55.03051 53.74223
# Shear Modulus (GPa) = 17.50781 22.86695 20.18738
#
# Velocity S-wave (km/s) = 3.16182 3.61348 3.39517
# Velocity P-wave (km/s) = 6.57884 6.98802 6.78651
#
# Compressibility (1/GPa) = 0.01906434
#
# Stress axis : x y z
#
# Youngs Moduli (GPa) = 82.99677 53.42383 84.11445
#
# Poissons Ratio (x) = 0.23368 0.25170
# Poissons Ratio (y) = 0.36304 0.37255
# Poissons Ratio (z) = 0.24835 0.23662
#
# Static dielectric constant tensor:
#      x y z
#    x 3.270090 0.000000 0.082380 
#    y 0.000000 3.175160 0.000000 
#    z 0.082380 0.000000 3.247440 
# 
# 
# High freq. dielectric constant tensor:
#      x y z
#    x 1.674670 0.000000 0.003340 
#    y 0.000000 1.673160 0.000000 
#    z 0.003340 0.000000 1.662590 
# 
# From -- ./inp_files/90410.got.cif
#   From: 2010.06.25/outbox.cif.g09.slc.cpg/sg10_46_cif.got.tgz:90410.got - 2010.06.27 22:07:45.
