data_PCOD8064559
_publ_section_title
;
Structure prediction by ZEFSAII (Michael W. Deem and Ramdas Pophale) SiO2 
 PCOD8064559
Probable space group: P 2/M
;
_chemical_formula_sum "Si O2"
_cell_formula_units_Z 28
_cell_length_a 9.750712
_cell_length_b 7.791860
_cell_length_c 28.751849
_cell_angle_alpha 90.000000
_cell_angle_beta 139.486732
_cell_angle_gamma 90.000000
_cell_volume 1419.075131
_symmetry_space_group_name_H-M "P 2/M"
_symmetry_group_IT_number 10
_symmetry_cell_setting 'monoclinic'
loop_
_space_group_symop_operation_xyz
x,y,z
-x,y,-z
-x,-y,-z
x,-y,z
loop_
_atom_site_type_symbol
_atom_site_label
_atom_site_fract_x
_atom_site_fract_y
_atom_site_fract_z
Si Si1 0.799285 0.807910 0.176536
Si Si2 0.520676 0.803696 0.826395
Si Si3 0.434623 0.200896 0.697899
Si Si4 0.457529 0.694416 0.538718
Si Si5 0.732283 0.302832 0.694095
Si Si6 0.246997 0.500000 0.068479
Si Si7 0.572034 0.500000 0.071448
Si Si8 0.987640 0.807448 0.551475
O O1 0.694173 0.774624 0.199844
O O2 0.712609 0.669374 0.117332
O O3 0.050131 0.799600 0.246868
O O4 0.741948 0.000000 0.143899
O O5 0.479380 0.756285 0.762643
O O6 0.697531 0.673527 0.889755
O O7 0.601874 0.000000 0.852439
O O8 0.608300 0.291024 0.710698
O O9 0.202267 0.274845 0.626863
O O10 0.440384 0.000000 0.688200
O O11 0.500000 0.787737 0.500000
O O12 0.536504 0.500000 0.555633
O O13 0.589962 0.778668 0.615515
O O14 0.208934 0.694193 0.483867
O O15 0.786595 0.500000 0.698436
O O16 0.361445 0.500000 0.048155
O O17 0.000000 0.500000 0.000000
O O18 0.500000 0.500000 0.000000
O O19 0.000000 0.808095 0.500000
O O20 0.955269 0.000000 0.562515
#
# Coordination Sequence:
#
# PCOD8064559 Si02
#       8
#     4   4   4   4   4   2   2   4
#     4  10  21  40  63  89 124 162 197 244 297 346
#     4   9  21  40  61  89 123 157 196 238 291 352
#     4  10  21  37  56  83 115 152 198 247 299 358
#     4  10  23  39  52  78 114 153 201 253 302 353
#     4  11  22  36  56  83 117 156 204 253 299 353
#     4  10  22  40  64  94 122 154 192 234 288 346
#     4  10  22  42  64  94 126 156 198 239 280 358
#     4  10  20  36  55  77 110 148 194 249 298 344
#
# _framework density 19.731161
#
# number of rings (size 3 to 8) (size 9 to 14) (size 15 to 20)
#    0.000    2.000    2.143    0.429    3.000    3.429 
#    0.000    0.000    0.000    0.000    0.000    0.000 
#    0.000    0.000    0.000    0.000    0.000    0.000 
#
# Total GULP energy -347194.205604 kJ/mol
# GULP energy per Si atom -12399.793057 kJ/mol
# Density = 1.968625 g / cm^3
# Si number density = 19.731161 Si / 1000 Ang^3
#
#
#
# Elastic Constant Matrix: (Units=GPa)
#
#
# Indices 1 2 3 4 5 6 
#
# 1 109.5941 35.1549 83.4515 0.0000 -1.5698 0.0000
# 2 35.1549 85.7859 55.2654 0.0000 -4.1945 0.0000
# 3 83.4515 55.2654 155.1281 0.0000 2.8629 0.0000
# 4 0.0000 0.0000 0.0000 22.4283 0.0000 6.3017
# 5 -1.5698 -4.1945 2.8629 0.0000 42.4716 0.0000
# 6 0.0000 0.0000 0.0000 6.3017 0.0000 25.5977
#
#
#
# Elastic Compliance Matrix: (Units=1/GPa)
#
#
# Indices 1 2 3 4 5 6 
#
# 1 0.015604 -0.001202 -0.007985 0.000000 0.000996 0.000000
# 2 -0.001202 0.015370 -0.004862 0.000000 0.001801 0.000000
# 3 -0.007985 -0.004862 0.012504 0.000000 -0.001618 0.000000
# 4 0.000000 0.000000 0.000000 0.047900 0.000000 -0.011792
# 5 0.000996 0.001801 -0.001618 0.000000 0.023869 0.000000
# 6 0.000000 0.000000 0.000000 -0.011792 0.000000 0.041969
#
#
# Mechanical properties :
#
#
# Convention : Reuss Voigt Hill
#
# Bulk Modulus (GPa) = 65.01834 77.58354 71.30094
# Shear Modulus (GPa) = 26.25499 29.87528 28.06513
#
# Velocity S-wave (km/s) = 3.65175 3.89539 3.77553
# Velocity P-wave (km/s) = 7.12769 7.72255 7.43107
#
# Compressibility (1/GPa) = 0.01538028
#
# Stress axis : x y z
#
# Youngs Moduli (GPa) = 64.08476 65.06193 79.97669
#
# Poissons Ratio (x) = 0.07821 0.63858
# Poissons Ratio (y) = 0.07703 0.38887
# Poissons Ratio (z) = 0.51169 0.31635
#
# Static dielectric constant tensor:
#      x y z
#    x 3.518440 0.000000 -0.090160 
#    y 0.000000 3.658930 0.000000 
#    z -0.090160 0.000000 3.479210 
# 
# 
# High freq. dielectric constant tensor:
#      x y z
#    x 1.773080 0.000000 -0.000060 
#    y 0.000000 1.769710 0.000000 
#    z -0.000060 0.000000 1.758520 
# 
# From -- ./inp_files/37189.got.cif
#   From: 2010.06.25/outbox.cif.g09.slc.cpg/sg10_19_cif.got.tgz:37189.got - 2010.06.27 22:07:45.
