data_PCOD8064521
_publ_section_title
;
Structure prediction by ZEFSAII (Michael W. Deem and Ramdas Pophale) SiO2 
 PCOD8064521
Probable space group: P 2/M
;
_chemical_formula_sum "Si O2"
_cell_formula_units_Z 28
_cell_length_a 14.352967
_cell_length_b 12.300134
_cell_length_c 7.951495
_cell_angle_alpha 90.000000
_cell_angle_beta 114.705719
_cell_angle_gamma 90.000000
_cell_volume 1275.290777
_symmetry_space_group_name_H-M "P 2/M"
_symmetry_group_IT_number 10
_symmetry_cell_setting 'monoclinic'
loop_
_space_group_symop_operation_xyz
x,y,z
-x,y,-z
-x,-y,-z
x,-y,z
loop_
_atom_site_type_symbol
_atom_site_label
_atom_site_fract_x
_atom_site_fract_y
_atom_site_fract_z
Si Si1 0.722758 0.316183 0.828142
Si Si2 0.972767 0.876326 0.795071
Si Si3 0.848588 0.500000 0.791490
Si Si4 0.779987 0.879988 0.441461
Si Si5 0.485652 0.377160 0.179716
Si Si6 0.868261 0.271134 0.236577
Si Si7 0.405791 0.805597 0.521714
Si Si8 0.946414 0.500000 0.231248
O O1 0.777630 0.393618 0.732066
O O2 0.635048 0.378318 0.867928
O O3 0.673738 0.220499 0.685317
O O4 0.804214 0.265103 0.017120
O O5 0.852240 0.866282 0.660973
O O6 0.031848 0.804286 0.703077
O O7 0.011905 0.000000 0.811025
O O8 0.000000 0.829634 0.000000
O O9 0.929741 0.500000 0.698609
O O10 0.901570 0.500000 0.012578
O O11 0.799187 0.779190 0.331896
O O12 0.659122 0.878708 0.398621
O O13 0.800749 0.000000 0.376418
O O14 0.528409 0.500000 0.229352
O O15 0.549537 0.302200 0.355278
O O16 0.500000 0.334637 0.000000
O O17 0.906568 0.394364 0.303778
O O18 0.500000 0.868623 0.500000
#
# Coordination Sequence:
#
# PCOD8064521 Si02
#       8
#     4   4   2   4   4   4   4   2
#     4  10  20  35  61  88 126 167 210 252 303 373
#     4  10  22  40  65  92 120 164 217 260 302 363
#     4   9  18  34  53  86 124 172 206 246 295 357
#     4  11  24  44  66  90 124 166 208 261 318 368
#     4  10  20  36  59  88 127 169 210 254 305 372
#     4  11  22  39  62  92 130 163 205 249 316 376
#     4  10  23  39  62  93 120 158 213 264 312 364
#     4   9  22  34  56  89 128 167 204 244 307 365
#
# _framework density 21.955776
#
# number of rings (size 3 to 8) (size 9 to 14) (size 15 to 20)
#    0.000    1.857    0.714    2.571    7.000    2.286 
#    1.286    2.143    0.000    9.000    0.000    0.000 
#    0.000    0.000    0.000    0.000    0.000    0.000 
#
# Total GULP energy -347102.793249 kJ/mol
# GULP energy per Si atom -12396.528330 kJ/mol
# Density = 2.190580 g / cm^3
# Si number density = 21.955776 Si / 1000 Ang^3
#
#
#
# Elastic Constant Matrix: (Units=GPa)
#
#
# Indices 1 2 3 4 5 6 
#
# 1 151.5059 56.6665 21.9013 0.0000 1.7262 0.0000
# 2 56.6665 101.1809 24.0853 0.0000 -5.5623 0.0000
# 3 21.9013 24.0853 62.2939 0.0000 2.7087 0.0000
# 4 0.0000 0.0000 0.0000 15.9302 0.0000 0.3410
# 5 1.7262 -5.5623 2.7087 0.0000 32.0608 0.0000
# 6 0.0000 0.0000 0.0000 0.3410 0.0000 29.0704
#
#
#
# Elastic Compliance Matrix: (Units=1/GPa)
#
#
# Indices 1 2 3 4 5 6 
#
# 1 0.008478 -0.004530 -0.001180 0.000000 -0.001143 0.000000
# 2 -0.004530 0.013470 -0.003741 0.000000 0.002897 0.000000
# 3 -0.001180 -0.003741 0.018006 0.000000 -0.002107 0.000000
# 4 0.000000 0.000000 0.000000 0.062790 0.000000 -0.000737
# 5 -0.001143 0.002897 -0.002107 0.000000 0.031933 0.000000
# 6 0.000000 0.000000 0.000000 -0.000737 0.000000 0.034408
#
#
# Mechanical properties :
#
#
# Convention : Reuss Voigt Hill
#
# Bulk Modulus (GPa) = 47.50133 57.80968 52.65551
# Shear Modulus (GPa) = 25.64037 29.56746 27.60391
#
# Velocity S-wave (km/s) = 3.42104 3.67370 3.54962
# Velocity P-wave (km/s) = 6.10628 6.66198 6.39017
#
# Compressibility (1/GPa) = 0.02105204
#
# Stress axis : x y z
#
# Youngs Moduli (GPa) = 117.94686 74.23686 55.53767
#
# Poissons Ratio (x) = 0.33632 0.06551
# Poissons Ratio (y) = 0.53434 0.20779
# Poissons Ratio (z) = 0.13912 0.27775
#
# Static dielectric constant tensor:
#      x y z
#    x 4.304160 0.000000 0.098000 
#    y 0.000000 3.785070 0.000000 
#    z 0.098000 0.000000 3.725540 
# 
# 
# High freq. dielectric constant tensor:
#      x y z
#    x 1.873420 0.000000 0.007440 
#    y 0.000000 1.849910 0.000000 
#    z 0.007440 0.000000 1.852110 
# 
# From -- ./inp_files/28722.got.cif
#   From: 2010.06.25/outbox.cif.g09.slc.cpg/sg10_15_cif.got.tgz:28722.got - 2010.06.27 22:07:45.
