data_PCOD8064514
_publ_section_title
;
Structure prediction by ZEFSAII (Michael W. Deem and Ramdas Pophale) SiO2 
 PCOD8064514
Probable space group: P 2/M
;
_chemical_formula_sum "Si O2"
_cell_formula_units_Z 32
_cell_length_a 14.889700
_cell_length_b 8.702529
_cell_length_c 22.300458
_cell_angle_alpha 90.000000
_cell_angle_beta 31.614048
_cell_angle_gamma 90.000000
_cell_volume 1514.739154
_symmetry_space_group_name_H-M "P 2/M"
_symmetry_group_IT_number 10
_symmetry_cell_setting 'monoclinic'
loop_
_space_group_symop_operation_xyz
x,y,z
-x,y,-z
-x,-y,-z
x,-y,z
loop_
_atom_site_type_symbol
_atom_site_label
_atom_site_fract_x
_atom_site_fract_y
_atom_site_fract_z
Si Si1 0.133504 0.180009 0.280816
Si Si2 0.834274 0.319160 0.131193
Si Si3 0.084578 0.674432 0.780252
Si Si4 0.553490 0.319597 0.836274
Si Si5 0.760971 0.319376 0.510816
Si Si6 0.746822 0.326344 0.907035
Si Si7 0.509397 0.818714 0.252423
Si Si8 0.341579 0.821563 0.549641
O O1 0.261752 0.244487 0.258111
O O2 0.205580 0.213256 0.173672
O O3 0.951661 0.257918 0.394640
O O4 0.111698 0.000000 0.301725
O O5 0.802370 0.500000 0.142176
O O6 0.868846 0.270398 0.179865
O O7 0.667697 0.230871 0.203610
O O8 0.000000 0.266075 0.000000
O O9 0.148629 0.500000 0.733035
O O10 0.169334 0.786942 0.683846
O O11 0.881285 0.685961 0.885407
O O12 0.572736 0.500000 0.814851
O O13 0.464437 0.246471 0.828945
O O14 0.437138 0.283474 0.960735
O O15 0.766306 0.500000 0.516516
O O16 0.669633 0.245332 0.620145
O O17 0.649444 0.277134 0.515821
O O18 0.745025 0.500000 0.881926
O O19 0.499931 0.000000 0.255637
O O20 0.500000 0.770183 0.500000
O O21 0.347430 0.000000 0.528817
#
# Coordination Sequence:
#
# PCOD8064514 Si02
#       8
#     4   4   4   4   4   4   4   4
#     4  12  25  42  66  99 134 167 210 269 333 387
#     4  10  21  40  65  94 129 175 224 267 313 380
#     4  10  20  35  60  91 123 164 213 258 309 374
#     4  11  24  44  69  95 127 172 221 266 318 388
#     4  12  25  44  68  92 125 171 221 266 318 388
#     4  10  21  40  66  97 131 170 215 265 317 382
#     4  12  26  44  65  95 133 171 216 273 333 385
#     4  11  23  38  58  89 126 163 204 258 321 378
#
# _framework density 21.125748999999999
#
# number of rings (size 3 to 8) (size 9 to 14) (size 15 to 20)
#    0.000    1.000    1.250    6.000    0.000    8.750 
#    0.000    3.750    0.000    0.000    0.000    0.000 
#    0.000    0.000    0.000    0.000    0.000    0.000 
#
# Total GULP energy -397020.636740 kJ/mol
# GULP energy per Si atom -12406.894898 kJ/mol
# Density = 2.107767 g / cm^3
# Si number density = 21.125749 Si / 1000 Ang^3
#
#
#
# Elastic Constant Matrix: (Units=GPa)
#
#
# Indices 1 2 3 4 5 6 
#
# 1 82.9981 34.7171 12.5118 0.0000 -6.2180 0.0000
# 2 34.7171 141.5650 49.7669 0.0000 -5.6273 0.0000
# 3 12.5118 49.7669 95.4140 0.0000 -4.3628 0.0000
# 4 0.0000 0.0000 0.0000 10.8951 0.0000 10.4930
# 5 -6.2180 -5.6273 -4.3628 0.0000 38.2888 0.0000
# 6 0.0000 0.0000 0.0000 10.4930 0.0000 22.5258
#
#
#
# Elastic Compliance Matrix: (Units=1/GPa)
#
#
# Indices 1 2 3 4 5 6 
#
# 1 0.013537 -0.003251 -0.000001 0.000000 0.001721 0.000000
# 2 -0.003251 0.009453 -0.004488 0.000000 0.000350 0.000000
# 3 -0.000001 -0.004488 0.012859 0.000000 0.000805 0.000000
# 4 0.000000 0.000000 0.000000 0.166468 0.000000 -0.077544
# 5 0.001721 0.000350 0.000805 0.000000 0.026540 0.000000
# 6 0.000000 0.000000 0.000000 -0.077544 0.000000 0.080515
#
#
# Mechanical properties :
#
#
# Convention : Reuss Voigt Hill
#
# Bulk Modulus (GPa) = 49.09511 57.10763 53.10137
# Shear Modulus (GPa) = 15.07650 29.20734 22.14192
#
# Velocity S-wave (km/s) = 2.67433 3.72230 3.24095
# Velocity P-wave (km/s) = 5.72940 6.75018 6.26063
#
# Compressibility (1/GPa) = 0.02036863
#
# Stress axis : x y z
#
# Youngs Moduli (GPa) = 73.86923 105.78699 77.76909
#
# Poissons Ratio (x) = 0.34394 0.00005
# Poissons Ratio (y) = 0.24017 0.34905
# Poissons Ratio (z) = 0.00005 0.47480
#
# Static dielectric constant tensor:
#      x y z
#    x 3.951060 0.000000 -0.077440 
#    y 0.000000 3.738630 0.000000 
#    z -0.077440 0.000000 3.891680 
# 
# 
# High freq. dielectric constant tensor:
#      x y z
#    x 1.839520 0.000000 -0.006190 
#    y 0.000000 1.826300 0.000000 
#    z -0.006190 0.000000 1.834970 
# 
# From -- ./inp_files/89521.got.cif
#   From: 2010.06.25/outbox.cif.g09.slc.cpg/sg10_45_cif.got.tgz:89521.got - 2010.06.27 22:07:45.
