data_PCOD8064796
_publ_section_title
;
Structure prediction by ZEFSAII (Michael W. Deem and Ramdas Pophale) SiO2 
 PCOD8064796
Probable space group: P 2/M
;
_chemical_formula_sum "Si O2"
_cell_formula_units_Z 24
_cell_length_a 32.256346
_cell_length_b 8.973548
_cell_length_c 9.332698
_cell_angle_alpha 90.000000
_cell_angle_beta 152.514681
_cell_angle_gamma 90.000000
_cell_volume 1246.747017
_symmetry_space_group_name_H-M "P 2/M"
_symmetry_group_IT_number 10
_symmetry_cell_setting 'monoclinic'
loop_
_space_group_symop_operation_xyz
x,y,z
-x,y,-z
-x,-y,-z
x,-y,z
loop_
_atom_site_type_symbol
_atom_site_label
_atom_site_fract_x
_atom_site_fract_y
_atom_site_fract_z
Si Si1 0.984207 0.326143 0.115948
Si Si2 0.340468 0.172496 0.359329
Si Si3 0.134268 0.169838 0.751782
Si Si4 0.831401 0.174106 0.818161
Si Si5 0.479358 0.673477 0.597685
Si Si6 0.351550 0.325367 0.688928
O O1 0.966022 0.500000 0.081478
O O2 0.071135 0.281840 0.473456
O O3 0.000000 0.283988 0.000000
O O4 0.897201 0.236661 0.899785
O O5 0.393517 0.232590 0.384922
O O6 0.372790 0.261917 0.597561
O O7 0.361415 0.000000 0.450878
O O8 0.235253 0.197028 0.007385
O O9 0.103584 0.000000 0.628460
O O10 0.126750 0.206012 0.897281
O O11 0.735532 0.251898 0.506934
O O12 0.816525 0.000000 0.748754
O O13 0.500000 0.722572 0.500000
O O14 0.454714 0.500000 0.531967
O O15 0.564665 0.714073 0.955083
O O16 0.334742 0.500000 0.624680
#
# Coordination Sequence:
#
# PCOD8064796 Si02
#       6
#     4   4   4   4   4   4
#     4  11  24  38  54  81 114 147 183 222 268 325
#     4  10  21  37  58  84 112 142 182 230 274 322
#     4   9  20  38  58  82 109 140 181 227 274 323
#     4  10  21  38  60  84 110 141 181 229 276 323
#     4  10  22  38  55  79 113 150 185 225 274 325
#     4  10  20  36  59  84 110 143 184 227 272 324
#
# _framework density 19.250097
#
# number of rings (size 3 to 8) (size 9 to 14) (size 15 to 20)
#    0.000    2.000    0.000    4.000    0.000   12.333 
#    0.000    5.000    0.000    0.000    0.000    0.000 
#    0.000    0.000    0.000    0.000    0.000    0.000 
#
# Total GULP energy -297738.730385 kJ/mol
# GULP energy per Si atom -12405.780433 kJ/mol
# Density = 1.920628 g / cm^3
# Si number density = 19.250097 Si / 1000 Ang^3
#
#
#
# Elastic Constant Matrix: (Units=GPa)
#
#
# Indices 1 2 3 4 5 6 
#
# 1 133.2932 49.8781 36.2334 0.0000 21.4494 0.0000
# 2 49.8781 79.1784 25.1647 0.0000 13.0652 0.0000
# 3 36.2334 25.1647 33.3356 0.0000 15.5034 0.0000
# 4 0.0000 0.0000 0.0000 24.0462 0.0000 10.6585
# 5 21.4494 13.0652 15.5034 0.0000 19.9157 0.0000
# 6 0.0000 0.0000 0.0000 10.6585 0.0000 33.5789
#
#
#
# Elastic Compliance Matrix: (Units=1/GPa)
#
#
# Indices 1 2 3 4 5 6 
#
# 1 0.011882 -0.004361 -0.007841 0.000000 -0.003833 0.000000
# 2 -0.004361 0.018257 -0.008866 0.000000 -0.000379 0.000000
# 3 -0.007841 -0.008866 0.060475 0.000000 -0.032816 0.000000
# 4 0.000000 0.000000 0.000000 0.048396 0.000000 -0.015362
# 5 -0.003833 -0.000379 -0.032816 0.000000 0.080134 0.000000
# 6 0.000000 0.000000 0.000000 -0.015362 0.000000 0.034657
#
#
# Mechanical properties :
#
#
# Convention : Reuss Voigt Hill
#
# Bulk Modulus (GPa) = 20.62750 52.03994 36.33372
# Shear Modulus (GPa) = 16.02079 24.47690 20.24884
#
# Velocity S-wave (km/s) = 2.88799 3.56971 3.24679
# Velocity P-wave (km/s) = 4.67541 6.63948 5.74205
#
# Compressibility (1/GPa) = 0.04847898
#
# Stress axis : x y z
#
# Youngs Moduli (GPa) = 84.15989 54.77321 16.53583
#
# Poissons Ratio (x) = 0.23885 0.12965
# Poissons Ratio (y) = 0.36700 0.14661
# Poissons Ratio (z) = 0.65986 0.48563
#
# Static dielectric constant tensor:
#      x y z
#    x 3.627860 0.000000 0.082650 
#    y 0.000000 3.556620 0.000000 
#    z 0.082650 0.000000 3.431120 
# 
# 
# High freq. dielectric constant tensor:
#      x y z
#    x 1.754680 0.000000 0.011230 
#    y 0.000000 1.757820 0.000000 
#    z 0.011230 0.000000 1.748840 
# 
# From -- ./inp_files/27101.got.cif
#   From: 2010.06.25/outbox.cif.g09.slc.cpg/sg10_14_cif.got.tgz:27101.got - 2010.06.27 22:07:45.
