data_PCOD8064348
_publ_section_title
;
Structure prediction by ZEFSAII (Michael W. Deem and Ramdas Pophale) SiO2 
 PCOD8064348
Probable space group: P 2/M
;
_chemical_formula_sum "Si O2"
_cell_formula_units_Z 28
_cell_length_a 17.087894
_cell_length_b 9.448547
_cell_length_c 10.911269
_cell_angle_alpha 90.000000
_cell_angle_beta 52.702273
_cell_angle_gamma 90.000000
_cell_volume 1401.417906
_symmetry_space_group_name_H-M "P 2/M"
_symmetry_group_IT_number 10
_symmetry_cell_setting 'monoclinic'
loop_
_space_group_symop_operation_xyz
x,y,z
-x,y,-z
-x,-y,-z
x,-y,z
loop_
_atom_site_type_symbol
_atom_site_label
_atom_site_fract_x
_atom_site_fract_y
_atom_site_fract_z
Si Si1 0.258873 0.162806 0.213927
Si Si2 0.597616 0.840910 0.348956
Si Si3 0.548771 0.841778 0.116387
Si Si4 0.047167 0.834637 0.324353
Si Si5 0.260384 0.341297 0.649315
Si Si6 0.357269 0.339260 0.302913
Si Si7 0.038245 0.333192 0.827817
O O1 0.163531 0.195426 0.222925
O O2 0.263625 0.261828 0.329307
O O3 0.257386 0.000000 0.257395
O O4 0.357066 0.205522 0.049186
O O5 0.500000 0.770431 0.500000
O O6 0.586632 0.837579 0.216510
O O7 0.696747 0.756496 0.284846
O O8 0.609667 0.000000 0.389469
O O9 0.459248 0.737673 0.173768
O O10 0.513125 0.000000 0.115449
O O11 0.000000 0.785858 0.500000
O O12 0.011802 0.748699 0.238349
O O13 0.023430 0.000000 0.324902
O O14 0.253336 0.500000 0.708101
O O15 0.337490 0.331903 0.465555
O O16 0.152563 0.290688 0.712423
O O17 0.363988 0.500000 0.250044
O O18 0.020327 0.500000 0.824204
O O19 0.000000 0.287530 0.000000
#
# Coordination Sequence:
#
# PCOD8064348 Si02
#       7
#     4   4   4   4   4   4   4
#     4  10  22  38  58  82 114 150 185 232 288 340
#     4  10  20  35  57  84 111 146 190 229 273 338
#     4  10  21  37  55  80 115 150 185 229 283 337
#     4  10  22  41  64  91 119 152 200 251 298 351
#     4  10  22  38  57  82 115 151 187 231 284 338
#     4  11  22  36  56  84 114 148 191 232 275 337
#     4  10  23  42  62  88 121 157 198 245 299 356
#
# _framework density 19.979763999999999
#
# number of rings (size 3 to 8) (size 9 to 14) (size 15 to 20)
#    0.000    1.857    1.429    1.714    2.000    5.429 
#    0.000    0.000    0.000    0.000    0.000    0.000 
#    0.000    0.000    0.000    0.000    0.000    0.000 
#
# Total GULP energy -347136.179082 kJ/mol
# GULP energy per Si atom -12397.720682 kJ/mol
# Density = 1.993429 g / cm^3
# Si number density = 19.979764 Si / 1000 Ang^3
#
#
#
# Elastic Constant Matrix: (Units=GPa)
#
#
# Indices 1 2 3 4 5 6 
#
# 1 150.7350 77.1670 45.5857 0.0000 -2.2869 0.0000
# 2 77.1670 88.4255 39.5966 0.0000 -3.5524 0.0000
# 3 45.5857 39.5966 82.1692 0.0000 2.2412 0.0000
# 4 0.0000 0.0000 0.0000 47.5907 0.0000 16.6749
# 5 -2.2869 -3.5524 2.2412 0.0000 34.6092 0.0000
# 6 0.0000 0.0000 0.0000 16.6749 0.0000 43.2978
#
#
#
# Elastic Compliance Matrix: (Units=1/GPa)
#
#
# Indices 1 2 3 4 5 6 
#
# 1 0.012269 -0.009770 -0.002097 0.000000 -0.000056 0.000000
# 2 -0.009770 0.022332 -0.005395 0.000000 0.001996 0.000000
# 3 -0.002097 -0.005395 0.015980 0.000000 -0.001727 0.000000
# 4 0.000000 0.000000 0.000000 0.024290 0.000000 -0.009355
# 5 -0.000056 0.001996 -0.001727 0.000000 0.029207 0.000000
# 6 0.000000 0.000000 0.000000 -0.009355 0.000000 0.026699
#
#
# Mechanical properties :
#
#
# Convention : Reuss Voigt Hill
#
# Bulk Modulus (GPa) = 62.28266 71.78091 67.03178
# Shear Modulus (GPa) = 29.29892 35.69824 32.49858
#
# Velocity S-wave (km/s) = 3.83355 4.23155 4.03746
# Velocity P-wave (km/s) = 7.12989 7.73818 7.44026
#
# Compressibility (1/GPa) = 0.01605583
#
# Stress axis : x y z
#
# Youngs Moduli (GPa) = 81.50410 44.77951 62.57639
#
# Poissons Ratio (x) = 0.43752 0.13122
# Poissons Ratio (y) = 0.79633 0.33763
# Poissons Ratio (z) = 0.17091 0.24160
#
# Static dielectric constant tensor:
#      x y z
#    x 3.690440 0.000000 0.081440 
#    y 0.000000 3.680650 0.000000 
#    z 0.081440 0.000000 4.091570 
# 
# 
# High freq. dielectric constant tensor:
#      x y z
#    x 1.790780 0.000000 0.000070 
#    y 0.000000 1.769780 0.000000 
#    z 0.000070 0.000000 1.783570 
# 
# From -- ./inp_files/49570.got.cif
#   From: 2010.06.25/outbox.cif.g09.slc.cpg/sg10_25_cif.got.tgz:49570.got - 2010.06.27 22:07:45.
