data_PCOD8064760
_publ_section_title
;
Structure prediction by ZEFSAII (Michael W. Deem and Ramdas Pophale) SiO2 
 PCOD8064760
Probable space group: P 2/M
;
_chemical_formula_sum "Si O2"
_cell_formula_units_Z 28
_cell_length_a 20.894212
_cell_length_b 8.848918
_cell_length_c 14.441359
_cell_angle_alpha 90.000000
_cell_angle_beta 29.070651
_cell_angle_gamma 90.000000
_cell_volume 1297.359008
_symmetry_space_group_name_H-M "P 2/M"
_symmetry_group_IT_number 10
_symmetry_cell_setting 'monoclinic'
loop_
_space_group_symop_operation_xyz
x,y,z
-x,y,-z
-x,-y,-z
x,-y,z
loop_
_atom_site_type_symbol
_atom_site_label
_atom_site_fract_x
_atom_site_fract_y
_atom_site_fract_z
Si Si1 0.096770 0.678962 0.960662
Si Si2 0.933009 0.824119 0.813105
Si Si3 0.752854 0.674031 0.909849
Si Si4 0.359438 0.832758 0.223888
Si Si5 0.615094 0.821181 0.424719
Si Si6 0.486492 0.173135 0.248811
Si Si7 0.129184 0.671390 0.432140
O O1 0.108285 0.500000 0.945944
O O2 0.029639 0.735807 0.140581
O O3 0.243592 0.746519 0.771950
O O4 0.000000 0.733611 0.000000
O O5 0.036312 0.789140 0.601430
O O6 0.792382 0.768861 0.951130
O O7 0.928057 0.000000 0.841829
O O8 0.745348 0.500000 0.947179
O O9 0.862199 0.697396 0.689899
O O10 0.610747 0.729988 0.057192
O O11 0.371477 0.807214 0.318908
O O12 0.274185 0.698651 0.289274
O O13 0.297416 0.000000 0.283777
O O14 0.500000 0.825179 0.000000
O O15 0.500000 0.766773 0.500000
O O16 0.569304 0.767719 0.583731
O O17 0.635343 0.000000 0.391836
O O18 0.533023 0.000000 0.197515
O O19 0.084267 0.500000 0.510313
#
# Coordination Sequence:
#
# PCOD8064760 Si02
#       7
#     4   4   4   4   4   4   4
#     4  11  26  47  69  97 132 170 215 271 331 393
#     4  12  26  43  67  92 122 166 213 262 317 378
#     4  11  23  40  63  94 131 168 207 257 317 378
#     4  10  20  36  58  87 124 166 211 258 307 370
#     4  10  22  41  66  97 130 168 217 270 323 383
#     4  10  21  37  61  92 127 165 211 260 311 373
#     4  11  24  40  61  91 129 168 210 259 314 378
#
# _framework density 21.582308000000001
#
# number of rings (size 3 to 8) (size 9 to 14) (size 15 to 20)
#    0.000    1.286    1.429    3.857    2.000    7.429 
#    0.000    0.000    0.000    0.000    0.000    0.000 
#    0.000    0.000    0.000    0.000    0.000    0.000 
#
# Total GULP energy -347232.259214 kJ/mol
# GULP energy per Si atom -12401.152115 kJ/mol
# Density = 2.153319 g / cm^3
# Si number density = 21.582308 Si / 1000 Ang^3
#
#
#
# Elastic Constant Matrix: (Units=GPa)
#
#
# Indices 1 2 3 4 5 6 
#
# 1 123.5699 35.0848 19.7470 0.0000 8.4586 0.0000
# 2 35.0848 72.7830 26.7767 0.0000 -1.7062 0.0000
# 3 19.7470 26.7767 65.1739 0.0000 4.0321 0.0000
# 4 0.0000 0.0000 0.0000 35.2627 0.0000 2.4353
# 5 8.4586 -1.7062 4.0321 0.0000 36.1783 0.0000
# 6 0.0000 0.0000 0.0000 2.4353 0.0000 19.5994
#
#
#
# Elastic Compliance Matrix: (Units=1/GPa)
#
#
# Indices 1 2 3 4 5 6 
#
# 1 0.009644 -0.004338 -0.000994 0.000000 -0.002349 0.000000
# 2 -0.004338 0.018220 -0.006331 0.000000 0.002579 0.000000
# 3 -0.000994 -0.006331 0.018377 0.000000 -0.002114 0.000000
# 4 0.000000 0.000000 0.000000 0.028604 0.000000 -0.003554
# 5 -0.002349 0.002579 -0.002114 0.000000 0.028547 0.000000
# 6 0.000000 0.000000 0.000000 -0.003554 0.000000 0.051464
#
#
# Mechanical properties :
#
#
# Convention : Reuss Voigt Hill
#
# Bulk Modulus (GPa) = 43.64135 47.19375 45.41755
# Shear Modulus (GPa) = 26.90768 30.20264 28.55516
#
# Velocity S-wave (km/s) = 3.53476 3.74494 3.64137
# Velocity P-wave (km/s) = 6.07653 6.37289 6.22647
#
# Compressibility (1/GPa) = 0.02291405
#
# Stress axis : x y z
#
# Youngs Moduli (GPa) = 103.69198 54.88408 54.41662
#
# Poissons Ratio (x) = 0.23809 0.05411
# Poissons Ratio (y) = 0.44982 0.34451
# Poissons Ratio (z) = 0.10311 0.34747
#
# Static dielectric constant tensor:
#      x y z
#    x 4.338040 0.000000 0.039270 
#    y 0.000000 3.785290 0.000000 
#    z 0.039270 0.000000 3.813790 
# 
# 
# High freq. dielectric constant tensor:
#      x y z
#    x 1.865610 0.000000 0.002390 
#    y 0.000000 1.839310 0.000000 
#    z 0.002390 0.000000 1.847330 
# 
# From -- ./inp_files/70191.got.cif
#   From: 2010.06.25/outbox.cif.g09.slc.cpg/sg10_36_cif.got.tgz:70191.got - 2010.06.27 22:07:45.
