data_PCOD8064552
_publ_section_title
;
Structure prediction by ZEFSAII (Michael W. Deem and Ramdas Pophale) SiO2 
 PCOD8064552
Probable space group: P 2/M
;
_chemical_formula_sum "Si O2"
_cell_formula_units_Z 28
_cell_length_a 18.701261
_cell_length_b 14.411763
_cell_length_c 9.706940
_cell_angle_alpha 90.000000
_cell_angle_beta 143.187157
_cell_angle_gamma 90.000000
_cell_volume 1567.632929
_symmetry_space_group_name_H-M "P 2/M"
_symmetry_group_IT_number 10
_symmetry_cell_setting 'monoclinic'
loop_
_space_group_symop_operation_xyz
x,y,z
-x,y,-z
-x,-y,-z
x,-y,z
loop_
_atom_site_type_symbol
_atom_site_label
_atom_site_fract_x
_atom_site_fract_y
_atom_site_fract_z
Si Si1 0.391153 0.710117 0.624181
Si Si2 0.308470 0.101483 0.165880
Si Si3 0.262022 0.606559 0.657113
Si Si4 0.998049 0.608399 0.837430
Si Si5 0.477773 0.101534 0.689158
Si Si6 0.621652 0.392598 0.876365
Si Si7 0.228510 0.710119 0.117713
O O1 0.356053 0.666835 0.715991
O O2 0.436669 0.815161 0.725521
O O3 0.494223 0.651491 0.710941
O O4 0.276012 0.709068 0.347459
O O5 0.399305 0.107010 0.431705
O O6 0.384062 0.115082 0.141851
O O7 0.213575 0.184601 0.036853
O O8 0.244513 0.000000 0.065062
O O9 0.279034 0.500000 0.637124
O O10 0.127250 0.638826 0.421390
O O11 0.288090 0.621045 0.857416
O O12 0.023685 0.500000 0.856419
O O13 0.099405 0.663562 0.911567
O O14 0.000000 0.635895 0.000000
O O15 0.461226 0.000000 0.734951
O O16 0.601299 0.500000 0.811626
O O17 0.676927 0.344724 0.828558
#
# Coordination Sequence:
#
# PCOD8064552 Si02
#       7
#     4   4   4   4   4   4   4
#     4  11  19  32  54  78 107 136 169 210 256 313
#     4   8  14  27  47  75 107 131 160 206 261 310
#     4  10  22  38  52  69 103 150 179 199 251 315
#     4  10  20  36  55  74  99 136 180 216 248 297
#     4   8  14  26  47  75 105 133 164 205 253 307
#     4  11  23  34  48  77 109 136 169 213 262 307
#     4  11  20  32  55  82 102 129 176 223 254 288
#
# _framework density 17.861322999999999
#
# number of rings (size 3 to 8) (size 9 to 14) (size 15 to 20)
#    0.000    2.143    2.857    2.571    0.000    4.000 
#    0.000    2.143    0.000    3.857    0.000    1.000 
#    0.000    0.000    0.000    0.000    0.000    0.000 
#
# Total GULP energy -347157.738056 kJ/mol
# GULP energy per Si atom -12398.490645 kJ/mol
# Density = 1.782067 g / cm^3
# Si number density = 17.861323 Si / 1000 Ang^3
#
#
#
# Elastic Constant Matrix: (Units=GPa)
#
#
# Indices 1 2 3 4 5 6 
#
# 1 54.6705 33.4810 4.6693 0.0000 14.1856 0.0000
# 2 33.4810 117.3133 13.1432 0.0000 10.2487 0.0000
# 3 4.6693 13.1432 42.4833 0.0000 8.1847 0.0000
# 4 0.0000 0.0000 0.0000 10.0194 0.0000 -0.7947
# 5 14.1856 10.2487 8.1847 0.0000 23.9234 0.0000
# 6 0.0000 0.0000 0.0000 -0.7947 0.0000 19.6979
#
#
#
# Elastic Compliance Matrix: (Units=1/GPa)
#
#
# Indices 1 2 3 4 5 6 
#
# 1 0.025352 -0.006293 0.001646 0.000000 -0.012900 0.000000
# 2 -0.006293 0.010605 -0.002605 0.000000 0.000079 0.000000
# 3 0.001646 -0.002605 0.025840 0.000000 -0.008700 0.000000
# 4 0.000000 0.000000 0.000000 0.100127 0.000000 0.004040
# 5 -0.012900 0.000079 -0.008700 0.000000 0.052392 0.000000
# 6 0.000000 0.000000 0.000000 0.004040 0.000000 0.050930
#
#
# Mechanical properties :
#
#
# Convention : Reuss Voigt Hill
#
# Bulk Modulus (GPa) = 21.14466 35.22824 28.18645
# Shear Modulus (GPa) = 16.91974 21.60637 19.26305
#
# Velocity S-wave (km/s) = 3.08114 3.48181 3.28758
# Velocity P-wave (km/s) = 4.95195 5.99416 5.49781
#
# Compressibility (1/GPa) = 0.04729326
#
# Stress axis : x y z
#
# Youngs Moduli (GPa) = 39.44489 94.29512 38.70003
#
# Poissons Ratio (x) = 0.59338 -0.06369
# Poissons Ratio (y) = 0.24822 0.10080
# Poissons Ratio (z) = -0.06491 0.24560
#
# Static dielectric constant tensor:
#      x y z
#    x 3.147430 0.000000 0.026980 
#    y 0.000000 3.713420 0.000000 
#    z 0.026980 0.000000 3.071050 
# 
# 
# High freq. dielectric constant tensor:
#      x y z
#    x 1.675620 0.000000 -0.000440 
#    y 0.000000 1.699350 0.000000 
#    z -0.000440 0.000000 1.662820 
# 
# From -- ./inp_files/25026.got.cif
#   From: 2010.06.25/outbox.cif.g09.slc.cpg/sg10_13_cif.got.tgz:25026.got - 2010.06.27 22:07:45.
