data_PCOD8064795
_publ_section_title
;
Structure prediction by ZEFSAII (Michael W. Deem and Ramdas Pophale) SiO2 
 PCOD8064795
Probable space group: P 2/M
;
_chemical_formula_sum "Si O2"
_cell_formula_units_Z 32
_cell_length_a 28.199659
_cell_length_b 8.830366
_cell_length_c 10.949855
_cell_angle_alpha 90.000000
_cell_angle_beta 35.251568
_cell_angle_gamma 90.000000
_cell_volume 1573.739432
_symmetry_space_group_name_H-M "P 2/M"
_symmetry_group_IT_number 10
_symmetry_cell_setting 'monoclinic'
loop_
_space_group_symop_operation_xyz
x,y,z
-x,y,-z
-x,-y,-z
x,-y,z
loop_
_atom_site_type_symbol
_atom_site_label
_atom_site_fract_x
_atom_site_fract_y
_atom_site_fract_z
Si Si1 0.359529 0.823694 0.735166
Si Si2 0.788204 0.671713 0.072057
Si Si3 0.542757 0.676001 0.679133
Si Si4 0.686087 0.670581 0.531519
Si Si5 0.371960 0.671484 0.952525
Si Si6 0.038423 0.820990 0.292381
Si Si7 0.954617 0.179662 0.218676
Si Si8 0.779033 0.323783 0.563810
O O1 0.430575 0.765156 0.497315
O O2 0.388557 0.790960 0.811197
O O3 0.345476 0.000000 0.743152
O O4 0.273568 0.736662 0.898735
O O5 0.812029 0.500000 0.987750
O O6 0.867524 0.775285 0.908540
O O7 0.745840 0.681439 0.291580
O O8 0.567999 0.500000 0.608527
O O9 0.596076 0.738278 0.683141
O O10 0.444461 0.696315 0.901985
O O11 0.672222 0.500000 0.606754
O O12 0.731877 0.752779 0.547149
O O13 0.379596 0.500000 0.885935
O O14 0.282055 0.698771 0.194985
O O15 0.995495 0.756862 0.258457
O O16 0.000000 0.755747 0.500000
O O17 0.030388 0.000000 0.309013
O O18 0.861042 0.232240 0.416249
O O19 0.957657 0.000000 0.211875
O O20 0.000000 0.241522 0.000000
O O21 0.801396 0.500000 0.495415
#
# Coordination Sequence:
#
# PCOD8064795 Si02
#       8
#     4   4   4   4   4   4   4   4
#     4  11  22  35  55  80 111 150 191 232 277 334
#     4  10  20  36  59  84 110 142 184 230 281 335
#     4   9  18  35  57  80 111 148 187 232 282 331
#     4   8  16  33  56  82 109 141 182 229 276 327
#     4  10  21  35  53  81 115 149 185 232 283 333
#     4  10  22  38  56  82 115 148 186 233 287 342
#     4  10  22  40  60  82 113 154 195 233 283 346
#     4  10  21  36  57  85 114 144 186 233 281 335
#
# _framework density 20.333735000000001
#
# number of rings (size 3 to 8) (size 9 to 14) (size 15 to 20)
#    0.000    2.250    0.000    3.375    1.750    4.000 
#    0.000    5.000    0.000    0.000    0.000    5.250 
#    0.000    0.000    0.000    0.000    0.000    0.000 
#
# Total GULP energy -396645.832840 kJ/mol
# GULP energy per Si atom -12395.182276 kJ/mol
# Density = 2.028745 g / cm^3
# Si number density = 20.333735 Si / 1000 Ang^3
#
#
#
# Elastic Constant Matrix: (Units=GPa)
#
#
# Indices 1 2 3 4 5 6 
#
# 1 115.0091 10.0307 41.5638 0.0000 -6.3981 0.0000
# 2 10.0307 16.8038 7.6847 0.0000 9.5982 0.0000
# 3 41.5638 7.6847 76.1464 0.0000 -20.7378 0.0000
# 4 0.0000 0.0000 0.0000 20.3467 0.0000 -6.9781
# 5 -6.3981 9.5982 -20.7378 0.0000 31.1288 0.0000
# 6 0.0000 0.0000 0.0000 -6.9781 0.0000 17.8902
#
#
#
# Elastic Compliance Matrix: (Units=1/GPa)
#
#
# Indices 1 2 3 4 5 6 
#
# 1 0.011090 -0.003721 -0.005796 0.000000 -0.000435 0.000000
# 2 -0.003721 0.095019 -0.019236 0.000000 -0.042877 0.000000
# 3 -0.005796 -0.019236 0.023857 0.000000 0.020633 0.000000
# 4 0.000000 0.000000 0.000000 0.056738 0.000000 0.022131
# 5 -0.000435 -0.042877 0.020633 0.000000 0.059001 0.000000
# 6 0.000000 0.000000 0.000000 0.022131 0.000000 0.064529
#
#
# Mechanical properties :
#
#
# Convention : Reuss Voigt Hill
#
# Bulk Modulus (GPa) = 13.80056 36.27974 25.04015
# Shear Modulus (GPa) = 12.75858 23.78517 18.27188
#
# Velocity S-wave (km/s) = 2.50763 3.42386 3.00092
# Velocity P-wave (km/s) = 3.89693 5.78889 4.93444
#
# Compressibility (1/GPa) = 0.07246082
#
# Stress axis : x y z
#
# Youngs Moduli (GPa) = 90.17092 10.52417 41.91669
#
# Poissons Ratio (x) = 0.03916 0.24296
# Poissons Ratio (y) = 0.33552 0.80629
# Poissons Ratio (z) = 0.52265 0.20244
#
# Static dielectric constant tensor:
#      x y z
#    x 4.001200 0.000000 -0.030530 
#    y 0.000000 3.397700 0.000000 
#    z -0.030530 0.000000 3.599090 
# 
# 
# High freq. dielectric constant tensor:
#      x y z
#    x 1.811440 0.000000 -0.011830 
#    y 0.000000 1.761600 0.000000 
#    z -0.011830 0.000000 1.791690 
# 
# From -- ./inp_files/58140.got.cif
#   From: 2010.06.25/outbox.cif.g09.slc.cpg/sg10_30_cif.got.tgz:58140.got - 2010.06.27 22:07:45.
