data_PCOD8064040
_publ_section_title
;
Structure prediction by ZEFSAII (Michael W. Deem and Ramdas Pophale) SiO2 
 PCOD8064040
Probable space group: P 2/M
;
_chemical_formula_sum "Si O2"
_cell_formula_units_Z 26
_cell_length_a 12.029121
_cell_length_b 14.971654
_cell_length_c 8.239148
_cell_angle_alpha 90.000000
_cell_angle_beta 119.207061
_cell_angle_gamma 90.000000
_cell_volume 1295.184208
_symmetry_space_group_name_H-M "P 2/M"
_symmetry_group_IT_number 10
_symmetry_cell_setting 'monoclinic'
loop_
_space_group_symop_operation_xyz
x,y,z
-x,y,-z
-x,-y,-z
x,-y,z
loop_
_atom_site_type_symbol
_atom_site_label
_atom_site_fract_x
_atom_site_fract_y
_atom_site_fract_z
Si Si1 0.426872 0.599283 0.282780
Si Si2 0.910962 0.602241 0.676792
Si Si3 0.145732 0.288727 0.772422
Si Si4 0.325621 0.601101 0.727585
Si Si5 0.000000 0.849775 0.500000
Si Si6 0.802873 0.730420 0.839017
Si Si7 0.903982 0.098110 0.780326
O O1 0.500000 0.585932 0.500000
O O2 0.365385 0.500000 0.199767
O O3 0.531671 0.625987 0.222461
O O4 0.332170 0.682044 0.234313
O O5 0.931415 0.500000 0.737261
O O6 0.779283 0.617619 0.486858
O O7 0.899778 0.659291 0.832205
O O8 0.035141 0.636745 0.670052
O O9 0.283474 0.335846 0.847019
O O10 0.123735 0.211591 0.623959
O O11 0.141736 0.243500 0.945802
O O12 0.321185 0.500000 0.785323
O O13 0.031600 0.901922 0.355047
O O14 0.800381 0.821490 0.727781
O O15 0.838891 0.000000 0.748755
O O16 0.000000 0.109821 0.000000
#
# Coordination Sequence:
#
# PCOD8064040 Si02
#       7
#     4   4   4   4   2   4   4
#     4  10  21  38  59  83 118 171 220 256 297 354
#     4  11  20  33  54  82 120 159 197 244 304 365
#     4  12  22  34  57  88 125 160 198 252 314 368
#     4  10  20  35  53  79 116 165 214 249 289 354
#     4  12  21  40  61  94 126 162 195 244 311 388
#     4  12  22  38  58  89 123 156 205 257 302 372
#     4  11  23  42  67  97 127 157 199 255 318 384
#
# _framework density 20.074363999999999
#
# number of rings (size 3 to 8) (size 9 to 14) (size 15 to 20)
#    0.000    0.923    6.154    1.615    0.000    4.923 
#    0.000    1.538    0.000    0.462    0.000    1.077 
#    0.000    0.000    0.000    0.000    0.000    0.000 
#
# Total GULP energy -322111.381102 kJ/mol
# GULP energy per Si atom -12388.899273 kJ/mol
# Density = 2.002867 g / cm^3
# Si number density = 20.074364 Si / 1000 Ang^3
#
#
#
# Elastic Constant Matrix: (Units=GPa)
#
#
# Indices 1 2 3 4 5 6 
#
# 1 101.2759 63.7898 16.6327 0.0000 -6.4066 0.0000
# 2 63.7898 145.8431 24.7746 0.0000 -4.2774 0.0000
# 3 16.6327 24.7746 59.5151 0.0000 -21.2387 0.0000
# 4 0.0000 0.0000 0.0000 14.8446 0.0000 0.4252
# 5 -6.4066 -4.2774 -21.2387 0.0000 34.7098 0.0000
# 6 0.0000 0.0000 0.0000 0.4252 0.0000 23.2368
#
#
#
# Elastic Compliance Matrix: (Units=1/GPa)
#
#
# Indices 1 2 3 4 5 6 
#
# 1 0.013782 -0.005824 -0.000992 0.000000 0.001219 0.000000
# 2 -0.005824 0.009881 -0.003115 0.000000 -0.001763 0.000000
# 3 -0.000992 -0.003115 0.023251 0.000000 0.013660 0.000000
# 4 0.000000 0.000000 0.000000 0.067400 0.000000 -0.001233
# 5 0.001219 -0.001763 0.013660 0.000000 0.037177 0.000000
# 6 0.000000 0.000000 0.000000 -0.001233 0.000000 0.043058
#
#
# Mechanical properties :
#
#
# Convention : Reuss Voigt Hill
#
# Bulk Modulus (GPa) = 36.96526 57.44760 47.20643
# Shear Modulus (GPa) = 22.37843 27.98738 25.18290
#
# Velocity S-wave (km/s) = 3.34245 3.73793 3.54571
# Velocity P-wave (km/s) = 5.77495 6.87815 6.35056
#
# Compressibility (1/GPa) = 0.02705243
#
# Stress axis : x y z
#
# Youngs Moduli (GPa) = 72.55662 101.20028 43.00827
#
# Poissons Ratio (x) = 0.58938 0.04268
# Poissons Ratio (y) = 0.42256 0.13397
# Poissons Ratio (z) = 0.07201 0.31524
#
# Static dielectric constant tensor:
#      x y z
#    x 4.128620 0.000000 -0.163130 
#    y 0.000000 3.655490 0.000000 
#    z -0.163130 0.000000 3.686700 
# 
# 
# High freq. dielectric constant tensor:
#      x y z
#    x 1.774860 0.000000 -0.029410 
#    y 0.000000 1.761960 0.000000 
#    z -0.029410 0.000000 1.788220 
# 
# From -- ./inp_files/24795.got.cif
#   From: 2010.06.25/outbox.cif.g09.slc.cpg/sg10_13_cif.got.tgz:24795.got - 2010.06.27 22:07:45.
