data_PCOD8064267
_publ_section_title
;
Structure prediction by ZEFSAII (Michael W. Deem and Ramdas Pophale) SiO2 
 PCOD8064267
Probable space group: P 2/M
;
_chemical_formula_sum "Si O2"
_cell_formula_units_Z 32
_cell_length_a 20.267781
_cell_length_b 13.626815
_cell_length_c 15.008261
_cell_angle_alpha 90.000000
_cell_angle_beta 21.184373
_cell_angle_gamma 90.000000
_cell_volume 1497.901858
_symmetry_space_group_name_H-M "P 2/M"
_symmetry_group_IT_number 10
_symmetry_cell_setting 'monoclinic'
loop_
_space_group_symop_operation_xyz
x,y,z
-x,y,-z
-x,-y,-z
x,-y,z
loop_
_atom_site_type_symbol
_atom_site_label
_atom_site_fract_x
_atom_site_fract_y
_atom_site_fract_z
Si Si1 0.317810 0.615998 0.184602
Si Si2 0.646399 0.713613 0.045583
Si Si3 0.112032 0.112263 0.269818
Si Si4 0.941959 0.389710 0.958147
Si Si5 0.964030 0.608984 0.728542
Si Si6 0.293054 0.790528 0.735187
Si Si7 0.016500 0.113739 0.764078
Si Si8 0.754552 0.754185 0.397354
O O1 0.318829 0.500000 0.195578
O O2 0.314824 0.644269 0.086178
O O3 0.133651 0.658148 0.461997
O O4 0.500000 0.661653 0.000000
O O5 0.700663 0.826435 0.959620
O O6 0.781766 0.674283 0.951578
O O7 0.438384 0.705587 0.336710
O O8 0.000000 0.136763 0.500000
O O9 0.996875 0.137313 0.324869
O O10 0.174183 0.000000 0.189257
O O11 0.904956 0.500000 0.041735
O O12 0.020792 0.395332 0.759336
O O13 0.106963 0.335051 0.802910
O O14 0.757826 0.324785 0.190968
O O15 0.923506 0.500000 0.742286
O O16 0.500000 0.807881 0.500000
O O17 0.262386 0.820709 0.670187
O O18 0.173857 0.860416 0.948325
O O19 0.174298 0.180384 0.609695
O O20 0.063414 0.000000 0.720389
#
# Coordination Sequence:
#
# PCOD8064267 Si02
#       8
#     4   4   4   4   4   4   4   4
#     4  10  21  36  55  84 119 155 201 251 295 345
#     4  12  22  35  58  83 116 157 194 239 300 351
#     4  10  22  40  62  88 118 153 193 238 289 354
#     4  10  21  38  58  80 115 160 197 237 293 350
#     4  10  20  35  56  83 114 150 198 250 294 345
#     4  11  23  40  61  90 121 149 195 251 296 348
#     4  10  22  43  67  88 116 153 191 239 301 357
#     4  11  24  38  58  88 120 153 198 251 290 343
#
# _framework density 21.363215
#
# number of rings (size 3 to 8) (size 9 to 14) (size 15 to 20)
#    0.000    1.500    0.000    6.750    0.000    7.000 
#    0.000    0.000    0.000    2.625    0.000    0.000 
#    0.000    0.000    0.000    0.000    0.000    0.000 
#
# Total GULP energy -396794.535672 kJ/mol
# GULP energy per Si atom -12399.829240 kJ/mol
# Density = 2.131459 g / cm^3
# Si number density = 21.363215 Si / 1000 Ang^3
#
#
#
# Elastic Constant Matrix: (Units=GPa)
#
#
# Indices 1 2 3 4 5 6 
#
# 1 110.4897 10.2295 36.8273 0.0000 1.8835 0.0000
# 2 10.2295 66.0764 19.1109 0.0000 -13.0938 0.0000
# 3 36.8273 19.1109 123.5507 0.0000 -17.5521 0.0000
# 4 0.0000 0.0000 0.0000 23.4820 0.0000 2.6996
# 5 1.8835 -13.0938 -17.5521 0.0000 41.6120 0.0000
# 6 0.0000 0.0000 0.0000 2.6996 0.0000 29.7535
#
#
#
# Elastic Compliance Matrix: (Units=1/GPa)
#
#
# Indices 1 2 3 4 5 6 
#
# 1 0.010253 -0.001091 -0.003193 0.000000 -0.002154 0.000000
# 2 -0.001091 0.016681 -0.001598 0.000000 0.004624 0.000000
# 3 -0.003193 -0.001598 0.009831 0.000000 0.003788 0.000000
# 4 0.000000 0.000000 0.000000 0.043035 0.000000 -0.003905
# 5 -0.002154 0.004624 0.003788 0.000000 0.027182 0.000000
# 6 0.000000 0.000000 0.000000 -0.003905 0.000000 0.033964
#
#
# Mechanical properties :
#
#
# Convention : Reuss Voigt Hill
#
# Bulk Modulus (GPa) = 39.99874 48.05024 44.02449
# Shear Modulus (GPa) = 31.04742 34.56611 32.80677
#
# Velocity S-wave (km/s) = 3.81637 4.02683 3.92301
# Velocity P-wave (km/s) = 6.17927 6.64540 6.41657
#
# Compressibility (1/GPa) = 0.02500079
#
# Stress axis : x y z
#
# Youngs Moduli (GPa) = 97.53527 59.94690 101.71758
#
# Poissons Ratio (x) = 0.06537 0.32483
# Poissons Ratio (y) = 0.10636 0.16258
# Poissons Ratio (z) = 0.31147 0.09581
#
# Static dielectric constant tensor:
#      x y z
#    x 4.058280 0.000000 0.090710 
#    y 0.000000 3.882520 0.000000 
#    z 0.090710 0.000000 3.777840 
# 
# 
# High freq. dielectric constant tensor:
#      x y z
#    x 1.857360 0.000000 0.011940 
#    y 0.000000 1.830170 0.000000 
#    z 0.011940 0.000000 1.830870 
# 
# From -- ./inp_files/70768.got.cif
#   From: 2010.06.25/outbox.cif.g09.slc.cpg/sg10_36_cif.got.tgz:70768.got - 2010.06.27 22:07:45.
