data_PCOD8064933
_publ_section_title
;
Structure prediction by ZEFSAII (Michael W. Deem and Ramdas Pophale) SiO2 
 PCOD8064933
Probable space group: P 2/M
;
_chemical_formula_sum "Si O2"
_cell_formula_units_Z 28
_cell_length_a 21.516721
_cell_length_b 9.008907
_cell_length_c 9.523425
_cell_angle_alpha 90.000000
_cell_angle_beta 131.761701
_cell_angle_gamma 90.000000
_cell_volume 1377.001487
_symmetry_space_group_name_H-M "P 2/M"
_symmetry_group_IT_number 10
_symmetry_cell_setting 'monoclinic'
loop_
_space_group_symop_operation_xyz
x,y,z
-x,y,-z
-x,-y,-z
x,-y,z
loop_
_atom_site_type_symbol
_atom_site_label
_atom_site_fract_x
_atom_site_fract_y
_atom_site_fract_z
Si Si1 0.604032 0.174626 0.934424
Si Si2 0.686657 0.670176 0.816031
Si Si3 0.440822 0.333415 0.611100
Si Si4 0.672936 0.671408 0.299404
Si Si5 0.842647 0.827218 0.924850
Si Si6 0.844779 0.172879 0.604590
Si Si7 0.001382 0.823637 0.661194
O O1 0.677064 0.240365 0.946241
O O2 0.513146 0.214366 0.739078
O O3 0.614385 0.000000 0.956435
O O4 0.613510 0.242293 0.102676
O O5 0.707657 0.500000 0.881103
O O6 0.598847 0.684309 0.602368
O O7 0.759831 0.737083 0.833101
O O8 0.477519 0.500000 0.686185
O O9 0.366142 0.304485 0.606921
O O10 0.676373 0.500000 0.261274
O O11 0.765123 0.736019 0.436179
O O12 0.867955 0.799077 0.801696
O O13 0.825104 0.000000 0.926273
O O14 0.916367 0.766184 0.135054
O O15 0.920690 0.232669 0.624110
O O16 0.826685 0.000000 0.549703
O O17 0.000000 0.760878 0.500000
O O18 0.001912 0.000000 0.661575
#
# Coordination Sequence:
#
# PCOD8064933 Si02
#       7
#     4   4   4   4   4   4   4
#     4  12  26  40  60  91 124 159 204 258 310 356
#     4  11  23  41  63  89 123 164 205 249 306 368
#     4  10  22  42  64  87 120 163 207 248 304 368
#     4  11  23  41  63  89 123 164 205 249 306 368
#     4  10  20  36  60  89 122 160 204 251 300 355
#     4  10  20  36  60  89 122 160 204 251 300 355
#     4   9  19  35  58  89 124 160 200 247 301 356
#
# _framework density 20.334039000000001
#
# number of rings (size 3 to 8) (size 9 to 14) (size 15 to 20)
#    0.000    1.571    1.429    3.429    2.000    7.429 
#    0.000    0.714    0.000    2.571    0.000    0.000 
#    0.000    0.000    0.000    0.000    0.000    0.000 
#
# Total GULP energy -347349.065655 kJ/mol
# GULP energy per Si atom -12405.323773 kJ/mol
# Density = 2.028776 g / cm^3
# Si number density = 20.334039 Si / 1000 Ang^3
#
#
#
# Elastic Constant Matrix: (Units=GPa)
#
#
# Indices 1 2 3 4 5 6 
#
# 1 81.0152 37.9983 25.9006 0.0000 4.8754 0.0000
# 2 37.9983 104.2157 33.7179 0.0000 0.1088 0.0000
# 3 25.9006 33.7179 86.9687 0.0000 -0.0400 0.0000
# 4 0.0000 0.0000 0.0000 27.6904 0.0000 -2.2751
# 5 4.8754 0.1088 -0.0400 0.0000 31.4350 0.0000
# 6 0.0000 0.0000 0.0000 -2.2751 0.0000 9.1867
#
#
#
# Elastic Compliance Matrix: (Units=1/GPa)
#
#
# Indices 1 2 3 4 5 6 
#
# 1 0.015630 -0.004791 -0.002799 0.000000 -0.002411 0.000000
# 2 -0.004791 0.012440 -0.003396 0.000000 0.000696 0.000000
# 3 -0.002799 -0.003396 0.013649 0.000000 0.000463 0.000000
# 4 0.000000 0.000000 0.000000 0.036864 0.000000 0.009129
# 5 -0.002411 0.000696 0.000463 0.000000 0.032184 0.000000
# 6 0.000000 0.000000 0.000000 0.009129 0.000000 0.111114
#
#
# Mechanical properties :
#
#
# Convention : Reuss Voigt Hill
#
# Bulk Modulus (GPa) = 50.63756 51.93703 51.28729
# Shear Modulus (GPa) = 19.96528 25.30128 22.63328
#
# Velocity S-wave (km/s) = 3.13687 3.53126 3.33989
# Velocity P-wave (km/s) = 6.17065 6.49798 6.33643
#
# Compressibility (1/GPa) = 0.01974819
#
# Stress axis : x y z
#
# Youngs Moduli (GPa) = 63.97840 80.38355 73.26710
#
# Poissons Ratio (x) = 0.38512 0.20504
# Poissons Ratio (y) = 0.30652 0.24881
# Poissons Ratio (z) = 0.17905 0.27298
#
# Static dielectric constant tensor:
#      x y z
#    x 3.743420 0.000000 -0.138260 
#    y 0.000000 3.473730 0.000000 
#    z -0.138260 0.000000 3.767450 
# 
# 
# High freq. dielectric constant tensor:
#      x y z
#    x 1.807100 0.000000 -0.006400 
#    y 0.000000 1.774640 0.000000 
#    z -0.006400 0.000000 1.801500 
# 
# From -- ./inp_files/34311.got.cif
#   From: 2010.06.25/outbox.cif.g09.slc.cpg/sg10_18_cif.got.tgz:34311.got - 2010.06.27 22:07:45.
