data_PCOD8064130
_publ_section_title
;
Structure prediction by ZEFSAII (Michael W. Deem and Ramdas Pophale) SiO2 
 PCOD8064130
Probable space group: P 2/M
;
_chemical_formula_sum "Si O2"
_cell_formula_units_Z 28
_cell_length_a 9.224885
_cell_length_b 19.163956
_cell_length_c 15.929162
_cell_angle_alpha 90.000000
_cell_angle_beta 149.698788
_cell_angle_gamma 90.000000
_cell_volume 1420.822172
_symmetry_space_group_name_H-M "P 2/M"
_symmetry_group_IT_number 10
_symmetry_cell_setting 'monoclinic'
loop_
_space_group_symop_operation_xyz
x,y,z
-x,y,-z
-x,-y,-z
x,-y,z
loop_
_atom_site_type_symbol
_atom_site_label
_atom_site_fract_x
_atom_site_fract_y
_atom_site_fract_z
Si Si1 0.341034 0.579435 0.670517
Si Si2 0.667808 0.921545 0.998269
Si Si3 0.337866 0.656784 0.502279
Si Si4 0.337859 0.656783 0.835585
Si Si5 0.667817 0.921543 0.669541
Si Si6 0.320829 0.197752 0.566283
Si Si7 0.679183 0.197753 0.245459
O O1 0.448926 0.500000 0.724465
O O2 0.457859 0.615814 0.643883
O O3 0.457852 0.615815 0.813973
O O4 0.000000 0.585164 0.500000
O O5 0.541701 0.866413 0.869745
O O6 0.624225 0.000000 0.941341
O O7 0.500000 0.910620 0.000000
O O8 0.999995 0.905407 0.180312
O O9 0.500000 0.630060 0.500000
O O10 0.405014 0.739004 0.547102
O O11 0.000004 0.643227 0.321751
O O12 0.405002 0.739004 0.857907
O O13 0.500000 0.630060 0.000000
O O14 0.500000 0.910609 0.500000
O O15 0.541711 0.866414 0.671963
O O16 0.624222 0.000000 0.682875
O O17 0.330359 0.227913 0.665180
O O18 0.000005 0.170558 0.384578
#
# Coordination Sequence:
#
# PCOD8064130 Si02
#       7
#     4   4   4   4   4   4   4
#     4   9  18  36  61  85 114 153 190 224 273 339
#     4  10  21  36  53  75 105 141 183 232 283 336
#     4  10  20  36  58  85 115 149 190 233 278 331
#     4  10  20  36  58  85 115 149 190 233 278 331
#     4  10  21  36  53  75 105 141 183 232 283 336
#     4  10  20  35  55  78 108 145 186 232 280 335
#     4  10  20  35  55  78 108 145 186 232 280 335
#
# _framework density 19.706900999999998
#
# number of rings (size 3 to 8) (size 9 to 14) (size 15 to 20)
#    0.000    2.143    1.429    1.714    0.000    6.857 
#    0.000    3.571    0.000    0.857    0.000    0.000 
#    0.000    0.000    0.000    0.000    0.000    0.000 
#
# Total GULP energy -347190.111380 kJ/mol
# GULP energy per Si atom -12399.646835 kJ/mol
# Density = 1.966205 g / cm^3
# Si number density = 19.706901 Si / 1000 Ang^3
#
#
#
# Elastic Constant Matrix: (Units=GPa)
#
#
# Indices 1 2 3 4 5 6 
#
# 1 120.0217 54.3054 42.7351 0.0000 -10.2280 0.0000
# 2 54.3054 103.1923 53.1668 0.0000 -1.1567 0.0000
# 3 42.7351 53.1668 98.2581 0.0000 -11.8814 0.0000
# 4 0.0000 0.0000 0.0000 19.7229 0.0000 -4.8764
# 5 -10.2280 -1.1567 -11.8814 0.0000 31.9292 0.0000
# 6 0.0000 0.0000 0.0000 -4.8764 0.0000 24.5240
#
#
#
# Elastic Compliance Matrix: (Units=1/GPa)
#
#
# Indices 1 2 3 4 5 6 
#
# 1 0.011545 -0.005035 -0.001960 0.000000 0.002786 0.000000
# 2 -0.005035 0.015799 -0.006790 0.000000 -0.003567 0.000000
# 3 -0.001960 -0.006790 0.015286 0.000000 0.004814 0.000000
# 4 0.000000 0.000000 0.000000 0.053324 0.000000 0.010603
# 5 0.002786 -0.003567 0.004814 0.000000 0.033874 0.000000
# 6 0.000000 0.000000 0.000000 0.010603 0.000000 0.042885
#
#
# Mechanical properties :
#
#
# Convention : Reuss Voigt Hill
#
# Bulk Modulus (GPa) = 66.40115 69.09853 67.74984
# Shear Modulus (GPa) = 24.35429 26.65287 25.50358
#
# Velocity S-wave (km/s) = 3.51924 3.68158 3.60132
# Velocity P-wave (km/s) = 7.09091 7.29460 7.19348
#
# Compressibility (1/GPa) = 0.01505998
#
# Stress axis : x y z
#
# Youngs Moduli (GPa) = 86.61623 63.29707 65.41893
#
# Poissons Ratio (x) = 0.31867 0.12824
# Poissons Ratio (y) = 0.43607 0.44420
# Poissons Ratio (z) = 0.16979 0.42980
#
# Static dielectric constant tensor:
#      x y z
#    x 3.481220 0.000000 -0.027240 
#    y 0.000000 3.550720 0.000000 
#    z -0.027240 0.000000 3.454260 
# 
# 
# High freq. dielectric constant tensor:
#      x y z
#    x 1.762570 0.000000 -0.010580 
#    y 0.000000 1.766530 0.000000 
#    z -0.010580 0.000000 1.752150 
# 
# From -- ./inp_files/30373.got.cif
#   From: 2010.06.25/outbox.cif.g09.slc.cpg/sg10_16_cif.got.tgz:30373.got - 2010.06.27 22:07:45.
