data_PCOD8064622
_publ_section_title
;
Structure prediction by ZEFSAII (Michael W. Deem and Ramdas Pophale) SiO2 
 PCOD8064622
Probable space group: P 2/M
;
_chemical_formula_sum "Si O2"
_cell_formula_units_Z 32
_cell_length_a 10.737719
_cell_length_b 9.205212
_cell_length_c 21.689186
_cell_angle_alpha 90.000000
_cell_angle_beta 51.698824
_cell_angle_gamma 90.000000
_cell_volume 1682.394968
_symmetry_space_group_name_H-M "P 2/M"
_symmetry_group_IT_number 10
_symmetry_cell_setting 'monoclinic'
loop_
_space_group_symop_operation_xyz
x,y,z
-x,y,-z
-x,-y,-z
x,-y,z
loop_
_atom_site_type_symbol
_atom_site_label
_atom_site_fract_x
_atom_site_fract_y
_atom_site_fract_z
Si Si1 0.185556 0.172724 0.448986
Si Si2 0.127589 0.834796 0.910184
Si Si3 0.743246 0.329517 0.694604
Si Si4 0.580212 0.669425 0.137828
Si Si5 0.667812 0.668298 0.478068
Si Si6 0.353694 0.840923 0.002807
Si Si7 0.026365 0.666483 0.694086
Si Si8 0.952309 0.834515 0.838391
O O1 0.273389 0.237837 0.362640
O O2 0.275111 0.237964 0.480996
O O3 0.000000 0.217963 0.500000
O O4 0.204895 0.000000 0.445108
O O5 0.285071 0.739355 0.861606
O O6 0.072039 0.818788 0.857753
O O7 0.169765 0.000000 0.913922
O O8 0.000000 0.776894 0.000000
O O9 0.755146 0.500000 0.674525
O O10 0.591353 0.292813 0.782549
O O11 0.898112 0.274268 0.684235
O O12 0.609793 0.500000 0.125809
O O13 0.594300 0.731825 0.065494
O O14 0.500000 0.721046 0.500000
O O15 0.655890 0.500000 0.502444
O O16 0.797291 0.689380 0.385130
O O17 0.295352 0.000000 0.994472
O O18 0.500000 0.871728 0.000000
O O19 0.214923 0.770199 0.086579
O O20 0.986281 0.500000 0.719458
O O21 0.017858 0.747197 0.761016
O O22 0.931326 0.000000 0.823270
#
# Coordination Sequence:
#
# PCOD8064622 Si02
#       8
#     4   4   4   4   4   4   4   4
#     4  11  23  39  64  96 124 159 208 257 306 360
#     4  10  20  39  60  77 111 158 201 240 291 360
#     4  10  22  40  61  87 121 161 199 242 304 366
#     4  11  23  36  56  87 117 146 193 249 293 343
#     4  10  22  41  66  93 124 166 208 246 303 374
#     4  10  20  36  57  80 110 151 193 232 286 350
#     4  10  21  38  60  86 119 157 195 244 300 356
#     4  10  21  36  57  83 111 152 197 240 290 350
#
# _framework density 19.020505
#
# number of rings (size 3 to 8) (size 9 to 14) (size 15 to 20)
#    0.000    1.750    2.500    1.500    0.000    5.250 
#    0.000    3.750    0.000    0.000    0.000    0.000 
#    0.000    0.000    0.000    0.000    0.000    0.000 
#
# Total GULP energy -396794.577157 kJ/mol
# GULP energy per Si atom -12399.830536 kJ/mol
# Density = 1.897721 g / cm^3
# Si number density = 19.020505 Si / 1000 Ang^3
#
#
#
# Elastic Constant Matrix: (Units=GPa)
#
#
# Indices 1 2 3 4 5 6 
#
# 1 129.7682 51.4801 59.5047 0.0000 -3.4279 0.0000
# 2 51.4801 75.8094 58.8610 0.0000 2.4699 0.0000
# 3 59.5047 58.8610 120.9885 0.0000 5.0554 0.0000
# 4 0.0000 0.0000 0.0000 46.3473 0.0000 8.1695
# 5 -3.4279 2.4699 5.0554 0.0000 38.6198 0.0000
# 6 0.0000 0.0000 0.0000 8.1695 0.0000 33.4954
#
#
#
# Elastic Compliance Matrix: (Units=1/GPa)
#
#
# Indices 1 2 3 4 5 6 
#
# 1 0.011258 -0.005377 -0.002993 0.000000 0.001735 0.000000
# 2 -0.005377 0.023767 -0.008883 0.000000 -0.000834 0.000000
# 3 -0.002993 -0.008883 0.014124 0.000000 -0.001546 0.000000
# 4 0.000000 0.000000 0.000000 0.022545 0.000000 -0.005499
# 5 0.001735 -0.000834 -0.001546 0.000000 0.026303 0.000000
# 6 0.000000 0.000000 0.000000 -0.005499 0.000000 0.031196
#
#
# Mechanical properties :
#
#
# Convention : Reuss Voigt Hill
#
# Bulk Modulus (GPa) = 68.30126 74.02864 71.16495
# Shear Modulus (GPa) = 29.65949 34.14051 31.90000
#
# Velocity S-wave (km/s) = 3.95314 4.24126 4.09973
# Velocity P-wave (km/s) = 7.53814 7.93658 7.73993
#
# Compressibility (1/GPa) = 0.01464102
#
# Stress axis : x y z
#
# Youngs Moduli (GPa) = 88.82896 42.07545 70.80353
#
# Poissons Ratio (x) = 0.22625 0.21193
# Poissons Ratio (y) = 0.47766 0.62895
# Poissons Ratio (z) = 0.26588 0.37376
#
# Static dielectric constant tensor:
#      x y z
#    x 3.567890 0.000000 -0.090260 
#    y 0.000000 3.422980 0.000000 
#    z -0.090260 0.000000 3.454450 
# 
# 
# High freq. dielectric constant tensor:
#      x y z
#    x 1.750760 0.000000 -0.001150 
#    y 0.000000 1.731690 0.000000 
#    z -0.001150 0.000000 1.744020 
# 
# From -- ./inp_files/83559.got.cif
#   From: 2010.06.25/outbox.cif.g09.slc.cpg/sg10_42_cif.got.tgz:83559.got - 2010.06.27 22:07:45.
