data_PCOD8064900
_publ_section_title
;
Structure prediction by ZEFSAII (Michael W. Deem and Ramdas Pophale) SiO2 
 PCOD8064900
Probable space group: P 2/M
;
_chemical_formula_sum "Si O2"
_cell_formula_units_Z 32
_cell_length_a 18.285965
_cell_length_b 16.413154
_cell_length_c 12.747501
_cell_angle_alpha 90.000000
_cell_angle_beta 156.001631
_cell_angle_gamma 90.000000
_cell_volume 1556.039133
_symmetry_space_group_name_H-M "P 2/M"
_symmetry_group_IT_number 10
_symmetry_cell_setting 'monoclinic'
loop_
_space_group_symop_operation_xyz
x,y,z
-x,y,-z
-x,-y,-z
x,-y,z
loop_
_atom_site_type_symbol
_atom_site_label
_atom_site_fract_x
_atom_site_fract_y
_atom_site_fract_z
Si Si1 0.764643 0.788575 0.461935
Si Si2 0.422660 0.801108 0.285282
Si Si3 0.535124 0.327902 0.269126
Si Si4 0.151428 0.596023 0.781704
Si Si5 0.112421 0.696705 0.932395
Si Si6 0.834359 0.905968 0.361372
Si Si7 0.206878 0.409996 0.242498
Si Si8 0.485447 0.090344 0.765400
O O1 0.604819 0.718906 0.254237
O O2 0.826935 0.832322 0.436171
O O3 0.694706 0.859857 0.445268
O O4 0.926818 0.737305 0.727196
O O5 0.500000 0.813567 0.500000
O O6 0.531598 0.736328 0.359410
O O7 0.430653 0.887513 0.237189
O O8 0.217943 0.773036 0.023280
O O9 0.675294 0.394006 0.498511
O O10 0.340871 0.366450 0.991417
O O11 0.174984 0.500000 0.821989
O O12 0.083755 0.629510 0.804534
O O13 0.000000 0.620822 0.500000
O O14 0.230204 0.655526 0.179391
O O15 0.000000 0.887694 0.500000
O O16 0.853794 0.000000 0.430510
O O17 0.641473 0.897406 0.054823
O O18 0.261781 0.500000 0.273177
O O19 0.000000 0.408821 0.000000
O O20 0.414003 0.000000 0.668001
#
# Coordination Sequence:
#
# PCOD8064900 Si02
#       8
#     4   4   4   4   4   4   4   4
#     4  11  22  36  60  90 123 158 196 251 311 359
#     4  10  20  36  60  86 120 158 202 256 307 352
#     4  10  21  39  61  92 121 161 207 256 309 368
#     4  10  23  42  60  84 125 167 206 254 307 372
#     4  11  22  37  61  91 121 160 205 260 310 367
#     4  10  21  39  63  91 122 158 205 254 303 362
#     4  11  21  36  62  92 123 158 205 262 315 363
#     4  10  22  39  59  87 122 163 208 251 302 365
#
# _framework density 20.565035000000002
#
# number of rings (size 3 to 8) (size 9 to 14) (size 15 to 20)
#    0.000    1.625    2.500    2.250    0.000    5.750 
#    0.000    2.500    0.000    2.250    0.000    0.000 
#    0.000    0.000    0.000    0.000    0.000    0.000 
#
# Total GULP energy -396453.531668 kJ/mol
# GULP energy per Si atom -12389.172865 kJ/mol
# Density = 2.051823 g / cm^3
# Si number density = 20.565035 Si / 1000 Ang^3
#
#
#
# Elastic Constant Matrix: (Units=GPa)
#
#
# Indices 1 2 3 4 5 6 
#
# 1 91.9562 57.6722 40.0709 0.0000 5.4062 0.0000
# 2 57.6722 120.1687 66.5528 0.0000 6.7322 0.0000
# 3 40.0709 66.5528 104.1540 0.0000 5.6915 0.0000
# 4 0.0000 0.0000 0.0000 14.0332 0.0000 -11.7716
# 5 5.4062 6.7322 5.6915 0.0000 35.9773 0.0000
# 6 0.0000 0.0000 0.0000 -11.7716 0.0000 -0.0860
#
#
#
# Elastic Compliance Matrix: (Units=1/GPa)
#
#
# Indices 1 2 3 4 5 6 
#
# 1 0.015825 -0.006502 -0.001887 0.000000 -0.000863 0.000000
# 2 -0.006502 0.015595 -0.007422 0.000000 -0.000767 0.000000
# 3 -0.001887 -0.007422 0.015109 0.000000 -0.000718 0.000000
# 4 0.000000 0.000000 0.000000 0.000615 0.000000 -0.084217
# 5 -0.000863 -0.000767 -0.000718 0.000000 0.028182 0.000000
# 6 0.000000 0.000000 0.000000 -0.084217 0.000000 -0.100396
#
#
# Mechanical properties :
#
#
# Convention : Reuss Voigt Hill
#
# Bulk Modulus (GPa) = 67.07494 71.65229 69.36362
# Shear Modulus (GPa) = 433.98587 20.11708 227.05148
#
# Velocity S-wave (km/s) = 14.54266 3.13104 10.51885
# Velocity P-wave (km/s) = 17.73900 6.92738 13.46590
#
# Compressibility (1/GPa) = 0.01490870
#
# Stress axis : x y z
#
# Youngs Moduli (GPa) = 63.18976 64.12130 66.18658
#
# Poissons Ratio (x) = 0.41690 0.12488
# Poissons Ratio (y) = 0.41084 0.49123
# Poissons Ratio (z) = 0.11923 0.47590
#
# Static dielectric constant tensor:
#      x y z
#    x 4.122310 0.000000 -0.164980 
#    y 0.000000 4.049330 0.000000 
#    z -0.164980 0.000000 4.064020 
# 
# 
# High freq. dielectric constant tensor:
#      x y z
#    x 1.796830 0.000000 0.018350 
#    y 0.000000 1.813930 0.000000 
#    z 0.018350 0.000000 1.800070 
# 
# From -- ./inp_files/70876.got.cif
#   From: 2010.06.25/outbox.cif.g09.slc.cpg/sg10_36_cif.got.tgz:70876.got - 2010.06.27 22:07:45.
