data_PCOD8064112
_publ_section_title
;
Structure prediction by ZEFSAII (Michael W. Deem and Ramdas Pophale) SiO2 
 PCOD8064112
Probable space group: P 2/M
;
_chemical_formula_sum "Si O2"
_cell_formula_units_Z 32
_cell_length_a 10.322551
_cell_length_b 9.245563
_cell_length_c 21.890749
_cell_angle_alpha 90.000000
_cell_angle_beta 130.967158
_cell_angle_gamma 90.000000
_cell_volume 1577.528293
_symmetry_space_group_name_H-M "P 2/M"
_symmetry_group_IT_number 10
_symmetry_cell_setting 'monoclinic'
loop_
_space_group_symop_operation_xyz
x,y,z
-x,y,-z
-x,-y,-z
x,-y,z
loop_
_atom_site_type_symbol
_atom_site_label
_atom_site_fract_x
_atom_site_fract_y
_atom_site_fract_z
Si Si1 0.761045 0.342497 0.661178
Si Si2 0.909115 0.168601 0.370862
Si Si3 0.733820 0.835548 0.770183
Si Si4 0.306486 0.327961 0.935395
Si Si5 0.840824 0.659503 0.237111
Si Si6 0.624722 0.836974 0.378006
Si Si7 0.008096 0.328565 0.932355
Si Si8 0.736273 0.331872 0.520356
O O1 0.697956 0.500000 0.667447
O O2 0.748974 0.212191 0.704510
O O3 0.664533 0.307842 0.567154
O O4 0.957779 0.359247 0.704223
O O5 0.799829 0.234835 0.280662
O O6 0.801370 0.196474 0.398658
O O7 0.090177 0.243484 0.437355
O O8 0.937619 0.000000 0.366729
O O9 0.530000 0.819212 0.719265
O O10 0.841062 0.735082 0.848083
O O11 0.798599 0.000000 0.797232
O O12 0.308232 0.500000 0.937446
O O13 0.230935 0.271749 0.847937
O O14 0.183018 0.273770 0.952901
O O15 0.500000 0.265762 0.000000
O O16 0.757734 0.500000 0.222489
O O17 0.599540 0.728218 0.428056
O O18 0.623631 0.000000 0.403624
O O19 0.993721 0.500000 0.923081
O O20 0.000000 0.276222 0.000000
O O21 0.770929 0.500000 0.518559
#
# Coordination Sequence:
#
# PCOD8064112 Si02
#       8
#     4   4   4   4   4   4   4   4
#     4   9  18  35  56  80 110 143 183 232 283 327
#     4  10  20  35  55  77 109 150 186 227 281 337
#     4  11  23  38  58  81 110 151 193 230 276 335
#     4   9  17  32  56  85 115 144 179 231 289 340
#     4   9  17  32  55  81 109 140 180 230 278 330
#     4  10  23  39  52  76 115 154 189 230 280 336
#     4  10  21  39  62  87 115 150 191 235 288 348
#     4  10  21  36  57  84 111 143 186 239 287 331
#
# _framework density 20.284897000000001
#
# number of rings (size 3 to 8) (size 9 to 14) (size 15 to 20)
#    0.000    2.250    1.250    2.250    0.000    7.750 
#    0.000    3.750    0.000    1.500    0.000    0.000 
#    0.000    0.000    0.000    0.000    0.000    0.000 
#
# Total GULP energy -396652.898873 kJ/mol
# GULP energy per Si atom -12395.403090 kJ/mol
# Density = 2.023873 g / cm^3
# Si number density = 20.284897 Si / 1000 Ang^3
#
#
#
# Elastic Constant Matrix: (Units=GPa)
#
#
# Indices 1 2 3 4 5 6 
#
# 1 33.1161 24.4832 29.2040 0.0000 -12.6797 0.0000
# 2 24.4832 68.4510 30.9723 0.0000 -11.5530 0.0000
# 3 29.2040 30.9723 128.9764 0.0000 -14.7169 0.0000
# 4 0.0000 0.0000 0.0000 25.4806 0.0000 -1.0672
# 5 -12.6797 -11.5530 -14.7169 0.0000 23.9926 0.0000
# 6 0.0000 0.0000 0.0000 -1.0672 0.0000 19.9861
#
#
#
# Elastic Compliance Matrix: (Units=1/GPa)
#
#
# Indices 1 2 3 4 5 6 
#
# 1 0.052185 -0.012668 -0.006799 0.000000 0.017309 0.000000
# 2 -0.012668 0.020277 -0.001775 0.000000 0.001981 0.000000
# 3 -0.006799 -0.001775 0.009905 0.000000 0.001628 0.000000
# 4 0.000000 0.000000 0.000000 0.039334 0.000000 0.002100
# 5 0.017309 0.001981 0.001628 0.000000 0.052779 0.000000
# 6 0.000000 0.000000 0.000000 0.002100 0.000000 0.050147
#
#
# Mechanical properties :
#
#
# Convention : Reuss Voigt Hill
#
# Bulk Modulus (GPa) = 25.07286 44.42915 34.75100
# Shear Modulus (GPa) = 17.83132 23.61746 20.72439
#
# Velocity S-wave (km/s) = 2.96808 3.41587 3.19982
# Velocity P-wave (km/s) = 4.91256 6.12435 5.55162
#
# Compressibility (1/GPa) = 0.03988376
#
# Stress axis : x y z
#
# Youngs Moduli (GPa) = 19.16246 49.31616 100.96028
#
# Poissons Ratio (x) = 0.62472 0.68646
# Poissons Ratio (y) = 0.24274 0.17921
# Poissons Ratio (z) = 0.13029 0.08754
#
# Static dielectric constant tensor:
#      x y z
#    x 3.709600 0.000000 -0.019190 
#    y 0.000000 3.597450 0.000000 
#    z -0.019190 0.000000 3.904630 
# 
# 
# High freq. dielectric constant tensor:
#      x y z
#    x 1.784250 0.000000 0.003040 
#    y 0.000000 1.775270 0.000000 
#    z 0.003040 0.000000 1.799930 
# 
# From -- ./inp_files/88551.got.cif
#   From: 2010.06.25/outbox.cif.g09.slc.cpg/sg10_45_cif.got.tgz:88551.got - 2010.06.27 22:07:45.
