data_PCOD8064735
_publ_section_title
;
Structure prediction by ZEFSAII (Michael W. Deem and Ramdas Pophale) SiO2 
 PCOD8064735
Probable space group: P 2/M
;
_chemical_formula_sum "Si O2"
_cell_formula_units_Z 22
_cell_length_a 9.188593
_cell_length_b 27.055291
_cell_length_c 7.979555
_cell_angle_alpha 90.000000
_cell_angle_beta 146.759493
_cell_angle_gamma 90.000000
_cell_volume 1087.384179
_symmetry_space_group_name_H-M "P 2/M"
_symmetry_group_IT_number 10
_symmetry_cell_setting 'monoclinic'
loop_
_space_group_symop_operation_xyz
x,y,z
-x,y,-z
-x,-y,-z
x,-y,z
loop_
_atom_site_type_symbol
_atom_site_label
_atom_site_fract_x
_atom_site_fract_y
_atom_site_fract_z
Si Si1 0.910892 0.157564 0.101841
Si Si2 0.760157 0.744421 0.145279
Si Si3 0.260945 0.659492 0.141549
Si Si4 0.591684 0.895539 0.279371
Si Si5 0.734736 0.000000 0.353878
Si Si6 0.260679 0.552032 0.143130
O O1 0.160096 0.140504 0.453379
O O2 0.810205 0.208696 0.077648
O O3 0.000000 0.166660 0.000000
O O4 0.667145 0.118322 0.860712
O O5 0.000000 0.732702 0.500000
O O6 0.500000 0.756218 0.000000
O O7 0.712920 0.697481 0.983451
O O8 0.500000 0.666685 0.500000
O O9 0.266043 0.605056 0.054054
O O10 0.000000 0.668322 0.000000
O O11 0.700967 0.950447 0.432844
O O12 0.500000 0.891365 0.000000
O O13 0.000000 0.000000 0.500000
O O14 0.500000 0.000000 0.000000
O O15 0.500000 0.551740 0.500000
O O16 0.272497 0.500000 0.045431
O O17 0.000000 0.550790 0.000000
#
# Coordination Sequence:
#
# PCOD8064735 Si02
#       6
#     4   4   4   4   2   4
#     4  12  25  41  60  86 117 150 189 237 288 334
#     4  12  25  40  59  82 112 151 192 234 284 343
#     4  10  20  36  58  84 114 147 187 237 284 329
#     4  11  22  41  65  90 117 151 192 229 273 334
#     4  10  20  36  63  92 117 150 189 228 269 330
#     4   8  14  26  48  78 108 140 181 226 272 326
#
# _framework density 20.232040999999999
#
# number of rings (size 3 to 8) (size 9 to 14) (size 15 to 20)
#    0.000    1.455    0.000    7.636    0.000    1.455 
#    0.000    2.727    0.000    1.091    0.000    0.000 
#    0.000    0.000    0.000    0.000    0.000    0.000 
#
# Total GULP energy -272606.564727 kJ/mol
# GULP energy per Si atom -12391.207488 kJ/mol
# Density = 2.018599 g / cm^3
# Si number density = 20.232041 Si / 1000 Ang^3
#
#
#
# Elastic Constant Matrix: (Units=GPa)
#
#
# Indices 1 2 3 4 5 6 
#
# 1 111.2260 83.6594 45.3917 0.0000 15.4998 0.0000
# 2 83.6594 190.1084 55.1304 0.0000 -1.6331 0.0000
# 3 45.3917 55.1304 131.4100 0.0000 27.6728 0.0000
# 4 0.0000 0.0000 0.0000 30.9500 0.0000 6.6964
# 5 15.4998 -1.6331 27.6728 0.0000 32.9459 0.0000
# 6 0.0000 0.0000 0.0000 6.6964 0.0000 61.5313
#
#
#
# Elastic Compliance Matrix: (Units=1/GPa)
#
#
# Indices 1 2 3 4 5 6 
#
# 1 0.015187 -0.006388 -0.001208 0.000000 -0.006447 0.000000
# 2 -0.006388 0.008917 -0.002746 0.000000 0.005754 0.000000
# 3 -0.001208 -0.002746 0.011041 0.000000 -0.008842 0.000000
# 4 0.000000 0.000000 0.000000 0.033089 0.000000 -0.003601
# 5 -0.006447 0.005754 -0.008842 0.000000 0.041097 0.000000
# 6 0.000000 0.000000 0.000000 -0.003601 0.000000 0.016644
#
#
# Mechanical properties :
#
#
# Convention : Reuss Voigt Hill
#
# Bulk Modulus (GPa) = 69.15570 89.01193 79.08382
# Shear Modulus (GPa) = 33.00736 41.65628 37.33182
#
# Velocity S-wave (km/s) = 4.04349 4.54246 4.30022
# Velocity P-wave (km/s) = 7.48700 8.46185 7.98931
#
# Compressibility (1/GPa) = 0.01446012
#
# Stress axis : x y z
#
# Youngs Moduli (GPa) = 65.84497 112.14321 90.57066
#
# Poissons Ratio (x) = 0.71640 0.10944
# Poissons Ratio (y) = 0.42064 0.24871
# Poissons Ratio (z) = 0.07956 0.30795
#
# Static dielectric constant tensor:
#      x y z
#    x 3.384840 0.000000 0.312390 
#    y 0.000000 5.513920 0.000000 
#    z 0.312390 0.000000 3.925080 
# 
# 
# High freq. dielectric constant tensor:
#      x y z
#    x 1.752840 0.000000 0.030670 
#    y 0.000000 1.820140 0.000000 
#    z 0.030670 0.000000 1.809770 
# 
# From -- ./inp_files/20907.got.cif
#   From: 2010.06.25/outbox.cif.g09.slc.cpg/sg10_11_cif.got.tgz:20907.got - 2010.06.27 22:07:45.
