data_PCOD8064709
_publ_section_title
;
Structure prediction by ZEFSAII (Michael W. Deem and Ramdas Pophale) SiO2 
 PCOD8064709
Probable space group: P 2/M
;
_chemical_formula_sum "Si O2"
_cell_formula_units_Z 32
_cell_length_a 14.656873
_cell_length_b 9.336310
_cell_length_c 11.785298
_cell_angle_alpha 90.000000
_cell_angle_beta 93.937857
_cell_angle_gamma 90.000000
_cell_volume 1608.905839
_symmetry_space_group_name_H-M "P 2/M"
_symmetry_group_IT_number 10
_symmetry_cell_setting 'monoclinic'
loop_
_space_group_symop_operation_xyz
x,y,z
-x,y,-z
-x,-y,-z
x,-y,z
loop_
_atom_site_type_symbol
_atom_site_label
_atom_site_fract_x
_atom_site_fract_y
_atom_site_fract_z
Si Si1 0.511420 0.830566 0.371951
Si Si2 0.341283 0.166872 0.205546
Si Si3 0.160549 0.663211 0.570843
Si Si4 0.332673 0.662537 0.739097
Si Si5 0.180570 0.164389 0.356833
Si Si6 0.971232 0.166303 0.299080
Si Si7 0.712684 0.334197 0.012050
Si Si8 0.082419 0.335759 0.921821
O O1 0.500000 0.775216 0.500000
O O2 0.424285 0.780514 0.291616
O O3 0.601446 0.764452 0.325218
O O4 0.523240 0.000000 0.371787
O O5 0.247144 0.205268 0.260123
O O6 0.343951 0.247448 0.086198
O O7 0.349741 0.000000 0.180058
O O8 0.133204 0.500000 0.541742
O O9 0.231312 0.672442 0.679872
O O10 0.205386 0.733881 0.463790
O O11 0.069872 0.752031 0.595656
O O12 0.369222 0.500000 0.734350
O O13 0.325320 0.713709 0.868538
O O14 0.078955 0.192876 0.304029
O O15 0.195424 0.000000 0.396091
O O16 0.926736 0.228186 0.182466
O O17 0.946177 0.000000 0.307770
O O18 0.692624 0.500000 0.989709
O O19 0.821078 0.302979 0.009563
O O20 0.080427 0.500000 0.877015
O O21 0.000000 0.305634 0.000000
#
# Coordination Sequence:
#
# PCOD8064709 Si02
#       8
#     4   4   4   4   4   4   4   4
#     4  10  22  41  65  91 118 151 192 240 296 355
#     4  10  22  40  61  87 119 152 193 244 292 351
#     4  11  22  38  59  84 117 155 200 245 291 353
#     4  10  22  40  61  86 119 155 194 245 295 349
#     4  10  22  39  57  83 120 156 194 243 299 351
#     4  11  22  35  55  84 118 155 196 244 296 351
#     4  10  21  39  59  84 120 156 196 243 293 348
#     4  10  20  36  58  82 115 159 204 249 291 342
#
# _framework density 19.889292000000001
#
# number of rings (size 3 to 8) (size 9 to 14) (size 15 to 20)
#    0.000    1.750    1.250    2.625    0.000    7.500 
#    0.000    2.500    0.000    0.000    0.000    0.000 
#    0.000    0.000    0.000    0.000    0.000    0.000 
#
# Total GULP energy -396959.578666 kJ/mol
# GULP energy per Si atom -12404.986833 kJ/mol
# Density = 1.984402 g / cm^3
# Si number density = 19.889292 Si / 1000 Ang^3
#
#
#
# Elastic Constant Matrix: (Units=GPa)
#
#
# Indices 1 2 3 4 5 6 
#
# 1 81.3636 30.0710 27.8094 0.0000 -9.7398 0.0000
# 2 30.0710 74.6745 49.1253 0.0000 -0.7180 0.0000
# 3 27.8094 49.1253 121.2602 0.0000 2.6089 0.0000
# 4 0.0000 0.0000 0.0000 37.7779 0.0000 1.1906
# 5 -9.7398 -0.7180 2.6089 0.0000 32.0436 0.0000
# 6 0.0000 0.0000 0.0000 1.1906 0.0000 27.8424
#
#
#
# Elastic Compliance Matrix: (Units=1/GPa)
#
#
# Indices 1 2 3 4 5 6 
#
# 1 0.015252 -0.005086 -0.001537 0.000000 0.004647 0.000000
# 2 -0.005086 0.019986 -0.006919 0.000000 -0.000535 0.000000
# 3 -0.001537 -0.006919 0.011436 0.000000 -0.001553 0.000000
# 4 0.000000 0.000000 0.000000 0.026506 0.000000 -0.001133
# 5 0.004647 -0.000535 -0.001553 0.000000 0.032734 0.000000
# 6 0.000000 0.000000 0.000000 -0.001133 0.000000 0.035965
#
#
# Mechanical properties :
#
#
# Convention : Reuss Voigt Hill
#
# Bulk Modulus (GPa) = 51.04800 54.58998 52.81899
# Shear Modulus (GPa) = 28.49109 30.88561 29.68835
#
# Velocity S-wave (km/s) = 3.78892 3.94493 3.86771
# Velocity P-wave (km/s) = 6.69799 6.94669 6.82347
#
# Compressibility (1/GPa) = 0.01958940
#
# Stress axis : x y z
#
# Youngs Moduli (GPa) = 65.56553 50.03495 87.44490
#
# Poissons Ratio (x) = 0.25447 0.13444
# Poissons Ratio (y) = 0.33345 0.60503
# Poissons Ratio (z) = 0.10080 0.34619
#
# Static dielectric constant tensor:
#      x y z
#    x 3.608160 0.000000 -0.042420 
#    y 0.000000 3.560220 0.000000 
#    z -0.042420 0.000000 3.625300 
# 
# 
# High freq. dielectric constant tensor:
#      x y z
#    x 1.778130 0.000000 -0.002380 
#    y 0.000000 1.770940 0.000000 
#    z -0.002380 0.000000 1.783130 
# 
# From -- ./inp_files/49939.got.cif
#   From: 2010.06.25/outbox.cif.g09.slc.cpg/sg10_25_cif.got.tgz:49939.got - 2010.06.27 22:07:45.
