data_PCOD8064024
_publ_section_title
;
Structure prediction by ZEFSAII (Michael W. Deem and Ramdas Pophale) SiO2 
 PCOD8064024
Probable space group: P 2/M
;
_chemical_formula_sum "Si O2"
_cell_formula_units_Z 24
_cell_length_a 12.264122
_cell_length_b 8.723315
_cell_length_c 12.188672
_cell_angle_alpha 90.000000
_cell_angle_beta 83.630886
_cell_angle_gamma 90.000000
_cell_volume 1295.942033
_symmetry_space_group_name_H-M "P 2/M"
_symmetry_group_IT_number 10
_symmetry_cell_setting 'monoclinic'
loop_
_space_group_symop_operation_xyz
x,y,z
-x,y,-z
-x,-y,-z
x,-y,z
loop_
_atom_site_type_symbol
_atom_site_label
_atom_site_fract_x
_atom_site_fract_y
_atom_site_fract_z
Si Si1 0.667022 0.180961 0.186507
Si Si2 0.816113 0.321639 0.347596
Si Si3 0.374531 0.168319 0.047143
Si Si4 0.740685 0.181121 0.580066
Si Si5 0.029762 0.831517 0.370322
Si Si6 0.566672 0.678493 0.748779
O O1 0.758463 0.273683 0.241774
O O2 0.546436 0.229207 0.239754
O O3 0.679368 0.000000 0.204300
O O4 0.688029 0.224051 0.055905
O O5 0.800885 0.500000 0.372142
O O6 0.761042 0.228188 0.452452
O O7 0.946020 0.284412 0.320540
O O8 0.361567 0.284933 0.149832
O O9 0.331659 0.000000 0.089122
O O10 0.500000 0.153864 0.000000
O O11 0.634733 0.271024 0.634730
O O12 0.844209 0.226915 0.646673
O O13 0.719974 0.000000 0.586101
O O14 0.000000 0.846273 0.500000
O O15 0.019119 0.000000 0.316411
O O16 0.540198 0.500000 0.746446
#
# Coordination Sequence:
#
# PCOD8064024 Si02
#       6
#     4   4   4   4   4   4
#     4  10  20  35  53  72  99 135 171 201 237 293
#     4  11  21  32  50  77 105 129 160 205 254 294
#     4   8  16  32  52  71  93 128 170 203 235 287
#     4  10  20  35  53  72  99 135 171 201 237 293
#     4   8  16  32  52  71  93 128 170 203 235 287
#     4  11  21  32  50  77 105 129 160 205 254 294
#
# _framework density 18.519348000000001
#
# number of rings (size 3 to 8) (size 9 to 14) (size 15 to 20)
#    0.000    2.333    0.000    6.000    0.000    8.000 
#    0.000    3.333    0.000    1.000    0.000    7.000 
#    0.000    0.000    0.000    0.000    0.000    0.000 
#
# Total GULP energy -297502.897136 kJ/mol
# GULP energy per Si atom -12395.954047 kJ/mol
# Density = 1.847720 g / cm^3
# Si number density = 18.519348 Si / 1000 Ang^3
#
#
#
# Elastic Constant Matrix: (Units=GPa)
#
#
# Indices 1 2 3 4 5 6 
#
# 1 46.9283 15.1685 9.1187 0.0000 21.4410 0.0000
# 2 15.1685 67.9338 13.4003 0.0000 6.2797 0.0000
# 3 9.1187 13.4003 45.7004 0.0000 23.6671 0.0000
# 4 0.0000 0.0000 0.0000 23.3846 0.0000 2.9238
# 5 21.4410 6.2797 23.6671 0.0000 24.5733 0.0000
# 6 0.0000 0.0000 0.0000 2.9238 0.0000 8.0537
#
#
#
# Elastic Compliance Matrix: (Units=1/GPa)
#
#
# Indices 1 2 3 4 5 6 
#
# 1 0.050989 -0.010673 0.029095 0.000000 -0.069785 0.000000
# 2 -0.010673 0.017867 -0.011108 0.000000 0.015445 0.000000
# 3 0.029095 -0.011108 0.061869 0.000000 -0.082136 0.000000
# 4 0.000000 0.000000 0.000000 0.044797 0.000000 -0.016263
# 5 -0.069785 0.015445 -0.082136 0.000000 0.176744 0.000000
# 6 0.000000 0.000000 0.000000 -0.016263 0.000000 0.130072
#
#
# Mechanical properties :
#
#
# Convention : Reuss Voigt Hill
#
# Bulk Modulus (GPa) = 6.87978 26.21526 16.54752
# Shear Modulus (GPa) = 9.68690 19.39399 14.54045
#
# Velocity S-wave (km/s) = 2.28955 3.23960 2.80509
# Velocity P-wave (km/s) = 3.27298 5.30846 4.40977
#
# Compressibility (1/GPa) = 0.14535352
#
# Stress axis : x y z
#
# Youngs Moduli (GPa) = 19.61188 55.96983 16.16311
#
# Poissons Ratio (x) = 0.59739 -0.47027
# Poissons Ratio (y) = 0.20933 0.17954
# Poissons Ratio (z) = -0.57062 0.62171
#
# Static dielectric constant tensor:
#      x y z
#    x 3.502200 0.000000 0.199580 
#    y 0.000000 3.364340 0.000000 
#    z 0.199580 0.000000 3.446240 
# 
# 
# High freq. dielectric constant tensor:
#      x y z
#    x 1.700920 0.000000 0.013960 
#    y 0.000000 1.720610 0.000000 
#    z 0.013960 0.000000 1.698380 
# 
# From -- ./inp_files/45183.got.cif
#   From: 2010.06.25/outbox.cif.g09.slc.cpg/sg10_23_cif.got.tgz:45183.got - 2010.06.27 22:07:45.
