data_PCOD8064596
_publ_section_title
;
Structure prediction by ZEFSAII (Michael W. Deem and Ramdas Pophale) SiO2 
 PCOD8064596
Probable space group: P 2/M
;
_chemical_formula_sum "Si O2"
_cell_formula_units_Z 28
_cell_length_a 14.488897
_cell_length_b 9.092702
_cell_length_c 19.646539
_cell_angle_alpha 90.000000
_cell_angle_beta 147.284258
_cell_angle_gamma 90.000000
_cell_volume 1398.901512
_symmetry_space_group_name_H-M "P 2/M"
_symmetry_group_IT_number 10
_symmetry_cell_setting 'monoclinic'
loop_
_space_group_symop_operation_xyz
x,y,z
-x,y,-z
-x,-y,-z
x,-y,z
loop_
_atom_site_type_symbol
_atom_site_label
_atom_site_fract_x
_atom_site_fract_y
_atom_site_fract_z
Si Si1 0.591125 0.332883 0.701276
Si Si2 0.210306 0.829551 0.948024
Si Si3 0.315194 0.170218 0.867317
Si Si4 0.647477 0.836455 0.536326
Si Si5 0.507640 0.669599 0.800283
Si Si6 0.813441 0.825527 0.357982
Si Si7 0.119344 0.327252 0.222037
O O1 0.549243 0.500000 0.653569
O O2 0.430677 0.233365 0.580110
O O3 0.612488 0.316398 0.794959
O O4 0.766695 0.284476 0.773040
O O5 0.189010 0.806743 0.853484
O O6 0.064361 0.747228 0.900191
O O7 0.207272 0.000000 0.966262
O O8 0.392395 0.761462 0.080880
O O9 0.222182 0.232147 0.741704
O O10 0.349977 0.000000 0.874765
O O11 0.500000 0.243791 0.000000
O O12 0.500000 0.843442 0.500000
O O13 0.799021 0.735214 0.658039
O O14 0.718314 0.000000 0.564448
O O15 0.491756 0.500000 0.812432
O O16 0.320872 0.741744 0.676832
O O17 0.000000 0.777743 0.500000
O O18 0.789994 0.000000 0.350534
O O19 0.094299 0.500000 0.213753
#
# Coordination Sequence:
#
# PCOD8064596 Si02
#       7
#     4   4   4   4   4   4   4
#     4   9  20  37  56  78 114 161 193 229 290 354
#     4  11  22  37  59  84 113 150 197 244 290 346
#     4   9  17  35  61  84 112 150 187 229 291 357
#     4   9  17  31  53  80 108 141 188 241 285 330
#     4  11  23  39  58  83 115 151 195 241 295 351
#     4  10  21  39  63  90 117 149 191 239 295 359
#     4  10  20  36  56  81 116 155 195 234 284 349
#
# _framework density 20.015705000000001
#
# number of rings (size 3 to 8) (size 9 to 14) (size 15 to 20)
#    0.000    2.143    1.429    1.714    0.000    5.429 
#    0.000    6.429    0.000    0.000    0.000    0.000 
#    0.000    0.000    0.000    0.000    0.000    0.000 
#
# Total GULP energy -347163.580469 kJ/mol
# GULP energy per Si atom -12398.699302 kJ/mol
# Density = 1.997015 g / cm^3
# Si number density = 20.015705 Si / 1000 Ang^3
#
#
#
# Elastic Constant Matrix: (Units=GPa)
#
#
# Indices 1 2 3 4 5 6 
#
# 1 87.5706 39.0292 46.0709 0.0000 3.8205 0.0000
# 2 39.0292 99.3045 45.7298 0.0000 8.2811 0.0000
# 3 46.0709 45.7298 123.9027 0.0000 5.9491 0.0000
# 4 0.0000 0.0000 0.0000 30.8517 0.0000 3.9868
# 5 3.8205 8.2811 5.9491 0.0000 32.2148 0.0000
# 6 0.0000 0.0000 0.0000 3.9868 0.0000 26.3873
#
#
#
# Elastic Compliance Matrix: (Units=1/GPa)
#
#
# Indices 1 2 3 4 5 6 
#
# 1 0.015491 -0.004140 -0.004232 0.000000 0.000009 0.000000
# 2 -0.004140 0.013412 -0.003298 0.000000 -0.002348 0.000000
# 3 -0.004232 -0.003298 0.010894 0.000000 -0.000662 0.000000
# 4 0.000000 0.000000 0.000000 0.033059 0.000000 -0.004995
# 5 0.000009 -0.002348 -0.000662 0.000000 0.031766 0.000000
# 6 0.000000 0.000000 0.000000 -0.004995 0.000000 0.038652
#
#
# Mechanical properties :
#
#
# Convention : Reuss Voigt Hill
#
# Bulk Modulus (GPa) = 60.77005 63.60419 62.18712
# Shear Modulus (GPa) = 29.05322 29.88729 29.47026
#
# Velocity S-wave (km/s) = 3.81402 3.86838 3.84129
# Velocity P-wave (km/s) = 7.05852 7.19712 7.12816
#
# Compressibility (1/GPa) = 0.01645547
#
# Stress axis : x y z
#
# Youngs Moduli (GPa) = 64.55448 74.56253 91.79761
#
# Poissons Ratio (x) = 0.30869 0.38853
# Poissons Ratio (y) = 0.26725 0.30273
# Poissons Ratio (z) = 0.27322 0.24589
#
# Static dielectric constant tensor:
#      x y z
#    x 3.502640 0.000000 -0.027890 
#    y 0.000000 3.560170 0.000000 
#    z -0.027890 0.000000 3.629080 
# 
# 
# High freq. dielectric constant tensor:
#      x y z
#    x 1.774460 0.000000 0.000270 
#    y 0.000000 1.770050 0.000000 
#    z 0.000270 0.000000 1.776220 
# 
# From -- ./inp_files/70167.got.cif
#   From: 2010.06.25/outbox.cif.g09.slc.cpg/sg10_36_cif.got.tgz:70167.got - 2010.06.27 22:07:45.
