data_PCOD8064647
_publ_section_title
;
Structure prediction by ZEFSAII (Michael W. Deem and Ramdas Pophale) SiO2 
 PCOD8064647
Probable space group: P 2/M
;
_chemical_formula_sum "Si O2"
_cell_formula_units_Z 28
_cell_length_a 17.734462
_cell_length_b 7.509027
_cell_length_c 21.827753
_cell_angle_alpha 90.000000
_cell_angle_beta 28.372629
_cell_angle_gamma 90.000000
_cell_volume 1381.308685
_symmetry_space_group_name_H-M "P 2/M"
_symmetry_group_IT_number 10
_symmetry_cell_setting 'monoclinic'
loop_
_space_group_symop_operation_xyz
x,y,z
-x,y,-z
-x,-y,-z
x,-y,z
loop_
_atom_site_type_symbol
_atom_site_label
_atom_site_fract_x
_atom_site_fract_y
_atom_site_fract_z
Si Si1 0.072393 0.000000 0.381277
Si Si2 0.253584 0.210124 0.665038
Si Si3 0.533058 0.210482 0.380554
Si Si4 0.447503 0.000000 0.107312
Si Si5 0.397117 0.714133 0.920796
Si Si6 0.439480 0.298317 0.317769
Si Si7 0.085359 0.714258 0.588168
Si Si8 0.954831 0.297644 0.809692
O O1 0.019179 0.183074 0.386809
O O2 0.000000 0.000000 0.500000
O O3 0.260413 0.000000 0.249271
O O4 0.372520 0.284184 0.527518
O O5 0.315401 0.275659 0.687583
O O6 0.076078 0.277933 0.779811
O O7 0.256771 0.000000 0.660948
O O8 0.546497 0.283959 0.302308
O O9 0.528273 0.000000 0.381663
O O10 0.512618 0.817143 0.090026
O O11 0.500000 0.000000 0.000000
O O12 0.413312 0.500000 0.918083
O O13 0.468644 0.786151 0.805364
O O14 0.215131 0.783908 0.051318
O O15 0.411177 0.500000 0.320494
O O16 0.265838 0.214267 0.452078
O O17 0.068759 0.500000 0.591793
O O18 0.028062 0.785467 0.695562
O O19 0.922964 0.500000 0.817542
#
# Coordination Sequence:
#
# PCOD8064647 Si02
#       8
#     2   4   4   2   4   4   4   4
#     4  12  26  40  62  92 115 146 184 230 297 350
#     4   9  18  31  51  84 120 153 194 246 292 327
#     4   9  18  31  51  84 120 155 193 242 294 331
#     4  12  26  44  66  92 111 152 200 220 293 368
#     4  10  24  42  60  87 122 152 189 240 288 344
#     4  10  20  36  57  83 116 158 195 232 290 343
#     4  10  22  38  60  89 114 146 193 236 282 341
#     4  10  20  36  57  83 112 152 195 238 287 328
#
# _framework density 20.270631000000002
#
# number of rings (size 3 to 8) (size 9 to 14) (size 15 to 20)
#    0.000    2.000    1.429    2.571    4.000    1.714 
#    0.000    2.143    0.000    4.286    0.000    0.000 
#    0.000    0.000    0.000    0.000    0.000    0.000 
#
# Total GULP energy -347063.303452 kJ/mol
# GULP energy per Si atom -12395.117980 kJ/mol
# Density = 2.022449 g / cm^3
# Si number density = 20.270631 Si / 1000 Ang^3
#
#
#
# Elastic Constant Matrix: (Units=GPa)
#
#
# Indices 1 2 3 4 5 6 
#
# 1 159.7600 31.5021 95.9020 0.0000 -5.6511 0.0000
# 2 31.5021 57.0865 27.3735 0.0000 -2.3462 0.0000
# 3 95.9020 27.3735 183.4064 0.0000 -3.6317 0.0000
# 4 0.0000 0.0000 0.0000 10.5709 0.0000 -4.3195
# 5 -5.6511 -2.3462 -3.6317 0.0000 38.2284 0.0000
# 6 0.0000 0.0000 0.0000 -4.3195 0.0000 27.1774
#
#
#
# Elastic Compliance Matrix: (Units=1/GPa)
#
#
# Indices 1 2 3 4 5 6 
#
# 1 0.009636 -0.003098 -0.004560 0.000000 0.000801 0.000000
# 2 -0.003098 0.019894 -0.001337 0.000000 0.000636 0.000000
# 3 -0.004560 -0.001337 0.008037 0.000000 0.000007 0.000000
# 4 0.000000 0.000000 0.000000 0.101170 0.000000 0.016080
# 5 0.000801 0.000636 0.000007 0.000000 0.026317 0.000000
# 6 0.000000 0.000000 0.000000 0.016080 0.000000 0.039351
#
#
# Mechanical properties :
#
#
# Convention : Reuss Voigt Hill
#
# Bulk Modulus (GPa) = 51.08135 78.86758 64.97447
# Shear Modulus (GPa) = 21.84167 31.56034 26.70100
#
# Velocity S-wave (km/s) = 3.28610 3.95010 3.63330
# Velocity P-wave (km/s) = 6.29701 7.73280 7.05154
#
# Compressibility (1/GPa) = 0.01957662
#
# Stress axis : x y z
#
# Youngs Moduli (GPa) = 103.77567 50.26674 124.42961
#
# Poissons Ratio (x) = 0.15572 0.56746
# Poissons Ratio (y) = 0.32148 0.16633
# Poissons Ratio (z) = 0.47327 0.06719
#
# Static dielectric constant tensor:
#      x y z
#    x 3.883020 0.000000 -0.036100 
#    y 0.000000 3.509120 0.000000 
#    z -0.036100 0.000000 4.056970 
# 
# 
# High freq. dielectric constant tensor:
#      x y z
#    x 1.793470 0.000000 -0.004090 
#    y 0.000000 1.788830 0.000000 
#    z -0.004090 0.000000 1.784240 
# 
# From -- ./inp_files/84943.got.cif
#   From: 2010.06.25/outbox.cif.g09.slc.cpg/sg10_43_cif.got.tgz:84943.got - 2010.06.27 22:07:45.
