data_PCOD8064466
_publ_section_title
;
Structure prediction by ZEFSAII (Michael W. Deem and Ramdas Pophale) SiO2 
 PCOD8064466
Probable space group: P 2/M
;
_chemical_formula_sum "Si O2"
_cell_formula_units_Z 32
_cell_length_a 13.362988
_cell_length_b 14.021675
_cell_length_c 8.878593
_cell_angle_alpha 90.000000
_cell_angle_beta 109.454601
_cell_angle_gamma 90.000000
_cell_volume 1568.613254
_symmetry_space_group_name_H-M "P 2/M"
_symmetry_group_IT_number 10
_symmetry_cell_setting 'monoclinic'
loop_
_space_group_symop_operation_xyz
x,y,z
-x,y,-z
-x,-y,-z
x,-y,z
loop_
_atom_site_type_symbol
_atom_site_label
_atom_site_fract_x
_atom_site_fract_y
_atom_site_fract_z
Si Si1 0.810798 0.291357 0.231130
Si Si2 0.615859 0.701798 0.621581
Si Si3 0.878965 0.107200 0.395741
Si Si4 0.998122 0.612529 0.832121
Si Si5 0.321029 0.891080 0.506776
Si Si6 0.400395 0.710514 0.059855
Si Si7 0.490385 0.101225 0.172837
Si Si8 0.201065 0.610946 0.459164
O O1 0.847600 0.181080 0.248220
O O2 0.794867 0.324725 0.392209
O O3 0.895468 0.358937 0.197436
O O4 0.701599 0.302515 0.090680
O O5 0.500000 0.691607 0.500000
O O6 0.654186 0.812899 0.610854
O O7 0.613121 0.654958 0.789893
O O8 0.690660 0.627686 0.574138
O O9 0.800539 0.120949 0.499178
O O10 0.000000 0.128342 0.500000
O O11 0.867038 0.000000 0.324979
O O12 0.992875 0.500000 0.840230
O O13 0.896440 0.649747 0.690017
O O14 0.000000 0.657975 0.000000
O O15 0.398050 0.872263 0.690214
O O16 0.338663 0.000000 0.455111
O O17 0.408276 0.813281 0.149409
O O18 0.500000 0.686035 0.000000
O O19 0.448195 0.000000 0.217243
O O20 0.500000 0.091180 0.000000
O O21 0.187946 0.500000 0.494958
#
# Coordination Sequence:
#
# PCOD8064466 Si02
#       8
#     4   4   4   4   4   4   4   4
#     4  12  22  38  65  93 123 166 209 255 305 371
#     4  12  23  40  63  90 124 161 203 257 315 373
#     4  10  20  35  58  90 125 162 203 247 300 363
#     4  10  22  42  67  96 126 158 205 263 314 364
#     4  10  20  36  59  91 125 163 210 257 305 365
#     4  11  23  38  57  87 124 164 200 250 309 371
#     4   9  17  31  54  84 120 157 200 251 301 351
#     4  11  24  42  66  94 123 158 204 258 313 369
#
# _framework density 20.400182999999998
#
# number of rings (size 3 to 8) (size 9 to 14) (size 15 to 20)
#    0.000    1.375    2.500    4.500    0.000    3.500 
#    0.000    0.625    0.000    3.000    0.000    0.000 
#    0.000    0.000    0.000    0.000    0.000    0.000 
#
# Total GULP energy -396478.485404 kJ/mol
# GULP energy per Si atom -12389.952669 kJ/mol
# Density = 2.035375 g / cm^3
# Si number density = 20.400183 Si / 1000 Ang^3
#
#
#
# Elastic Constant Matrix: (Units=GPa)
#
#
# Indices 1 2 3 4 5 6 
#
# 1 128.6137 6.7763 72.7721 0.0000 13.8250 0.0000
# 2 6.7763 32.9051 29.2354 0.0000 12.5921 0.0000
# 3 72.7721 29.2354 140.5929 0.0000 3.2463 0.0000
# 4 0.0000 0.0000 0.0000 23.7612 0.0000 4.9292
# 5 13.8250 12.5921 3.2463 0.0000 39.8448 0.0000
# 6 0.0000 0.0000 0.0000 4.9292 0.0000 119.8161
#
#
#
# Elastic Compliance Matrix: (Units=1/GPa)
#
#
# Indices 1 2 3 4 5 6 
#
# 1 0.012338 0.006364 -0.007579 0.000000 -0.005675 0.000000
# 2 0.006364 0.046285 -0.012554 0.000000 -0.015813 0.000000
# 3 -0.007579 -0.012554 0.013519 0.000000 0.005495 0.000000
# 4 0.000000 0.000000 0.000000 0.042448 0.000000 -0.001746
# 5 -0.005675 -0.015813 0.005495 0.000000 0.031616 0.000000
# 6 0.000000 0.000000 0.000000 -0.001746 0.000000 0.008418
#
#
# Mechanical properties :
#
#
# Convention : Reuss Voigt Hill
#
# Bulk Modulus (GPa) = 22.41872 57.74216 40.08044
# Shear Modulus (GPa) = 25.37712 49.57294 37.47503
#
# Velocity S-wave (km/s) = 3.53082 4.93488 4.29067
# Velocity P-wave (km/s) = 5.25695 7.79980 6.65103
#
# Compressibility (1/GPa) = 0.04460558
#
# Stress axis : x y z
#
# Youngs Moduli (GPa) = 81.05013 21.60545 73.96961
#
# Poissons Ratio (x) = -0.13750 0.56059
# Poissons Ratio (y) = -0.51582 0.92859
# Poissons Ratio (z) = 0.61425 0.27123
#
# Static dielectric constant tensor:
#      x y z
#    x 3.866890 0.000000 -0.133640 
#    y 0.000000 4.452530 0.000000 
#    z -0.133640 0.000000 3.917820 
# 
# 
# High freq. dielectric constant tensor:
#      x y z
#    x 1.803060 0.000000 0.001160 
#    y 0.000000 1.793330 0.000000 
#    z 0.001160 0.000000 1.796760 
# 
# From -- ./inp_files/29531.got.cif
#   From: 2010.06.25/outbox.cif.g09.slc.cpg/sg10_15_cif.got.tgz:29531.got - 2010.06.27 22:07:45.
