data_PCOD8064562
_publ_section_title
;
Structure prediction by ZEFSAII (Michael W. Deem and Ramdas Pophale) SiO2 
 PCOD8064562
Probable space group: P 2/M
;
_chemical_formula_sum "Si O2"
_cell_formula_units_Z 32
_cell_length_a 18.439743
_cell_length_b 13.843297
_cell_length_c 11.969260
_cell_angle_alpha 90.000000
_cell_angle_beta 30.117689
_cell_angle_gamma 90.000000
_cell_volume 1533.109431
_symmetry_space_group_name_H-M "P 2/M"
_symmetry_group_IT_number 10
_symmetry_cell_setting 'monoclinic'
loop_
_space_group_symop_operation_xyz
x,y,z
-x,y,-z
-x,-y,-z
x,-y,z
loop_
_atom_site_type_symbol
_atom_site_label
_atom_site_fract_x
_atom_site_fract_y
_atom_site_fract_z
Si Si1 0.651938 0.112394 0.832852
Si Si2 0.419699 0.392108 0.934948
Si Si3 0.143587 0.107512 0.262775
Si Si4 0.276525 0.391326 0.349492
Si Si5 0.162662 0.203271 0.598473
Si Si6 0.345410 0.109217 0.546858
Si Si7 0.576174 0.265753 0.290611
Si Si8 0.161483 0.157906 0.992436
O O1 0.709180 0.152348 0.877754
O O2 0.778611 0.134220 0.576855
O O3 0.618732 0.000000 0.881470
O O4 0.500000 0.165051 0.000000
O O5 0.375254 0.500000 0.958916
O O6 0.576756 0.392046 0.777927
O O7 0.421645 0.329783 0.821424
O O8 0.306659 0.356421 0.181321
O O9 0.000000 0.163207 0.500000
O O10 0.137686 0.000000 0.322249
O O11 0.146119 0.099085 0.127151
O O12 0.209341 0.500000 0.440402
O O13 0.171687 0.315489 0.550077
O O14 0.257210 0.178005 0.580629
O O15 0.995096 0.184356 0.847372
O O16 0.496092 0.162673 0.373685
O O17 0.247232 0.095268 0.787459
O O18 0.376376 0.000000 0.459003
O O19 0.500000 0.316241 0.500000
O O20 0.743144 0.251561 0.103311
#
# Coordination Sequence:
#
# PCOD8064562 Si02
#       8
#     4   4   4   4   4   4   4   4
#     4  10  23  37  54  87 119 151 199 251 300 353
#     4   9  18  38  67  96 122 154 200 254 310 365
#     4  10  20  36  55  78 114 154 197 242 298 361
#     4   9  20  37  65  97 122 153 197 254 315 368
#     4  12  23  39  64  87 121 161 206 253 302 365
#     4  11  25  43  63  87 120 166 216 262 302 354
#     4  10  23  41  61  91 124 160 207 252 303 364
#     4  11  25  39  58  87 123 164 205 245 307 362
#
# _framework density 20.872613000000001
#
# number of rings (size 3 to 8) (size 9 to 14) (size 15 to 20)
#    0.000    1.750    2.500    1.875    5.250    5.000 
#    0.000    0.625    0.000    3.750    0.000    0.000 
#    0.000    0.000    0.000    0.000    0.000    0.000 
#
# Total GULP energy -396508.141878 kJ/mol
# GULP energy per Si atom -12390.879434 kJ/mol
# Density = 2.082511 g / cm^3
# Si number density = 20.872613 Si / 1000 Ang^3
#
#
#
# Elastic Constant Matrix: (Units=GPa)
#
#
# Indices 1 2 3 4 5 6 
#
# 1 102.1468 29.7668 23.3031 0.0000 9.3965 0.0000
# 2 29.7668 69.0528 19.4287 0.0000 8.2965 0.0000
# 3 23.3031 19.4287 69.1543 0.0000 -0.6680 0.0000
# 4 0.0000 0.0000 0.0000 15.8616 0.0000 5.0759
# 5 9.3965 8.2965 -0.6680 0.0000 41.0668 0.0000
# 6 0.0000 0.0000 0.0000 5.0759 0.0000 24.1461
#
#
#
# Elastic Compliance Matrix: (Units=1/GPa)
#
#
# Indices 1 2 3 4 5 6 
#
# 1 0.011799 -0.004051 -0.002857 0.000000 -0.001928 0.000000
# 2 -0.004051 0.017561 -0.003595 0.000000 -0.002679 0.000000
# 3 -0.002857 -0.003595 0.016449 0.000000 0.001647 0.000000
# 4 0.000000 0.000000 0.000000 0.067592 0.000000 -0.014209
# 5 -0.001928 -0.002679 0.001647 0.000000 0.025360 0.000000
# 6 0.000000 0.000000 0.000000 -0.014209 0.000000 0.044402
#
#
# Mechanical properties :
#
#
# Convention : Reuss Voigt Hill
#
# Bulk Modulus (GPa) = 40.31436 42.81681 41.56558
# Shear Modulus (GPa) = 23.53652 27.40525 25.47089
#
# Velocity S-wave (km/s) = 3.36166 3.62743 3.49707
# Velocity P-wave (km/s) = 5.86720 6.17271 6.02189
#
# Compressibility (1/GPa) = 0.02480506
#
# Stress axis : x y z
#
# Youngs Moduli (GPa) = 84.75026 56.94355 60.79471
#
# Poissons Ratio (x) = 0.23068 0.17366
# Poissons Ratio (y) = 0.34333 0.21853
# Poissons Ratio (z) = 0.24209 0.20469
#
# Static dielectric constant tensor:
#      x y z
#    x 4.092340 0.000000 0.038160 
#    y 0.000000 3.780480 0.000000 
#    z 0.038160 0.000000 3.796300 
# 
# 
# High freq. dielectric constant tensor:
#      x y z
#    x 1.830610 0.000000 0.006350 
#    y 0.000000 1.788390 0.000000 
#    z 0.006350 0.000000 1.812730 
# 
# From -- ./inp_files/54001.got.cif
#   From: 2010.06.25/outbox.cif.g09.slc.cpg/sg10_28_cif.got.tgz:54001.got - 2010.06.27 22:07:45.
