data_PCOD8064641
_publ_section_title
;
Structure prediction by ZEFSAII (Michael W. Deem and Ramdas Pophale) SiO2 
 PCOD8064641
Probable space group: P 2/M
;
_chemical_formula_sum "Si O2"
_cell_formula_units_Z 20
_cell_length_a 12.278657
_cell_length_b 8.527393
_cell_length_c 9.593522
_cell_angle_alpha 90.000000
_cell_angle_beta 86.320973
_cell_angle_gamma 90.000000
_cell_volume 1002.419008
_symmetry_space_group_name_H-M "P 2/M"
_symmetry_group_IT_number 10
_symmetry_cell_setting 'monoclinic'
loop_
_space_group_symop_operation_xyz
x,y,z
-x,y,-z
-x,-y,-z
x,-y,z
loop_
_atom_site_type_symbol
_atom_site_label
_atom_site_fract_x
_atom_site_fract_y
_atom_site_fract_z
Si Si1 0.136395 0.816976 0.599799
Si Si2 0.249162 0.182394 0.084159
Si Si3 0.541743 0.672684 0.840467
Si Si4 0.089691 0.315563 0.311992
Si Si5 0.309419 0.315155 0.783885
O O1 0.147267 0.767957 0.438205
O O2 0.248883 0.777526 0.666966
O O3 0.038773 0.721787 0.681301
O O4 0.110246 0.000000 0.612004
O O5 0.354877 0.211473 0.174998
O O6 0.141862 0.248965 0.166928
O O7 0.235636 0.000000 0.056118
O O8 0.260062 0.270737 0.937391
O O9 0.579144 0.500000 0.785181
O O10 0.437583 0.733696 0.760324
O O11 0.500000 0.658037 0.000000
O O12 0.107994 0.500000 0.321795
O O13 0.295435 0.500000 0.764345
#
# Coordination Sequence:
#
# PCOD8064641 Si02
#       5
#     4   4   4   4   4
#     4  11  22  38  58  82 110 139 177 225 274 319
#     4  11  21  34  55  84 113 141 179 227 272 312
#     4   8  16  32  53  77 108 144 179 216 263 321
#     4  11  22  39  59  78 106 146 184 217 266 328
#     4  10  20  36  57  82 111 145 183 219 263 322
#
# _framework density 19.951736
#
# number of rings (size 3 to 8) (size 9 to 14) (size 15 to 20)
#    0.000    1.800    0.000    8.400    0.000    5.200 
#    0.000    5.000    0.000    6.000    0.000    0.000 
#    0.000    0.000    0.000    0.000    0.000    0.000 
#
# Total GULP energy -248007.887022 kJ/mol
# GULP energy per Si atom -12400.394351 kJ/mol
# Density = 1.990633 g / cm^3
# Si number density = 19.951736 Si / 1000 Ang^3
#
#
#
# Elastic Constant Matrix: (Units=GPa)
#
#
# Indices 1 2 3 4 5 6 
#
# 1 40.9300 3.6823 2.4370 0.0000 21.4396 0.0000
# 2 3.6823 59.4749 9.7840 0.0000 -3.7395 0.0000
# 3 2.4370 9.7840 25.5321 0.0000 12.2762 0.0000
# 4 0.0000 0.0000 0.0000 20.3348 0.0000 3.4765
# 5 21.4396 -3.7395 12.2762 0.0000 35.3690 0.0000
# 6 0.0000 0.0000 0.0000 3.4765 0.0000 27.8523
#
#
#
# Elastic Compliance Matrix: (Units=1/GPa)
#
#
# Indices 1 2 3 4 5 6 
#
# 1 0.039396 -0.006324 0.012563 0.000000 -0.028910 0.000000
# 2 -0.006324 0.019775 -0.011790 0.000000 0.010016 0.000000
# 3 0.012563 -0.011790 0.056110 0.000000 -0.028337 0.000000
# 4 0.000000 0.000000 0.000000 0.050249 0.000000 -0.006272
# 5 -0.028910 0.010016 -0.028337 0.000000 0.056692 0.000000
# 6 0.000000 0.000000 0.000000 -0.006272 0.000000 0.036687
#
#
# Mechanical properties :
#
#
# Convention : Reuss Voigt Hill
#
# Bulk Modulus (GPa) = 9.59874 17.52708 13.56291
# Shear Modulus (GPa) = 16.40760 24.04678 20.22719
#
# Velocity S-wave (km/s) = 2.87080 3.47543 3.18749
# Velocity P-wave (km/s) = 3.97619 4.99086 4.51214
#
# Compressibility (1/GPa) = 0.10418035
#
# Stress axis : x y z
#
# Youngs Moduli (GPa) = 25.38317 50.56974 17.82201
#
# Poissons Ratio (x) = 0.31978 -0.22390
# Poissons Ratio (y) = 0.16051 0.21012
# Poissons Ratio (z) = -0.31890 0.59622
#
# Static dielectric constant tensor:
#      x y z
#    x 4.747920 0.000000 0.053750 
#    y 0.000000 3.653040 0.000000 
#    z 0.053750 0.000000 3.402950 
# 
# 
# High freq. dielectric constant tensor:
#      x y z
#    x 1.783640 0.000000 0.008670 
#    y 0.000000 1.787320 0.000000 
#    z 0.008670 0.000000 1.751490 
# 
# From -- ./inp_files/22297.got.cif
#   From: 2010.06.25/outbox.cif.g09.slc.cpg/sg10_12_cif.got.tgz:22297.got - 2010.06.27 22:07:45.
