data_PCOD8064729
_publ_section_title
;
Structure prediction by ZEFSAII (Michael W. Deem and Ramdas Pophale) SiO2 
 PCOD8064729
Probable space group: P 2/M
;
_chemical_formula_sum "Si O2"
_cell_formula_units_Z 32
_cell_length_a 23.965360
_cell_length_b 8.788499
_cell_length_c 15.119491
_cell_angle_alpha 90.000000
_cell_angle_beta 150.259949
_cell_angle_gamma 90.000000
_cell_volume 1579.701642
_symmetry_space_group_name_H-M "P 2/M"
_symmetry_group_IT_number 10
_symmetry_cell_setting 'monoclinic'
loop_
_space_group_symop_operation_xyz
x,y,z
-x,y,-z
-x,-y,-z
x,-y,z
loop_
_atom_site_type_symbol
_atom_site_label
_atom_site_fract_x
_atom_site_fract_y
_atom_site_fract_z
Si Si1 0.406591 0.665930 0.940950
Si Si2 0.834565 0.819832 0.936914
Si Si3 0.092947 0.178333 0.274740
Si Si4 0.259940 0.680039 0.364681
Si Si5 0.510511 0.679650 0.753775
Si Si6 0.125094 0.676248 0.674485
Si Si7 0.722929 0.179386 0.967421
Si Si8 0.797323 0.173987 0.389677
O O1 0.346270 0.500000 0.875892
O O2 0.452760 0.729936 0.097493
O O3 0.500000 0.628052 0.000000
O O4 0.335725 0.798081 0.794449
O O5 0.758971 0.737983 0.760223
O O6 0.785296 0.767211 0.963717
O O7 0.825616 0.000000 0.913318
O O8 0.963901 0.766342 0.103124
O O9 0.159748 0.259613 0.288534
O O10 0.150883 0.222686 0.446252
O O11 0.099247 0.000000 0.264584
O O12 0.255564 0.500000 0.361787
O O13 0.383302 0.740151 0.563574
O O14 0.513869 0.500000 0.745956
O O15 0.597651 0.750713 0.802692
O O16 0.129384 0.500000 0.707088
O O17 0.165298 0.703898 0.631025
O O18 0.000000 0.741988 0.500000
O O19 0.201064 0.769725 0.846176
O O20 0.710690 0.000000 0.952838
O O21 0.828560 0.000000 0.409218
#
# Coordination Sequence:
#
# PCOD8064729 Si02
#       8
#     4   4   4   4   4   4   4   4
#     4  10  20  36  58  83 118 163 201 240 297 361
#     4  10  23  43  64  88 121 162 204 254 318 372
#     4  10  22  41  63  89 125 163 200 252 314 371
#     4  11  24  41  64  93 121 158 207 259 312 366
#     4  10  22  40  60  86 126 166 202 251 310 366
#     4  11  23  38  58  86 122 162 200 243 300 362
#     4  11  23  40  64  91 122 162 209 256 303 364
#     4  11  22  36  58  89 120 155 200 245 292 353
#
# _framework density 20.256989000000001
#
# number of rings (size 3 to 8) (size 9 to 14) (size 15 to 20)
#    0.000    1.500    1.250    3.375    0.000    8.750 
#    0.000    2.500    0.000    0.000    0.000    0.000 
#    0.000    0.000    0.000    0.000    0.000    0.000 
#
# Total GULP energy -396721.873158 kJ/mol
# GULP energy per Si atom -12397.558536 kJ/mol
# Density = 2.021088 g / cm^3
# Si number density = 20.256989 Si / 1000 Ang^3
#
#
#
# Elastic Constant Matrix: (Units=GPa)
#
#
# Indices 1 2 3 4 5 6 
#
# 1 126.6813 28.1162 48.9060 0.0000 6.0764 0.0000
# 2 28.1162 39.4844 30.9989 0.0000 -0.7700 0.0000
# 3 48.9060 30.9989 128.1801 0.0000 0.8871 0.0000
# 4 0.0000 0.0000 0.0000 30.3457 0.0000 4.4361
# 5 6.0764 -0.7700 0.8871 0.0000 40.4198 0.0000
# 6 0.0000 0.0000 0.0000 4.4361 0.0000 24.1107
#
#
#
# Elastic Compliance Matrix: (Units=1/GPa)
#
#
# Indices 1 2 3 4 5 6 
#
# 1 0.010125 -0.005204 -0.002594 0.000000 -0.001564 0.000000
# 2 -0.005204 0.033960 -0.006238 0.000000 0.001566 0.000000
# 3 -0.002594 -0.006238 0.010299 0.000000 0.000045 0.000000
# 4 0.000000 0.000000 0.000000 0.033864 0.000000 -0.006231
# 5 -0.001564 0.001566 0.000045 0.000000 0.025004 0.000000
# 6 0.000000 0.000000 0.000000 -0.006231 0.000000 0.042622
#
#
# Mechanical properties :
#
#
# Convention : Reuss Voigt Hill
#
# Bulk Modulus (GPa) = 38.00432 56.70978 47.35705
# Shear Modulus (GPa) = 25.94454 31.39687 28.67070
#
# Velocity S-wave (km/s) = 3.58267 3.94118 3.76619
# Velocity P-wave (km/s) = 5.99298 6.98330 6.50701
#
# Compressibility (1/GPa) = 0.02631280
#
# Stress axis : x y z
#
# Youngs Moduli (GPa) = 98.76294 29.44616 97.09222
#
# Poissons Ratio (x) = 0.15324 0.25184
# Poissons Ratio (y) = 0.51398 0.60568
# Poissons Ratio (z) = 0.25617 0.18369
#
# Static dielectric constant tensor:
#      x y z
#    x 3.813240 0.000000 0.147480 
#    y 0.000000 5.330050 0.000000 
#    z 0.147480 0.000000 3.896400 
# 
# 
# High freq. dielectric constant tensor:
#      x y z
#    x 1.802030 0.000000 0.005520 
#    y 0.000000 1.785540 0.000000 
#    z 0.005520 0.000000 1.800650 
# 
# From -- ./inp_files/71675.got.cif
#   From: 2010.06.25/outbox.cif.g09.slc.cpg/sg10_36_cif.got.tgz:71675.got - 2010.06.27 22:07:45.
