data_PCOD8064502
_publ_section_title
;
Structure prediction by ZEFSAII (Michael W. Deem and Ramdas Pophale) SiO2 
 PCOD8064502
Probable space group: P 2/M
;
_chemical_formula_sum "Si O2"
_cell_formula_units_Z 32
_cell_length_a 15.725567
_cell_length_b 23.353021
_cell_length_c 8.905979
_cell_angle_alpha 90.000000
_cell_angle_beta 151.130695
_cell_angle_gamma 90.000000
_cell_volume 1579.102340
_symmetry_space_group_name_H-M "P 2/M"
_symmetry_group_IT_number 10
_symmetry_cell_setting 'monoclinic'
loop_
_space_group_symop_operation_xyz
x,y,z
-x,y,-z
-x,-y,-z
x,-y,z
loop_
_atom_site_type_symbol
_atom_site_label
_atom_site_fract_x
_atom_site_fract_y
_atom_site_fract_z
Si Si1 0.475631 0.124678 0.629551
Si Si2 0.722649 0.760533 0.638120
Si Si3 0.844673 0.131857 0.363938
Si Si4 0.824418 0.932595 0.644375
Si Si5 0.849193 0.637325 0.387304
Si Si6 0.073808 0.756174 0.346100
Si Si7 0.167670 0.566773 0.356956
Si Si8 0.469807 0.653150 0.779563
O O1 0.500000 0.099052 0.500000
O O2 0.399414 0.188171 0.497632
O O3 0.346510 0.084252 0.524287
O O4 0.662720 0.127798 0.996906
O O5 0.817888 0.777492 0.630736
O O6 0.602133 0.704988 0.431067
O O7 0.867055 0.749832 0.990444
O O8 0.825324 0.095630 0.483814
O O9 0.893610 0.197815 0.473444
O O10 0.000000 0.106043 0.500000
O O11 0.823925 0.000000 0.620693
O O12 0.000000 0.911215 0.000000
O O13 0.854877 0.694712 0.495307
O O14 0.871008 0.583140 0.530596
O O15 0.000000 0.635632 0.500000
O O16 0.660912 0.634692 0.011048
O O17 0.207736 0.500000 0.406175
O O18 0.338283 0.599852 0.560013
O O19 0.000000 0.585308 0.000000
O O20 0.500000 0.670952 0.000000
#
# Coordination Sequence:
#
# PCOD8064502 Si02
#       8
#     4   4   4   4   4   4   4   4
#     4  12  26  42  66  97 130 167 211 258 314 377
#     4  11  21  36  62  91 125 163 206 249 307 369
#     4  12  25  42  66  95 131 167 210 261 312 376
#     4  11  25  46  70  94 125 166 212 263 317 372
#     4  11  23  37  58  91 124 155 198 253 312 361
#     4  11  21  37  62  90 127 166 201 250 307 376
#     4  10  21  40  63  84 112 158 210 252 304 373
#     4  10  20  35  60  87 119 159 203 248 299 368
#
# _framework density 20.264676000000001
#
# number of rings (size 3 to 8) (size 9 to 14) (size 15 to 20)
#    0.000    1.000    3.750    4.500    0.000    5.000 
#    0.000    1.875    0.000    1.500    0.000    0.000 
#    0.000    0.000    0.000    0.000    0.000    0.000 
#
# Total GULP energy -396939.618292 kJ/mol
# GULP energy per Si atom -12404.363072 kJ/mol
# Density = 2.021855 g / cm^3
# Si number density = 20.264676 Si / 1000 Ang^3
#
#
#
# Elastic Constant Matrix: (Units=GPa)
#
#
# Indices 1 2 3 4 5 6 
#
# 1 95.7745 12.3759 42.2211 0.0000 14.9786 0.0000
# 2 12.3759 64.8944 39.5975 0.0000 -1.8299 0.0000
# 3 42.2211 39.5975 182.2272 0.0000 8.8292 0.0000
# 4 0.0000 0.0000 0.0000 23.9042 0.0000 2.0548
# 5 14.9786 -1.8299 8.8292 0.0000 34.9766 0.0000
# 6 0.0000 0.0000 0.0000 2.0548 0.0000 17.8492
#
#
#
# Elastic Compliance Matrix: (Units=1/GPa)
#
#
# Indices 1 2 3 4 5 6 
#
# 1 0.012381 -0.001020 -0.002417 0.000000 -0.004745 0.000000
# 2 -0.001020 0.017978 -0.003783 0.000000 0.002332 0.000000
# 3 -0.002417 -0.003783 0.006914 0.000000 -0.000908 0.000000
# 4 0.000000 0.000000 0.000000 0.042252 0.000000 -0.004864
# 5 -0.004745 0.002332 -0.000908 0.000000 0.030974 0.000000
# 6 0.000000 0.000000 0.000000 -0.004864 0.000000 0.056585
#
#
# Mechanical properties :
#
#
# Convention : Reuss Voigt Hill
#
# Bulk Modulus (GPa) = 43.79803 59.03168 51.41485
# Shear Modulus (GPa) = 26.43616 31.92611 29.18114
#
# Velocity S-wave (km/s) = 3.61577 3.97351 3.79885
# Velocity P-wave (km/s) = 6.25233 7.08839 6.68344
#
# Compressibility (1/GPa) = 0.02283208
#
# Stress axis : x y z
#
# Youngs Moduli (GPa) = 80.77144 55.62206 144.63921
#
# Poissons Ratio (x) = 0.05674 0.34958
# Poissons Ratio (y) = 0.08240 0.54722
# Poissons Ratio (z) = 0.19522 0.21044
#
# Static dielectric constant tensor:
#      x y z
#    x 3.677620 0.000000 0.176040 
#    y 0.000000 3.561500 0.000000 
#    z 0.176040 0.000000 4.344410 
# 
# 
# High freq. dielectric constant tensor:
#      x y z
#    x 1.785330 0.000000 0.007750 
#    y 0.000000 1.783850 0.000000 
#    z 0.007750 0.000000 1.816890 
# 
# From -- ./inp_files/30611.got.cif
#   From: 2010.06.25/outbox.cif.g09.slc.cpg/sg10_16_cif.got.tgz:30611.got - 2010.06.27 22:07:45.
