data_PCOD8064691
_publ_section_title
;
Structure prediction by ZEFSAII (Michael W. Deem and Ramdas Pophale) SiO2 
 PCOD8064691
Probable space group: P 2/M
;
_chemical_formula_sum "Si O2"
_cell_formula_units_Z 32
_cell_length_a 11.213658
_cell_length_b 8.990486
_cell_length_c 22.211673
_cell_angle_alpha 90.000000
_cell_angle_beta 49.085425
_cell_angle_gamma 90.000000
_cell_volume 1692.207576
_symmetry_space_group_name_H-M "P 2/M"
_symmetry_group_IT_number 10
_symmetry_cell_setting 'monoclinic'
loop_
_space_group_symop_operation_xyz
x,y,z
-x,y,-z
-x,-y,-z
x,-y,z
loop_
_atom_site_type_symbol
_atom_site_label
_atom_site_fract_x
_atom_site_fract_y
_atom_site_fract_z
Si Si1 0.908553 0.330606 0.872854
Si Si2 0.778312 0.327829 0.788111
Si Si3 0.077634 0.175967 0.639623
Si Si4 0.772515 0.326847 0.298711
Si Si5 0.459640 0.324971 0.829985
Si Si6 0.148625 0.325447 0.492127
Si Si7 0.845945 0.175049 0.015419
Si Si8 0.471713 0.676192 0.325759
O O1 0.884665 0.500000 0.902426
O O2 0.797400 0.295245 0.852518
O O3 0.089965 0.301137 0.795581
O O4 0.857058 0.221219 0.942399
O O5 0.815901 0.500000 0.761367
O O6 0.601757 0.284603 0.828095
O O7 0.900259 0.232872 0.708671
O O8 0.195713 0.234237 0.651816
O O9 0.141004 0.233792 0.555558
O O10 0.077797 0.000000 0.640213
O O11 0.763526 0.500000 0.319611
O O12 0.610667 0.266508 0.323495
O O13 0.428040 0.500000 0.838705
O O14 0.304037 0.246683 0.904104
O O15 0.502792 0.261431 0.749836
O O16 0.156351 0.500000 0.504723
O O17 0.303872 0.269133 0.405844
O O18 0.000000 0.286950 0.500000
O O19 0.828222 0.000000 0.025008
O O20 0.000000 0.231555 0.000000
O O21 0.476495 0.500000 0.321328
#
# Coordination Sequence:
#
# PCOD8064691 Si02
#       8
#     4   4   4   4   4   4   4   4
#     4   9  18  34  57  81 105 138 180 226 271 315
#     4   9  19  37  60  84 109 139 178 224 271 318
#     4  11  22  35  54  81 113 147 180 215 264 324
#     4   9  18  35  57  80 107 139 181 227 268 314
#     4  10  20  37  61  84 106 135 178 228 272 317
#     4  10  20  36  58  81 108 142 181 226 273 320
#     4  11  24  38  52  76 112 149 181 217 267 324
#     4   9  18  33  57  84 104 134 182 230 272 314
#
# _framework density 18.910208000000001
#
# number of rings (size 3 to 8) (size 9 to 14) (size 15 to 20)
#    0.000    2.250    0.000    3.750    0.000    7.750 
#    0.000    6.875    0.000    0.000    0.000    0.000 
#    0.000    0.000    0.000    0.000    0.000    0.000 
#
# Total GULP energy -396902.455602 kJ/mol
# GULP energy per Si atom -12403.201738 kJ/mol
# Density = 1.886717 g / cm^3
# Si number density = 18.910208 Si / 1000 Ang^3
#
#
#
# Elastic Constant Matrix: (Units=GPa)
#
#
# Indices 1 2 3 4 5 6 
#
# 1 162.8409 54.8473 96.3880 0.0000 -15.3992 0.0000
# 2 54.8473 65.9852 57.9073 0.0000 -0.9191 0.0000
# 3 96.3880 57.9073 153.5809 0.0000 -1.6785 0.0000
# 4 0.0000 0.0000 0.0000 6.0561 0.0000 -7.3590
# 5 -15.3992 -0.9191 -1.6785 0.0000 29.5440 0.0000
# 6 0.0000 0.0000 0.0000 -7.3590 0.0000 8.8448
#
#
#
# Elastic Compliance Matrix: (Units=1/GPa)
#
#
# Indices 1 2 3 4 5 6 
#
# 1 0.011398 -0.004741 -0.005305 0.000000 0.005492 0.000000
# 2 -0.004741 0.024623 -0.006331 0.000000 -0.002065 0.000000
# 3 -0.005305 -0.006331 0.012203 0.000000 -0.002269 0.000000
# 4 0.000000 0.000000 0.000000-15.018373 0.000000-12.495372
# 5 0.005492 -0.002065 -0.002269 0.000000 0.036517 0.000000
# 6 0.000000 0.000000 0.000000-12.495372 0.000000-10.283161
#
#
# Mechanical properties :
#
#
# Convention : Reuss Voigt Hill
#
# Bulk Modulus (GPa) = 64.64772 88.96578 76.80675
# Shear Modulus (GPa) = -0.19858 20.43994 10.12068
#
# Velocity S-wave (km/s) = -0.32441 3.29126 2.31594
# Velocity P-wave (km/s) = 5.84128 7.84804 6.91782
#
# Compressibility (1/GPa) = 0.01546845
#
# Stress axis : x y z
#
# Youngs Moduli (GPa) = 87.73736 40.61221 81.94526
#
# Poissons Ratio (x) = 0.19256 0.43476
# Poissons Ratio (y) = 0.41599 0.51880
# Poissons Ratio (z) = 0.46549 0.25712
#
# Static dielectric constant tensor:
#      x y z
#    x 3.768790 0.000000 -0.007180 
#    y 0.000000 3.205530 0.000000 
#    z -0.007180 0.000000 3.457950 
# 
# 
# High freq. dielectric constant tensor:
#      x y z
#    x 1.749790 0.000000 0.002740 
#    y 0.000000 1.709410 0.000000 
#    z 0.002740 0.000000 1.738960 
# 
# From -- ./inp_files/83537.got.cif
#   From: 2010.06.25/outbox.cif.g09.slc.cpg/sg10_42_cif.got.tgz:83537.got - 2010.06.27 22:07:45.
