data_PCOD8064443
_publ_section_title
;
Structure prediction by ZEFSAII (Michael W. Deem and Ramdas Pophale) SiO2 
 PCOD8064443
Probable space group: P 2/M
;
_chemical_formula_sum "Si O2"
_cell_formula_units_Z 32
_cell_length_a 12.859069
_cell_length_b 9.272757
_cell_length_c 29.930151
_cell_angle_alpha 90.000000
_cell_angle_beta 152.315145
_cell_angle_gamma 90.000000
_cell_volume 1658.112490
_symmetry_space_group_name_H-M "P 2/M"
_symmetry_group_IT_number 10
_symmetry_cell_setting 'monoclinic'
loop_
_space_group_symop_operation_xyz
x,y,z
-x,y,-z
-x,-y,-z
x,-y,z
loop_
_atom_site_type_symbol
_atom_site_label
_atom_site_fract_x
_atom_site_fract_y
_atom_site_fract_z
Si Si1 0.431861 0.833510 0.082304
Si Si2 0.013284 0.828667 0.598735
Si Si3 0.273671 0.667339 0.940263
Si Si4 0.588464 0.332982 0.401010
Si Si5 0.130351 0.331447 0.275228
Si Si6 0.942421 0.165616 0.282679
Si Si7 0.254790 0.334621 0.096139
Si Si8 0.596627 0.663829 0.301088
O O1 0.691712 0.812637 0.168862
O O2 0.395122 0.764567 0.116501
O O3 0.364969 0.000000 0.058960
O O4 0.275283 0.756077 0.986662
O O5 0.782242 0.768759 0.492335
O O6 0.041070 0.777059 0.660393
O O7 0.214641 0.769034 0.645638
O O8 0.016286 0.000000 0.595955
O O9 0.247611 0.500000 0.942726
O O10 0.064733 0.723321 0.831975
O O11 0.500000 0.698577 0.000000
O O12 0.653119 0.500000 0.432949
O O13 0.366556 0.291722 0.343607
O O14 0.545000 0.299376 0.332641
O O15 0.102288 0.500000 0.273256
O O16 0.111647 0.254287 0.315962
O O17 0.016062 0.000000 0.308610
O O18 0.267746 0.500000 0.084689
O O19 0.362833 0.315562 0.186121
O O20 0.000000 0.280566 0.000000
O O21 0.684903 0.500000 0.329470
#
# Coordination Sequence:
#
# PCOD8064443 Si02
#       8
#     4   4   4   4   4   4   4   4
#     4  11  22  37  57  84 120 159 194 239 292 348
#     4  11  23  41  63  87 115 153 199 246 295 351
#     4  10  20  35  58  86 115 151 195 239 281 338
#     4  10  23  41  60  87 120 152 192 246 303 351
#     4  10  22  39  61  88 120 155 195 246 295 348
#     4  10  22  39  59  84 120 157 195 243 293 350
#     4  10  22  38  61  90 119 156 196 238 291 350
#     4  10  21  39  63  89 119 154 193 242 296 350
#
# _framework density 19.299053000000001
#
# number of rings (size 3 to 8) (size 9 to 14) (size 15 to 20)
#    0.000    1.750    2.500    1.125    1.750    5.500 
#    0.000    2.500    0.000    0.000    0.000    0.000 
#    0.000    0.000    0.000    0.000    0.000    0.000 
#
# Total GULP energy -396958.041747 kJ/mol
# GULP energy per Si atom -12404.938805 kJ/mol
# Density = 1.925513 g / cm^3
# Si number density = 19.299053 Si / 1000 Ang^3
#
#
#
# Elastic Constant Matrix: (Units=GPa)
#
#
# Indices 1 2 3 4 5 6 
#
# 1 119.6367 53.6761 32.7940 0.0000 2.0878 0.0000
# 2 53.6761 70.2798 38.2115 0.0000 0.2602 0.0000
# 3 32.7940 38.2115 94.8112 0.0000 6.4853 0.0000
# 4 0.0000 0.0000 0.0000 21.9607 0.0000 -5.4102
# 5 2.0878 0.2602 6.4853 0.0000 30.8410 0.0000
# 6 0.0000 0.0000 0.0000 -5.4102 0.0000 20.8082
#
#
#
# Elastic Compliance Matrix: (Units=1/GPa)
#
#
# Indices 1 2 3 4 5 6 
#
# 1 0.012758 -0.009434 -0.000565 0.000000 -0.000665 0.000000
# 2 -0.009434 0.025259 -0.007047 0.000000 0.001907 0.000000
# 3 -0.000565 -0.007047 0.013774 0.000000 -0.002799 0.000000
# 4 0.000000 0.000000 0.000000 0.048652 0.000000 0.012650
# 5 -0.000665 0.001907 -0.002799 0.000000 0.033042 0.000000
# 6 0.000000 0.000000 0.000000 0.012650 0.000000 0.051347
#
#
# Mechanical properties :
#
#
# Convention : Reuss Voigt Hill
#
# Bulk Modulus (GPa) = 56.50338 59.34344 57.92341
# Shear Modulus (GPa) = 22.23962 25.39174 23.81568
#
# Velocity S-wave (km/s) = 3.39834 3.63119 3.51669
# Velocity P-wave (km/s) = 6.68877 6.95679 6.82409
#
# Compressibility (1/GPa) = 0.01769806
#
# Stress axis : x y z
#
# Youngs Moduli (GPa) = 78.38336 39.59037 72.59829
#
# Poissons Ratio (x) = 0.37350 0.04102
# Poissons Ratio (y) = 0.73947 0.51162
# Poissons Ratio (z) = 0.04429 0.27901
#
# Static dielectric constant tensor:
#      x y z
#    x 3.495220 0.000000 -0.088310 
#    y 0.000000 3.439350 0.000000 
#    z -0.088310 0.000000 3.590350 
# 
# 
# High freq. dielectric constant tensor:
#      x y z
#    x 1.756000 0.000000 -0.006940 
#    y 0.000000 1.744750 0.000000 
#    z -0.006940 0.000000 1.756050 
# 
# From -- ./inp_files/84736.got.cif
#   From: 2010.06.25/outbox.cif.g09.slc.cpg/sg10_43_cif.got.tgz:84736.got - 2010.06.27 22:07:45.
