data_PCOD8064694
_publ_section_title
;
Structure prediction by ZEFSAII (Michael W. Deem and Ramdas Pophale) SiO2 
 PCOD8064694
Probable space group: P 2/M
;
_chemical_formula_sum "Si O2"
_cell_formula_units_Z 32
_cell_length_a 16.483173
_cell_length_b 13.519122
_cell_length_c 21.600193
_cell_angle_alpha 90.000000
_cell_angle_beta 19.006451
_cell_angle_gamma 90.000000
_cell_volume 1567.584053
_symmetry_space_group_name_H-M "P 2/M"
_symmetry_group_IT_number 10
_symmetry_cell_setting 'monoclinic'
loop_
_space_group_symop_operation_xyz
x,y,z
-x,y,-z
-x,-y,-z
x,-y,z
loop_
_atom_site_type_symbol
_atom_site_label
_atom_site_fract_x
_atom_site_fract_y
_atom_site_fract_z
Si Si1 0.722300 0.720695 0.691409
Si Si2 0.874704 0.115201 0.023891
Si Si3 0.479938 0.887649 0.085579
Si Si4 0.627067 0.614431 0.968736
Si Si5 0.624595 0.762230 0.621681
Si Si6 0.961435 0.888335 0.306296
Si Si7 0.224607 0.217595 0.673147
Si Si8 0.177055 0.382799 0.612921
O O1 0.712880 0.824735 0.734952
O O2 0.641654 0.726869 0.679006
O O3 0.000000 0.677784 0.500000
O O4 0.521141 0.646274 0.863834
O O5 0.029966 0.185526 0.865907
O O6 0.858112 0.000000 0.012750
O O7 0.603812 0.163637 0.224726
O O8 0.000000 0.118045 0.000000
O O9 0.389417 0.000000 0.155903
O O10 0.500000 0.854587 0.000000
O O11 0.752086 0.868960 0.918662
O O12 0.592800 0.500000 0.986620
O O13 0.916704 0.640876 0.766501
O O14 0.500000 0.665986 0.000000
O O15 0.877646 0.822698 0.424925
O O16 0.612677 0.666913 0.583465
O O17 0.790530 0.861710 0.371128
O O18 0.919117 0.000000 0.357020
O O19 0.500000 0.213428 0.500000
O O20 0.172131 0.328161 0.683553
O O21 0.226439 0.500000 0.586419
#
# Coordination Sequence:
#
# PCOD8064694 Si02
#       8
#     4   4   4   4   4   4   4   4
#     4  12  23  34  54  83 117 152 186 232 290 342
#     4  11  23  39  61  90 122 152 185 237 300 348
#     4  10  21  37  55  77 111 157 204 239 274 338
#     4  10  21  39  62  85 110 144 189 237 285 342
#     4  11  22  36  56  86 120 148 187 240 292 347
#     4  10  20  36  58  81 110 153 199 241 287 340
#     4  11  23  40  62  87 117 153 199 241 281 344
#     4  10  22  42  65  86 114 155 198 239 287 345
#
# _framework density 20.413578999999999
#
# number of rings (size 3 to 8) (size 9 to 14) (size 15 to 20)
#    0.000    1.375    0.000    7.125    0.000    5.250 
#    0.000    0.625    0.000    1.500    0.000    0.000 
#    0.000    0.000    0.000    0.000    0.000    0.000 
#
# Total GULP energy -396713.109297 kJ/mol
# GULP energy per Si atom -12397.284666 kJ/mol
# Density = 2.036712 g / cm^3
# Si number density = 20.413579 Si / 1000 Ang^3
#
#
#
# Elastic Constant Matrix: (Units=GPa)
#
#
# Indices 1 2 3 4 5 6 
#
# 1 114.3944 46.0881 26.2942 0.0000 10.1627 0.0000
# 2 46.0881 187.2245 4.9395 0.0000 38.7598 0.0000
# 3 26.2942 4.9395 94.0712 0.0000 -8.3463 0.0000
# 4 0.0000 0.0000 0.0000 29.7310 0.0000 4.2974
# 5 10.1627 38.7598 -8.3463 0.0000 52.6187 0.0000
# 6 0.0000 0.0000 0.0000 4.2974 0.0000 30.6452
#
#
#
# Elastic Compliance Matrix: (Units=1/GPa)
#
#
# Indices 1 2 3 4 5 6 
#
# 1 0.010402 -0.002331 -0.002851 0.000000 -0.000744 0.000000
# 2 -0.002331 0.006878 -0.000121 0.000000 -0.004635 0.000000
# 3 -0.002851 -0.000121 0.011654 0.000000 0.002488 0.000000
# 4 0.000000 0.000000 0.000000 0.034331 0.000000 -0.004814
# 5 -0.000744 -0.004635 0.002488 0.000000 0.022957 0.000000
# 6 0.000000 0.000000 0.000000 -0.004814 0.000000 0.033307
#
#
# Mechanical properties :
#
#
# Convention : Reuss Voigt Hill
#
# Bulk Modulus (GPa) = 54.56182 61.14818 57.85500
# Shear Modulus (GPa) = 36.69843 43.82353 40.26098
#
# Velocity S-wave (km/s) = 4.24458 4.63837 4.44584
# Velocity P-wave (km/s) = 7.12799 7.66196 7.39979
#
# Compressibility (1/GPa) = 0.01832783
#
# Stress axis : x y z
#
# Youngs Moduli (GPa) = 96.13098 145.39339 85.80519
#
# Poissons Ratio (x) = 0.33898 0.24465
# Poissons Ratio (y) = 0.22413 0.01036
# Poissons Ratio (z) = 0.27409 0.01755
#
# Static dielectric constant tensor:
#      x y z
#    x 3.806170 0.000000 -0.043090 
#    y 0.000000 3.806470 0.000000 
#    z -0.043090 0.000000 3.852090 
# 
# 
# High freq. dielectric constant tensor:
#      x y z
#    x 1.802710 0.000000 0.000370 
#    y 0.000000 1.803090 0.000000 
#    z 0.000370 0.000000 1.797990 
# 
# From -- ./inp_files/85391.got.cif
#   From: 2010.06.25/outbox.cif.g09.slc.cpg/sg10_43_cif.got.tgz:85391.got - 2010.06.27 22:07:45.
