data_PCOD8064636
_publ_section_title
;
Structure prediction by ZEFSAII (Michael W. Deem and Ramdas Pophale) SiO2 
 PCOD8064636
Probable space group: P 2/M
;
_chemical_formula_sum "Si O2"
_cell_formula_units_Z 32
_cell_length_a 12.615167
_cell_length_b 9.067534
_cell_length_c 33.168709
_cell_angle_alpha 90.000000
_cell_angle_beta 25.289292
_cell_angle_gamma 90.000000
_cell_volume 1620.804808
_symmetry_space_group_name_H-M "P 2/M"
_symmetry_group_IT_number 10
_symmetry_cell_setting 'monoclinic'
loop_
_space_group_symop_operation_xyz
x,y,z
-x,y,-z
-x,-y,-z
x,-y,z
loop_
_atom_site_type_symbol
_atom_site_label
_atom_site_fract_x
_atom_site_fract_y
_atom_site_fract_z
Si Si1 0.206876 0.829187 0.398338
Si Si2 0.741023 0.836186 0.111270
Si Si3 0.996728 0.668677 0.090146
Si Si4 0.094648 0.168608 0.575693
Si Si5 0.989652 0.171216 0.703641
Si Si6 0.399461 0.674272 0.613083
Si Si7 0.669069 0.668675 0.273531
Si Si8 0.501239 0.326136 0.123090
O O1 0.464935 0.751258 0.317634
O O2 0.000000 0.765306 0.500000
O O3 0.125748 0.799780 0.380150
O O4 0.247510 0.000000 0.393446
O O5 0.558507 0.734816 0.147982
O O6 0.791272 0.763745 0.137185
O O7 0.623101 0.000000 0.157449
O O8 0.000000 0.849485 0.000000
O O9 0.966317 0.500000 0.086182
O O10 0.933744 0.686994 0.159324
O O11 0.279113 0.718404 0.983712
O O12 0.316742 0.279977 0.490150
O O13 0.985537 0.197851 0.657257
O O14 0.190909 0.000000 0.538258
O O15 0.750941 0.250174 0.805651
O O16 0.238553 0.242393 0.635225
O O17 0.982985 0.000000 0.717226
O O18 0.371606 0.500000 0.616387
O O19 0.306352 0.727147 0.689310
O O20 0.584716 0.500000 0.304260
O O21 0.460773 0.500000 0.139207
#
# Coordination Sequence:
#
# PCOD8064636 Si02
#       8
#     4   4   4   4   4   4   4   4
#     4  10  20  36  59  86 117 151 187 230 284 346
#     4   9  17  30  50  77 110 146 183 227 278 331
#     4   9  19  36  56  81 114 153 191 232 285 342
#     4  10  22  40  60  85 117 151 187 232 289 347
#     4  11  24  40  60  84 115 152 194 241 289 339
#     4  11  23  40  61  85 114 149 194 241 287 342
#     4  10  22  38  58  86 118 152 192 236 285 341
#     4  10  20  36  57  81 113 150 192 238 285 337
#
# _framework density 19.743278
#
# number of rings (size 3 to 8) (size 9 to 14) (size 15 to 20)
#    0.000    2.000    1.250    1.875    1.750    6.250 
#    0.000    0.625    0.000    3.750    0.000    0.000 
#    0.000    0.000    0.000    0.000    0.000    0.000 
#
# Total GULP energy -396832.142610 kJ/mol
# GULP energy per Si atom -12401.004457 kJ/mol
# Density = 1.969834 g / cm^3
# Si number density = 19.743278 Si / 1000 Ang^3
#
#
#
# Elastic Constant Matrix: (Units=GPa)
#
#
# Indices 1 2 3 4 5 6 
#
# 1 86.2373 34.7775 25.6614 0.0000 6.8379 0.0000
# 2 34.7775 87.7344 34.5203 0.0000 -0.3328 0.0000
# 3 25.6614 34.5203 81.4708 0.0000 10.6884 0.0000
# 4 0.0000 0.0000 0.0000 24.8343 0.0000 -8.1058
# 5 6.8379 -0.3328 10.6884 0.0000 22.1368 0.0000
# 6 0.0000 0.0000 0.0000 -8.1058 0.0000 30.3835
#
#
#
# Elastic Compliance Matrix: (Units=1/GPa)
#
#
# Indices 1 2 3 4 5 6 
#
# 1 0.014475 -0.004972 -0.001982 0.000000 -0.003589 0.000000
# 2 -0.004972 0.015603 -0.005634 0.000000 0.004491 0.000000
# 3 -0.001982 -0.005634 0.016246 0.000000 -0.007317 0.000000
# 4 0.000000 0.000000 0.000000 0.044108 0.000000 0.011767
# 5 -0.003589 0.004491 -0.007317 0.000000 0.049882 0.000000
# 6 0.000000 0.000000 0.000000 0.011767 0.000000 0.036052
#
#
# Mechanical properties :
#
#
# Convention : Reuss Voigt Hill
#
# Bulk Modulus (GPa) = 47.28589 49.48454 48.38522
# Shear Modulus (GPa) = 23.97037 26.16981 25.07009
#
# Velocity S-wave (km/s) = 3.48818 3.64470 3.56730
# Velocity P-wave (km/s) = 6.34236 6.54448 6.44421
#
# Compressibility (1/GPa) = 0.02114796
#
# Stress axis : x y z
#
# Youngs Moduli (GPa) = 69.08353 64.09140 61.55439
#
# Poissons Ratio (x) = 0.31865 0.12199
# Poissons Ratio (y) = 0.34346 0.34681
# Poissons Ratio (z) = 0.13692 0.36111
#
# Static dielectric constant tensor:
#      x y z
#    x 3.506430 0.000000 0.120520 
#    y 0.000000 3.642260 0.000000 
#    z 0.120520 0.000000 3.613280 
# 
# 
# High freq. dielectric constant tensor:
#      x y z
#    x 1.754130 0.000000 0.005390 
#    y 0.000000 1.771320 0.000000 
#    z 0.005390 0.000000 1.774440 
# 
# From -- ./inp_files/89535.got.cif
#   From: 2010.06.25/outbox.cif.g09.slc.cpg/sg10_45_cif.got.tgz:89535.got - 2010.06.27 22:07:45.
