data_PCOD8064255
_publ_section_title
;
Structure prediction by ZEFSAII (Michael W. Deem and Ramdas Pophale) SiO2 
 PCOD8064255
Probable space group: P 2/M
;
_chemical_formula_sum "Si O2"
_cell_formula_units_Z 32
_cell_length_a 15.094518
_cell_length_b 9.001120
_cell_length_c 24.021538
_cell_angle_alpha 90.000000
_cell_angle_beta 150.733571
_cell_angle_gamma 90.000000
_cell_volume 1595.553030
_symmetry_space_group_name_H-M "P 2/M"
_symmetry_group_IT_number 10
_symmetry_cell_setting 'monoclinic'
loop_
_space_group_symop_operation_xyz
x,y,z
-x,y,-z
-x,-y,-z
x,-y,z
loop_
_atom_site_type_symbol
_atom_site_label
_atom_site_fract_x
_atom_site_fract_y
_atom_site_fract_z
Si Si1 0.946518 0.174353 0.221681
Si Si2 0.684054 0.838733 0.632836
Si Si3 0.917058 0.175267 0.331048
Si Si4 0.575923 0.176356 0.216736
Si Si5 0.560794 0.665234 0.666912
Si Si6 0.218784 0.323159 0.971997
Si Si7 0.051947 0.332293 0.085133
Si Si8 0.719592 0.824706 0.414861
O O1 0.920188 0.238657 0.269745
O O2 0.153874 0.210928 0.319039
O O3 0.903220 0.000000 0.195721
O O4 0.805532 0.255103 0.102915
O O5 0.500000 0.860874 0.500000
O O6 0.648170 0.709340 0.656444
O O7 0.733269 0.000000 0.687329
O O8 0.728469 0.219731 0.255610
O O9 0.081350 0.238037 0.459763
O O10 0.942627 0.000000 0.341791
O O11 0.396078 0.261826 0.100094
O O12 0.646434 0.236107 0.315569
O O13 0.539649 0.000000 0.198155
O O14 0.477231 0.500000 0.617228
O O15 0.411446 0.778575 0.606640
O O16 0.732571 0.670303 0.801040
O O17 0.231981 0.500000 0.973549
O O18 0.044147 0.265170 0.912383
O O19 0.975520 0.500000 0.040971
O O20 0.000000 0.245194 0.000000
O O21 0.725401 0.000000 0.414320
#
# Coordination Sequence:
#
# PCOD8064255 Si02
#       8
#     4   4   4   4   4   4   4   4
#     4  10  20  36  59  84 115 153 196 241 284 342
#     4  10  20  35  56  82 114 150 188 235 286 335
#     4   9  19  38  63  87 113 151 194 240 297 351
#     4  10  21  38  62  89 114 147 196 247 293 347
#     4  11  21  34  54  82 115 152 189 224 274 339
#     4  11  22  38  58  81 118 158 194 240 290 345
#     4   9  18  33  52  74 105 147 187 222 270 332
#     4  10  20  37  61  89 119 149 189 242 296 350
#
# _framework density 20.055743
#
# number of rings (size 3 to 8) (size 9 to 14) (size 15 to 20)
#    0.000    2.000    1.250    2.625    0.000    5.750 
#    0.000    5.625    0.000    4.500    0.000    0.000 
#    0.000    0.000    0.000    0.000    0.000    0.000 
#
# Total GULP energy -396613.966774 kJ/mol
# GULP energy per Si atom -12394.186462 kJ/mol
# Density = 2.001010 g / cm^3
# Si number density = 20.055743 Si / 1000 Ang^3
#
#
#
# Elastic Constant Matrix: (Units=GPa)
#
#
# Indices 1 2 3 4 5 6 
#
# 1 97.2391 13.8972 26.1061 0.0000 -4.5922 0.0000
# 2 13.8972 33.9200 27.2572 0.0000 -6.8824 0.0000
# 3 26.1061 27.2572 96.3274 0.0000 -5.2799 0.0000
# 4 0.0000 0.0000 0.0000 19.1935 0.0000 1.0940
# 5 -4.5922 -6.8824 -5.2799 0.0000 36.6978 0.0000
# 6 0.0000 0.0000 0.0000 1.0940 0.0000 13.1502
#
#
#
# Elastic Compliance Matrix: (Units=1/GPa)
#
#
# Indices 1 2 3 4 5 6 
#
# 1 0.011305 -0.002688 -0.002271 0.000000 0.000584 0.000000
# 2 -0.002688 0.039994 -0.010277 0.000000 0.005686 0.000000
# 3 -0.002271 -0.010277 0.013893 0.000000 -0.000213 0.000000
# 4 0.000000 0.000000 0.000000 0.052349 0.000000 -0.004355
# 5 0.000584 0.005686 -0.000213 0.000000 0.028358 0.000000
# 6 0.000000 0.000000 0.000000 -0.004355 0.000000 0.076407
#
#
# Mechanical properties :
#
#
# Convention : Reuss Voigt Hill
#
# Bulk Modulus (GPa) = 28.80163 40.22303 34.51233
# Shear Modulus (GPa) = 18.91408 24.49004 21.70206
#
# Velocity S-wave (km/s) = 3.07429 3.49821 3.29308
# Velocity P-wave (km/s) = 5.19554 6.03455 5.63069
#
# Compressibility (1/GPa) = 0.03472025
#
# Stress axis : x y z
#
# Youngs Moduli (GPa) = 88.45273 25.00357 71.97824
#
# Poissons Ratio (x) = 0.06722 0.16348
# Poissons Ratio (y) = 0.23779 0.73970
# Poissons Ratio (z) = 0.20090 0.25695
#
# Static dielectric constant tensor:
#      x y z
#    x 3.772980 0.000000 -0.080320 
#    y 0.000000 3.489050 0.000000 
#    z -0.080320 0.000000 3.525230 
# 
# 
# High freq. dielectric constant tensor:
#      x y z
#    x 1.788100 0.000000 -0.003420 
#    y 0.000000 1.747940 0.000000 
#    z -0.003420 0.000000 1.793690 
# 
# From -- ./inp_files/71527.got.cif
#   From: 2010.06.25/outbox.cif.g09.slc.cpg/sg10_36_cif.got.tgz:71527.got - 2010.06.27 22:07:45.
