data_PCOD8064621
_publ_section_title
;
Structure prediction by ZEFSAII (Michael W. Deem and Ramdas Pophale) SiO2 
 PCOD8064621
Probable space group: P 2/M
;
_chemical_formula_sum "Si O2"
_cell_formula_units_Z 32
_cell_length_a 27.070003
_cell_length_b 8.970238
_cell_length_c 20.280832
_cell_angle_alpha 90.000000
_cell_angle_beta 161.293610
_cell_angle_gamma 90.000000
_cell_volume 1579.436690
_symmetry_space_group_name_H-M "P 2/M"
_symmetry_group_IT_number 10
_symmetry_cell_setting 'monoclinic'
loop_
_space_group_symop_operation_xyz
x,y,z
-x,y,-z
-x,-y,-z
x,-y,z
loop_
_atom_site_type_symbol
_atom_site_label
_atom_site_fract_x
_atom_site_fract_y
_atom_site_fract_z
Si Si1 0.336841 0.667006 0.828665
Si Si2 0.485033 0.825614 0.131297
Si Si3 0.877029 0.675704 0.105498
Si Si4 0.803067 0.176009 0.466696
Si Si5 0.636563 0.169629 0.880638
Si Si6 0.660498 0.830235 0.570887
Si Si7 0.819392 0.174524 0.904785
Si Si8 0.086184 0.335229 0.177366
O O1 0.269841 0.500000 0.751986
O O2 0.221431 0.764773 0.638618
O O3 0.500000 0.663177 0.000000
O O4 0.357606 0.741277 0.926342
O O5 0.659510 0.778580 0.332409
O O6 0.451268 0.780738 0.163935
O O7 0.464453 0.000000 0.092040
O O8 0.892643 0.500000 0.125121
O O9 0.045281 0.747666 0.312894
O O10 0.785295 0.727789 0.055066
O O11 0.776620 0.733237 0.916153
O O12 0.826955 0.000000 0.494488
O O13 0.520109 0.185649 0.671568
O O14 0.694187 0.000000 0.960203
O O15 0.698868 0.781394 0.694518
O O16 0.745393 0.730207 0.623577
O O17 0.717782 0.000000 0.633658
O O18 0.814400 0.000000 0.914543
O O19 0.993271 0.221539 0.105832
O O20 0.099067 0.500000 0.226533
O O21 0.000000 0.349311 0.000000
#
# Coordination Sequence:
#
# PCOD8064621 Si02
#       8
#     4   4   4   4   4   4   4   4
#     4   9  17  32  57  90 125 156 187 230 282 339
#     4   9  19  36  62  92 119 150 192 237 285 343
#     4  12  26  41  56  82 118 156 196 243 299 354
#     4  10  20  37  63  92 119 153 193 238 287 342
#     4  10  22  41  60  83 116 154 196 244 294 348
#     4   9  19  35  58  83 109 148 198 246 291 347
#     4  10  20  36  57  80 109 150 198 245 293 346
#     4   9  17  30  50  80 114 142 176 231 293 346
#
# _framework density 20.260389
#
# number of rings (size 3 to 8) (size 9 to 14) (size 15 to 20)
#    0.000    2.250    0.000    2.625    1.750    5.500 
#    0.000    3.125    0.000    3.750    0.000    0.000 
#    0.000    0.000    0.000    0.000    0.000    0.000 
#
# Total GULP energy -396773.848974 kJ/mol
# GULP energy per Si atom -12399.182780 kJ/mol
# Density = 2.021428 g / cm^3
# Si number density = 20.260389 Si / 1000 Ang^3
#
#
#
# Elastic Constant Matrix: (Units=GPa)
#
#
# Indices 1 2 3 4 5 6 
#
# 1 105.9612 51.4104 52.9899 0.0000 -4.9297 0.0000
# 2 51.4104 108.2882 38.3865 0.0000 -2.1582 0.0000
# 3 52.9899 38.3865 63.7598 0.0000 -6.9330 0.0000
# 4 0.0000 0.0000 0.0000 22.9714 0.0000 -0.8936
# 5 -4.9297 -2.1582 -6.9330 0.0000 26.8064 0.0000
# 6 0.0000 0.0000 0.0000 -0.8936 0.0000 25.3505
#
#
#
# Elastic Compliance Matrix: (Units=1/GPa)
#
#
# Indices 1 2 3 4 5 6 
#
# 1 0.017407 -0.003981 -0.012097 0.000000 -0.000248 0.000000
# 2 -0.003981 0.012672 -0.004414 0.000000 -0.000853 0.000000
# 3 -0.012097 -0.004414 0.028928 0.000000 0.004902 0.000000
# 4 0.000000 0.000000 0.000000 0.043592 0.000000 0.001537
# 5 -0.000248 -0.000853 0.004902 0.000000 0.038458 0.000000
# 6 0.000000 0.000000 0.000000 0.001537 0.000000 0.039501
#
#
# Mechanical properties :
#
#
# Convention : Reuss Voigt Hill
#
# Bulk Modulus (GPa) = 55.48189 62.62032 59.05110
# Shear Modulus (GPa) = 21.97335 24.04047 23.00691
#
# Velocity S-wave (km/s) = 3.29682 3.44841 3.37346
# Velocity P-wave (km/s) = 6.47579 6.84326 6.66206
#
# Compressibility (1/GPa) = 0.01802390
#
# Stress axis : x y z
#
# Youngs Moduli (GPa) = 57.44895 78.91377 34.56898
#
# Poissons Ratio (x) = 0.31413 0.41818
# Poissons Ratio (y) = 0.22869 0.15258
# Poissons Ratio (z) = 0.69495 0.34830
#
# Static dielectric constant tensor:
#      x y z
#    x 3.686600 0.000000 -0.130290 
#    y 0.000000 3.781100 0.000000 
#    z -0.130290 0.000000 3.514940 
# 
# 
# High freq. dielectric constant tensor:
#      x y z
#    x 1.782810 0.000000 -0.009280 
#    y 0.000000 1.791530 0.000000 
#    z -0.009280 0.000000 1.773050 
# 
# From -- ./inp_files/87070.got.cif
#   From: 2010.06.25/outbox.cif.g09.slc.cpg/sg10_44_cif.got.tgz:87070.got - 2010.06.27 22:07:45.
