data_PCOD8064883
_publ_section_title
;
Structure prediction by ZEFSAII (Michael W. Deem and Ramdas Pophale) SiO2 
 PCOD8064883
Probable space group: P 2/M
;
_chemical_formula_sum "Si O2"
_cell_formula_units_Z 24
_cell_length_a 12.004524
_cell_length_b 8.419998
_cell_length_c 12.009985
_cell_angle_alpha 90.000000
_cell_angle_beta 89.426084
_cell_angle_gamma 90.000000
_cell_volume 1213.885181
_symmetry_space_group_name_H-M "P 2/M"
_symmetry_group_IT_number 10
_symmetry_cell_setting 'monoclinic'
loop_
_space_group_symop_operation_xyz
x,y,z
-x,y,-z
-x,-y,-z
x,-y,z
loop_
_atom_site_type_symbol
_atom_site_label
_atom_site_fract_x
_atom_site_fract_y
_atom_site_fract_z
Si Si1 0.908393 0.310625 0.086941
Si Si2 0.520148 0.816573 0.834603
Si Si3 0.172767 0.311451 0.461006
Si Si4 0.583037 0.313775 0.599312
Si Si5 0.332292 0.314529 0.983856
Si Si6 0.962649 0.689060 0.329472
O O1 0.909648 0.500000 0.091481
O O2 0.788204 0.248207 0.049501
O O3 0.935893 0.239547 0.208553
O O4 0.000000 0.245891 0.000000
O O5 0.538475 0.778332 0.706248
O O6 0.417080 0.714158 0.881521
O O7 0.490652 0.000000 0.850167
O O8 0.630279 0.775421 0.904611
O O9 0.177804 0.500000 0.464416
O O10 0.295338 0.244481 0.433600
O O11 0.130074 0.249083 0.581689
O O12 0.085701 0.254645 0.367006
O O13 0.500000 0.276451 0.500000
O O14 0.588048 0.500000 0.626580
O O15 0.327294 0.500000 0.011349
O O16 0.959763 0.500000 0.326195
#
# Coordination Sequence:
#
# PCOD8064883 Si02
#       6
#     4   4   4   4   4   4
#     4   9  18  28  47  82 116 139 167 221 280 328
#     4  11  23  39  57  77 110 151 189 225 277 335
#     4   8  15  27  46  73 106 141 170 213 269 322
#     4  10  21  34  55  85 112 138 181 234 278 320
#     4  10  20  36  60  85 110 141 185 233 278 322
#     4   8  14  26  44  71 108 142 170 205 268 330
#
# _framework density 19.771227
#
# number of rings (size 3 to 8) (size 9 to 14) (size 15 to 20)
#    0.000    2.667    0.000    4.000    4.667    0.333 
#    0.000    0.000    0.000    2.000    0.000    2.333 
#    0.000    0.000    0.000    0.000    0.000    0.000 
#
# Total GULP energy -297573.211041 kJ/mol
# GULP energy per Si atom -12398.883793 kJ/mol
# Density = 1.972623 g / cm^3
# Si number density = 19.771227 Si / 1000 Ang^3
#
#
#
# Elastic Constant Matrix: (Units=GPa)
#
#
# Indices 1 2 3 4 5 6 
#
# 1 144.4371 6.1058 64.0287 0.0000 11.4873 0.0000
# 2 6.1058 27.8237 13.1280 0.0000 3.7864 0.0000
# 3 64.0287 13.1280 146.5208 0.0000 7.2127 0.0000
# 4 0.0000 0.0000 0.0000 9.5913 0.0000 -0.4243
# 5 11.4873 3.7864 7.2127 0.0000 26.1526 0.0000
# 6 0.0000 0.0000 0.0000 -0.4243 0.0000 -0.6255
#
#
#
# Elastic Compliance Matrix: (Units=1/GPa)
#
#
# Indices 1 2 3 4 5 6 
#
# 1 0.008791 0.000216 -0.003720 0.000000 -0.002867 0.000000
# 2 0.000216 0.038078 -0.003275 0.000000 -0.004705 0.000000
# 3 -0.003720 -0.003275 0.008759 0.000000 -0.000308 0.000000
# 4 0.000000 0.000000 0.000000 0.101224 0.000000 -0.068659
# 5 -0.002867 -0.004705 -0.000308 0.000000 0.040262 0.000000
# 6 0.000000 0.000000 0.000000 -0.068659 0.000000 -1.552156
#
#
# Mechanical properties :
#
#
# Convention : Reuss Voigt Hill
#
# Bulk Modulus (GPa) = 23.76882 53.92298 38.84590
# Shear Modulus (GPa) = -3.76659 22.72494 9.47918
#
# Velocity S-wave (km/s) = -1.38175 3.39395 2.19199
# Velocity P-wave (km/s) = 3.08259 6.53385 5.10850
#
# Compressibility (1/GPa) = 0.04207193
#
# Stress axis : x y z
#
# Youngs Moduli (GPa) = 113.74786 26.26158 114.16655
#
# Poissons Ratio (x) = -0.00568 0.42470
# Poissons Ratio (y) = -0.02458 0.37385
# Poissons Ratio (z) = 0.42314 0.08600
#
# Static dielectric constant tensor:
#      x y z
#    x 3.863740 0.000000 0.033360 
#    y 0.000000 3.035020 0.000000 
#    z 0.033360 0.000000 3.768100 
# 
# 
# High freq. dielectric constant tensor:
#      x y z
#    x 1.779630 0.000000 0.001970 
#    y 0.000000 1.715850 0.000000 
#    z 0.001970 0.000000 1.780140 
# 
# From -- ./inp_files/45164.got.cif
#   From: 2010.06.25/outbox.cif.g09.slc.cpg/sg10_23_cif.got.tgz:45164.got - 2010.06.27 22:07:45.
