data_PCOD8064986
_publ_section_title
;
Structure prediction by ZEFSAII (Michael W. Deem and Ramdas Pophale) SiO2 
 PCOD8064986
Probable space group: P 2/M
;
_chemical_formula_sum "Si O2"
_cell_formula_units_Z 20
_cell_length_a 21.519793
_cell_length_b 8.659170
_cell_length_c 13.372994
_cell_angle_alpha 90.000000
_cell_angle_beta 21.689598
_cell_angle_gamma 90.000000
_cell_volume 920.977873
_symmetry_space_group_name_H-M "P 2/M"
_symmetry_group_IT_number 10
_symmetry_cell_setting 'monoclinic'
loop_
_space_group_symop_operation_xyz
x,y,z
-x,y,-z
-x,-y,-z
x,-y,z
loop_
_atom_site_type_symbol
_atom_site_label
_atom_site_fract_x
_atom_site_fract_y
_atom_site_fract_z
Si Si1 0.452071 0.682187 0.182109
Si Si2 0.808601 0.181829 0.293817
Si Si3 0.917936 0.321567 0.759137
Si Si4 0.667408 0.679312 0.307342
Si Si5 0.772600 0.180011 0.782172
O O1 0.461018 0.500000 0.177179
O O2 0.269006 0.740616 0.490453
O O3 0.500000 0.740503 0.000000
O O4 0.583828 0.759065 0.060443
O O5 0.697347 0.227800 0.364076
O O6 0.803694 0.000000 0.314382
O O7 0.000000 0.242592 0.000000
O O8 0.899527 0.500000 0.754744
O O9 0.833709 0.212830 0.802607
O O10 0.114162 0.272517 0.469301
O O11 0.831135 0.291045 0.994672
O O12 0.500000 0.738536 0.500000
O O13 0.644989 0.500000 0.368508
O O14 0.782789 0.000000 0.743187
#
# Coordination Sequence:
#
# PCOD8064986 Si02
#       5
#     4   4   4   4   4
#     4  11  25  44  67  92 122 167 220 267 317 380
#     4  11  26  45  66  98 136 173 213 265 330 395
#     4  10  20  36  61  92 127 166 214 263 311 379
#     4  10  22  40  65  94 126 169 219 267 318 380
#     4  11  22  37  60  91 128 165 207 263 327 380
#
# _framework density 21.716049000000002
#
# number of rings (size 3 to 8) (size 9 to 14) (size 15 to 20)
#    0.000    1.400    0.000    6.000    2.800    6.800 
#    0.000    0.000    0.000    0.000    0.000    0.000 
#    0.000    0.000    0.000    0.000    0.000    0.000 
#
# Total GULP energy -248081.391625 kJ/mol
# GULP energy per Si atom -12404.069581 kJ/mol
# Density = 2.166662 g / cm^3
# Si number density = 21.716049 Si / 1000 Ang^3
#
#
#
# Elastic Constant Matrix: (Units=GPa)
#
#
# Indices 1 2 3 4 5 6 
#
# 1 77.8878 27.1448 44.7227 0.0000 8.5205 0.0000
# 2 27.1448 91.8419 47.0967 0.0000 8.3433 0.0000
# 3 44.7227 47.0967 139.1164 0.0000 12.7016 0.0000
# 4 0.0000 0.0000 0.0000 31.8469 0.0000 0.3811
# 5 8.5205 8.3433 12.7016 0.0000 39.0120 0.0000
# 6 0.0000 0.0000 0.0000 0.3811 0.0000 14.4060
#
#
#
# Elastic Compliance Matrix: (Units=1/GPa)
#
#
# Indices 1 2 3 4 5 6 
#
# 1 0.016332 -0.002495 -0.004255 0.000000 -0.001648 0.000000
# 2 -0.002495 0.013632 -0.003707 0.000000 -0.001164 0.000000
# 3 -0.004255 -0.003707 0.009950 0.000000 -0.001517 0.000000
# 4 0.000000 0.000000 0.000000 0.031410 0.000000 -0.000831
# 5 -0.001648 -0.001164 -0.001517 0.000000 0.026736 0.000000
# 6 0.000000 0.000000 0.000000 -0.000831 0.000000 0.069438
#
#
# Mechanical properties :
#
#
# Convention : Reuss Voigt Hill
#
# Bulk Modulus (GPa) = 52.63253 60.75272 56.69262
# Shear Modulus (GPa) = 25.67452 29.71175 27.69314
#
# Velocity S-wave (km/s) = 3.44217 3.70292 3.57492
# Velocity P-wave (km/s) = 6.33145 6.80580 6.57291
#
# Compressibility (1/GPa) = 0.01899966
#
# Stress axis : x y z
#
# Youngs Moduli (GPa) = 61.22865 73.35517 100.50700
#
# Poissons Ratio (x) = 0.18305 0.42767
# Poissons Ratio (y) = 0.15279 0.37254
# Poissons Ratio (z) = 0.26054 0.27190
#
# Static dielectric constant tensor:
#      x y z
#    x 3.715770 0.000000 0.016900 
#    y 0.000000 3.770100 0.000000 
#    z 0.016900 0.000000 4.464930 
# 
# 
# High freq. dielectric constant tensor:
#      x y z
#    x 1.840840 0.000000 0.004480 
#    y 0.000000 1.851200 0.000000 
#    z 0.004480 0.000000 1.875190 
# 
# From -- ./inp_files/71067.got.cif
#   From: 2010.06.25/outbox.cif.g09.slc.cpg/sg10_36_cif.got.tgz:71067.got - 2010.06.27 22:07:45.
