data_PCOD8064475
_publ_section_title
;
Structure prediction by ZEFSAII (Michael W. Deem and Ramdas Pophale) SiO2 
 PCOD8064475
Probable space group: P 2/M
;
_chemical_formula_sum "Si O2"
_cell_formula_units_Z 24
_cell_length_a 9.773078
_cell_length_b 18.463007
_cell_length_c 9.477515
_cell_angle_alpha 90.000000
_cell_angle_beta 131.698276
_cell_angle_gamma 90.000000
_cell_volume 1276.880098
_symmetry_space_group_name_H-M "P 2/M"
_symmetry_group_IT_number 10
_symmetry_cell_setting 'monoclinic'
loop_
_space_group_symop_operation_xyz
x,y,z
-x,y,-z
-x,-y,-z
x,-y,z
loop_
_atom_site_type_symbol
_atom_site_label
_atom_site_fract_x
_atom_site_fract_y
_atom_site_fract_z
Si Si1 0.508915 0.915469 0.843111
Si Si2 0.917610 0.080629 0.095477
Si Si3 0.298031 0.577823 0.820453
Si Si4 0.167104 0.327712 0.509486
Si Si5 0.851257 0.840902 0.517138
Si Si6 0.003108 0.415368 0.164562
O O1 0.344621 0.877881 0.645020
O O2 0.485583 0.000000 0.797212
O O3 0.500000 0.895202 0.000000
O O4 0.711196 0.887752 0.936476
O O5 0.054598 0.131716 0.275692
O O6 0.906929 0.000000 0.158880
O O7 0.000000 0.073599 0.000000
O O8 0.212675 0.500000 0.709552
O O9 0.324857 0.636749 0.713149
O O10 0.185972 0.603369 0.883415
O O11 0.500000 0.560832 0.000000
O O12 0.192913 0.243389 0.499818
O O13 0.156686 0.368556 0.352341
O O14 0.000000 0.346110 0.500000
O O15 0.000000 0.858776 0.500000
O O16 0.053968 0.500000 0.204352
O O17 0.000000 0.388659 0.000000
#
# Coordination Sequence:
#
# PCOD8064475 Si02
#       6
#     4   4   4   4   4   4
#     4  10  20  35  59  86 107 139 187 230 269 318
#     4  10  22  39  59  83 111 143 181 229 277 322
#     4   9  17  32  54  78 102 134 176 219 261 309
#     4   9  19  33  50  77 107 140 175 214 264 319
#     4  11  21  35  56  83 112 146 184 224 273 326
#     4   9  17  32  55  78 101 135 177 218 261 312
#
# _framework density 18.795814
#
# number of rings (size 3 to 8) (size 9 to 14) (size 15 to 20)
#    0.000    2.333    1.667    1.000    0.000    4.667 
#    3.000    3.333    3.667    4.000    0.000    0.000 
#    0.000    0.000    0.000    0.000    0.000    0.000 
#
# Total GULP energy -297335.341859 kJ/mol
# GULP energy per Si atom -12388.972577 kJ/mol
# Density = 1.875303 g / cm^3
# Si number density = 18.795814 Si / 1000 Ang^3
#
#
#
# Elastic Constant Matrix: (Units=GPa)
#
#
# Indices 1 2 3 4 5 6 
#
# 1 83.1114 33.2429 54.8304 0.0000 1.6097 0.0000
# 2 33.2429 100.7897 67.5955 0.0000 -7.2810 0.0000
# 3 54.8304 67.5955 134.6179 0.0000 -0.1857 0.0000
# 4 0.0000 0.0000 0.0000 13.2486 0.0000 -5.7288
# 5 1.6097 -7.2810 -0.1857 0.0000 35.6203 0.0000
# 6 0.0000 0.0000 0.0000 -5.7288 0.0000 15.6267
#
#
#
# Elastic Compliance Matrix: (Units=1/GPa)
#
#
# Indices 1 2 3 4 5 6 
#
# 1 0.016628 -0.001539 -0.006002 0.000000 -0.001097 0.000000
# 2 -0.001539 0.015433 -0.007119 0.000000 0.003187 0.000000
# 3 -0.006002 -0.007119 0.013446 0.000000 -0.001114 0.000000
# 4 0.000000 0.000000 0.000000 0.089699 0.000000 0.032884
# 5 -0.001097 0.003187 -0.001114 0.000000 0.028769 0.000000
# 6 0.000000 0.000000 0.000000 0.032884 0.000000 0.076048
#
#
# Mechanical properties :
#
#
# Convention : Reuss Voigt Hill
#
# Bulk Modulus (GPa) = 61.76693 69.98408 65.87550
# Shear Modulus (GPa) = 18.19917 23.75581 20.97749
#
# Velocity S-wave (km/s) = 3.11506 3.55898 3.34439
# Velocity P-wave (km/s) = 6.77285 7.36228 7.07371
#
# Compressibility (1/GPa) = 0.01618989
#
# Stress axis : x y z
#
# Youngs Moduli (GPa) = 60.13912 64.79438 74.37259
#
# Poissons Ratio (x) = 0.09969 0.44636
# Poissons Ratio (y) = 0.09253 0.52942
# Poissons Ratio (z) = 0.36093 0.46124
#
# Static dielectric constant tensor:
#      x y z
#    x 3.322210 0.000000 -0.016170 
#    y 0.000000 3.413210 0.000000 
#    z -0.016170 0.000000 3.360680 
# 
# 
# High freq. dielectric constant tensor:
#      x y z
#    x 1.714100 0.000000 -0.000050 
#    y 0.000000 1.726240 0.000000 
#    z -0.000050 0.000000 1.731060 
# 
# From -- ./inp_files/20125.got.cif
#   From: 2010.06.25/outbox.cif.g09.slc.cpg/sg10_11_cif.got.tgz:20125.got - 2010.06.27 22:07:45.
