data_PCOD8064148
_publ_section_title
;
Structure prediction by ZEFSAII (Michael W. Deem and Ramdas Pophale) SiO2 
 PCOD8064148
Probable space group: P 2/M
;
_chemical_formula_sum "Si O2"
_cell_formula_units_Z 26
_cell_length_a 9.525862
_cell_length_b 8.294428
_cell_length_c 25.715931
_cell_angle_alpha 90.000000
_cell_angle_beta 41.264625
_cell_angle_gamma 90.000000
_cell_volume 1340.085806
_symmetry_space_group_name_H-M "P 2/M"
_symmetry_group_IT_number 10
_symmetry_cell_setting 'monoclinic'
loop_
_space_group_symop_operation_xyz
x,y,z
-x,y,-z
-x,-y,-z
x,-y,z
loop_
_atom_site_type_symbol
_atom_site_label
_atom_site_fract_x
_atom_site_fract_y
_atom_site_fract_z
Si Si1 0.332142 0.187138 0.086745
Si Si2 0.470029 0.313396 0.267549
Si Si3 0.247469 0.000000 0.499235
Si Si4 0.162087 0.676959 0.674451
Si Si5 0.687247 0.315695 0.799578
Si Si6 0.500000 0.761543 0.500000
Si Si7 0.853861 0.186447 0.215023
Si Si8 0.755529 0.000000 0.622702
O O1 0.402454 0.214880 0.126734
O O2 0.094054 0.255641 0.144338
O O3 0.322754 0.000000 0.077491
O O4 0.500000 0.269021 0.000000
O O5 0.391399 0.500000 0.301615
O O6 0.457274 0.278686 0.209843
O O7 0.715783 0.296731 0.215073
O O8 0.343041 0.170434 0.331634
O O9 0.357818 0.148621 0.497001
O O10 0.283086 0.000000 0.427956
O O11 0.994487 0.000000 0.577757
O O12 0.143885 0.500000 0.704547
O O13 0.330494 0.662823 0.580811
O O14 0.230471 0.796848 0.701851
O O15 0.931045 0.732243 0.717175
O O16 0.672005 0.500000 0.820717
O O17 0.832668 0.000000 0.204755
#
# Coordination Sequence:
#
# PCOD8064148 Si02
#       8
#     4   4   2   4   4   2   4   2
#     4   9  19  36  59  86 117 151 189 229 282 344
#     4  11  22  37  60  86 114 148 194 238 279 340
#     4  10  24  36  52  80 110 146 194 242 282 352
#     4  10  20  35  55  80 111 147 193 241 288 343
#     4   9  20  36  55  84 114 147 193 237 281 340
#     4  11  21  34  54  80 114 146 186 243 291 334
#     4  10  20  35  57  85 113 151 192 236 287 339
#     4  11  22  42  58  78 113 154 192 232 297 340
#
# _framework density 19.401744999999998
#
# number of rings (size 3 to 8) (size 9 to 14) (size 15 to 20)
#    0.000    2.000    0.769    2.538    3.231    0.923 
#    0.000    3.846    0.000    4.615    0.000    0.000 
#    0.000    0.000    0.000    0.000    0.000    0.000 
#
# Total GULP energy -322143.368134 kJ/mol
# GULP energy per Si atom -12390.129544 kJ/mol
# Density = 1.935759 g / cm^3
# Si number density = 19.401745 Si / 1000 Ang^3
#
#
#
# Elastic Constant Matrix: (Units=GPa)
#
#
# Indices 1 2 3 4 5 6 
#
# 1 142.3975 37.0899 57.5249 0.0000 16.0366 0.0000
# 2 37.0899 78.3702 28.8272 0.0000 -0.1117 0.0000
# 3 57.5249 28.8272 139.0923 0.0000 -0.0660 0.0000
# 4 0.0000 0.0000 0.0000 18.3794 0.0000 4.0941
# 5 16.0366 -0.1117 -0.0660 0.0000 15.7485 0.0000
# 6 0.0000 0.0000 0.0000 4.0941 0.0000 28.1790
#
#
#
# Elastic Compliance Matrix: (Units=1/GPa)
#
#
# Indices 1 2 3 4 5 6 
#
# 1 0.010706 -0.003737 -0.003659 0.000000 -0.010944 0.000000
# 2 -0.003737 0.015117 -0.001586 0.000000 0.003906 0.000000
# 3 -0.003659 -0.001586 0.009033 0.000000 0.003752 0.000000
# 4 0.000000 0.000000 0.000000 0.056228 0.000000 -0.008169
# 5 -0.010944 0.003906 0.003752 0.000000 0.074686 0.000000
# 6 0.000000 0.000000 0.000000 -0.008169 0.000000 0.036674
#
#
# Mechanical properties :
#
#
# Convention : Reuss Voigt Hill
#
# Bulk Modulus (GPa) = 59.19154 67.41600 63.30377
# Shear Modulus (GPa) = 22.12002 28.22258 25.17130
#
# Velocity S-wave (km/s) = 3.38021 3.81811 3.60581
# Velocity P-wave (km/s) = 6.76823 7.36615 7.07351
#
# Compressibility (1/GPa) = 0.01689431
#
# Stress axis : x y z
#
# Youngs Moduli (GPa) = 93.40188 66.14919 110.70492
#
# Poissons Ratio (x) = 0.24719 0.40503
# Poissons Ratio (y) = 0.34903 0.17556
# Poissons Ratio (z) = 0.34172 0.10490
#
# Static dielectric constant tensor:
#      x y z
#    x 3.734040 0.000000 -0.125010 
#    y 0.000000 3.489790 0.000000 
#    z -0.125010 0.000000 3.562500 
# 
# 
# High freq. dielectric constant tensor:
#      x y z
#    x 1.765180 0.000000 0.002180 
#    y 0.000000 1.753270 0.000000 
#    z 0.002180 0.000000 1.738020 
# 
# From -- ./inp_files/36718.got.cif
#   From: 2010.06.25/outbox.cif.g09.slc.cpg/sg10_19_cif.got.tgz:36718.got - 2010.06.27 22:07:45.
