data_PCOD8064782
_publ_section_title
;
Structure prediction by ZEFSAII (Michael W. Deem and Ramdas Pophale) SiO2 
 PCOD8064782
Probable space group: P 2/M
;
_chemical_formula_sum "Si O2"
_cell_formula_units_Z 32
_cell_length_a 20.933492
_cell_length_b 8.986110
_cell_length_c 26.017748
_cell_angle_alpha 90.000000
_cell_angle_beta 159.295242
_cell_angle_gamma 90.000000
_cell_volume 1730.362349
_symmetry_space_group_name_H-M "P 2/M"
_symmetry_group_IT_number 10
_symmetry_cell_setting 'monoclinic'
loop_
_space_group_symop_operation_xyz
x,y,z
-x,y,-z
-x,-y,-z
x,-y,z
loop_
_atom_site_type_symbol
_atom_site_label
_atom_site_fract_x
_atom_site_fract_y
_atom_site_fract_z
Si Si1 0.533111 0.822825 0.852498
Si Si2 0.492887 0.173448 0.552144
Si Si3 0.160300 0.672513 0.851455
Si Si4 0.201832 0.826012 0.138506
Si Si5 0.295979 0.329446 0.840860
Si Si6 0.249201 0.674529 0.446530
Si Si7 0.546751 0.676286 0.751602
Si Si8 0.807546 0.824297 0.337528
O O1 0.532439 0.752161 0.795892
O O2 0.356260 0.763753 0.750189
O O3 0.534226 0.000000 0.848484
O O4 0.711264 0.771888 0.016712
O O5 0.500000 0.237672 0.500000
O O6 0.678981 0.209548 0.721549
O O7 0.325137 0.251388 0.452709
O O8 0.451134 0.000000 0.520225
O O9 0.186891 0.500000 0.886817
O O10 0.197533 0.698427 0.819961
O O11 0.956073 0.728373 0.704069
O O12 0.277105 0.735724 0.146197
O O13 0.206321 0.000000 0.127648
O O14 0.000000 0.772367 0.000000
O O15 0.283007 0.500000 0.812860
O O16 0.207097 0.225481 0.731930
O O17 0.500000 0.277505 0.000000
O O18 0.261966 0.500000 0.449287
O O19 0.365946 0.722376 0.584287
O O20 0.565051 0.500000 0.772177
O O21 0.000000 0.759125 0.500000
O O22 0.805850 0.000000 0.338715
#
# Coordination Sequence:
#
# PCOD8064782 Si02
#       8
#     4   4   4   4   4   4   4   4
#     4  11  23  38  56  80 110 145 185 227 274 328
#     4   9  18  33  53  78 108 140 177 221 264 312
#     4  10  21  38  57  81 112 143 181 227 274 325
#     4   9  18  34  55  79 109 145 183 223 266 317
#     4  10  20  36  59  83 108 142 182 226 274 326
#     4   9  20  37  56  80 110 144 181 221 269 323
#     4  10  21  37  57  81 112 147 183 227 274 323
#     4  10  23  40  56  80 112 144 182 229 277 328
#
# _framework density 18.493236
#
# number of rings (size 3 to 8) (size 9 to 14) (size 15 to 20)
#    0.000    2.250    1.250    0.750    1.750    4.000 
#    0.000    1.250    0.000    0.000    0.000    0.000 
#    0.000    0.000    0.000    0.000    0.000    0.000 
#
# Total GULP energy -396847.609086 kJ/mol
# GULP energy per Si atom -12401.487784 kJ/mol
# Density = 1.845114 g / cm^3
# Si number density = 18.493236 Si / 1000 Ang^3
#
#
#
# Elastic Constant Matrix: (Units=GPa)
#
#
# Indices 1 2 3 4 5 6 
#
# 1 44.7985 25.0193 95.7321 0.0000 -13.2119 0.0000
# 2 25.0193 34.2157 41.6509 0.0000 2.5702 0.0000
# 3 95.7321 41.6509 146.3886 0.0000 22.1164 0.0000
# 4 0.0000 0.0000 0.0000 27.8992 0.0000 -1.2613
# 5 -13.2119 2.5702 22.1164 0.0000 27.5608 0.0000
# 6 0.0000 0.0000 0.0000 -1.2613 0.0000 34.4153
#
#
#
# Elastic Compliance Matrix: (Units=1/GPa)
#
#
# Indices 1 2 3 4 5 6 
#
# 1 -0.019473 -0.005783 0.017876 0.000000 -0.023141 0.000000
# 2 -0.005783 0.044169 -0.008812 0.000000 0.000180 0.000000
# 3 0.017876 -0.008812 -0.004291 0.000000 0.012835 0.000000
# 4 0.000000 0.000000 0.000000 0.035903 0.000000 0.001316
# 5 -0.023141 0.000180 0.012835 0.000000 0.014874 0.000000
# 6 0.000000 0.000000 0.000000 0.001316 0.000000 0.029105
#
#
# Mechanical properties :
#
#
# Convention : Reuss Voigt Hill
#
# Bulk Modulus (GPa) = 37.08351 61.13417 49.10884
# Shear Modulus (GPa) = 48.67889 22.17510 35.42700
#
# Velocity S-wave (km/s) = 5.13612 3.46655 4.38159
# Velocity P-wave (km/s) = 7.43431 7.01085 7.22568
#
# Compressibility (1/GPa) = 0.02696617
#
# Stress axis : x y z
#
# Youngs Moduli (GPa) = -51.35225 22.64036 -233.04465
#
# Poissons Ratio (x) = 0.13094 4.16598
# Poissons Ratio (y) = -0.29699 -2.05364
# Poissons Ratio (z) = 0.91799 0.19951
#
# Static dielectric constant tensor:
#      x y z
#    x 3.463640 0.000000 0.086470 
#    y 0.000000 3.316900 0.000000 
#    z 0.086470 0.000000 3.625150 
# 
# 
# High freq. dielectric constant tensor:
#      x y z
#    x 1.725710 0.000000 0.002450 
#    y 0.000000 1.710800 0.000000 
#    z 0.002450 0.000000 1.724790 
# 
# From -- ./inp_files/87060.got.cif
#   From: 2010.06.25/outbox.cif.g09.slc.cpg/sg10_44_cif.got.tgz:87060.got - 2010.06.27 22:07:45.
