data_PCOD8064027
_publ_section_title
;
Structure prediction by ZEFSAII (Michael W. Deem and Ramdas Pophale) SiO2 
 PCOD8064027
Probable space group: P 2/M
;
_chemical_formula_sum "Si O2"
_cell_formula_units_Z 32
_cell_length_a 18.686005
_cell_length_b 13.330376
_cell_length_c 21.651754
_cell_angle_alpha 90.000000
_cell_angle_beta 159.545481
_cell_angle_gamma 90.000000
_cell_volume 1884.751395
_symmetry_space_group_name_H-M "P 2/M"
_symmetry_group_IT_number 10
_symmetry_cell_setting 'monoclinic'
loop_
_space_group_symop_operation_xyz
x,y,z
-x,y,-z
-x,-y,-z
x,-y,z
loop_
_atom_site_type_symbol
_atom_site_label
_atom_site_fract_x
_atom_site_fract_y
_atom_site_fract_z
Si Si1 0.202827 0.109846 0.702829
Si Si2 0.065916 0.112840 0.989430
Si Si3 0.628792 0.382502 0.042943
Si Si4 0.336478 0.112837 0.412963
Si Si5 0.206138 0.111994 0.437157
Si Si6 0.589818 0.243875 0.225722
Si Si7 0.997582 0.243885 0.361674
Si Si8 0.399157 0.888010 0.168135
O O1 0.368064 0.168236 0.796116
O O2 0.152171 0.168233 0.724130
O O3 0.000000 0.096792 0.500000
O O4 0.291120 0.000000 0.791128
O O5 0.882544 0.114973 0.794176
O O6 0.132644 0.000000 0.061842
O O7 0.258135 0.160738 0.108465
O O8 0.000000 0.169235 0.000000
O O9 0.649209 0.500000 0.049730
O O10 0.862004 0.341942 0.238041
O O11 0.500000 0.355856 0.000000
O O12 0.509939 0.341936 0.885970
O O13 0.500000 0.169241 0.500000
O O14 0.309149 0.160738 0.458817
O O15 0.420260 0.000000 0.491063
O O16 0.371743 0.097922 0.623926
O O17 0.043577 0.190460 0.333098
O O18 0.112962 0.000000 0.347297
O O19 0.412097 0.190456 0.122573
O O20 0.796555 0.271221 0.432169
O O21 0.315909 0.000000 0.081581
#
# Coordination Sequence:
#
# PCOD8064027 Si02
#       8
#     4   4   4   4   4   4   4   4
#     4   9  16  29  49  72 101 135 166 194 232 286
#     4   9  16  25  38  59  91 134 175 204 231 270
#     4  11  24  40  56  74  96 124 166 218 266 308
#     4   9  16  25  38  59  91 134 175 204 231 270
#     4   9  17  29  46  69  99 135 167 200 241 288
#     4  10  20  35  53  74 100 131 164 204 251 299
#     4  10  20  35  53  74 100 131 164 204 251 299
#     4   9  17  29  46  69  99 135 167 200 241 288
#
# _framework density 16.978366999999999
#
# number of rings (size 3 to 8) (size 9 to 14) (size 15 to 20)
#    0.000    2.500    1.250    1.500    1.750    6.500 
#    0.000    3.750    0.000    0.000    0.000    0.000 
#    0.000    1.000    0.500    0.000    0.000    0.000 
#
# Total GULP energy -396470.942929 kJ/mol
# GULP energy per Si atom -12389.716967 kJ/mol
# Density = 1.693972 g / cm^3
# Si number density = 16.978367 Si / 1000 Ang^3
#
#
#
# Elastic Constant Matrix: (Units=GPa)
#
#
# Indices 1 2 3 4 5 6 
#
# 1 153.1682 50.3792 29.7488 0.0000 17.3041 0.0000
# 2 50.3792 76.5347 34.0660 0.0000 3.8732 0.0000
# 3 29.7488 34.0660 62.3979 0.0000 4.2463 0.0000
# 4 0.0000 0.0000 0.0000 20.0074 0.0000 -2.0500
# 5 17.3041 3.8732 4.2463 0.0000 28.3695 0.0000
# 6 0.0000 0.0000 0.0000 -2.0500 0.0000 11.3778
#
#
#
# Elastic Compliance Matrix: (Units=1/GPa)
#
#
# Indices 1 2 3 4 5 6 
#
# 1 0.008968 -0.005161 -0.001145 0.000000 -0.004594 0.000000
# 2 -0.005161 0.020256 -0.008713 0.000000 0.001686 0.000000
# 3 -0.001145 -0.008713 0.021419 0.000000 -0.001318 0.000000
# 4 0.000000 0.000000 0.000000 0.050921 0.000000 0.009175
# 5 -0.004594 0.001686 -0.001318 0.000000 0.038018 0.000000
# 6 0.000000 0.000000 0.000000 0.009175 0.000000 0.089544
#
#
# Mechanical properties :
#
#
# Convention : Reuss Voigt Hill
#
# Bulk Modulus (GPa) = 48.53378 57.83210 53.18294
# Shear Modulus (GPa) = 18.79478 23.81141 21.30309
#
# Velocity S-wave (km/s) = 3.33075 3.74900 3.54605
# Velocity P-wave (km/s) = 6.59087 7.27160 6.93959
#
# Compressibility (1/GPa) = 0.02060421
#
# Stress axis : x y z
#
# Youngs Moduli (GPa) = 111.51213 49.36846 46.68816
#
# Poissons Ratio (x) = 0.25478 0.05347
# Poissons Ratio (y) = 0.57548 0.40679
# Poissons Ratio (z) = 0.12772 0.43015
#
# Static dielectric constant tensor:
#      x y z
#    x 3.478500 0.000000 0.096320 
#    y 0.000000 2.790800 0.000000 
#    z 0.096320 0.000000 3.072590 
# 
# 
# High freq. dielectric constant tensor:
#      x y z
#    x 1.672630 0.000000 0.003830 
#    y 0.000000 1.583350 0.000000 
#    z 0.003830 0.000000 1.656480 
# 
# From -- ./inp_files/34835.got.cif
#   From: 2010.06.25/outbox.cif.g09.slc.cpg/sg10_18_cif.got.tgz:34835.got - 2010.06.27 22:07:45.
