data_PCOD8064366
_publ_section_title
;
Structure prediction by ZEFSAII (Michael W. Deem and Ramdas Pophale) SiO2 
 PCOD8064366
Probable space group: P 2/M
;
_chemical_formula_sum "Si O2"
_cell_formula_units_Z 32
_cell_length_a 23.751554
_cell_length_b 8.966823
_cell_length_c 14.938412
_cell_angle_alpha 90.000000
_cell_angle_beta 150.146326
_cell_angle_gamma 90.000000
_cell_volume 1583.719665
_symmetry_space_group_name_H-M "P 2/M"
_symmetry_group_IT_number 10
_symmetry_cell_setting 'monoclinic'
loop_
_space_group_symop_operation_xyz
x,y,z
-x,y,-z
-x,-y,-z
x,-y,z
loop_
_atom_site_type_symbol
_atom_site_label
_atom_site_fract_x
_atom_site_fract_y
_atom_site_fract_z
Si Si1 0.208555 0.835165 0.594793
Si Si2 0.595364 0.340282 0.063562
Si Si3 0.169193 0.676092 0.070501
Si Si4 0.094196 0.675052 0.278992
Si Si5 0.738367 0.822698 0.630136
Si Si6 0.121685 0.833391 0.672905
Si Si7 0.502357 0.325483 0.259052
Si Si8 0.271036 0.326377 0.022712
O O1 0.334457 0.779770 0.784275
O O2 0.141465 0.720690 0.440332
O O3 0.155296 0.839943 0.617522
O O4 0.210092 0.000000 0.552413
O O5 0.658900 0.500000 0.130390
O O6 0.500000 0.383490 0.000000
O O7 0.548945 0.273524 0.906611
O O8 0.189047 0.500000 0.109221
O O9 0.242606 0.763881 0.243882
O O10 0.216448 0.733295 0.039750
O O11 0.037978 0.717926 0.903852
O O12 0.111431 0.500000 0.287534
O O13 0.161880 0.760073 0.294991
O O14 0.614536 0.769754 0.429489
O O15 0.742833 0.000000 0.633801
O O16 0.000000 0.753245 0.500000
O O17 0.111768 0.000000 0.700177
O O18 0.210315 0.743921 0.853615
O O19 0.535393 0.500000 0.303136
O O20 0.406103 0.292802 0.202107
O O21 0.247834 0.500000 0.983950
#
# Coordination Sequence:
#
# PCOD8064366 Si02
#       8
#     4   4   4   4   4   4   4   4
#     4  11  22  35  56  88 123 159 197 240 294 356
#     4  10  20  35  57  84 116 158 203 245 294 354
#     4  10  23  43  66  92 121 158 206 259 314 367
#     4  11  23  41  65  91 123 161 204 257 311 368
#     4  12  26  42  64  92 122 159 204 257 316 376
#     4  10  21  36  55  84 125 167 200 239 297 359
#     4  10  21  39  62  89 125 165 207 256 306 361
#     4  10  21  39  64  92 121 160 210 258 302 357
#
# _framework density 20.205596
#
# number of rings (size 3 to 8) (size 9 to 14) (size 15 to 20)
#    0.000    1.500    1.250    3.750    0.000    6.500 
#    0.000    2.500    0.000    0.000    0.000    0.000 
#    0.000    0.000    0.000    0.000    0.000    0.000 
#
# Total GULP energy -396690.919368 kJ/mol
# GULP energy per Si atom -12396.591230 kJ/mol
# Density = 2.015961 g / cm^3
# Si number density = 20.205596 Si / 1000 Ang^3
#
#
#
# Elastic Constant Matrix: (Units=GPa)
#
#
# Indices 1 2 3 4 5 6 
#
# 1 102.2833 31.2867 31.7800 0.0000 5.1416 0.0000
# 2 31.2867 66.1428 32.9608 0.0000 0.5978 0.0000
# 3 31.7800 32.9608 95.6552 0.0000 -2.1390 0.0000
# 4 0.0000 0.0000 0.0000 10.5381 0.0000 1.7950
# 5 5.1416 0.5978 -2.1390 0.0000 36.4529 0.0000
# 6 0.0000 0.0000 0.0000 1.7950 0.0000 23.5857
#
#
#
# Elastic Compliance Matrix: (Units=1/GPa)
#
#
# Indices 1 2 3 4 5 6 
#
# 1 0.011992 -0.004408 -0.002505 0.000000 -0.001766 0.000000
# 2 -0.004408 0.019890 -0.005390 0.000000 -0.000021 0.000000
# 3 -0.002505 -0.005390 0.013171 0.000000 0.001214 0.000000
# 4 0.000000 0.000000 0.000000 0.096140 0.000000 -0.007317
# 5 -0.001766 -0.000021 0.001214 0.000000 0.027753 0.000000
# 6 0.000000 0.000000 0.000000 -0.007317 0.000000 0.042955
#
#
# Mechanical properties :
#
#
# Convention : Reuss Voigt Hill
#
# Bulk Modulus (GPa) = 48.90544 50.68182 49.79363
# Shear Modulus (GPa) = 20.54881 25.31891 22.93386
#
# Velocity S-wave (km/s) = 3.19248 3.54371 3.37267
# Velocity P-wave (km/s) = 6.15189 6.47158 6.31376
#
# Compressibility (1/GPa) = 0.02044762
#
# Stress axis : x y z
#
# Youngs Moduli (GPa) = 83.38735 50.27647 75.92652
#
# Poissons Ratio (x) = 0.22164 0.19017
# Poissons Ratio (y) = 0.36761 0.40921
# Poissons Ratio (z) = 0.20886 0.27097
#
# Static dielectric constant tensor:
#      x y z
#    x 3.880730 0.000000 0.051780 
#    y 0.000000 3.852410 0.000000 
#    z 0.051780 0.000000 3.663260 
# 
# 
# High freq. dielectric constant tensor:
#      x y z
#    x 1.802880 0.000000 0.003290 
#    y 0.000000 1.783880 0.000000 
#    z 0.003290 0.000000 1.790980 
# 
# From -- ./inp_files/71628.got.cif
#   From: 2010.06.25/outbox.cif.g09.slc.cpg/sg10_36_cif.got.tgz:71628.got - 2010.06.27 22:07:45.
