data_PCOD8064578
_publ_section_title
;
Structure prediction by ZEFSAII (Michael W. Deem and Ramdas Pophale) SiO2 
 PCOD8064578
Probable space group: P 2/M
;
_chemical_formula_sum "Si O2"
_cell_formula_units_Z 24
_cell_length_a 27.441882
_cell_length_b 9.245232
_cell_length_c 9.650502
_cell_angle_alpha 90.000000
_cell_angle_beta 33.218646
_cell_angle_gamma 90.000000
_cell_volume 1341.318108
_symmetry_space_group_name_H-M "P 2/M"
_symmetry_group_IT_number 10
_symmetry_cell_setting 'monoclinic'
loop_
_space_group_symop_operation_xyz
x,y,z
-x,y,-z
-x,-y,-z
x,-y,z
loop_
_atom_site_type_symbol
_atom_site_label
_atom_site_fract_x
_atom_site_fract_y
_atom_site_fract_z
Si Si1 0.269554 0.332792 0.363401
Si Si2 0.396761 0.831067 0.258285
Si Si3 0.789373 0.332442 0.798389
Si Si4 0.970480 0.170785 0.417154
Si Si5 0.125502 0.664762 0.923941
Si Si6 0.711551 0.665127 0.269896
O O1 0.294610 0.500000 0.327637
O O2 0.347614 0.238380 0.243746
O O3 0.175271 0.299561 0.661570
O O4 0.261702 0.293146 0.221118
O O5 0.362437 0.766782 0.485522
O O6 0.376606 0.000000 0.305938
O O7 0.500000 0.795637 0.000000
O O8 0.819598 0.500000 0.728570
O O9 0.719739 0.300278 0.087545
O O10 0.874767 0.233139 0.609811
O O11 0.000000 0.220138 0.500000
O O12 0.041022 0.231266 0.138387
O O13 0.966580 0.000000 0.412196
O O14 0.091289 0.500000 0.008063
O O15 0.192491 0.695031 0.891022
O O16 0.682655 0.500000 0.365716
#
# Coordination Sequence:
#
# PCOD8064578 Si02
#       6
#     4   4   4   4   4   4
#     4   9  20  37  57  81 106 136 175 220 268 313
#     4  10  21  37  58  82 107 138 172 208 258 321
#     4  10  20  36  56  78 107 140 177 221 267 310
#     4  11  22  32  47  75 108 143 185 222 258 305
#     4   9  17  32  52  74 101 138 182 222 261 304
#     4   9  18  33  56  81 103 136 178 218 262 309
#
# _framework density 17.892847
#
# number of rings (size 3 to 8) (size 9 to 14) (size 15 to 20)
#    0.000    2.333    1.667    2.000    0.000    6.667 
#    0.000    4.167    0.000    5.000    0.000    0.000 
#    0.000    0.000    0.000    0.000    0.000    0.000 
#
# Total GULP energy -297655.849553 kJ/mol
# GULP energy per Si atom -12402.327065 kJ/mol
# Density = 1.785212 g / cm^3
# Si number density = 17.892847 Si / 1000 Ang^3
#
#
#
# Elastic Constant Matrix: (Units=GPa)
#
#
# Indices 1 2 3 4 5 6 
#
# 1 124.2894 52.4628 65.1259 0.0000 20.9631 0.0000
# 2 52.4628 92.2220 74.1585 0.0000 -3.6544 0.0000
# 3 65.1259 74.1585 117.4131 0.0000 2.8755 0.0000
# 4 0.0000 0.0000 0.0000 30.2118 0.0000 -10.2067
# 5 20.9631 -3.6544 2.8755 0.0000 22.8914 0.0000
# 6 0.0000 0.0000 0.0000 -10.2067 0.0000 3.2379
#
#
#
# Elastic Compliance Matrix: (Units=1/GPa)
#
#
# Indices 1 2 3 4 5 6 
#
# 1 0.015165 -0.005496 -0.004593 0.000000 -0.014188 0.000000
# 2 -0.005496 0.024682 -0.012800 0.000000 0.010581 0.000000
# 3 -0.004593 -0.012800 0.019155 0.000000 -0.000243 0.000000
# 4 0.000000 0.000000 0.000000 -0.509575 0.000000 -1.606312
# 5 -0.014188 0.010581 -0.000243 0.000000 0.058397 0.000000
# 6 0.000000 0.000000 0.000000 -1.606312 0.000000 -4.754670
#
#
# Mechanical properties :
#
#
# Convention : Reuss Voigt Hill
#
# Bulk Modulus (GPa) = 75.61741 79.71321 77.66531
# Shear Modulus (GPa) = -0.98103 20.74670 9.88283
#
# Velocity S-wave (km/s) = -0.74126 3.40883 2.35273
# Velocity P-wave (km/s) = 6.45138 7.75503 7.13305
#
# Compressibility (1/GPa) = 0.01322447
#
# Stress axis : x y z
#
# Youngs Moduli (GPa) = 65.93979 40.51536 52.20584
#
# Poissons Ratio (x) = 0.22267 0.23978
# Poissons Ratio (y) = 0.36241 0.66823
# Poissons Ratio (z) = 0.30286 0.51859
#
# Static dielectric constant tensor:
#      x y z
#    x 3.437260 0.000000 0.260260 
#    y 0.000000 3.261340 0.000000 
#    z 0.260260 0.000000 3.185390 
# 
# 
# High freq. dielectric constant tensor:
#      x y z
#    x 1.685940 0.000000 0.016230 
#    y 0.000000 1.691480 0.000000 
#    z 0.016230 0.000000 1.683820 
# 
# From -- ./inp_files/57223.got.cif
#   From: 2010.06.25/outbox.cif.g09.slc.cpg/sg10_29_cif.got.tgz:57223.got - 2010.06.27 22:07:45.
