data_PCOD8064063
_publ_section_title
;
Structure prediction by ZEFSAII (Michael W. Deem and Ramdas Pophale) SiO2 
 PCOD8064063
Probable space group: P 2/M
;
_chemical_formula_sum "Si O2"
_cell_formula_units_Z 28
_cell_length_a 10.068931
_cell_length_b 8.767090
_cell_length_c 30.459353
_cell_angle_alpha 90.000000
_cell_angle_beta 145.160702
_cell_angle_gamma 90.000000
_cell_volume 1536.052189
_symmetry_space_group_name_H-M "P 2/M"
_symmetry_group_IT_number 10
_symmetry_cell_setting 'monoclinic'
loop_
_space_group_symop_operation_xyz
x,y,z
-x,y,-z
-x,-y,-z
x,-y,z
loop_
_atom_site_type_symbol
_atom_site_label
_atom_site_fract_x
_atom_site_fract_y
_atom_site_fract_z
Si Si1 0.044168 0.680080 0.269466
Si Si2 0.472308 0.679612 0.444018
Si Si3 0.864229 0.832542 0.008303
Si Si4 0.251094 0.822188 0.554469
Si Si5 0.268394 0.321653 0.160549
Si Si6 0.681383 0.821482 0.731998
Si Si7 0.442551 0.180569 0.838865
O O1 0.049613 0.500000 0.262660
O O2 0.227828 0.730994 0.356561
O O3 0.106897 0.764358 0.241062
O O4 0.795288 0.730745 0.219179
O O5 0.500000 0.750814 0.500000
O O6 0.489839 0.500000 0.450872
O O7 0.685650 0.739289 0.473313
O O8 0.997211 0.716140 0.076457
O O9 0.855814 0.000000 0.028652
O O10 0.604988 0.776826 0.925004
O O11 0.000000 0.847197 0.000000
O O12 0.436442 0.784303 0.642578
O O13 0.000000 0.758905 0.500000
O O14 0.242351 0.000000 0.542041
O O15 0.310528 0.500000 0.166187
O O16 0.322030 0.271977 0.224227
O O17 0.440630 0.232532 0.174881
O O18 0.714060 0.000000 0.750366
O O19 0.400476 0.000000 0.824953
#
# Coordination Sequence:
#
# PCOD8064063 Si02
#       7
#     4   4   4   4   4   4   4
#     4  10  20  35  54  77 106 137 173 216 258 304
#     4   9  19  35  53  75 104 137 170 206 254 308
#     4   8  16  32  52  74 102 135 170 209 256 308
#     4   9  19  35  54  77 102 131 171 215 255 298
#     4  11  21  33  53  80 107 135 172 217 258 300
#     4  10  20  36  55  74 104 142 174 209 259 314
#     4  10  20  35  55  78 105 138 174 211 256 310
#
# _framework density 18.228546999999999
#
# number of rings (size 3 to 8) (size 9 to 14) (size 15 to 20)
#    0.000    2.429    0.000    3.429    0.000    6.000 
#    0.000    3.571    0.000    4.286    0.000    0.000 
#    0.000    0.000    0.000    0.000    0.000    0.000 
#
# Total GULP energy -347182.622996 kJ/mol
# GULP energy per Si atom -12399.379393 kJ/mol
# Density = 1.818706 g / cm^3
# Si number density = 18.228547 Si / 1000 Ang^3
#
#
#
# Elastic Constant Matrix: (Units=GPa)
#
#
# Indices 1 2 3 4 5 6 
#
# 1 77.1797 3.1972 52.4254 0.0000 6.3211 0.0000
# 2 3.1972 35.5927 16.2804 0.0000 0.6668 0.0000
# 3 52.4254 16.2804 85.6741 0.0000 8.3596 0.0000
# 4 0.0000 0.0000 0.0000 50.6396 0.0000 0.3476
# 5 6.3211 0.6668 8.3596 0.0000 28.7704 0.0000
# 6 0.0000 0.0000 0.0000 0.3476 0.0000 33.2822
#
#
#
# Elastic Compliance Matrix: (Units=1/GPa)
#
#
# Indices 1 2 3 4 5 6 
#
# 1 0.022907 0.004745 -0.014838 0.000000 -0.000832 0.000000
# 2 0.004745 0.031782 -0.009025 0.000000 0.000843 0.000000
# 3 -0.014838 -0.009025 0.022774 0.000000 -0.003148 0.000000
# 4 0.000000 0.000000 0.000000 0.019749 0.000000 -0.000206
# 5 -0.000832 0.000843 -0.003148 0.000000 0.035836 0.000000
# 6 0.000000 0.000000 0.000000 -0.000206 0.000000 0.030048
#
#
# Mechanical properties :
#
#
# Convention : Reuss Voigt Hill
#
# Bulk Modulus (GPa) = 25.49295 38.02807 31.76051
# Shear Modulus (GPa) = 23.32015 30.97469 27.14742
#
# Velocity S-wave (km/s) = 3.58064 4.12666 3.86331
# Velocity P-wave (km/s) = 5.57765 6.60400 6.11241
#
# Compressibility (1/GPa) = 0.03922653
#
# Stress axis : x y z
#
# Youngs Moduli (GPa) = 43.65476 31.46458 43.91021
#
# Poissons Ratio (x) = -0.14929 0.65153
# Poissons Ratio (y) = -0.20713 0.39629
# Poissons Ratio (z) = 0.64774 0.28397
#
# Static dielectric constant tensor:
#      x y z
#    x 3.268030 0.000000 0.038180 
#    y 0.000000 3.347460 0.000000 
#    z 0.038180 0.000000 3.689620 
# 
# 
# High freq. dielectric constant tensor:
#      x y z
#    x 1.692810 0.000000 0.000690 
#    y 0.000000 1.709930 0.000000 
#    z 0.000690 0.000000 1.711800 
# 
# From -- ./inp_files/37122.got.cif
#   From: 2010.06.25/outbox.cif.g09.slc.cpg/sg10_19_cif.got.tgz:37122.got - 2010.06.27 22:07:45.
