data_PCOD8064246
_publ_section_title
;
Structure prediction by ZEFSAII (Michael W. Deem and Ramdas Pophale) SiO2 
 PCOD8064246
Probable space group: P 2/M
;
_chemical_formula_sum "Si O2"
_cell_formula_units_Z 24
_cell_length_a 12.340028
_cell_length_b 12.575438
_cell_length_c 17.140723
_cell_angle_alpha 90.000000
_cell_angle_beta 27.192228
_cell_angle_gamma 90.000000
_cell_volume 1215.522513
_symmetry_space_group_name_H-M "P 2/M"
_symmetry_group_IT_number 10
_symmetry_cell_setting 'monoclinic'
loop_
_space_group_symop_operation_xyz
x,y,z
-x,y,-z
-x,-y,-z
x,-y,z
loop_
_atom_site_type_symbol
_atom_site_label
_atom_site_fract_x
_atom_site_fract_y
_atom_site_fract_z
Si Si1 0.632544 0.500000 0.045010
Si Si2 0.594727 0.255573 0.356702
Si Si3 0.671972 0.879916 0.159333
Si Si4 0.087939 0.304014 0.090007
Si Si5 0.156899 0.500000 0.263234
Si Si6 0.135738 0.881142 0.486752
Si Si7 0.898017 0.696918 0.379397
O O1 0.349006 0.500000 0.210829
O O2 0.720690 0.399344 0.040643
O O3 0.742288 0.500000 0.888762
O O4 0.500000 0.207174 0.500000
O O5 0.664326 0.159911 0.253893
O O6 0.380835 0.327141 0.458600
O O7 0.827248 0.330331 0.220443
O O8 0.412085 0.879340 0.289105
O O9 0.777123 0.000000 0.091281
O O10 0.827558 0.803237 0.005724
O O11 0.057475 0.288428 0.201249
O O12 0.993950 0.604608 0.375012
O O13 0.072546 0.811026 0.600971
O O14 0.000000 0.833180 0.500000
O O15 0.047339 0.000000 0.562480
#
# Coordination Sequence:
#
# PCOD8064246 Si02
#       7
#     2   4   4   4   2   4   4
#     4   9  20  35  53  81 113 144 178 223 280 324
#     4   9  19  36  56  80 110 146 183 220 268 324
#     4  10  21  36  55  83 114 143 180 225 273 322
#     4  10  20  35  56  82 111 146 181 222 272 325
#     4   9  18  35  57  80 108 143 181 230 275 314
#     4   9  19  36  55  76 109 148 181 222 272 322
#     4   9  19  35  57  81 108 142 186 226 268 323
#
# _framework density 19.744595
#
# number of rings (size 3 to 8) (size 9 to 14) (size 15 to 20)
#    0.000    2.667    0.000    0.500    2.333    3.000 
#    0.000   12.083    0.000    3.000    0.000    0.000 
#    0.000    0.000    0.000    0.000    0.000    0.000 
#
# Total GULP energy -297398.840195 kJ/mol
# GULP energy per Si atom -12391.618341 kJ/mol
# Density = 1.969966 g / cm^3
# Si number density = 19.744595 Si / 1000 Ang^3
#
#
#
# Elastic Constant Matrix: (Units=GPa)
#
#
# Indices 1 2 3 4 5 6 
#
# 1 112.9480 54.8041 53.0319 0.0000 -30.1988 0.0000
# 2 54.8041 119.7194 62.6926 0.0000 -11.0852 0.0000
# 3 53.0319 62.6926 75.8856 0.0000 -13.1309 0.0000
# 4 0.0000 0.0000 0.0000 25.9942 0.0000 -6.9307
# 5 -30.1988 -11.0852 -13.1309 0.0000 31.4032 0.0000
# 6 0.0000 0.0000 0.0000 -6.9307 0.0000 12.1480
#
#
#
# Elastic Compliance Matrix: (Units=1/GPa)
#
#
# Indices 1 2 3 4 5 6 
#
# 1 0.016951 -0.002700 -0.007502 0.000000 0.012211 0.000000
# 2 -0.002700 0.015152 -0.010947 0.000000 -0.001825 0.000000
# 3 -0.007502 -0.010947 0.027540 0.000000 0.000437 0.000000
# 4 0.000000 0.000000 0.000000 0.045372 0.000000 0.025886
# 5 0.012211 -0.001825 0.000437 0.000000 0.043125 0.000000
# 6 0.000000 0.000000 0.000000 0.025886 0.000000 0.097086
#
#
# Mechanical properties :
#
#
# Convention : Reuss Voigt Hill
#
# Bulk Modulus (GPa) = 57.65552 72.17890 64.91721
# Shear Modulus (GPa) = 17.04696 23.11072 20.07884
#
# Velocity S-wave (km/s) = 2.94151 3.42494 3.19239
# Velocity P-wave (km/s) = 6.38754 7.23021 6.82190
#
# Compressibility (1/GPa) = 0.01734439
#
# Stress axis : x y z
#
# Youngs Moduli (GPa) = 58.99261 65.99579 36.31089
#
# Poissons Ratio (x) = 0.17822 0.27242
# Poissons Ratio (y) = 0.15931 0.39749
# Poissons Ratio (z) = 0.44258 0.72245
#
# Static dielectric constant tensor:
#      x y z
#    x 3.823030 0.000000 -0.317070 
#    y 0.000000 3.538370 0.000000 
#    z -0.317070 0.000000 3.597080 
# 
# 
# High freq. dielectric constant tensor:
#      x y z
#    x 1.777790 0.000000 -0.019600 
#    y 0.000000 1.752580 0.000000 
#    z -0.019600 0.000000 1.763280 
# 
# From -- ./inp_files/53602.got.cif
#   From: 2010.06.25/outbox.cif.g09.slc.cpg/sg10_27_cif.got.tgz:53602.got - 2010.06.27 22:07:45.
