data_PCOD8064313
_publ_section_title
;
Structure prediction by ZEFSAII (Michael W. Deem and Ramdas Pophale) SiO2 
 PCOD8064313
Probable space group: P 2/M
;
_chemical_formula_sum "Si O2"
_cell_formula_units_Z 32
_cell_length_a 10.746033
_cell_length_b 9.274967
_cell_length_c 16.059636
_cell_angle_alpha 90.000000
_cell_angle_beta 91.728549
_cell_angle_gamma 90.000000
_cell_volume 1599.921121
_symmetry_space_group_name_H-M "P 2/M"
_symmetry_group_IT_number 10
_symmetry_cell_setting 'monoclinic'
loop_
_space_group_symop_operation_xyz
x,y,z
-x,y,-z
-x,-y,-z
x,-y,z
loop_
_atom_site_type_symbol
_atom_site_label
_atom_site_fract_x
_atom_site_fract_y
_atom_site_fract_z
Si Si1 0.271369 0.835631 0.873895
Si Si2 0.558663 0.839529 0.882647
Si Si3 0.152280 0.334291 0.733894
Si Si4 0.371869 0.330580 0.451894
Si Si5 0.885465 0.336822 0.803334
Si Si6 0.873602 0.328797 0.454785
Si Si7 0.233762 0.332832 0.028992
Si Si8 0.323522 0.834984 0.286868
O O1 0.415040 0.824367 0.902191
O O2 0.254571 0.760077 0.783940
O O3 0.225406 0.000000 0.867010
O O4 0.194843 0.753965 0.945191
O O5 0.632731 0.719045 0.934510
O O6 0.576056 0.818228 0.784389
O O7 0.606865 0.000000 0.909129
O O8 0.196783 0.500000 0.731658
O O9 0.133420 0.273338 0.640384
O O10 0.028041 0.315615 0.784632
O O11 0.500000 0.290416 0.500000
O O12 0.361596 0.500000 0.435817
O O13 0.250538 0.275315 0.500220
O O14 0.378770 0.251370 0.364725
O O15 0.840980 0.500000 0.782892
O O16 0.868158 0.303261 0.901096
O O17 0.808237 0.229332 0.744162
O O18 0.880692 0.500000 0.455714
O O19 0.000000 0.266471 0.500000
O O20 0.242449 0.500000 0.005301
O O21 0.301777 0.000000 0.312101
#
# Coordination Sequence:
#
# PCOD8064313 Si02
#       8
#     4   4   4   4   4   4   4   4
#     4  11  23  37  53  77 114 152 182 223 277 331
#     4   9  20  37  55  77 110 150 186 223 273 330
#     4  10  21  37  59  83 108 143 186 230 274 327
#     4  10  21  35  54  83 115 145 182 234 288 335
#     4   9  19  37  59  82 108 140 181 231 278 320
#     4   9  18  35  59  83 109 145 187 230 281 339
#     4  10  20  35  57  84 109 139 184 233 276 324
#     4  10  20  35  57  82 108 144 185 224 272 333
#
# _framework density 20.000986999999999
#
# number of rings (size 3 to 8) (size 9 to 14) (size 15 to 20)
#    0.000    2.250    0.000    2.250    1.750    6.750 
#    0.000    3.125    0.000    1.500    0.000    0.000 
#    0.000    0.000    0.000    0.000    0.000    0.000 
#
# Total GULP energy -396840.320647 kJ/mol
# GULP energy per Si atom -12401.260020 kJ/mol
# Density = 1.995546 g / cm^3
# Si number density = 20.000987 Si / 1000 Ang^3
#
#
#
# Elastic Constant Matrix: (Units=GPa)
#
#
# Indices 1 2 3 4 5 6 
#
# 1 62.9137 18.3724 19.8480 0.0000 -8.3384 0.0000
# 2 18.3724 72.4696 41.0384 0.0000 1.8926 0.0000
# 3 19.8480 41.0384 119.6359 0.0000 -1.3454 0.0000
# 4 0.0000 0.0000 0.0000 18.2834 0.0000 0.1566
# 5 -8.3384 1.8926 -1.3454 0.0000 23.8685 0.0000
# 6 0.0000 0.0000 0.0000 0.1566 0.0000 19.1134
#
#
#
# Elastic Compliance Matrix: (Units=1/GPa)
#
#
# Indices 1 2 3 4 5 6 
#
# 1 0.018440 -0.003920 -0.001640 0.000000 0.006660 0.000000
# 2 -0.003920 0.018027 -0.005569 0.000000 -0.003113 0.000000
# 3 -0.001640 -0.005569 0.010546 0.000000 0.000463 0.000000
# 4 0.000000 0.000000 0.000000 0.054698 0.000000 -0.000448
# 5 0.006660 -0.003113 0.000463 0.000000 0.044496 0.000000
# 6 0.000000 0.000000 0.000000 -0.000448 0.000000 0.052323
#
#
# Mechanical properties :
#
#
# Convention : Reuss Voigt Hill
#
# Bulk Modulus (GPa) = 40.39359 45.94854 43.17107
# Shear Modulus (GPa) = 21.83034 23.97041 22.90037
#
# Velocity S-wave (km/s) = 3.30731 3.46564 3.38740
# Velocity P-wave (km/s) = 5.90119 6.24797 6.07706
#
# Compressibility (1/GPa) = 0.02475640
#
# Stress axis : x y z
#
# Youngs Moduli (GPa) = 54.23122 55.47100 94.82207
#
# Poissons Ratio (x) = 0.21746 0.15546
# Poissons Ratio (y) = 0.21260 0.52802
# Poissons Ratio (z) = 0.08891 0.30889
#
# Static dielectric constant tensor:
#      x y z
#    x 3.505570 0.000000 -0.104920 
#    y 0.000000 3.548720 0.000000 
#    z -0.104920 0.000000 3.757230 
# 
# 
# High freq. dielectric constant tensor:
#      x y z
#    x 1.770480 0.000000 -0.005930 
#    y 0.000000 1.764400 0.000000 
#    z -0.005930 0.000000 1.794810 
# 
# From -- ./inp_files/58096.got.cif
#   From: 2010.06.25/outbox.cif.g09.slc.cpg/sg10_30_cif.got.tgz:58096.got - 2010.06.27 22:07:45.
