data_PCOD8064085
_publ_section_title
;
Structure prediction by ZEFSAII (Michael W. Deem and Ramdas Pophale) SiO2 
 PCOD8064085
Probable space group: P 2/M
;
_chemical_formula_sum "Si O2"
_cell_formula_units_Z 32
_cell_length_a 20.702902
_cell_length_b 8.521337
_cell_length_c 14.174177
_cell_angle_alpha 90.000000
_cell_angle_beta 136.758766
_cell_angle_gamma 90.000000
_cell_volume 1713.060685
_symmetry_space_group_name_H-M "P 2/M"
_symmetry_group_IT_number 10
_symmetry_cell_setting 'monoclinic'
loop_
_space_group_symop_operation_xyz
x,y,z
-x,y,-z
-x,-y,-z
x,-y,z
loop_
_atom_site_type_symbol
_atom_site_label
_atom_site_fract_x
_atom_site_fract_y
_atom_site_fract_z
Si Si1 0.952158 0.184273 0.643394
Si Si2 0.192774 0.683707 0.650773
Si Si3 0.105554 0.183513 0.088703
Si Si4 0.862843 0.683123 0.080852
Si Si5 0.727778 0.815682 0.080370
Si Si6 0.345362 0.680447 0.656553
Si Si7 0.524727 0.183541 0.924005
Si Si8 0.816470 0.682373 0.649529
O O1 0.903520 0.261353 0.500752
O O2 0.893384 0.215063 0.676084
O O3 0.054003 0.262782 0.761305
O O4 0.963741 0.000000 0.640574
O O5 0.187146 0.500000 0.667097
O O6 0.205153 0.780101 0.759548
O O7 0.279662 0.725144 0.674893
O O8 0.177772 0.275070 0.234309
O O9 0.116441 0.000000 0.118442
O O10 0.132426 0.222311 0.011091
O O11 0.000000 0.241184 0.000000
O O12 0.869809 0.500000 0.066268
O O13 0.764876 0.724580 0.027848
O O14 0.728009 0.000000 0.059544
O O15 0.623066 0.747962 0.989692
O O16 0.374895 0.500000 0.691496
O O17 0.440899 0.780896 0.761345
O O18 0.288653 0.720717 0.500212
O O19 0.538092 0.000000 0.950573
O O20 0.500000 0.259272 0.000000
O O21 0.839275 0.500000 0.654521
#
# Coordination Sequence:
#
# PCOD8064085 Si02
#       8
#     4   4   4   4   4   4   4   4
#     4  11  21  35  55  81 113 151 191 232 278 331
#     4  10  20  35  54  81 114 151 192 231 277 334
#     4  11  22  37  60  88 114 147 189 232 283 335
#     4  12  25  40  58  81 113 152 191 234 283 336
#     4  11  23  39  57  81 115 151 191 236 281 337
#     4   9  19  33  54  84 116 147 184 231 278 331
#     4  10  20  35  57  85 113 148 189 232 282 334
#     4  10  20  35  56  86 117 148 186 231 283 332
#
# _framework density 18.680015000000001
#
# number of rings (size 3 to 8) (size 9 to 14) (size 15 to 20)
#    0.000    1.500    2.500    4.500    0.000    4.750 
#    0.000    2.500    0.000    0.750    0.000    5.250 
#    0.000    0.000    0.000    0.000    0.000    0.000 
#
# Total GULP energy -396943.838827 kJ/mol
# GULP energy per Si atom -12404.494963 kJ/mol
# Density = 1.863750 g / cm^3
# Si number density = 18.680015 Si / 1000 Ang^3
#
#
#
# Elastic Constant Matrix: (Units=GPa)
#
#
# Indices 1 2 3 4 5 6 
#
# 1 95.4094 9.7820 49.4072 0.0000 4.2155 0.0000
# 2 9.7820 51.8230 17.4696 0.0000 5.4964 0.0000
# 3 49.4072 17.4696 105.9870 0.0000 -0.1727 0.0000
# 4 0.0000 0.0000 0.0000 33.5348 0.0000 -2.5797
# 5 4.2155 5.4964 -0.1727 0.0000 24.8829 0.0000
# 6 0.0000 0.0000 0.0000 -2.5797 0.0000 26.2323
#
#
#
# Elastic Compliance Matrix: (Units=1/GPa)
#
#
# Indices 1 2 3 4 5 6 
#
# 1 0.013961 -0.000200 -0.006479 0.000000 -0.002366 0.000000
# 2 -0.000200 0.020960 -0.003369 0.000000 -0.004619 0.000000
# 3 -0.006479 -0.003369 0.013014 0.000000 0.001932 0.000000
# 4 0.000000 0.000000 0.000000 0.030047 0.000000 0.002955
# 5 -0.002366 -0.004619 0.001932 0.000000 0.041623 0.000000
# 6 0.000000 0.000000 0.000000 0.002955 0.000000 0.038411
#
#
# Mechanical properties :
#
#
# Convention : Reuss Voigt Hill
#
# Bulk Modulus (GPa) = 35.92151 45.17079 40.54615
# Shear Modulus (GPa) = 26.68194 28.70072 27.69133
#
# Velocity S-wave (km/s) = 3.78348 3.92400 3.85438
# Velocity P-wave (km/s) = 6.19338 6.69060 6.44679
#
# Compressibility (1/GPa) = 0.02783848
#
# Stress axis : x y z
#
# Youngs Moduli (GPa) = 71.62606 47.71026 76.84095
#
# Poissons Ratio (x) = 0.00955 0.49786
# Poissons Ratio (y) = 0.01434 0.25887
# Poissons Ratio (z) = 0.46407 0.16073
#
# Static dielectric constant tensor:
#      x y z
#    x 3.282830 0.000000 0.049240 
#    y 0.000000 3.357760 0.000000 
#    z 0.049240 0.000000 3.496470 
# 
# 
# High freq. dielectric constant tensor:
#      x y z
#    x 1.699860 0.000000 -0.001410 
#    y 0.000000 1.731260 0.000000 
#    z -0.001410 0.000000 1.726750 
# 
# From -- ./inp_files/70050.got.cif
#   From: 2010.06.25/outbox.cif.g09.slc.cpg/sg10_36_cif.got.tgz:70050.got - 2010.06.27 22:07:45.
