data_PCOD8064528
_publ_section_title
;
Structure prediction by ZEFSAII (Michael W. Deem and Ramdas Pophale) SiO2 
 PCOD8064528
Probable space group: P 2/M
;
_chemical_formula_sum "Si O2"
_cell_formula_units_Z 24
_cell_length_a 15.352089
_cell_length_b 15.936644
_cell_length_c 8.176135
_cell_angle_alpha 90.000000
_cell_angle_beta 146.312588
_cell_angle_gamma 90.000000
_cell_volume 1109.533782
_symmetry_space_group_name_H-M "P 2/M"
_symmetry_group_IT_number 10
_symmetry_cell_setting 'monoclinic'
loop_
_space_group_symop_operation_xyz
x,y,z
-x,y,-z
-x,-y,-z
x,-y,z
loop_
_atom_site_type_symbol
_atom_site_label
_atom_site_fract_x
_atom_site_fract_y
_atom_site_fract_z
Si Si1 0.178935 0.163984 0.778887
Si Si2 0.653112 0.500000 0.625214
Si Si3 0.341752 0.325181 0.541012
Si Si4 0.300749 0.672572 0.849387
Si Si5 0.148343 0.095943 0.406564
Si Si6 0.189176 0.830546 0.149291
Si Si7 0.816819 0.500000 0.196429
O O1 0.186561 0.264058 0.766287
O O2 0.251974 0.117154 0.731824
O O3 0.000000 0.132851 0.500000
O O4 0.258823 0.140732 0.079635
O O5 0.500000 0.500000 0.500000
O O6 0.665950 0.420038 0.530479
O O7 0.799861 0.500000 0.975322
O O8 0.267350 0.320095 0.604591
O O9 0.242489 0.265235 0.265015
O O10 0.523470 0.298361 0.830304
O O11 0.268163 0.578939 0.855513
O O12 0.249199 0.113141 0.397438
O O13 0.091594 0.000000 0.320396
O O14 0.999758 0.159482 0.163935
O O15 0.000000 0.500000 0.500000
#
# Coordination Sequence:
#
# PCOD8064528 Si02
#       7
#     4   2   4   4   4   4   2
#     4  10  21  36  59  92 127 161 203 262 322 381
#     4  12  23  43  63  95 126 168 231 262 313 385
#     4  11  23  39  65  87 124 175 217 266 311 389
#     4  11  22  41  61  89 127 168 220 262 325 376
#     4  10  21  40  63  94 131 163 208 269 330 399
#     4  10  20  35  61  92 121 163 211 257 317 380
#     4  12  25  41  61  91 130 169 215 275 320 369
#
# _framework density 21.630707000000001
#
# number of rings (size 3 to 8) (size 9 to 14) (size 15 to 20)
#    0.000    1.333    3.333    3.000    0.000    6.333 
#    0.000    0.833    0.000    3.000    0.000   11.667 
#    0.000    0.000    0.000    0.000    0.000    0.000 
#
# Total GULP energy -297383.636963 kJ/mol
# GULP energy per Si atom -12390.984873 kJ/mol
# Density = 2.158147 g / cm^3
# Si number density = 21.630707 Si / 1000 Ang^3
#
#
#
# Elastic Constant Matrix: (Units=GPa)
#
#
# Indices 1 2 3 4 5 6 
#
# 1 121.9162 38.9058 55.6466 0.0000 -55.4308 0.0000
# 2 38.9058 116.9049 42.1180 0.0000 -15.8034 0.0000
# 3 55.6466 42.1180 92.2611 0.0000 -38.0855 0.0000
# 4 0.0000 0.0000 0.0000 21.6981 0.0000 -6.5252
# 5 -55.4308 -15.8034 -38.0855 0.0000 55.2934 0.0000
# 6 0.0000 0.0000 0.0000 -6.5252 0.0000 21.2081
#
#
#
# Elastic Compliance Matrix: (Units=1/GPa)
#
#
# Indices 1 2 3 4 5 6 
#
# 1 0.016812 -0.002549 -0.003241 0.000000 0.013892 0.000000
# 2 -0.002549 0.010631 -0.004354 0.000000 -0.002516 0.000000
# 3 -0.003241 -0.004354 0.018062 0.000000 0.007947 0.000000
# 4 0.000000 0.000000 0.000000 0.050786 0.000000 0.015626
# 5 0.013892 -0.002516 0.007947 0.000000 0.036767 0.000000
# 6 0.000000 0.000000 0.000000 0.015626 0.000000 0.051960
#
#
# Mechanical properties :
#
#
# Convention : Reuss Voigt Hill
#
# Bulk Modulus (GPa) = 39.65897 67.15813 53.40855
# Shear Modulus (GPa) = 23.39601 32.60070 27.99835
#
# Velocity S-wave (km/s) = 3.29235 3.88641 3.60165
# Velocity P-wave (km/s) = 5.72950 7.15919 6.48387
#
# Compressibility (1/GPa) = 0.02521497
#
# Stress axis : x y z
#
# Youngs Moduli (GPa) = 59.48302 94.06529 55.36434
#
# Poissons Ratio (x) = 0.23978 0.17946
# Poissons Ratio (y) = 0.15163 0.24107
# Poissons Ratio (z) = 0.19281 0.40959
#
# Static dielectric constant tensor:
#      x y z
#    x 4.845100 0.000000 -0.839560 
#    y 0.000000 3.717970 0.000000 
#    z -0.839560 0.000000 4.089310 
# 
# 
# High freq. dielectric constant tensor:
#      x y z
#    x 1.854730 0.000000 -0.045180 
#    y 0.000000 1.841590 0.000000 
#    z -0.045180 0.000000 1.833750 
# 
# From -- ./inp_files/32895.got.cif
#   From: 2010.06.25/outbox.cif.g09.slc.cpg/sg10_17_cif.got.tgz:32895.got - 2010.06.27 22:07:45.
