data_PCOD8064209
_publ_section_title
;
Structure prediction by ZEFSAII (Michael W. Deem and Ramdas Pophale) SiO2 
 PCOD8064209
Probable space group: P 2/M
;
_chemical_formula_sum "Si O2"
_cell_formula_units_Z 24
_cell_length_a 24.209661
_cell_length_b 8.475893
_cell_length_c 18.081162
_cell_angle_alpha 90.000000
_cell_angle_beta 19.212182
_cell_angle_gamma 90.000000
_cell_volume 1220.914942
_symmetry_space_group_name_H-M "P 2/M"
_symmetry_group_IT_number 10
_symmetry_cell_setting 'monoclinic'
loop_
_space_group_symop_operation_xyz
x,y,z
-x,y,-z
-x,-y,-z
x,-y,z
loop_
_atom_site_type_symbol
_atom_site_label
_atom_site_fract_x
_atom_site_fract_y
_atom_site_fract_z
Si Si1 0.015624 0.814896 0.064874
Si Si2 0.332234 0.685810 0.749016
Si Si3 0.817230 0.816822 0.758868
Si Si4 0.660142 0.815938 0.578091
Si Si5 0.495568 0.683515 0.922479
Si Si6 0.340860 0.685479 0.904229
O O1 0.847346 0.763702 0.320314
O O2 0.048324 0.000000 0.029190
O O3 0.171032 0.727592 0.904965
O O4 0.000000 0.759903 0.000000
O O5 0.500000 0.759373 0.500000
O O6 0.351817 0.500000 0.728489
O O7 0.316275 0.751942 0.852541
O O8 0.000000 0.770222 0.500000
O O9 0.777078 0.000000 0.795845
O O10 0.690244 0.709355 0.873475
O O11 0.795640 0.776334 0.872794
O O12 0.630799 0.777020 0.701636
O O13 0.529829 0.719556 0.692545
O O14 0.631417 0.000000 0.599381
O O15 0.542269 0.500000 0.861245
O O16 0.500000 0.750370 0.000000
O O17 0.306784 0.500000 0.952623
#
# Coordination Sequence:
#
# PCOD8064209 Si02
#       6
#     4   4   4   4   4   4
#     4  10  22  38  56  81 110 141 178 218 263 315
#     4  10  22  38  56  81 110 141 178 218 263 315
#     4  10  21  36  55  79 107 141 179 219 266 317
#     4  10  20  35  56  80 107 140 178 220 265 314
#     4  10  21  36  55  79 107 141 179 219 266 317
#     4  10  20  35  56  80 107 140 178 220 265 314
#
# _framework density 19.657389999999999
#
# number of rings (size 3 to 8) (size 9 to 14) (size 15 to 20)
#    0.000    2.000    0.000    5.000    0.000    7.333 
#    0.000    6.667    0.000    0.000    0.000    0.000 
#    0.000    0.000    0.000    0.000    0.000    0.000 
#
# Total GULP energy -297667.764693 kJ/mol
# GULP energy per Si atom -12402.823529 kJ/mol
# Density = 1.961265 g / cm^3
# Si number density = 19.657390 Si / 1000 Ang^3
#
#
#
# Elastic Constant Matrix: (Units=GPa)
#
#
# Indices 1 2 3 4 5 6 
#
# 1 146.5608 5.1987 64.7582 0.0000 25.4590 0.0000
# 2 5.1987 27.5053 13.2195 0.0000 6.1264 0.0000
# 3 64.7582 13.2195 165.5474 0.0000 17.4917 0.0000
# 4 0.0000 0.0000 0.0000 21.6093 0.0000 2.5837
# 5 25.4590 6.1264 17.4917 0.0000 26.6963 0.0000
# 6 0.0000 0.0000 0.0000 2.5837 0.0000 5.8427
#
#
#
# Elastic Compliance Matrix: (Units=1/GPa)
#
#
# Indices 1 2 3 4 5 6 
#
# 1 0.009364 0.001289 -0.002999 0.000000 -0.007261 0.000000
# 2 0.001289 0.039317 -0.002751 0.000000 -0.008449 0.000000
# 3 -0.002999 -0.002751 0.007590 0.000000 -0.001482 0.000000
# 4 0.000000 0.000000 0.000000 0.048860 0.000000 -0.021606
# 5 -0.007261 -0.008449 -0.001482 0.000000 0.047292 0.000000
# 6 0.000000 0.000000 0.000000 -0.021606 0.000000 0.180707
#
#
# Mechanical properties :
#
#
# Convention : Reuss Voigt Hill
#
# Bulk Modulus (GPa) = 21.11992 56.21848 38.66920
# Shear Modulus (GPa) = 13.97295 27.92548 20.94921
#
# Velocity S-wave (km/s) = 2.66902 3.77319 3.26807
# Velocity P-wave (km/s) = 4.50173 6.90245 5.82707
#
# Compressibility (1/GPa) = 0.04734867
#
# Stress axis : x y z
#
# Youngs Moduli (GPa) = 106.79724 25.43417 131.75600
#
# Poissons Ratio (x) = -0.03277 0.39508
# Poissons Ratio (y) = -0.13761 0.36245
# Poissons Ratio (z) = 0.32024 0.06997
#
# Static dielectric constant tensor:
#      x y z
#    x 3.736670 0.000000 0.326100 
#    y 0.000000 3.447680 0.000000 
#    z 0.326100 0.000000 3.731800 
# 
# 
# High freq. dielectric constant tensor:
#      x y z
#    x 1.769150 0.000000 0.014930 
#    y 0.000000 1.763190 0.000000 
#    z 0.014930 0.000000 1.773090 
# 
# From -- ./inp_files/80044.got.cif
#   From: 2010.06.25/outbox.cif.g09.slc.cpg/sg10_41_cif.got.tgz:80044.got - 2010.06.27 22:07:45.
