data_PCOD8064276
_publ_section_title
;
Structure prediction by ZEFSAII (Michael W. Deem and Ramdas Pophale) SiO2 
 PCOD8064276
Probable space group: P 2/M
;
_chemical_formula_sum "Si O2"
_cell_formula_units_Z 28
_cell_length_a 8.851374
_cell_length_b 11.966571
_cell_length_c 14.346617
_cell_angle_alpha 90.000000
_cell_angle_beta 72.973519
_cell_angle_gamma 90.000000
_cell_volume 1452.997328
_symmetry_space_group_name_H-M "P 2/M"
_symmetry_group_IT_number 10
_symmetry_cell_setting 'monoclinic'
loop_
_space_group_symop_operation_xyz
x,y,z
-x,y,-z
-x,-y,-z
x,-y,z
loop_
_atom_site_type_symbol
_atom_site_label
_atom_site_fract_x
_atom_site_fract_y
_atom_site_fract_z
Si Si1 0.122546 0.869175 0.394658
Si Si2 0.679653 0.500000 0.075004
Si Si3 0.618271 0.873894 0.902946
Si Si4 0.125749 0.280064 0.214184
Si Si5 0.878408 0.701292 0.105721
Si Si6 0.636667 0.125173 0.202116
Si Si7 0.539421 0.133057 0.593105
Si Si8 0.304879 0.500000 0.146805
O O1 0.080427 0.786547 0.316630
O O2 0.289447 0.828121 0.404128
O O3 0.000000 0.852114 0.500000
O O4 0.123931 0.000000 0.361291
O O5 0.751817 0.604776 0.114769
O O6 0.492757 0.500000 0.125349
O O7 0.732458 0.500000 0.957070
O O8 0.776461 0.802060 0.871380
O O9 0.532027 0.870969 0.819404
O O10 0.662762 0.000000 0.925279
O O11 0.500000 0.819749 0.000000
O O12 0.229985 0.391705 0.211303
O O13 0.966541 0.313804 0.188645
O O14 0.776924 0.813708 0.124051
O O15 0.000000 0.704816 0.000000
O O16 0.596901 0.175263 0.311349
O O17 0.699144 0.000000 0.198987
O O18 0.500000 0.186173 0.500000
O O19 0.536495 0.000000 0.588991
#
# Coordination Sequence:
#
# PCOD8064276 Si02
#       8
#     4   2   4   4   4   4   4   2
#     4  10  22  40  64  96 129 163 204 251 309 373
#     4  11  24  45  64  86 116 161 216 264 297 370
#     4  10  20  35  56  83 121 166 206 245 296 366
#     4  12  23  38  63  92 123 163 203 258 315 367
#     4  12  24  39  59  88 128 161 200 258 306 364
#     4  10  21  36  55  86 124 163 202 246 299 362
#     4   9  18  35  59  84 118 159 204 251 292 352
#     4  11  25  42  70  87 112 161 218 260 310 363
#
# _framework density 19.270510999999999
#
# number of rings (size 3 to 8) (size 9 to 14) (size 15 to 20)
#    0.000    1.429    2.857    2.786    4.000    1.429 
#    0.000    0.357    0.000    0.000    0.000    2.000 
#    0.000    0.000    0.000    0.000    0.000    0.000 
#
# Total GULP energy -347180.268065 kJ/mol
# GULP energy per Si atom -12399.295288 kJ/mol
# Density = 1.922665 g / cm^3
# Si number density = 19.270511 Si / 1000 Ang^3
#
#
#
# Elastic Constant Matrix: (Units=GPa)
#
#
# Indices 1 2 3 4 5 6 
#
# 1 100.9320 45.5489 33.9082 0.0000 6.6922 0.0000
# 2 45.5489 96.2957 48.7941 0.0000 -5.8559 0.0000
# 3 33.9082 48.7941 96.6522 0.0000 12.6363 0.0000
# 4 0.0000 0.0000 0.0000 39.5703 0.0000 14.0045
# 5 6.6922 -5.8559 12.6363 0.0000 29.9922 0.0000
# 6 0.0000 0.0000 0.0000 14.0045 0.0000 41.7299
#
#
#
# Elastic Compliance Matrix: (Units=1/GPa)
#
#
# Indices 1 2 3 4 5 6 
#
# 1 0.013188 -0.005842 -0.001210 0.000000 -0.003573 0.000000
# 2 -0.005842 0.017653 -0.007920 0.000000 0.008087 0.000000
# 3 -0.001210 -0.007920 0.015807 0.000000 -0.007936 0.000000
# 4 0.000000 0.000000 0.000000 0.028678 0.000000 -0.009624
# 5 -0.003573 0.008087 -0.007936 0.000000 0.039062 0.000000
# 6 0.000000 0.000000 0.000000 -0.009624 0.000000 0.027194
#
#
# Mechanical properties :
#
#
# Convention : Reuss Voigt Hill
#
# Bulk Modulus (GPa) = 59.86759 61.15357 60.51058
# Shear Modulus (GPa) = 28.23409 33.30040 30.76724
#
# Velocity S-wave (km/s) = 3.83187 4.16149 4.00008
# Velocity P-wave (km/s) = 7.12124 7.40904 7.26656
#
# Compressibility (1/GPa) = 0.01670353
#
# Stress axis : x y z
#
# Youngs Moduli (GPa) = 75.82937 56.64845 63.26475
#
# Poissons Ratio (x) = 0.33094 0.07655
# Poissons Ratio (y) = 0.44299 0.50103
# Poissons Ratio (z) = 0.09176 0.44863
#
# Static dielectric constant tensor:
#      x y z
#    x 3.592900 0.000000 0.081360 
#    y 0.000000 3.486740 0.000000 
#    z 0.081360 0.000000 3.604670 
# 
# 
# High freq. dielectric constant tensor:
#      x y z
#    x 1.755280 0.000000 -0.001960 
#    y 0.000000 1.726990 0.000000 
#    z -0.001960 0.000000 1.747980 
# 
# From -- ./inp_files/60964.got.cif
#   From: 2010.06.25/outbox.cif.g09.slc.cpg/sg10_31_cif.got.tgz:60964.got - 2010.06.27 22:07:45.
