data_PCOD8064894
_publ_section_title
;
Structure prediction by ZEFSAII (Michael W. Deem and Ramdas Pophale) SiO2 
 PCOD8064894
Probable space group: P 2/M
;
_chemical_formula_sum "Si O2"
_cell_formula_units_Z 28
_cell_length_a 21.502762
_cell_length_b 9.071730
_cell_length_c 21.740954
_cell_angle_alpha 90.000000
_cell_angle_beta 159.874416
_cell_angle_gamma 90.000000
_cell_volume 1459.221148
_symmetry_space_group_name_H-M "P 2/M"
_symmetry_group_IT_number 10
_symmetry_cell_setting 'monoclinic'
loop_
_space_group_symop_operation_xyz
x,y,z
-x,y,-z
-x,-y,-z
x,-y,z
loop_
_atom_site_type_symbol
_atom_site_label
_atom_site_fract_x
_atom_site_fract_y
_atom_site_fract_z
Si Si1 0.821323 0.670879 0.673141
Si Si2 0.605479 0.828176 0.246379
Si Si3 0.200383 0.173977 0.693504
Si Si4 0.888794 0.672254 0.956389
Si Si5 0.218074 0.170531 0.846914
Si Si6 0.126386 0.671894 0.419173
Si Si7 0.479332 0.825538 0.410413
O O1 0.769122 0.500000 0.633570
O O2 0.878681 0.708575 0.657385
O O3 0.649153 0.768024 0.530035
O O4 0.992479 0.712809 0.873999
O O5 0.676741 0.762487 0.247456
O O6 0.695221 0.744112 0.386364
O O7 0.652752 0.000000 0.296285
O O8 0.390560 0.801605 0.050423
O O9 0.274181 0.216900 0.829469
O O10 0.000000 0.239811 0.500000
O O11 0.198538 0.000000 0.684389
O O12 0.842316 0.500000 0.909735
O O13 0.702452 0.760359 0.787666
O O14 0.000000 0.723702 0.000000
O O15 0.053322 0.266951 0.716831
O O16 0.157318 0.000000 0.791451
O O17 0.135470 0.500000 0.440427
O O18 0.500000 0.773014 0.500000
O O19 0.470985 0.000000 0.397325
#
# Coordination Sequence:
#
# PCOD8064894 Si02
#       7
#     4   4   4   4   4   4   4
#     4  10  23  42  61  83 112 153 199 237 276 335
#     4  10  20  36  60  87 115 148 194 241 287 342
#     4   9  15  29  57  87 112 143 188 244 290 332
#     4  10  20  37  64  89 111 148 196 236 273 330
#     4  10  20  36  60  86 113 148 193 243 290 337
#     4  11  24  40  57  80 117 157 192 234 285 342
#     4  11  23  37  59  92 124 148 175 228 296 346
#
# _framework density 19.188317999999999
#
# number of rings (size 3 to 8) (size 9 to 14) (size 15 to 20)
#    0.000    1.857    2.857    1.286    0.000    6.000 
#    0.000    5.714    0.000    1.714    0.000    0.000 
#    0.000    0.000    0.000    0.000    0.000    0.000 
#
# Total GULP energy -347256.505596 kJ/mol
# GULP energy per Si atom -12402.018057 kJ/mol
# Density = 1.914464 g / cm^3
# Si number density = 19.188318 Si / 1000 Ang^3
#
#
#
# Elastic Constant Matrix: (Units=GPa)
#
#
# Indices 1 2 3 4 5 6 
#
# 1 66.1145 31.7912 39.0776 0.0000 -26.1435 0.0000
# 2 31.7912 59.6503 47.3780 0.0000 -7.7601 0.0000
# 3 39.0776 47.3780 134.1775 0.0000 -18.1824 0.0000
# 4 0.0000 0.0000 0.0000 7.3474 0.0000 -4.4086
# 5 -26.1435 -7.7601 -18.1824 0.0000 30.1246 0.0000
# 6 0.0000 0.0000 0.0000 -4.4086 0.0000 25.6801
#
#
#
# Elastic Compliance Matrix: (Units=1/GPa)
#
#
# Indices 1 2 3 4 5 6 
#
# 1 0.030969 -0.012272 -0.001604 0.000000 0.022747 0.000000
# 2 -0.012272 0.028197 -0.007451 0.000000 -0.007884 0.000000
# 3 -0.001604 -0.007451 0.011002 0.000000 0.003330 0.000000
# 4 0.000000 0.000000 0.000000 0.151733 0.000000 0.026048
# 5 0.022747 -0.007884 0.003330 0.000000 0.052915 0.000000
# 6 0.000000 0.000000 0.000000 0.026048 0.000000 0.043412
#
#
# Mechanical properties :
#
#
# Convention : Reuss Voigt Hill
#
# Bulk Modulus (GPa) = 36.34377 55.15956 45.75167
# Shear Modulus (GPa) = 13.51156 22.07678 17.79417
#
# Velocity S-wave (km/s) = 2.65647 3.39563 3.04854
# Velocity P-wave (km/s) = 5.32830 6.64700 6.02384
#
# Compressibility (1/GPa) = 0.02751503
#
# Stress axis : x y z
#
# Youngs Moduli (GPa) = 32.29014 35.46461 90.89434
#
# Poissons Ratio (x) = 0.43524 0.14575
# Poissons Ratio (y) = 0.39628 0.67721
# Poissons Ratio (z) = 0.05178 0.26423
#
# Static dielectric constant tensor:
#      x y z
#    x 3.552140 0.000000 -0.105720 
#    y 0.000000 3.276120 0.000000 
#    z -0.105720 0.000000 3.617620 
# 
# 
# High freq. dielectric constant tensor:
#      x y z
#    x 1.745530 0.000000 -0.003740 
#    y 0.000000 1.722240 0.000000 
#    z -0.003740 0.000000 1.761450 
# 
# From -- ./inp_files/90526.got.cif
#   From: 2010.06.25/outbox.cif.g09.slc.cpg/sg10_46_cif.got.tgz:90526.got - 2010.06.27 22:07:45.
