data_PCOD8064574
_publ_section_title
;
Structure prediction by ZEFSAII (Michael W. Deem and Ramdas Pophale) SiO2 
 PCOD8064574
Probable space group: P 2/M
;
_chemical_formula_sum "Si O2"
_cell_formula_units_Z 28
_cell_length_a 30.413809
_cell_length_b 8.793577
_cell_length_c 9.976128
_cell_angle_alpha 90.000000
_cell_angle_beta 35.672379
_cell_angle_gamma 90.000000
_cell_volume 1555.888325
_symmetry_space_group_name_H-M "P 2/M"
_symmetry_group_IT_number 10
_symmetry_cell_setting 'monoclinic'
loop_
_space_group_symop_operation_xyz
x,y,z
-x,y,-z
-x,-y,-z
x,-y,z
loop_
_atom_site_type_symbol
_atom_site_label
_atom_site_fract_x
_atom_site_fract_y
_atom_site_fract_z
Si Si1 0.943234 0.820616 0.524412
Si Si2 0.773777 0.821275 0.950981
Si Si3 0.659583 0.677986 0.733187
Si Si4 0.509689 0.167605 0.134000
Si Si5 0.935423 0.676652 0.266610
Si Si6 0.222704 0.820591 0.359824
Si Si7 0.654667 0.818670 0.456537
O O1 0.858851 0.772083 0.777880
O O2 0.966621 0.731520 0.332859
O O3 0.000000 0.770444 0.500000
O O4 0.947252 0.000000 0.484703
O O5 0.754506 0.770446 0.847393
O O6 0.765913 0.000000 0.981423
O O7 0.714733 0.748924 0.202344
O O8 0.662447 0.500000 0.706554
O O9 0.725186 0.730145 0.668269
O O10 0.673277 0.753806 0.555971
O O11 0.578844 0.722269 0.998818
O O12 0.429141 0.229533 0.388243
O O13 0.527729 0.000000 0.148656
O O14 0.500000 0.155380 0.000000
O O15 0.913116 0.500000 0.328740
O O16 0.863484 0.774792 0.400059
O O17 0.000000 0.708446 0.000000
O O18 0.231894 0.000000 0.359366
O O19 0.658671 0.000000 0.458429
#
# Coordination Sequence:
#
# PCOD8064574 Si02
#       7
#     4   4   4   4   4   4   4
#     4   9  18  33  53  77 103 133 172 210 245 294
#     4   8  16  32  53  75  98 127 166 212 255 292
#     4  11  21  32  49  75 105 134 166 205 251 301
#     4   8  15  29  49  71  96 129 169 210 251 294
#     4  10  21  36  53  76 106 135 165 205 253 300
#     4  10  20  36  56  75  99 133 171 207 247 297
#     4   9  17  32  53  75  99 129 169 214 254 296
#
# _framework density 17.996151000000001
#
# number of rings (size 3 to 8) (size 9 to 14) (size 15 to 20)
#    0.000    2.714    0.000    3.857    0.000    5.143 
#    0.000    5.714    0.000    4.286    0.000    0.000 
#    0.000    0.000    0.000    0.000    0.000    0.000 
#
# Total GULP energy -347110.087034 kJ/mol
# GULP energy per Si atom -12396.788823 kJ/mol
# Density = 1.795519 g / cm^3
# Si number density = 17.996151 Si / 1000 Ang^3
#
#
#
# Elastic Constant Matrix: (Units=GPa)
#
#
# Indices 1 2 3 4 5 6 
#
# 1 91.2649 15.5046 51.1139 0.0000 -0.3577 0.0000
# 2 15.5046 35.8407 28.1455 0.0000 2.4376 0.0000
# 3 51.1139 28.1455 142.0495 0.0000 -0.1346 0.0000
# 4 0.0000 0.0000 0.0000 15.6931 0.0000 -3.3741
# 5 -0.3577 2.4376 -0.1346 0.0000 13.5997 0.0000
# 6 0.0000 0.0000 0.0000 -3.3741 0.0000 14.3128
#
#
#
# Elastic Compliance Matrix: (Units=1/GPa)
#
#
# Indices 1 2 3 4 5 6 
#
# 1 0.013913 -0.002535 -0.004503 0.000000 0.000776 0.000000
# 2 -0.002535 0.033999 -0.005830 0.000000 -0.006219 0.000000
# 3 -0.004503 -0.005830 0.009816 0.000000 0.001024 0.000000
# 4 0.000000 0.000000 0.000000 0.067124 0.000000 0.015824
# 5 0.000776 -0.006219 0.001024 0.000000 0.074676 0.000000
# 6 0.000000 0.000000 0.000000 0.015824 0.000000 0.073598
#
#
# Mechanical properties :
#
#
# Convention : Reuss Voigt Hill
#
# Bulk Modulus (GPa) = 31.25840 50.96481 41.11161
# Shear Modulus (GPa) = 16.15361 20.34718 18.25040
#
# Velocity S-wave (km/s) = 2.99927 3.36615 3.18799
# Velocity P-wave (km/s) = 5.42230 6.59464 6.03700
#
# Compressibility (1/GPa) = 0.03199140
#
# Stress axis : x y z
#
# Youngs Moduli (GPa) = 71.87547 29.41234 101.87031
#
# Poissons Ratio (x) = 0.07456 0.45875
# Poissons Ratio (y) = 0.18221 0.59393
# Poissons Ratio (z) = 0.32368 0.17148
#
# Static dielectric constant tensor:
#      x y z
#    x 3.319940 0.000000 -0.249440 
#    y 0.000000 3.186900 0.000000 
#    z -0.249440 0.000000 3.855540 
# 
# 
# High freq. dielectric constant tensor:
#      x y z
#    x 1.690010 0.000000 -0.013140 
#    y 0.000000 1.681940 0.000000 
#    z -0.013140 0.000000 1.698250 
# 
# From -- ./inp_files/37922.got.cif
#   From: 2010.06.25/outbox.cif.g09.slc.cpg/sg10_19_cif.got.tgz:37922.got - 2010.06.27 22:07:45.
