data_PCOD8064924
_publ_section_title
;
Structure prediction by ZEFSAII (Michael W. Deem and Ramdas Pophale) SiO2 
 PCOD8064924
Probable space group: P 2/M
;
_chemical_formula_sum "Si O2"
_cell_formula_units_Z 28
_cell_length_a 14.580413
_cell_length_b 8.836371
_cell_length_c 12.479389
_cell_angle_alpha 90.000000
_cell_angle_beta 59.786593
_cell_angle_gamma 90.000000
_cell_volume 1389.407949
_symmetry_space_group_name_H-M "P 2/M"
_symmetry_group_IT_number 10
_symmetry_cell_setting 'monoclinic'
loop_
_space_group_symop_operation_xyz
x,y,z
-x,y,-z
-x,-y,-z
x,-y,z
loop_
_atom_site_type_symbol
_atom_site_label
_atom_site_fract_x
_atom_site_fract_y
_atom_site_fract_z
Si Si1 0.705312 0.323630 0.048229
Si Si2 0.580912 0.328414 0.539649
Si Si3 0.297888 0.323214 0.195679
Si Si4 0.819175 0.328489 0.344400
Si Si5 0.115543 0.319874 0.460805
Si Si6 0.120115 0.823637 0.904906
Si Si7 0.479044 0.177882 0.212289
O O1 0.689205 0.500000 0.079238
O O2 0.802141 0.267338 0.063126
O O3 0.597201 0.242261 0.144356
O O4 0.733766 0.290250 0.908026
O O5 0.500000 0.262959 0.500000
O O6 0.551204 0.500000 0.591580
O O7 0.693087 0.324707 0.415926
O O8 0.580531 0.223213 0.643647
O O9 0.315372 0.500000 0.207306
O O10 0.203526 0.257429 0.325844
O O11 0.409463 0.241636 0.154829
O O12 0.860420 0.500000 0.300747
O O13 0.858914 0.264750 0.434766
O O14 0.861644 0.217787 0.228992
O O15 0.116891 0.500000 0.453622
O O16 0.000000 0.254331 0.500000
O O17 0.141072 0.000000 0.910612
O O18 0.000000 0.777272 0.000000
O O19 0.485727 0.000000 0.197187
#
# Coordination Sequence:
#
# PCOD8064924 Si02
#       7
#     4   4   4   4   4   4   4
#     4  11  24  41  66  93 121 162 215 263 303 359
#     4  10  20  36  60  88 120 158 203 254 305 357
#     4  10  21  40  64  92 124 161 207 259 310 363
#     4  10  20  37  64  92 121 157 204 259 303 358
#     4   9  18  34  61  94 123 152 196 257 314 355
#     4  11  26  45  63  88 129 170 204 251 310 370
#     4  12  24  38  60  91 129 166 201 247 311 382
#
# _framework density 20.152470000000001
#
# number of rings (size 3 to 8) (size 9 to 14) (size 15 to 20)
#    0.000    1.571    1.429    3.429    2.000    6.000 
#    0.000    0.000    0.000    0.857    0.000    0.000 
#    0.000    0.000    0.000    0.000    0.000    0.000 
#
# Total GULP energy -347323.989957 kJ/mol
# GULP energy per Si atom -12404.428213 kJ/mol
# Density = 2.010660 g / cm^3
# Si number density = 20.152470 Si / 1000 Ang^3
#
#
#
# Elastic Constant Matrix: (Units=GPa)
#
#
# Indices 1 2 3 4 5 6 
#
# 1 110.9452 27.5567 48.0020 0.0000 -4.7467 0.0000
# 2 27.5567 73.3781 39.4729 0.0000 -2.4228 0.0000
# 3 48.0020 39.4729 116.8018 0.0000 3.5723 0.0000
# 4 0.0000 0.0000 0.0000 11.8773 0.0000 -5.2916
# 5 -4.7467 -2.4228 3.5723 0.0000 31.1231 0.0000
# 6 0.0000 0.0000 0.0000 -5.2916 0.0000 21.5631
#
#
#
# Elastic Compliance Matrix: (Units=1/GPa)
#
#
# Indices 1 2 3 4 5 6 
#
# 1 0.011353 -0.002020 -0.004045 0.000000 0.002039 0.000000
# 2 -0.002020 0.017134 -0.005009 0.000000 0.001601 0.000000
# 3 -0.004045 -0.005009 0.011990 0.000000 -0.002383 0.000000
# 4 0.000000 0.000000 0.000000 0.094529 0.000000 0.023197
# 5 0.002039 0.001601 -0.002383 0.000000 0.032840 0.000000
# 6 0.000000 0.000000 0.000000 0.023197 0.000000 0.052068
#
#
# Mechanical properties :
#
#
# Convention : Reuss Voigt Hill
#
# Bulk Modulus (GPa) = 54.56284 59.02094 56.79189
# Shear Modulus (GPa) = 20.14736 25.31893 22.73315
#
# Velocity S-wave (km/s) = 3.16531 3.54837 3.36230
# Velocity P-wave (km/s) = 6.36339 6.79255 6.58147
#
# Compressibility (1/GPa) = 0.01832749
#
# Stress axis : x y z
#
# Youngs Moduli (GPa) = 88.08510 58.36291 83.40448
#
# Poissons Ratio (x) = 0.11789 0.33740
# Poissons Ratio (y) = 0.17793 0.41779
# Poissons Ratio (z) = 0.35633 0.29235
#
# Static dielectric constant tensor:
#      x y z
#    x 3.815080 0.000000 0.006480 
#    y 0.000000 3.433400 0.000000 
#    z 0.006480 0.000000 3.745740 
# 
# 
# High freq. dielectric constant tensor:
#      x y z
#    x 1.801750 0.000000 0.003070 
#    y 0.000000 1.761560 0.000000 
#    z 0.003070 0.000000 1.796830 
# 
# From -- ./inp_files/49648.got.cif
#   From: 2010.06.25/outbox.cif.g09.slc.cpg/sg10_25_cif.got.tgz:49648.got - 2010.06.27 22:07:45.
