data_PCOD8064247
_publ_section_title
;
Structure prediction by ZEFSAII (Michael W. Deem and Ramdas Pophale) SiO2 
 PCOD8064247
Probable space group: P 2/M
;
_chemical_formula_sum "Si O2"
_cell_formula_units_Z 32
_cell_length_a 14.074348
_cell_length_b 9.063429
_cell_length_c 22.949504
_cell_angle_alpha 90.000000
_cell_angle_beta 148.292131
_cell_angle_gamma 90.000000
_cell_volume 1538.650482
_symmetry_space_group_name_H-M "P 2/M"
_symmetry_group_IT_number 10
_symmetry_cell_setting 'monoclinic'
loop_
_space_group_symop_operation_xyz
x,y,z
-x,y,-z
-x,-y,-z
x,-y,z
loop_
_atom_site_type_symbol
_atom_site_label
_atom_site_fract_x
_atom_site_fract_y
_atom_site_fract_z
Si Si1 0.770929 0.325906 0.323053
Si Si2 0.686837 0.169944 0.068202
Si Si3 0.201555 0.174919 0.111839
Si Si4 0.832662 0.674796 0.483892
Si Si5 0.364222 0.326519 0.506471
Si Si6 0.952150 0.673729 0.748466
Si Si7 0.575521 0.169049 0.881436
Si Si8 0.722040 0.174903 0.717422
O O1 0.753128 0.500000 0.307657
O O2 0.752903 0.273421 0.380777
O O3 0.612240 0.251287 0.204177
O O4 0.962986 0.267554 0.399348
O O5 0.859267 0.264798 0.179637
O O6 0.714590 0.000000 0.101093
O O7 0.500000 0.228618 0.000000
O O8 0.688745 0.188065 0.999358
O O9 0.320511 0.238849 0.120207
O O10 0.283674 0.221399 0.217363
O O11 0.193147 0.000000 0.101698
O O12 0.000000 0.240439 0.000000
O O13 0.844505 0.500000 0.491772
O O14 0.703676 0.734113 0.466808
O O15 0.408640 0.500000 0.529107
O O16 0.209462 0.287729 0.379958
O O17 0.550449 0.240236 0.592479
O O18 0.972159 0.500000 0.769065
O O19 0.902461 0.755294 0.783079
O O20 0.530771 0.000000 0.845381
O O21 0.729125 0.000000 0.713626
#
# Coordination Sequence:
#
# PCOD8064247 Si02
#       8
#     4   4   4   4   4   4   4   4
#     4   9  17  31  54  79 107 144 186 228 275 331
#     4  10  23  42  62  85 116 153 191 236 291 344
#     4   9  18  34  57  82 110 148 188 228 283 344
#     4   8  16  32  52  77 109 147 186 227 276 331
#     4  10  21  37  57  81 115 154 193 236 287 339
#     4  11  24  40  60  85 114 153 197 241 288 340
#     4  10  20  35  56  82 112 143 181 229 284 339
#     4  11  22  37  60  88 117 152 193 238 289 344
#
# _framework density 20.797446999999998
#
# number of rings (size 3 to 8) (size 9 to 14) (size 15 to 20)
#    0.000    2.250    0.000    3.375    1.750    5.250 
#    0.000    2.500    0.000    2.625    0.000    0.000 
#    0.000    0.000    0.000    0.000    0.000    0.000 
#
# Total GULP energy -396740.969454 kJ/mol
# GULP energy per Si atom -12398.155295 kJ/mol
# Density = 2.075011 g / cm^3
# Si number density = 20.797447 Si / 1000 Ang^3
#
#
#
# Elastic Constant Matrix: (Units=GPa)
#
#
# Indices 1 2 3 4 5 6 
#
# 1 96.3095 29.0295 28.5212 0.0000 16.6087 0.0000
# 2 29.0295 59.1796 43.7398 0.0000 6.7812 0.0000
# 3 28.5212 43.7398 107.4435 0.0000 18.8671 0.0000
# 4 0.0000 0.0000 0.0000 25.4238 0.0000 18.0205
# 5 16.6087 6.7812 18.8671 0.0000 31.3857 0.0000
# 6 0.0000 0.0000 0.0000 18.0205 0.0000 -2.1190
#
#
#
# Elastic Compliance Matrix: (Units=1/GPa)
#
#
# Indices 1 2 3 4 5 6 
#
# 1 0.013108 -0.005640 -0.000201 0.000000 -0.005597 0.000000
# 2 -0.005640 0.026614 -0.009896 0.000000 0.003183 0.000000
# 3 -0.000201 -0.009896 0.014529 0.000000 -0.006489 0.000000
# 4 0.000000 0.000000 0.000000 0.005597 0.000000 0.047596
# 5 -0.005597 0.003183 -0.006489 0.000000 0.038037 0.000000
# 6 0.000000 0.000000 0.000000 0.047596 0.000000 -0.067150
#
#
# Mechanical properties :
#
#
# Convention : Reuss Voigt Hill
#
# Bulk Modulus (GPa) = 43.90479 51.72373 47.81426
# Shear Modulus (GPa) = 71.63240 21.71424 46.67332
#
# Velocity S-wave (km/s) = 5.87517 3.23473 4.74242
# Velocity P-wave (km/s) = 8.19634 6.23502 7.28202
#
# Compressibility (1/GPa) = 0.02277656
#
# Stress axis : x y z
#
# Youngs Moduli (GPa) = 76.28986 37.57421 68.82915
#
# Poissons Ratio (x) = 0.21193 0.01380
# Poissons Ratio (y) = 0.43030 0.68115
# Poissons Ratio (z) = 0.01530 0.37184
#
# Static dielectric constant tensor:
#      x y z
#    x 4.244970 0.000000 0.023170 
#    y 0.000000 3.332800 0.000000 
#    z 0.023170 0.000000 3.711010 
# 
# 
# High freq. dielectric constant tensor:
#      x y z
#    x 1.828170 0.000000 0.006420 
#    y 0.000000 1.775550 0.000000 
#    z 0.006420 0.000000 1.819080 
# 
# From -- ./inp_files/89626.got.cif
#   From: 2010.06.25/outbox.cif.g09.slc.cpg/sg10_45_cif.got.tgz:89626.got - 2010.06.27 22:07:45.
