data_PCOD8064771
_publ_section_title
;
Structure prediction by ZEFSAII (Michael W. Deem and Ramdas Pophale) SiO2 
 PCOD8064771
Probable space group: P 2/M
;
_chemical_formula_sum "Si O2"
_cell_formula_units_Z 28
_cell_length_a 9.103170
_cell_length_b 8.671528
_cell_length_c 29.392386
_cell_angle_alpha 90.000000
_cell_angle_beta 38.779977
_cell_angle_gamma 90.000000
_cell_volume 1453.206478
_symmetry_space_group_name_H-M "P 2/M"
_symmetry_group_IT_number 10
_symmetry_cell_setting 'monoclinic'
loop_
_space_group_symop_operation_xyz
x,y,z
-x,y,-z
-x,-y,-z
x,-y,z
loop_
_atom_site_type_symbol
_atom_site_label
_atom_site_fract_x
_atom_site_fract_y
_atom_site_fract_z
Si Si1 0.238420 0.683178 0.569986
Si Si2 0.098700 0.682946 0.427963
Si Si3 0.784828 0.182001 0.154244
Si Si4 0.569363 0.818646 0.840851
Si Si5 0.391213 0.182269 0.708004
Si Si6 0.165638 0.817334 0.998833
Si Si7 0.930535 0.680725 0.290897
O O1 0.500000 0.750384 0.500000
O O2 0.245394 0.500000 0.566148
O O3 0.135074 0.739684 0.642920
O O4 0.072973 0.747186 0.569828
O O5 0.116742 0.500000 0.422013
O O6 0.352509 0.751184 0.359459
O O7 0.000000 0.740213 0.500000
O O8 0.589711 0.227518 0.163975
O O9 0.720253 0.253762 0.218718
O O10 0.048123 0.239946 0.074948
O O11 0.790175 0.000000 0.157847
O O12 0.800404 0.716968 0.784074
O O13 0.632146 0.000000 0.825013
O O14 0.433568 0.772925 0.921143
O O15 0.231972 0.228753 0.704465
O O16 0.407889 0.000000 0.706785
O O17 0.146797 0.000000 0.001729
O O18 0.000000 0.746838 0.000000
O O19 0.882923 0.500000 0.297123
#
# Coordination Sequence:
#
# PCOD8064771 Si02
#       7
#     4   4   4   4   4   4   4
#     4   9  18  34  56  79 100 128 168 206 241 291
#     4  10  20  36  59  82 104 132 166 205 251 303
#     4   8  15  29  51  78 103 129 166 212 258 302
#     4   9  16  30  54  79 101 127 165 213 259 303
#     4  11  22  35  52  75 105 137 171 212 253 295
#     4   7  11  23  47  76 100 125 162 207 253 302
#     4  11  22  35  51  72 103 139 172 207 249 301
#
# _framework density 19.267737
#
# number of rings (size 3 to 8) (size 9 to 14) (size 15 to 20)
#    0.000    2.714    0.000    4.286    0.000    2.571 
#    0.000    2.143    0.000   12.857    0.000    0.000 
#    0.000    0.000    0.000    0.000    0.000    0.000 
#
# Total GULP energy -346954.201322 kJ/mol
# GULP energy per Si atom -12391.221476 kJ/mol
# Density = 1.922388 g / cm^3
# Si number density = 19.267737 Si / 1000 Ang^3
#
#
#
# Elastic Constant Matrix: (Units=GPa)
#
#
# Indices 1 2 3 4 5 6 
#
# 1 -526.3261 -745.4690 -217.4535 0.0000 136.2235 0.0000
# 2 -745.4690 -869.1743 -331.4010 0.0000 150.3598 0.0000
# 3 -217.4535 -331.4010 68.5770 0.0000 68.1229 0.0000
# 4 0.0000 0.0000 0.0000 35.7308 0.0000 1.2703
# 5 136.2235 150.3598 68.1229 0.0000 5.6890 0.0000
# 6 0.0000 0.0000 0.0000 1.2703 0.0000 28.5968
#
#
#
# Elastic Compliance Matrix: (Units=1/GPa)
#
#
# Indices 1 2 3 4 5 6 
#
# 1 0.011141 -0.008348 -0.003746 0.000000 -0.001277 0.000000
# 2 -0.008348 0.007062 0.000505 0.000000 0.007198 0.000000
# 3 -0.003746 0.000505 0.006488 0.000000 -0.001351 0.000000
# 4 0.000000 0.000000 0.000000 0.028031 0.000000 -0.001245
# 5 -0.001277 0.007198 -0.001351 0.000000 0.032298 0.000000
# 6 0.000000 0.000000 0.000000 -0.001245 0.000000 0.035024
#
#
# Mechanical properties :
#
#
# Convention : Reuss Voigt Hill
#
# Bulk Modulus (GPa) = 660.66315 -435.06338 112.79988
# Shear Modulus (GPa) = 34.78812 11.82999 23.30905
#
# Velocity S-wave (km/s) = 4.25374 2.48055 3.48191
# Velocity P-wave (km/s) = 19.17696 14.76770 8.65075
#
# Compressibility (1/GPa) = 0.00151363
#
# Stress axis : x y z
#
# Youngs Moduli (GPa) = 89.75731 141.60355 154.12988
#
# Poissons Ratio (x) = 1.18213 0.57737
# Poissons Ratio (y) = 0.74931 -0.07790
# Poissons Ratio (z) = 0.33623 -0.07157
#
# Static dielectric constant tensor:
#      x y z
#    x 5.711280 0.000000 0.554170 
#    y 0.000000 3.046170 0.000000 
#    z 0.554170 0.000000 4.223880 
# 
# 
# High freq. dielectric constant tensor:
#      x y z
#    x 1.735810 0.000000 0.003300 
#    y 0.000000 1.702140 0.000000 
#    z 0.003300 0.000000 1.780200 
# 
# From -- ./inp_files/94493.got.cif
#   From: 2010.06.25/outbox.cif.g09.slc.cpg/sg10_48_cif.got.tgz:94493.got - 2010.06.27 22:07:45.
