data_PCOD8064626
_publ_section_title
;
Structure prediction by ZEFSAII (Michael W. Deem and Ramdas Pophale) SiO2 
 PCOD8064626
Probable space group: P 2/M
;
_chemical_formula_sum "Si O2"
_cell_formula_units_Z 32
_cell_length_a 9.900086
_cell_length_b 13.619437
_cell_length_c 24.977853
_cell_angle_alpha 90.000000
_cell_angle_beta 30.331080
_cell_angle_gamma 90.000000
_cell_volume 1700.752341
_symmetry_space_group_name_H-M "P 2/M"
_symmetry_group_IT_number 10
_symmetry_cell_setting 'monoclinic'
loop_
_space_group_symop_operation_xyz
x,y,z
-x,y,-z
-x,-y,-z
x,-y,z
loop_
_atom_site_type_symbol
_atom_site_label
_atom_site_fract_x
_atom_site_fract_y
_atom_site_fract_z
Si Si1 0.991269 0.110840 0.272358
Si Si2 0.770450 0.611856 0.232064
Si Si3 0.054005 0.745742 0.921679
Si Si4 0.496859 0.112076 0.261588
Si Si5 0.914400 0.114108 0.421481
Si Si6 0.448115 0.797743 0.646123
Si Si7 0.506547 0.799951 0.061884
Si Si8 0.297276 0.603529 0.117961
O O1 0.833037 0.184302 0.287643
O O2 0.916949 0.137545 0.358125
O O3 0.311881 0.118160 0.153559
O O4 0.902371 0.000000 0.290178
O O5 0.660848 0.500000 0.262335
O O6 0.879827 0.651631 0.137712
O O7 0.544572 0.686500 0.332390
O O8 0.001605 0.614754 0.196578
O O9 0.301227 0.820332 0.840775
O O10 0.000000 0.707226 0.000000
O O11 0.806429 0.807903 0.981503
O O12 0.196392 0.143427 0.350341
O O13 0.537149 0.124563 0.310940
O O14 0.549707 0.000000 0.226810
O O15 0.694079 0.185399 0.522338
O O16 0.844777 0.000000 0.456493
O O17 0.381113 0.695831 0.125425
O O18 0.500000 0.809173 0.000000
O O19 0.317277 0.500000 0.143630
O O20 0.500000 0.599203 0.000000
#
# Coordination Sequence:
#
# PCOD8064626 Si02
#       8
#     4   4   4   4   4   4   4   4
#     4  11  22  34  51  82 118 144 173 221 276 323
#     4  10  20  36  57  81 108 139 180 226 273 326
#     4  11  22  34  53  81 115 147 180 222 268 319
#     4  10  21  37  55  79 108 147 193 224 254 315
#     4  10  21  37  57  79 108 146 183 222 273 321
#     4  11  20  35  59  83 102 135 185 237 272 314
#     4  11  19  34  52  79 110 147 186 213 265 320
#     4   9  15  29  54  76  97 132 179 221 255 309
#
# _framework density 18.815200999999998
#
# number of rings (size 3 to 8) (size 9 to 14) (size 15 to 20)
#    0.000    1.625    3.750    3.375    0.000    3.250 
#    0.000    0.000    0.000    8.250    0.000    0.000 
#    0.000    0.000    0.000    0.000    0.000    0.000 
#
# Total GULP energy -396705.974941 kJ/mol
# GULP energy per Si atom -12397.061717 kJ/mol
# Density = 1.877238 g / cm^3
# Si number density = 18.815201 Si / 1000 Ang^3
#
#
#
# Elastic Constant Matrix: (Units=GPa)
#
#
# Indices 1 2 3 4 5 6 
#
# 1 74.1405 24.4862 34.7227 0.0000 3.1943 0.0000
# 2 24.4862 88.5255 51.8201 0.0000 7.2268 0.0000
# 3 34.7227 51.8201 98.5473 0.0000 3.9998 0.0000
# 4 0.0000 0.0000 0.0000 13.6440 0.0000 -10.7721
# 5 3.1943 7.2268 3.9998 0.0000 31.2411 0.0000
# 6 0.0000 0.0000 0.0000 -10.7721 0.0000 13.9088
#
#
#
# Elastic Compliance Matrix: (Units=1/GPa)
#
#
# Indices 1 2 3 4 5 6 
#
# 1 0.016334 -0.001604 -0.004885 0.000000 -0.000674 0.000000
# 2 -0.001604 0.016705 -0.008111 0.000000 -0.002662 0.000000
# 3 -0.004885 -0.008111 0.016121 0.000000 0.000312 0.000000
# 4 0.000000 0.000000 0.000000 0.188638 0.000000 0.146097
# 5 -0.000674 -0.002662 0.000312 0.000000 0.032654 0.000000
# 6 0.000000 0.000000 0.000000 0.146097 0.000000 0.185046
#
#
# Mechanical properties :
#
#
# Convention : Reuss Voigt Hill
#
# Bulk Modulus (GPa) = 50.09677 53.69678 51.89677
# Shear Modulus (GPa) = 10.17604 21.77107 15.97355
#
# Velocity S-wave (km/s) = 2.32812 3.40531 2.91687
# Velocity P-wave (km/s) = 5.82326 6.63796 6.24391
#
# Compressibility (1/GPa) = 0.01996137
#
# Stress axis : x y z
#
# Youngs Moduli (GPa) = 61.22105 59.86218 62.03105
#
# Poissons Ratio (x) = 0.09600 0.30300
# Poissons Ratio (y) = 0.09818 0.50314
# Poissons Ratio (z) = 0.29904 0.48555
#
# Static dielectric constant tensor:
#      x y z
#    x 3.329500 0.000000 -0.059330 
#    y 0.000000 3.837800 0.000000 
#    z -0.059330 0.000000 3.325680 
# 
# 
# High freq. dielectric constant tensor:
#      x y z
#    x 1.722720 0.000000 -0.008380 
#    y 0.000000 1.721500 0.000000 
#    z -0.008380 0.000000 1.724430 
# 
# From -- ./inp_files/82842.got.cif
#   From: 2010.06.25/outbox.cif.g09.slc.cpg/sg10_42_cif.got.tgz:82842.got - 2010.06.27 22:07:45.
