data_PCOD8064752
_publ_section_title
;
Structure prediction by ZEFSAII (Michael W. Deem and Ramdas Pophale) SiO2 
 PCOD8064752
Probable space group: P 2/M
;
_chemical_formula_sum "Si O2"
_cell_formula_units_Z 28
_cell_length_a 15.558858
_cell_length_b 9.055287
_cell_length_c 11.681876
_cell_angle_alpha 90.000000
_cell_angle_beta 122.760379
_cell_angle_gamma 90.000000
_cell_volume 1384.070006
_symmetry_space_group_name_H-M "P 2/M"
_symmetry_group_IT_number 10
_symmetry_cell_setting 'monoclinic'
loop_
_space_group_symop_operation_xyz
x,y,z
-x,y,-z
-x,-y,-z
x,-y,z
loop_
_atom_site_type_symbol
_atom_site_label
_atom_site_fract_x
_atom_site_fract_y
_atom_site_fract_z
Si Si1 0.043596 0.829129 0.656735
Si Si2 0.332110 0.672329 0.638386
Si Si3 0.709799 0.172800 0.918317
Si Si4 0.116610 0.331454 0.085501
Si Si5 0.511022 0.172991 0.636735
Si Si6 0.258616 0.673222 0.834126
Si Si7 0.135932 0.669024 0.359117
O O1 0.146077 0.738029 0.743666
O O2 0.000000 0.802097 0.500000
O O3 0.962160 0.769653 0.689025
O O4 0.066002 0.000000 0.697966
O O5 0.345746 0.500000 0.624481
O O6 0.430842 0.754006 0.663632
O O7 0.321997 0.708421 0.765205
O O8 0.231539 0.730670 0.500131
O O9 0.819034 0.229827 0.953245
O O10 0.623859 0.211653 0.763018
O O11 0.717442 0.000000 0.946859
O O12 0.681572 0.252417 0.017186
O O13 0.121899 0.500000 0.044589
O O14 0.163813 0.318580 0.245979
O O15 0.000000 0.275640 0.000000
O O16 0.500000 0.236169 0.500000
O O17 0.489220 0.000000 0.622126
O O18 0.249677 0.500000 0.848855
O O19 0.111064 0.500000 0.376119
#
# Coordination Sequence:
#
# PCOD8064752 Si02
#       7
#     4   4   4   4   4   4   4
#     4  11  22  35  56  89 125 162 202 243 294 354
#     4  10  22  38  60  89 116 154 204 250 295 350
#     4  11  24  41  62  89 121 157 200 248 303 362
#     4  10  21  37  59  88 119 155 198 242 296 357
#     4  10  23  43  65  89 119 156 196 244 304 364
#     4  11  23  40  61  86 122 162 203 248 298 357
#     4  10  20  36  58  86 122 160 202 249 298 355
#
# _framework density 20.230191000000001
#
# number of rings (size 3 to 8) (size 9 to 14) (size 15 to 20)
#    0.000    1.571    1.429    3.000    0.000    6.286 
#    0.000    2.857    0.000    0.000    0.000    0.000 
#    0.000    0.000    0.000    0.000    0.000    0.000 
#
# Total GULP energy -347366.836436 kJ/mol
# GULP energy per Si atom -12405.958444 kJ/mol
# Density = 2.018415 g / cm^3
# Si number density = 20.230191 Si / 1000 Ang^3
#
#
#
# Elastic Constant Matrix: (Units=GPa)
#
#
# Indices 1 2 3 4 5 6 
#
# 1 124.6138 56.5016 47.2162 0.0000 -2.0100 0.0000
# 2 56.5016 81.7792 54.2305 0.0000 -3.1354 0.0000
# 3 47.2162 54.2305 122.0214 0.0000 -7.8840 0.0000
# 4 0.0000 0.0000 0.0000 32.8008 0.0000 4.7371
# 5 -2.0100 -3.1354 -7.8840 0.0000 29.4254 0.0000
# 6 0.0000 0.0000 0.0000 4.7371 0.0000 45.2834
#
#
#
# Elastic Compliance Matrix: (Units=1/GPa)
#
#
# Indices 1 2 3 4 5 6 
#
# 1 0.011841 -0.007290 -0.001364 0.000000 -0.000333 0.000000
# 2 -0.007290 0.021827 -0.006881 0.000000 -0.000016 0.000000
# 3 -0.001364 -0.006881 0.011934 0.000000 0.002371 0.000000
# 4 0.000000 0.000000 0.000000 0.030955 0.000000 -0.003238
# 5 -0.000333 -0.000016 0.002371 0.000000 0.034595 0.000000
# 6 0.000000 0.000000 0.000000 -0.003238 0.000000 0.022422
#
#
# Mechanical properties :
#
#
# Convention : Reuss Voigt Hill
#
# Bulk Modulus (GPa) = 68.80478 71.59010 70.19744
# Shear Modulus (GPa) = 29.50067 32.86632 31.18349
#
# Velocity S-wave (km/s) = 3.82285 4.03503 3.93037
# Velocity P-wave (km/s) = 7.31917 7.56129 7.44122
#
# Compressibility (1/GPa) = 0.01453387
#
# Stress axis : x y z
#
# Youngs Moduli (GPa) = 84.44944 45.81505 83.79202
#
# Poissons Ratio (x) = 0.33398 0.11427
# Poissons Ratio (y) = 0.61561 0.57656
# Poissons Ratio (z) = 0.11517 0.31525
#
# Static dielectric constant tensor:
#      x y z
#    x 3.567420 0.000000 -0.155120 
#    y 0.000000 3.621770 0.000000 
#    z -0.155120 0.000000 4.064580 
# 
# 
# High freq. dielectric constant tensor:
#      x y z
#    x 1.787710 0.000000 -0.006890 
#    y 0.000000 1.785990 0.000000 
#    z -0.006890 0.000000 1.806090 
# 
# From -- ./inp_files/50087.got.cif
#   From: 2010.06.25/outbox.cif.g09.slc.cpg/sg10_26_cif.got.tgz:50087.got - 2010.06.27 22:07:45.
