data_PCOD8064111
_publ_section_title
;
Structure prediction by ZEFSAII (Michael W. Deem and Ramdas Pophale) SiO2 
 PCOD8064111
Probable space group: P 2/M
;
_chemical_formula_sum "Si O2"
_cell_formula_units_Z 28
_cell_length_a 31.427633
_cell_length_b 7.699878
_cell_length_c 10.354907
_cell_angle_alpha 90.000000
_cell_angle_beta 35.457193
_cell_angle_gamma 90.000000
_cell_volume 1453.585240
_symmetry_space_group_name_H-M "P 2/M"
_symmetry_group_IT_number 10
_symmetry_cell_setting 'monoclinic'
loop_
_space_group_symop_operation_xyz
x,y,z
-x,y,-z
-x,-y,-z
x,-y,z
loop_
_atom_site_type_symbol
_atom_site_label
_atom_site_fract_x
_atom_site_fract_y
_atom_site_fract_z
Si Si1 0.959748 0.802629 0.971862
Si Si2 0.458451 0.000000 0.968041
Si Si3 0.811417 0.703704 0.440975
Si Si4 0.443621 0.000000 0.523664
Si Si5 0.346127 0.299925 0.859279
Si Si6 0.037987 0.302731 0.529147
Si Si7 0.646103 0.700124 0.854997
Si Si8 0.183387 0.705474 0.285353
O O1 0.871424 0.789992 0.199235
O O2 0.984164 0.000000 0.891715
O O3 0.000000 0.725264 0.000000
O O4 0.985599 0.698090 0.782985
O O5 0.518202 0.000000 0.708138
O O6 0.500000 0.000000 0.000000
O O7 0.409299 0.826823 0.081229
O O8 0.825248 0.500000 0.407407
O O9 0.728250 0.743656 0.601493
O O10 0.822891 0.783876 0.555321
O O11 0.500000 0.000000 0.500000
O O12 0.396237 0.824577 0.649936
O O13 0.363911 0.500000 0.780211
O O14 0.359152 0.267355 0.978725
O O15 0.262433 0.250481 0.029346
O O16 0.053749 0.500000 0.450132
O O17 0.117167 0.214494 0.363761
O O18 0.000000 0.207627 0.500000
O O19 0.625980 0.500000 0.873316
O O20 0.175334 0.500000 0.318487
#
# Coordination Sequence:
#
# PCOD8064111 Si02
#       8
#     4   2   4   2   4   4   4   4
#     4  11  22  33  48  82 115 145 190 236 284 328
#     4  12  26  42  60  86 126 157 181 226 286 351
#     4   9  17  32  58  83 106 142 190 240 282 324
#     4  12  22  38  60  94 114 144 193 226 283 347
#     4   9  18  35  61  91 117 142 187 246 287 327
#     4  10  20  35  55  77 108 150 192 233 280 332
#     4   9  19  37  61  90 115 149 194 233 286 342
#     4   8  15  31  54  81 110 143 182 229 285 329
#
# _framework density 19.262715
#
# number of rings (size 3 to 8) (size 9 to 14) (size 15 to 20)
#    0.000    2.286    2.857    2.143    1.000    2.000 
#    2.571    1.429    0.000    3.429    0.000    0.000 
#    0.000    0.000    0.000    0.000    0.000    0.000 
#
# Total GULP energy -347091.490724 kJ/mol
# GULP energy per Si atom -12396.124669 kJ/mol
# Density = 1.921887 g / cm^3
# Si number density = 19.262715 Si / 1000 Ang^3
#
#
#
# Elastic Constant Matrix: (Units=GPa)
#
#
# Indices 1 2 3 4 5 6 
#
# 1 141.2690 44.6730 69.2028 0.0000 -12.6977 0.0000
# 2 44.6730 73.0023 37.3552 0.0000 -14.2340 0.0000
# 3 69.2028 37.3552 121.5881 0.0000 -18.4252 0.0000
# 4 0.0000 0.0000 0.0000 10.6266 0.0000 6.9615
# 5 -12.6977 -14.2340 -18.4252 0.0000 28.8748 0.0000
# 6 0.0000 0.0000 0.0000 6.9615 0.0000 4.9090
#
#
#
# Elastic Compliance Matrix: (Units=1/GPa)
#
#
# Indices 1 2 3 4 5 6 
#
# 1 0.010761 -0.004158 -0.004916 0.000000 -0.000455 0.000000
# 2 -0.004158 0.018640 -0.002485 0.000000 0.005775 0.000000
# 3 -0.004916 -0.002485 0.012479 0.000000 0.004576 0.000000
# 4 0.000000 0.000000 0.000000 1.325665 0.000000 -1.879953
# 5 -0.000455 0.005775 0.004576 0.000000 0.040199 0.000000
# 6 0.000000 0.000000 0.000000 -1.879953 0.000000 2.869711
#
#
# Mechanical properties :
#
#
# Convention : Reuss Voigt Hill
#
# Bulk Modulus (GPa) = 53.29901 70.92458 62.11179
# Shear Modulus (GPa) = 1.16095 21.19062 11.17578
#
# Velocity S-wave (km/s) = 0.77717 3.32035 2.41130
# Velocity P-wave (km/s) = 5.34181 7.18326 6.32985
#
# Compressibility (1/GPa) = 0.01876208
#
# Stress axis : x y z
#
# Youngs Moduli (GPa) = 92.92849 53.64723 80.13142
#
# Poissons Ratio (x) = 0.22307 0.39393
# Poissons Ratio (y) = 0.38641 0.19914
# Poissons Ratio (z) = 0.45684 0.13332
#
# Static dielectric constant tensor:
#      x y z
#    x 3.568760 0.000000 -0.302150 
#    y 0.000000 3.372690 0.000000 
#    z -0.302150 0.000000 3.394510 
# 
# 
# High freq. dielectric constant tensor:
#      x y z
#    x 1.721740 0.000000 -0.026970 
#    y 0.000000 1.744070 0.000000 
#    z -0.026970 0.000000 1.744970 
# 
# From -- ./inp_files/37138.got.cif
#   From: 2010.06.25/outbox.cif.g09.slc.cpg/sg10_19_cif.got.tgz:37138.got - 2010.06.27 22:07:45.
