data_PCOD8064160
_publ_section_title
;
Structure prediction by ZEFSAII (Michael W. Deem and Ramdas Pophale) SiO2 
 PCOD8064160
Probable space group: P 2/M
;
_chemical_formula_sum "Si O2"
_cell_formula_units_Z 28
_cell_length_a 14.447080
_cell_length_b 8.988281
_cell_length_c 19.713953
_cell_angle_alpha 90.000000
_cell_angle_beta 33.230278
_cell_angle_gamma 90.000000
_cell_volume 1402.862877
_symmetry_space_group_name_H-M "P 2/M"
_symmetry_group_IT_number 10
_symmetry_cell_setting 'monoclinic'
loop_
_space_group_symop_operation_xyz
x,y,z
-x,y,-z
-x,-y,-z
x,-y,z
loop_
_atom_site_type_symbol
_atom_site_label
_atom_site_fract_x
_atom_site_fract_y
_atom_site_fract_z
Si Si1 0.514822 0.670288 0.786027
Si Si2 0.736175 0.827498 0.440407
Si Si3 0.834976 0.825563 0.642731
Si Si4 0.585021 0.327386 0.305480
Si Si5 0.135277 0.171931 0.788397
Si Si6 0.818121 0.671745 0.933450
Si Si7 0.060780 0.326089 0.288726
O O1 0.575524 0.500000 0.756184
O O2 0.672441 0.778407 0.699315
O O3 0.436299 0.700373 0.760879
O O4 0.373033 0.708860 0.928727
O O5 0.553989 0.761092 0.566822
O O6 0.772255 0.800724 0.339579
O O7 0.875255 0.746335 0.401426
O O8 0.739158 0.000000 0.458138
O O9 0.830456 0.742055 0.717253
O O10 0.000000 0.777196 0.500000
O O11 0.831037 0.000000 0.658743
O O12 0.572520 0.500000 0.332263
O O13 0.768061 0.264687 0.213405
O O14 0.943692 0.229241 0.901526
O O15 0.133943 0.000000 0.809840
O O16 0.862380 0.500000 0.920620
O O17 0.837756 0.710196 0.842151
O O18 0.037037 0.500000 0.315131
#
# Coordination Sequence:
#
# PCOD8064160 Si02
#       7
#     4   4   4   4   4   4   4
#     4  10  23  41  59  81 111 147 187 231 275 325
#     4  10  20  35  55  82 116 148 183 230 281 332
#     4  11  24  40  59  85 116 148 180 221 276 333
#     4  11  22  35  55  82 112 149 190 232 278 327
#     4  10  21  36  56  82 113 149 186 229 280 331
#     4   9  20  40  61  82 110 145 187 230 274 326
#     4  10  20  36  61  86 110 145 185 228 276 327
#
# _framework density 19.959185000000002
#
# number of rings (size 3 to 8) (size 9 to 14) (size 15 to 20)
#    0.000    1.857    0.000    3.429    0.000   10.286 
#    0.000    5.714    0.000    0.000    0.000    0.000 
#    0.000    0.000    0.000    0.000    0.000    0.000 
#
# Total GULP energy -347397.847626 kJ/mol
# GULP energy per Si atom -12407.065987 kJ/mol
# Density = 1.991376 g / cm^3
# Si number density = 19.959185 Si / 1000 Ang^3
#
#
#
# Elastic Constant Matrix: (Units=GPa)
#
#
# Indices 1 2 3 4 5 6 
#
# 1 109.7094 58.6722 36.6661 0.0000 -7.3263 0.0000
# 2 58.6722 103.4261 44.9351 0.0000 -3.0812 0.0000
# 3 36.6661 44.9351 94.9364 0.0000 -8.4965 0.0000
# 4 0.0000 0.0000 0.0000 26.5208 0.0000 -4.6697
# 5 -7.3263 -3.0812 -8.4965 0.0000 16.9570 0.0000
# 6 0.0000 0.0000 0.0000 -4.6697 0.0000 29.0685
#
#
#
# Elastic Compliance Matrix: (Units=1/GPa)
#
#
# Indices 1 2 3 4 5 6 
#
# 1 0.013604 -0.006885 -0.001655 0.000000 0.003797 0.000000
# 2 -0.006885 0.015664 -0.004990 0.000000 -0.002629 0.000000
# 3 -0.001655 -0.004990 0.014018 0.000000 0.005402 0.000000
# 4 0.000000 0.000000 0.000000 0.038804 0.000000 0.006234
# 5 0.003797 -0.002629 0.005402 0.000000 0.062842 0.000000
# 6 0.000000 0.000000 0.000000 0.006234 0.000000 0.035403
#
#
# Mechanical properties :
#
#
# Convention : Reuss Voigt Hill
#
# Bulk Modulus (GPa) = 61.63390 65.40208 63.51799
# Shear Modulus (GPa) = 23.49567 25.69584 24.59575
#
# Velocity S-wave (km/s) = 3.43474 3.59195 3.51422
# Velocity P-wave (km/s) = 6.83205 7.07403 6.95409
#
# Compressibility (1/GPa) = 0.01622484
#
# Stress axis : x y z
#
# Youngs Moduli (GPa) = 73.50852 63.83948 71.33571
#
# Poissons Ratio (x) = 0.43953 0.11809
# Poissons Ratio (y) = 0.50610 0.35599
# Poissons Ratio (z) = 0.12169 0.31858
#
# Static dielectric constant tensor:
#      x y z
#    x 3.602860 0.000000 0.040730 
#    y 0.000000 3.686290 0.000000 
#    z 0.040730 0.000000 3.578030 
# 
# 
# High freq. dielectric constant tensor:
#      x y z
#    x 1.783390 0.000000 -0.000720 
#    y 0.000000 1.786180 0.000000 
#    z -0.000720 0.000000 1.775050 
# 
# From -- ./inp_files/49610.got.cif
#   From: 2010.06.25/outbox.cif.g09.slc.cpg/sg10_25_cif.got.tgz:49610.got - 2010.06.27 22:07:45.
