data_PCOD8064449
_publ_section_title
;
Structure prediction by ZEFSAII (Michael W. Deem and Ramdas Pophale) SiO2 
 PCOD8064449
Probable space group: P 2/M
;
_chemical_formula_sum "Si O2"
_cell_formula_units_Z 32
_cell_length_a 25.815057
_cell_length_b 9.093317
_cell_length_c 10.685574
_cell_angle_alpha 90.000000
_cell_angle_beta 38.300992
_cell_angle_gamma 90.000000
_cell_volume 1554.675218
_symmetry_space_group_name_H-M "P 2/M"
_symmetry_group_IT_number 10
_symmetry_cell_setting 'monoclinic'
loop_
_space_group_symop_operation_xyz
x,y,z
-x,y,-z
-x,-y,-z
x,-y,z
loop_
_atom_site_type_symbol
_atom_site_label
_atom_site_fract_x
_atom_site_fract_y
_atom_site_fract_z
Si Si1 0.735468 0.668408 0.687138
Si Si2 0.464359 0.828837 0.434660
Si Si3 0.813977 0.668168 0.270623
Si Si4 0.979247 0.334978 0.837743
Si Si5 0.456318 0.673821 0.955020
Si Si6 0.269643 0.828986 0.791140
Si Si7 0.877029 0.826961 0.543905
Si Si8 0.866157 0.332193 0.808893
O O1 0.739487 0.500000 0.724457
O O2 0.783772 0.691060 0.466868
O O3 0.782993 0.770502 0.696361
O O4 0.640397 0.720899 0.854007
O O5 0.500000 0.771674 0.500000
O O6 0.504352 0.744150 0.242667
O O7 0.366692 0.796234 0.621312
O O8 0.484940 0.000000 0.377778
O O9 0.800074 0.500000 0.249901
O O10 0.759561 0.776523 0.289593
O O11 0.913692 0.704368 0.073139
O O12 0.014823 0.500000 0.787149
O O13 0.927950 0.319600 0.807316
O O14 0.057877 0.225005 0.687047
O O15 0.467822 0.500000 0.922686
O O16 0.500000 0.731512 0.000000
O O17 0.248294 0.000000 0.847029
O O18 0.222845 0.739531 0.988357
O O19 0.907307 0.756168 0.616497
O O20 0.877107 0.000000 0.552758
O O21 0.852118 0.500000 0.794294
#
# Coordination Sequence:
#
# PCOD8064449 Si02
#       8
#     4   4   4   4   4   4   4   4
#     4  10  22  40  61  86 117 154 196 243 296 353
#     4  10  23  40  58  86 126 165 200 244 302 369
#     4   9  19  38  63  86 112 151 197 244 291 346
#     4   9  19  37  60  85 112 150 195 239 291 350
#     4  10  22  41  66  94 121 154 205 262 307 358
#     4  10  20  35  58  87 118 153 192 239 293 350
#     4  12  25  37  54  83 120 157 192 241 296 347
#     4  10  21  38  61  85 114 153 197 242 289 350
#
# _framework density 20.583079000000001
#
# number of rings (size 3 to 8) (size 9 to 14) (size 15 to 20)
#    0.000    2.000    0.000    3.750    1.750    8.000 
#    0.000    2.500    0.000    0.000    0.000    0.000 
#    0.000    0.000    0.000    0.000    0.000    0.000 
#
# Total GULP energy -396860.773064 kJ/mol
# GULP energy per Si atom -12401.899158 kJ/mol
# Density = 2.053623 g / cm^3
# Si number density = 20.583079 Si / 1000 Ang^3
#
#
#
# Elastic Constant Matrix: (Units=GPa)
#
#
# Indices 1 2 3 4 5 6 
#
# 1 42.1498 26.8892 31.2936 0.0000 -2.9239 0.0000
# 2 26.8892 102.4881 46.3537 0.0000 -7.5815 0.0000
# 3 31.2936 46.3537 102.4639 0.0000 -3.3689 0.0000
# 4 0.0000 0.0000 0.0000 29.5031 0.0000 -1.4329
# 5 -2.9239 -7.5815 -3.3689 0.0000 33.2567 0.0000
# 6 0.0000 0.0000 0.0000 -1.4329 0.0000 20.7551
#
#
#
# Elastic Compliance Matrix: (Units=1/GPa)
#
#
# Indices 1 2 3 4 5 6 
#
# 1 0.032705 -0.005038 -0.007678 0.000000 0.000949 0.000000
# 2 -0.005038 0.013212 -0.004369 0.000000 0.002126 0.000000
# 3 -0.007678 -0.004369 0.014073 0.000000 -0.000245 0.000000
# 4 0.000000 0.000000 0.000000 0.034009 0.000000 0.002348
# 5 0.000949 0.002126 -0.000245 0.000000 0.030612 0.000000
# 6 0.000000 0.000000 0.000000 0.002348 0.000000 0.048343
#
#
# Mechanical properties :
#
#
# Convention : Reuss Voigt Hill
#
# Bulk Modulus (GPa) = 38.72820 50.68608 44.70714
# Shear Modulus (GPa) = 23.17708 26.20733 24.69221
#
# Velocity S-wave (km/s) = 3.35927 3.57213 3.46733
# Velocity P-wave (km/s) = 5.82260 6.45694 6.14796
#
# Compressibility (1/GPa) = 0.02582098
#
# Stress axis : x y z
#
# Youngs Moduli (GPa) = 30.57624 75.68841 71.05904
#
# Poissons Ratio (x) = 0.38129 0.54561
# Poissons Ratio (y) = 0.15403 0.31042
# Poissons Ratio (z) = 0.23477 0.33065
#
# Static dielectric constant tensor:
#      x y z
#    x 3.711270 0.000000 -0.051810 
#    y 0.000000 3.635680 0.000000 
#    z -0.051810 0.000000 4.054550 
# 
# 
# High freq. dielectric constant tensor:
#      x y z
#    x 1.805960 0.000000 -0.001270 
#    y 0.000000 1.792800 0.000000 
#    z -0.001270 0.000000 1.820100 
# 
# From -- ./inp_files/58166.got.cif
#   From: 2010.06.25/outbox.cif.g09.slc.cpg/sg10_30_cif.got.tgz:58166.got - 2010.06.27 22:07:45.
