data_PCOD8064048
_publ_section_title
;
Structure prediction by ZEFSAII (Michael W. Deem and Ramdas Pophale) SiO2 
 PCOD8064048
Probable space group: P 2/M
;
_chemical_formula_sum "Si O2"
_cell_formula_units_Z 28
_cell_length_a 8.034687
_cell_length_b 9.486420
_cell_length_c 27.103646
_cell_angle_alpha 90.000000
_cell_angle_beta 135.334691
_cell_angle_gamma 90.000000
_cell_volume 1452.219416
_symmetry_space_group_name_H-M "P 2/M"
_symmetry_group_IT_number 10
_symmetry_cell_setting 'monoclinic'
loop_
_space_group_symop_operation_xyz
x,y,z
-x,y,-z
-x,-y,-z
x,-y,z
loop_
_atom_site_type_symbol
_atom_site_label
_atom_site_fract_x
_atom_site_fract_y
_atom_site_fract_z
Si Si1 0.709619 0.845785 0.508508
Si Si2 0.106127 0.341698 0.577486
Si Si3 0.120639 0.662705 0.132492
Si Si4 0.941767 0.662345 0.765562
Si Si5 0.489112 0.337111 0.865228
Si Si6 0.198748 0.842325 0.001152
Si Si7 0.477110 0.161176 0.353797
O O1 0.500000 0.820263 0.500000
O O2 0.599950 0.829913 0.432004
O O3 0.901906 0.731839 0.566078
O O4 0.827669 0.000000 0.538573
O O5 0.149837 0.500000 0.604539
O O6 0.345731 0.257152 0.641155
O O7 0.000000 0.334401 0.500000
O O8 0.054652 0.500000 0.109151
O O9 0.125197 0.695376 0.191609
O O10 0.370927 0.697753 0.156897
O O11 0.906367 0.757860 0.067248
O O12 0.880942 0.500000 0.740925
O O13 0.779938 0.766589 0.699094
O O14 0.209249 0.695129 0.804275
O O15 0.532064 0.500000 0.888201
O O16 0.581456 0.242403 0.929803
O O17 0.278738 0.000000 0.001674
O O18 0.000000 0.853958 0.000000
O O19 0.457551 0.000000 0.330577
#
# Coordination Sequence:
#
# PCOD8064048 Si02
#       7
#     4   4   4   4   4   4   4
#     4   9  18  34  55  79 108 136 170 213 258 313
#     4   9  17  31  53  77 101 130 167 210 252 297
#     4   9  18  34  54  74 100 136 177 214 261 318
#     4  10  21  36  53  74 105 140 177 221 259 309
#     4   9  18  34  54  74 100 137 175 214 264 313
#     4   9  17  30  51  78 105 132 168 219 268 307
#     4  10  20  35  54  75 103 140 173 208 262 317
#
# _framework density 19.280833999999999
#
# number of rings (size 3 to 8) (size 9 to 14) (size 15 to 20)
#    0.000    2.714    0.000    1.286    0.000    6.000 
#    2.571    2.857    0.000    0.000    0.000    0.000 
#    0.000    0.000    0.000    0.000    0.000    0.000 
#
# Total GULP energy -346919.791244 kJ/mol
# GULP energy per Si atom -12389.992544 kJ/mol
# Density = 1.923695 g / cm^3
# Si number density = 19.280834 Si / 1000 Ang^3
#
#
#
# Elastic Constant Matrix: (Units=GPa)
#
#
# Indices 1 2 3 4 5 6 
#
# 1 81.2032 33.0883 4.5908 0.0000 25.5963 0.0000
# 2 33.0883 139.4478 59.1996 0.0000 22.9805 0.0000
# 3 4.5908 59.1996 69.6029 0.0000 14.8240 0.0000
# 4 0.0000 0.0000 0.0000 33.3680 0.0000 9.4727
# 5 25.5963 22.9805 14.8240 0.0000 34.2295 0.0000
# 6 0.0000 0.0000 0.0000 9.4727 0.0000 22.2830
#
#
#
# Elastic Compliance Matrix: (Units=1/GPa)
#
#
# Indices 1 2 3 4 5 6 
#
# 1 0.017774 -0.004352 0.005219 0.000000 -0.012630 0.000000
# 2 -0.004352 0.012743 -0.010380 0.000000 -0.000806 0.000000
# 3 0.005219 -0.010380 0.024454 0.000000 -0.007524 0.000000
# 4 0.000000 0.000000 0.000000 0.034082 0.000000 -0.014489
# 5 -0.012630 -0.000806 -0.007524 0.000000 0.042459 0.000000
# 6 0.000000 0.000000 0.000000 -0.014489 0.000000 0.051037
#
#
# Mechanical properties :
#
#
# Convention : Reuss Voigt Hill
#
# Bulk Modulus (GPa) = 27.81972 53.77903 40.79938
# Shear Modulus (GPa) = 23.41319 30.86777 27.14048
#
# Velocity S-wave (km/s) = 3.48850 4.00554 3.75592
# Velocity P-wave (km/s) = 5.53951 7.02463 6.32580
#
# Compressibility (1/GPa) = 0.03594573
#
# Stress axis : x y z
#
# Youngs Moduli (GPa) = 56.26204 78.47468 40.89343
#
# Poissons Ratio (x) = 0.34149 -0.21341
# Poissons Ratio (y) = 0.24483 0.42446
# Poissons Ratio (z) = -0.29362 0.81454
#
# Static dielectric constant tensor:
#      x y z
#    x 3.473900 0.000000 0.205360 
#    y 0.000000 3.874800 0.000000 
#    z 0.205360 0.000000 3.287880 
# 
# 
# High freq. dielectric constant tensor:
#      x y z
#    x 1.741410 0.000000 0.018640 
#    y 0.000000 1.759230 0.000000 
#    z 0.018640 0.000000 1.728910 
# 
# From -- ./inp_files/37928.got.cif
#   From: 2010.06.25/outbox.cif.g09.slc.cpg/sg10_19_cif.got.tgz:37928.got - 2010.06.27 22:07:45.
