data_PCOD8064903
_publ_section_title
;
Structure prediction by ZEFSAII (Michael W. Deem and Ramdas Pophale) SiO2 
 PCOD8064903
Probable space group: P 2/M
;
_chemical_formula_sum "Si O2"
_cell_formula_units_Z 32
_cell_length_a 23.361617
_cell_length_b 9.047571
_cell_length_c 14.386847
_cell_angle_alpha 90.000000
_cell_angle_beta 147.815960
_cell_angle_gamma 90.000000
_cell_volume 1619.700612
_symmetry_space_group_name_H-M "P 2/M"
_symmetry_group_IT_number 10
_symmetry_cell_setting 'monoclinic'
loop_
_space_group_symop_operation_xyz
x,y,z
-x,y,-z
-x,-y,-z
x,-y,z
loop_
_atom_site_type_symbol
_atom_site_label
_atom_site_fract_x
_atom_site_fract_y
_atom_site_fract_z
Si Si1 0.499077 0.334150 0.751361
Si Si2 0.992453 0.175605 0.385222
Si Si3 0.254570 0.327486 0.446765
Si Si4 0.395650 0.667729 0.911616
Si Si5 0.822214 0.825018 0.005345
Si Si6 0.581272 0.825081 0.688857
Si Si7 0.199988 0.825832 0.557780
Si Si8 0.111879 0.173813 0.107501
O O1 0.498615 0.500000 0.708904
O O2 0.381128 0.293836 0.627000
O O3 0.535588 0.217630 0.725689
O O4 0.583816 0.322894 0.950886
O O5 0.096314 0.227372 0.471574
O O6 0.000000 0.242539 0.500000
O O7 0.888205 0.236114 0.185457
O O8 0.987098 0.000000 0.383807
O O9 0.229276 0.500000 0.414094
O O10 0.196227 0.251774 0.453159
O O11 0.209626 0.258383 0.290417
O O12 0.365634 0.500000 0.839602
O O13 0.301424 0.779405 0.758172
O O14 0.500000 0.721322 0.000000
O O15 0.815393 0.000000 0.003207
O O16 0.701252 0.758707 0.839363
O O17 0.884690 0.781430 0.996450
O O18 0.500000 0.759633 0.500000
O O19 0.585355 0.000000 0.687049
O O20 0.200773 0.000000 0.542311
O O21 0.129872 0.000000 0.145832
O O22 0.000000 0.224835 0.000000
#
# Coordination Sequence:
#
# PCOD8064903 Si02
#       8
#     4   4   4   4   4   4   4   4
#     4  10  22  38  57  80 110 153 194 229 281 346
#     4   9  19  35  55  82 115 150 188 231 284 343
#     4  11  22  38  58  82 115 154 188 229 289 349
#     4  10  20  39  59  79 116 158 188 226 291 353
#     4   9  18  34  55  80 117 154 183 230 295 345
#     4  10  21  36  57  85 116 149 188 238 291 339
#     4  11  22  35  58  89 115 145 194 244 286 334
#     4  10  20  36  60  87 114 146 188 237 289 340
#
# _framework density 19.756736
#
# number of rings (size 3 to 8) (size 9 to 14) (size 15 to 20)
#    0.000    2.000    1.250    2.250    1.750    5.250 
#    0.000    0.625    0.000    3.000    0.000    0.000 
#    0.000    0.000    0.000    0.000    0.000    0.000 
#
# Total GULP energy -396857.960701 kJ/mol
# GULP energy per Si atom -12401.811272 kJ/mol
# Density = 1.971177 g / cm^3
# Si number density = 19.756736 Si / 1000 Ang^3
#
#
#
# Elastic Constant Matrix: (Units=GPa)
#
#
# Indices 1 2 3 4 5 6 
#
# 1 132.3543 24.0101 59.8838 0.0000 -5.2243 0.0000
# 2 24.0101 33.0227 23.6367 0.0000 0.6645 0.0000
# 3 59.8838 23.6367 138.0904 0.0000 -7.7112 0.0000
# 4 0.0000 0.0000 0.0000 16.7292 0.0000 -3.3723
# 5 -5.2243 0.6645 -7.7112 0.0000 34.7147 0.0000
# 6 0.0000 0.0000 0.0000 -3.3723 0.0000 18.8295
#
#
#
# Elastic Compliance Matrix: (Units=1/GPa)
#
#
# Indices 1 2 3 4 5 6 
#
# 1 0.010038 -0.004824 -0.003481 0.000000 0.000830 0.000000
# 2 -0.004824 0.036966 -0.004370 0.000000 -0.002404 0.000000
# 3 -0.003481 -0.004370 0.009594 0.000000 0.001691 0.000000
# 4 0.000000 0.000000 0.000000 0.062015 0.000000 0.011107
# 5 0.000830 -0.002404 0.001691 0.000000 0.029353 0.000000
# 6 0.000000 0.000000 0.000000 0.011107 0.000000 0.055097
#
#
# Mechanical properties :
#
#
# Convention : Reuss Voigt Hill
#
# Bulk Modulus (GPa) = 32.00172 57.61428 44.80800
# Shear Modulus (GPa) = 20.93560 27.11714 24.02637
#
# Velocity S-wave (km/s) = 3.25879 3.70882 3.49106
# Velocity P-wave (km/s) = 5.51295 6.89678 6.24332
#
# Compressibility (1/GPa) = 0.03124832
#
# Stress axis : x y z
#
# Youngs Moduli (GPa) = 99.61805 27.05222 104.23541
#
# Poissons Ratio (x) = 0.13049 0.36286
# Poissons Ratio (y) = 0.48052 0.45549
# Poissons Ratio (z) = 0.34679 0.11821
#
# Static dielectric constant tensor:
#      x y z
#    x 3.636150 0.000000 -0.021720 
#    y 0.000000 3.251090 0.000000 
#    z -0.021720 0.000000 3.885700 
# 
# 
# High freq. dielectric constant tensor:
#      x y z
#    x 1.777590 0.000000 -0.004250 
#    y 0.000000 1.734340 0.000000 
#    z -0.004250 0.000000 1.785470 
# 
# From -- ./inp_files/71460.got.cif
#   From: 2010.06.25/outbox.cif.g09.slc.cpg/sg10_36_cif.got.tgz:71460.got - 2010.06.27 22:07:45.
