data_PCOD8064785
_publ_section_title
;
Structure prediction by ZEFSAII (Michael W. Deem and Ramdas Pophale) SiO2 
 PCOD8064785
Probable space group: P 2/M
;
_chemical_formula_sum "Si O2"
_cell_formula_units_Z 28
_cell_length_a 28.914917
_cell_length_b 9.117822
_cell_length_c 9.582016
_cell_angle_alpha 90.000000
_cell_angle_beta 34.310199
_cell_angle_gamma 90.000000
_cell_volume 1423.958242
_symmetry_space_group_name_H-M "P 2/M"
_symmetry_group_IT_number 10
_symmetry_cell_setting 'monoclinic'
loop_
_space_group_symop_operation_xyz
x,y,z
-x,y,-z
-x,-y,-z
x,-y,z
loop_
_atom_site_type_symbol
_atom_site_label
_atom_site_fract_x
_atom_site_fract_y
_atom_site_fract_z
Si Si1 0.599343 0.827213 0.529037
Si Si2 0.149158 0.325361 0.471375
Si Si3 0.667363 0.667775 0.613656
Si Si4 0.561144 0.664463 0.146069
Si Si5 0.683846 0.330397 0.081931
Si Si6 0.998421 0.674872 0.662291
Si Si7 0.151195 0.674475 0.779505
O O1 0.611857 0.768475 0.653787
O O2 0.509990 0.781313 0.698172
O O3 0.671374 0.760624 0.254101
O O4 0.605603 0.000000 0.512034
O O5 0.148827 0.500000 0.476752
O O6 0.077546 0.266317 0.548746
O O7 0.135682 0.263737 0.661732
O O8 0.235981 0.268389 0.195978
O O9 0.662615 0.500000 0.572780
O O10 0.760645 0.726189 0.382874
O O11 0.632967 0.682067 0.854739
O O12 0.523493 0.500000 0.232491
O O13 0.602546 0.691856 0.192113
O O14 0.696893 0.500000 0.088669
O O15 0.997756 0.500000 0.661883
O O16 0.000000 0.736128 0.500000
O O17 0.917870 0.734924 0.942901
O O18 0.149064 0.500000 0.777984
#
# Coordination Sequence:
#
# PCOD8064785 Si02
#       7
#     4   4   4   4   4   4   4
#     4  12  26  38  52  79 114 149 184 226 286 338
#     4   9  16  29  49  76 110 145 180 220 268 321
#     4  10  20  36  59  83 108 144 189 233 274 322
#     4  10  20  38  60  83 107 139 190 236 277 326
#     4  10  20  36  59  83 108 144 189 233 274 322
#     4   9  17  25  41  77 119 150 171 206 266 328
#     4   9  16  29  49  76 110 145 180 220 268 321
#
# _framework density 19.663497
#
# number of rings (size 3 to 8) (size 9 to 14) (size 15 to 20)
#    0.000    2.143    1.429    2.571    2.000    6.286 
#    0.000    0.000    0.000    0.000    0.000    2.000 
#    0.000    2.286    0.000    0.000    0.000    0.000 
#
# Total GULP energy -347244.403655 kJ/mol
# GULP energy per Si atom -12401.585845 kJ/mol
# Density = 1.961874 g / cm^3
# Si number density = 19.663497 Si / 1000 Ang^3
#
#
#
# Elastic Constant Matrix: (Units=GPa)
#
#
# Indices 1 2 3 4 5 6 
#
# 1 81.8955 25.0355 28.7341 0.0000 0.3700 0.0000
# 2 25.0355 57.1113 19.5990 0.0000 1.8203 0.0000
# 3 28.7341 19.5990 95.7466 0.0000 -6.0447 0.0000
# 4 0.0000 0.0000 0.0000 3.9408 0.0000 1.3436
# 5 0.3700 1.8203 -6.0447 0.0000 33.0839 0.0000
# 6 0.0000 0.0000 0.0000 1.3436 0.0000 1.2999
#
#
#
# Elastic Compliance Matrix: (Units=1/GPa)
#
#
# Indices 1 2 3 4 5 6 
#
# 1 0.015077 -0.005410 -0.003449 0.000000 -0.000501 0.000000
# 2 -0.005410 0.020875 -0.002750 0.000000 -0.001591 0.000000
# 3 -0.003449 -0.002750 0.012195 0.000000 0.002418 0.000000
# 4 0.000000 0.000000 0.000000 0.391832 0.000000 -0.404989
# 5 -0.000501 -0.001591 0.002418 0.000000 0.030761 0.000000
# 6 0.000000 0.000000 0.000000 -0.404989 0.000000 1.187856
#
#
# Mechanical properties :
#
#
# Convention : Reuss Voigt Hill
#
# Bulk Modulus (GPa) = 40.11248 42.38785 41.25016
# Shear Modulus (GPa) = 2.95836 18.42392 10.69114
#
# Velocity S-wave (km/s) = 1.22791 3.06430 2.33428
# Velocity P-wave (km/s) = 4.73858 5.84152 5.31871
#
# Compressibility (1/GPa) = 0.02492990
#
# Stress axis : x y z
#
# Youngs Moduli (GPa) = 66.32732 47.90311 82.00161
#
# Poissons Ratio (x) = 0.25913 0.28282
# Poissons Ratio (y) = 0.35880 0.22551
# Poissons Ratio (z) = 0.22876 0.13174
#
# Static dielectric constant tensor:
#      x y z
#    x 3.652750 0.000000 0.044100 
#    y 0.000000 2.928970 0.000000 
#    z 0.044100 0.000000 3.806770 
# 
# 
# High freq. dielectric constant tensor:
#      x y z
#    x 1.776630 0.000000 0.003410 
#    y 0.000000 1.691690 0.000000 
#    z 0.003410 0.000000 1.784830 
# 
# From -- ./inp_files/37059.got.cif
#   From: 2010.06.25/outbox.cif.g09.slc.cpg/sg10_19_cif.got.tgz:37059.got - 2010.06.27 22:07:45.
