data_PCOD8064838
_publ_section_title
;
Structure prediction by ZEFSAII (Michael W. Deem and Ramdas Pophale) SiO2 
 PCOD8064838
Probable space group: P 2/M
;
_chemical_formula_sum "Si O2"
_cell_formula_units_Z 32
_cell_length_a 31.874648
_cell_length_b 8.595120
_cell_length_c 12.202534
_cell_angle_alpha 90.000000
_cell_angle_beta 28.501531
_cell_angle_gamma 90.000000
_cell_volume 1595.260613
_symmetry_space_group_name_H-M "P 2/M"
_symmetry_group_IT_number 10
_symmetry_cell_setting 'monoclinic'
loop_
_space_group_symop_operation_xyz
x,y,z
-x,y,-z
-x,-y,-z
x,-y,z
loop_
_atom_site_type_symbol
_atom_site_label
_atom_site_fract_x
_atom_site_fract_y
_atom_site_fract_z
Si Si1 0.628509 0.318828 0.722444
Si Si2 0.760656 0.815710 0.949350
Si Si3 0.908283 0.318163 0.761168
Si Si4 0.802744 0.820635 0.400470
Si Si5 0.855276 0.184942 0.516437
Si Si6 0.949631 0.179296 0.889638
Si Si7 0.513920 0.183530 0.801446
Si Si8 0.566066 0.185260 0.441091
O O1 0.614306 0.500000 0.733002
O O2 0.730210 0.282192 0.506569
O O3 0.595860 0.225074 0.691033
O O4 0.573999 0.267745 0.954791
O O5 0.826286 0.765272 0.893730
O O6 0.793845 0.752802 0.755515
O O7 0.757621 0.000000 0.954319
O O8 0.663565 0.747543 0.194599
O O9 0.898510 0.500000 0.763527
O O10 0.904464 0.278980 0.898008
O O11 0.000000 0.255446 0.500000
O O12 0.816524 0.753134 0.490939
O O13 0.771699 0.000000 0.473763
O O14 0.894298 0.802271 0.127176
O O15 0.953702 0.248266 0.309203
O O16 0.859060 0.000000 0.502825
O O17 0.954054 0.000000 0.841479
O O18 0.533456 0.243907 0.634301
O O19 0.497856 0.000000 0.840685
O O20 0.500000 0.249802 0.500000
O O21 0.568296 0.000000 0.433459
#
# Coordination Sequence:
#
# PCOD8064838 Si02
#       8
#     4   4   4   4   4   4   4   4
#     4  11  23  39  58  83 116 152 193 236 286 342
#     4  10  20  36  61  89 115 149 194 238 289 345
#     4  11  23  38  56  82 119 159 198 239 287 344
#     4  10  21  36  59  88 115 146 190 238 290 343
#     4   9  18  34  59  87 114 146 189 241 289 338
#     4  10  20  36  59  86 116 148 192 242 288 340
#     4  10  20  38  63  86 114 147 190 239 290 342
#     4   9  20  36  60  93 120 143 183 242 297 346
#
# _framework density 20.059418999999998
#
# number of rings (size 3 to 8) (size 9 to 14) (size 15 to 20)
#    0.000    2.000    1.250    3.000    3.500    2.500 
#    0.000    1.875    0.000    3.375    0.000    0.000 
#    0.000    0.000    0.000    0.000    0.000    0.000 
#
# Total GULP energy -396907.580149 kJ/mol
# GULP energy per Si atom -12403.361880 kJ/mol
# Density = 2.001376 g / cm^3
# Si number density = 20.059419 Si / 1000 Ang^3
#
#
#
# Elastic Constant Matrix: (Units=GPa)
#
#
# Indices 1 2 3 4 5 6 
#
# 1 123.9271 1.1666 57.5039 0.0000 6.3726 0.0000
# 2 1.1666 25.5564 13.9306 0.0000 1.9718 0.0000
# 3 57.5039 13.9306 116.4198 0.0000 -3.0384 0.0000
# 4 0.0000 0.0000 0.0000 14.4641 0.0000 -1.1795
# 5 6.3726 1.9718 -3.0384 0.0000 40.0109 0.0000
# 6 0.0000 0.0000 0.0000 -1.1795 0.0000 0.8210
#
#
#
# Elastic Compliance Matrix: (Units=1/GPa)
#
#
# Indices 1 2 3 4 5 6 
#
# 1 0.010826 0.002814 -0.005744 0.000000 -0.002299 0.000000
# 2 0.002814 0.042832 -0.006595 0.000000 -0.003060 0.000000
# 3 -0.005744 -0.006595 0.012273 0.000000 0.002172 0.000000
# 4 0.000000 0.000000 0.000000 0.078312 0.000000 0.112511
# 5 -0.002299 -0.003060 0.002172 0.000000 0.025675 0.000000
# 6 0.000000 0.000000 0.000000 0.112511 0.000000 1.379739
#
#
# Mechanical properties :
#
#
# Convention : Reuss Voigt Hill
#
# Bulk Modulus (GPa) = 21.33073 45.67841 33.50457
# Shear Modulus (GPa) = 3.15590 23.94600 13.55095
#
# Velocity S-wave (km/s) = 1.25566 3.45882 2.60194
# Velocity P-wave (km/s) = 3.57199 6.22674 5.07599
#
# Compressibility (1/GPa) = 0.04688072
#
# Stress axis : x y z
#
# Youngs Moduli (GPa) = 92.36627 23.34717 81.48093
#
# Poissons Ratio (x) = -0.06571 0.46806
# Poissons Ratio (y) = -0.25995 0.53738
# Poissons Ratio (z) = 0.53058 0.15398
#
# Static dielectric constant tensor:
#      x y z
#    x 3.725840 0.000000 0.058390 
#    y 0.000000 3.290380 0.000000 
#    z 0.058390 0.000000 3.800810 
# 
# 
# High freq. dielectric constant tensor:
#      x y z
#    x 1.792580 0.000000 0.001470 
#    y 0.000000 1.746940 0.000000 
#    z 0.001470 0.000000 1.791710 
# 
# From -- ./inp_files/58181.got.cif
#   From: 2010.06.25/outbox.cif.g09.slc.cpg/sg10_30_cif.got.tgz:58181.got - 2010.06.27 22:07:45.
