data_PCOD8064129
_publ_section_title
;
Structure prediction by ZEFSAII (Michael W. Deem and Ramdas Pophale) SiO2 
 PCOD8064129
Probable space group: P 2/M
;
_chemical_formula_sum "Si O2"
_cell_formula_units_Z 32
_cell_length_a 8.342223
_cell_length_b 27.992699
_cell_length_c 14.191635
_cell_angle_alpha 90.000000
_cell_angle_beta 31.723995
_cell_angle_gamma 90.000000
_cell_volume 1742.619793
_symmetry_space_group_name_H-M "P 2/M"
_symmetry_group_IT_number 10
_symmetry_cell_setting 'monoclinic'
loop_
_space_group_symop_operation_xyz
x,y,z
-x,y,-z
-x,-y,-z
x,-y,z
loop_
_atom_site_type_symbol
_atom_site_label
_atom_site_fract_x
_atom_site_fract_y
_atom_site_fract_z
Si Si1 0.642421 0.697873 0.178790
Si Si2 0.356596 0.055506 0.821702
Si Si3 0.361611 0.369997 0.466680
Si Si4 0.354537 0.122123 0.174063
Si Si5 0.354536 0.877877 0.471400
Si Si6 0.361610 0.369996 0.171710
Si Si7 0.652724 0.202392 0.673638
Si Si8 0.359693 0.447192 0.320153
O O1 0.494211 0.675773 0.346650
O O2 0.494207 0.675773 0.159143
O O3 0.581318 0.754101 0.209342
O O4 0.000000 0.687760 0.000000
O O5 0.496561 0.077892 0.846028
O O6 0.496564 0.077892 0.657410
O O7 0.436475 0.000000 0.781763
O O8 0.000000 0.065582 0.000000
O O9 0.500000 0.373001 0.500000
O O10 0.462378 0.418125 0.361484
O O11 0.000001 0.364638 0.652152
O O12 0.411872 0.171043 0.201621
O O13 0.000001 0.110845 0.341537
O O14 0.500000 0.128356 0.000000
O O15 0.500000 0.871645 0.500000
O O16 0.411871 0.828957 0.386508
O O17 0.462376 0.418126 0.176138
O O18 0.500000 0.372999 0.000000
O O19 0.000000 0.221380 0.500000
O O20 0.511768 0.500000 0.244115
O O21 0.000000 0.452360 0.500000
#
# Coordination Sequence:
#
# PCOD8064129 Si02
#       8
#     4   4   4   4   4   4   4   4
#     4  11  22  36  56  80 107 140 178 220 267 318
#     4  10  21  37  57  81 110 144 182 224 268 315
#     4  10  20  35  55  78 108 142 177 220 265 314
#     4  10  21  37  58  82 110 143 178 220 266 317
#     4  10  21  37  58  82 110 143 178 220 266 317
#     4  10  20  35  55  78 108 142 177 220 265 314
#     4   9  20  38  56  78 109 142 178 220 267 316
#     4   8  16  32  53  77 106 140 176 216 264 315
#
# _framework density 18.363157000000001
#
# number of rings (size 3 to 8) (size 9 to 14) (size 15 to 20)
#    0.000    2.250    0.000    4.500    0.000    6.000 
#    0.000    2.500    0.000   12.750    0.000    0.000 
#    0.000    0.000    0.000    0.000    0.000    0.000 
#
# Total GULP energy -396868.699518 kJ/mol
# GULP energy per Si atom -12402.146860 kJ/mol
# Density = 1.832136 g / cm^3
# Si number density = 18.363157 Si / 1000 Ang^3
#
#
#
# Elastic Constant Matrix: (Units=GPa)
#
#
# Indices 1 2 3 4 5 6 
#
# 1 159.2128 69.2068 70.4057 0.0000 16.7725 0.0000
# 2 69.2068 130.3948 67.5585 0.0000 1.6648 0.0000
# 3 70.4057 67.5585 129.0589 0.0000 13.7138 0.0000
# 4 0.0000 0.0000 0.0000 20.7438 0.0000 -5.0464
# 5 16.7725 1.6648 13.7138 0.0000 39.2009 0.0000
# 6 0.0000 0.0000 0.0000 -5.0464 0.0000 15.7528
#
#
#
# Elastic Compliance Matrix: (Units=1/GPa)
#
#
# Indices 1 2 3 4 5 6 
#
# 1 0.009393 -0.003360 -0.003067 0.000000 -0.002803 0.000000
# 2 -0.003360 0.011815 -0.004623 0.000000 0.002553 0.000000
# 3 -0.003067 -0.004623 0.012132 0.000000 -0.002736 0.000000
# 4 0.000000 0.000000 0.000000 0.052282 0.000000 0.016748
# 5 -0.002803 0.002553 -0.002736 0.000000 0.027558 0.000000
# 6 0.000000 0.000000 0.000000 0.016748 0.000000 0.068846
#
#
# Mechanical properties :
#
#
# Convention : Reuss Voigt Hill
#
# Bulk Modulus (GPa) = 88.97346 92.55648 90.76497
# Shear Modulus (GPa) = 24.05301 29.23923 26.64612
#
# Velocity S-wave (km/s) = 3.62311 3.99466 3.81342
# Velocity P-wave (km/s) = 8.12773 8.47285 8.30208
#
# Compressibility (1/GPa) = 0.01123931
#
# Stress axis : x y z
#
# Youngs Moduli (GPa) = 106.45778 84.63696 82.42377
#
# Poissons Ratio (x) = 0.28442 0.25283
# Poissons Ratio (y) = 0.35775 0.38104
# Poissons Ratio (z) = 0.32655 0.39127
#
# Static dielectric constant tensor:
#      x y z
#    x 3.433120 0.000000 0.021410 
#    y 0.000000 3.468230 0.000000 
#    z 0.021410 0.000000 3.411940 
# 
# 
# High freq. dielectric constant tensor:
#      x y z
#    x 1.717710 0.000000 0.000870 
#    y 0.000000 1.713640 0.000000 
#    z 0.000870 0.000000 1.716850 
# 
# From -- ./inp_files/62740.got.cif
#   From: 2010.06.25/outbox.cif.g09.slc.cpg/sg10_32_cif.got.tgz:62740.got - 2010.06.27 22:07:45.
