data_PCOD8064926
_publ_section_title
;
Structure prediction by ZEFSAII (Michael W. Deem and Ramdas Pophale) SiO2 
 PCOD8064926
Probable space group: P 2/M
;
_chemical_formula_sum "Si O2"
_cell_formula_units_Z 20
_cell_length_a 12.003487
_cell_length_b 9.202609
_cell_length_c 9.438026
_cell_angle_alpha 90.000000
_cell_angle_beta 76.652343
_cell_angle_gamma 90.000000
_cell_volume 1014.394036
_symmetry_space_group_name_H-M "P 2/M"
_symmetry_group_IT_number 10
_symmetry_cell_setting 'monoclinic'
loop_
_space_group_symop_operation_xyz
x,y,z
-x,y,-z
-x,-y,-z
x,-y,z
loop_
_atom_site_type_symbol
_atom_site_label
_atom_site_fract_x
_atom_site_fract_y
_atom_site_fract_z
Si Si1 0.531926 0.164036 0.828701
Si Si2 0.594343 0.670427 0.360857
Si Si3 0.832158 0.669648 0.421500
Si Si4 0.963679 0.330736 0.853331
Si Si5 0.791978 0.827034 0.716772
O O1 0.435647 0.257330 0.778923
O O2 0.659856 0.223562 0.762962
O O3 0.524174 0.000000 0.775164
O O4 0.500000 0.175334 0.000000
O O5 0.500000 0.722564 0.500000
O O6 0.593140 0.500000 0.337374
O O7 0.717221 0.723789 0.378253
O O8 0.825408 0.500000 0.464447
O O9 0.850589 0.760136 0.559509
O O10 0.934180 0.702621 0.284723
O O11 0.929911 0.500000 0.862686
O O12 0.854628 0.236887 0.837028
O O13 0.000000 0.281343 0.000000
O O14 0.804543 0.000000 0.712821
#
# Coordination Sequence:
#
# PCOD8064926 Si02
#       5
#     4   4   4   4   4
#     4  10  23  40  57  83 120 156 188 230 287 343
#     4  10  20  36  60  89 115 144 190 239 282 336
#     4  10  21  39  61  86 117 151 189 236 286 337
#     4  10  23  41  61  85 115 151 190 236 290 341
#     4  11  23  39  60  86 115 151 195 236 280 339
#
# _framework density 19.716204000000001
#
# number of rings (size 3 to 8) (size 9 to 14) (size 15 to 20)
#    0.000    1.800    2.000    1.200    2.800    6.000 
#    0.000    0.000    0.000    0.000    0.000    0.000 
#    0.000    0.000    0.000    0.000    0.000    0.000 
#
# Total GULP energy -248093.468571 kJ/mol
# GULP energy per Si atom -12404.673429 kJ/mol
# Density = 1.967133 g / cm^3
# Si number density = 19.716204 Si / 1000 Ang^3
#
#
#
# Elastic Constant Matrix: (Units=GPa)
#
#
# Indices 1 2 3 4 5 6 
#
# 1 89.9343 33.5121 34.2837 0.0000 22.3747 0.0000
# 2 33.5121 53.6498 39.7045 0.0000 13.8749 0.0000
# 3 34.2837 39.7045 93.8779 0.0000 16.3642 0.0000
# 4 0.0000 0.0000 0.0000 18.0914 0.0000 -6.6694
# 5 22.3747 13.8749 16.3642 0.0000 37.8564 0.0000
# 6 0.0000 0.0000 0.0000 -6.6694 0.0000 12.8355
#
#
#
# Elastic Compliance Matrix: (Units=1/GPa)
#
#
# Indices 1 2 3 4 5 6 
#
# 1 0.015940 -0.007079 -0.001771 0.000000 -0.006061 0.000000
# 2 -0.007079 0.031332 -0.010159 0.000000 -0.002908 0.000000
# 3 -0.001771 -0.010159 0.015967 0.000000 -0.002132 0.000000
# 4 0.000000 0.000000 0.000000 0.068372 0.000000 0.035526
# 5 -0.006061 -0.002908 -0.002132 0.000000 0.031985 0.000000
# 6 0.000000 0.000000 0.000000 0.035526 0.000000 0.096368
#
#
# Mechanical properties :
#
#
# Convention : Reuss Voigt Hill
#
# Bulk Modulus (GPa) = 39.64913 50.27360 44.96136
# Shear Modulus (GPa) = 16.31910 22.42079 19.36994
#
# Velocity S-wave (km/s) = 2.88010 3.37586 3.13779
# Velocity P-wave (km/s) = 5.58691 6.38351 5.99845
#
# Compressibility (1/GPa) = 0.02522124
#
# Stress axis : x y z
#
# Youngs Moduli (GPa) = 62.73520 31.91639 62.62834
#
# Poissons Ratio (x) = 0.22593 0.11090
# Poissons Ratio (y) = 0.44409 0.63626
# Poissons Ratio (z) = 0.11109 0.32425
#
# Static dielectric constant tensor:
#      x y z
#    x 3.780260 0.000000 0.049350 
#    y 0.000000 3.464880 0.000000 
#    z 0.049350 0.000000 3.555440 
# 
# 
# High freq. dielectric constant tensor:
#      x y z
#    x 1.781780 0.000000 0.004840 
#    y 0.000000 1.757100 0.000000 
#    z 0.004840 0.000000 1.773550 
# 
# From -- ./inp_files/22097.got.cif
#   From: 2010.06.25/outbox.cif.g09.slc.cpg/sg10_12_cif.got.tgz:22097.got - 2010.06.27 22:07:45.
