data_PCOD8064895
_publ_section_title
;
Structure prediction by ZEFSAII (Michael W. Deem and Ramdas Pophale) SiO2 
 PCOD8064895
Probable space group: P 2/M
;
_chemical_formula_sum "Si O2"
_cell_formula_units_Z 28
_cell_length_a 9.233100
_cell_length_b 9.127723
_cell_length_c 27.167636
_cell_angle_alpha 90.000000
_cell_angle_beta 140.929268
_cell_angle_gamma 90.000000
_cell_volume 1443.094884
_symmetry_space_group_name_H-M "P 2/M"
_symmetry_group_IT_number 10
_symmetry_cell_setting 'monoclinic'
loop_
_space_group_symop_operation_xyz
x,y,z
-x,y,-z
-x,-y,-z
x,-y,z
loop_
_atom_site_type_symbol
_atom_site_label
_atom_site_fract_x
_atom_site_fract_y
_atom_site_fract_z
Si Si1 0.190480 0.326584 0.009974
Si Si2 0.483605 0.169283 0.283020
Si Si3 0.261402 0.672138 0.563367
Si Si4 0.669611 0.826660 0.148599
Si Si5 0.272555 0.162463 0.470365
Si Si6 0.043823 0.829106 0.872541
Si Si7 0.845540 0.170972 0.297927
O O1 0.218696 0.500000 0.014306
O O2 0.123869 0.267079 0.939102
O O3 0.429321 0.255606 0.088620
O O4 0.000000 0.281304 0.000000
O O5 0.584016 0.265766 0.352735
O O6 0.613703 0.208018 0.266701
O O7 0.218692 0.209916 0.207411
O O8 0.516430 0.000000 0.305784
O O9 0.287976 0.500000 0.570745
O O10 0.346639 0.734351 0.534374
O O11 0.000000 0.724106 0.500000
O O12 0.805126 0.784974 0.134904
O O13 0.817968 0.770885 0.234812
O O14 0.622983 0.000000 0.139300
O O15 0.500000 0.144714 0.500000
O O16 0.067736 0.238701 0.384360
O O17 0.194064 0.000000 0.468108
O O18 0.076030 0.000000 0.893916
O O19 0.892598 0.000000 0.307253
#
# Coordination Sequence:
#
# PCOD8064895 Si02
#       7
#     4   4   4   4   4   4   4
#     4  11  24  41  61  86 118 156 196 233 277 339
#     4  10  20  36  60  86 114 150 197 243 287 341
#     4  11  23  38  56  82 118 158 197 240 291 344
#     4  10  21  38  61  89 121 149 186 237 291 346
#     4  10  21  36  60  87 114 150 196 247 295 340
#     4  10  22  38  62  93 119 147 187 240 293 343
#     4   9  18  34  56  85 115 148 189 239 289 336
#
# _framework density 19.402744999999999
#
# number of rings (size 3 to 8) (size 9 to 14) (size 15 to 20)
#    0.000    1.857    1.429    2.143    2.000    6.000 
#    0.000    1.429    0.000    0.000    0.000    0.000 
#    0.000    0.000    0.000    0.000    0.000    0.000 
#
# Total GULP energy -347228.178872 kJ/mol
# GULP energy per Si atom -12401.006388 kJ/mol
# Density = 1.935858 g / cm^3
# Si number density = 19.402745 Si / 1000 Ang^3
#
#
#
# Elastic Constant Matrix: (Units=GPa)
#
#
# Indices 1 2 3 4 5 6 
#
# 1 103.4684 30.6359 37.8409 0.0000 -11.8163 0.0000
# 2 30.6359 41.0224 39.4728 0.0000 -7.1893 0.0000
# 3 37.8409 39.4728 92.6584 0.0000 -14.5654 0.0000
# 4 0.0000 0.0000 0.0000 89.4386 0.0000 27.1901
# 5 -11.8163 -7.1893 -14.5654 0.0000 41.6707 0.0000
# 6 0.0000 0.0000 0.0000 27.1901 0.0000 21.1759
#
#
#
# Elastic Compliance Matrix: (Units=1/GPa)
#
#
# Indices 1 2 3 4 5 6 
#
# 1 0.012722 -0.007559 -0.001707 0.000000 0.001707 0.000000
# 2 -0.007559 0.045845 -0.016440 0.000000 0.000020 0.000000
# 3 -0.001707 -0.016440 0.019016 0.000000 0.003326 0.000000
# 4 0.000000 0.000000 0.000000 0.018340 0.000000 -0.023549
# 5 0.001707 0.000020 0.003326 0.000000 0.025648 0.000000
# 6 0.000000 0.000000 0.000000 -0.023549 0.000000 0.077460
#
#
# Mechanical properties :
#
#
# Convention : Reuss Voigt Hill
#
# Bulk Modulus (GPa) = 38.21136 50.33872 44.27504
# Shear Modulus (GPa) = 19.29265 39.07033 29.18149
#
# Velocity S-wave (km/s) = 3.15671 4.49224 3.88234
# Velocity P-wave (km/s) = 5.74656 7.27375 6.55478
#
# Compressibility (1/GPa) = 0.02617023
#
# Stress axis : x y z
#
# Youngs Moduli (GPa) = 78.60223 21.81286 52.58815
#
# Poissons Ratio (x) = 0.16489 0.08977
# Poissons Ratio (y) = 0.59419 0.86453
# Poissons Ratio (z) = 0.13418 0.35860
#
# Static dielectric constant tensor:
#      x y z
#    x 3.787440 0.000000 0.005140 
#    y 0.000000 3.332770 0.000000 
#    z 0.005140 0.000000 3.898770 
# 
# 
# High freq. dielectric constant tensor:
#      x y z
#    x 1.766060 0.000000 -0.001410 
#    y 0.000000 1.730870 0.000000 
#    z -0.001410 0.000000 1.771510 
# 
# From -- ./inp_files/36835.got.cif
#   From: 2010.06.25/outbox.cif.g09.slc.cpg/sg10_19_cif.got.tgz:36835.got - 2010.06.27 22:07:45.
