data_PCOD8064093
_publ_section_title
;
Structure prediction by ZEFSAII (Michael W. Deem and Ramdas Pophale) SiO2 
 PCOD8064093
Probable space group: P 2/M
;
_chemical_formula_sum "Si O2"
_cell_formula_units_Z 28
_cell_length_a 8.463740
_cell_length_b 13.247644
_cell_length_c 14.910680
_cell_angle_alpha 90.000000
_cell_angle_beta 124.519850
_cell_angle_gamma 90.000000
_cell_volume 1377.490717
_symmetry_space_group_name_H-M "P 2/M"
_symmetry_group_IT_number 10
_symmetry_cell_setting 'monoclinic'
loop_
_space_group_symop_operation_xyz
x,y,z
-x,y,-z
-x,-y,-z
x,-y,z
loop_
_atom_site_type_symbol
_atom_site_label
_atom_site_fract_x
_atom_site_fract_y
_atom_site_fract_z
Si Si1 0.709504 0.789814 0.065153
Si Si2 0.881339 0.242616 0.768264
Si Si3 0.459900 0.617672 0.383107
Si Si4 0.203160 0.254123 0.581056
Si Si5 0.272445 0.113175 0.121040
Si Si6 0.295263 0.109576 0.755433
Si Si7 0.280204 0.881244 0.443000
O O1 0.692191 0.877986 0.133595
O O2 0.894782 0.721325 0.152560
O O3 0.500000 0.731888 0.000000
O O4 0.755374 0.839903 0.985545
O O5 0.747447 0.340011 0.711658
O O6 0.835683 0.184307 0.844536
O O7 0.854255 0.165612 0.677103
O O8 0.500000 0.641294 0.500000
O O9 0.459229 0.500000 0.362308
O O10 0.624849 0.666883 0.374833
O O11 0.189928 0.204448 0.675573
O O12 0.218169 0.159671 0.519044
O O13 0.000000 0.311386 0.500000
O O14 0.493671 0.109199 0.220169
O O15 0.185445 0.000000 0.095518
O O16 0.198125 0.000000 0.704752
O O17 0.500000 0.848163 0.500000
O O18 0.253830 0.000000 0.431606
#
# Coordination Sequence:
#
# PCOD8064093 Si02
#       7
#     4   4   4   4   4   4   4
#     4  10  23  37  55  86 123 163 199 245 286 344
#     4  12  20  38  63  85 114 161 205 243 303 350
#     4  11  24  45  67  89 116 149 201 257 309 366
#     4  12  22  36  59  89 125 157 194 242 301 363
#     4  10  20  35  57  86 121 162 207 246 281 338
#     4  10  20  35  54  83 126 169 198 230 280 346
#     4  11  21  35  56  89 130 165 201 239 285 359
#
# _framework density 20.326815
#
# number of rings (size 3 to 8) (size 9 to 14) (size 15 to 20)
#    0.000    1.143    4.286    2.571    0.000    9.429 
#    0.000    0.000    0.000    2.143    0.000    0.000 
#    0.000    0.000    0.000    0.000    0.000    0.000 
#
# Total GULP energy -347071.478595 kJ/mol
# GULP energy per Si atom -12395.409950 kJ/mol
# Density = 2.028055 g / cm^3
# Si number density = 20.326815 Si / 1000 Ang^3
#
#
#
# Elastic Constant Matrix: (Units=GPa)
#
#
# Indices 1 2 3 4 5 6 
#
# 1 70.2603 26.6031 53.3016 0.0000 12.3018 0.0000
# 2 26.6031 95.3934 42.5050 0.0000 5.8705 0.0000
# 3 53.3016 42.5050 117.7056 0.0000 14.3075 0.0000
# 4 0.0000 0.0000 0.0000 13.0851 0.0000 -2.6956
# 5 12.3018 5.8705 14.3075 0.0000 58.4509 0.0000
# 6 0.0000 0.0000 0.0000 -2.6956 0.0000 7.0792
#
#
#
# Elastic Compliance Matrix: (Units=1/GPa)
#
#
# Indices 1 2 3 4 5 6 
#
# 1 0.022290 -0.002028 -0.009086 0.000000 -0.002263 0.000000
# 2 -0.002028 0.012679 -0.003666 0.000000 0.000051 0.000000
# 3 -0.009086 -0.003666 0.014076 0.000000 -0.001165 0.000000
# 4 0.000000 0.000000 0.000000 0.082928 0.000000 0.031577
# 5 -0.002263 0.000051 -0.001165 0.000000 0.017865 0.000000
# 6 0.000000 0.000000 0.000000 0.031577 0.000000 0.153282
#
#
# Mechanical properties :
#
#
# Convention : Reuss Voigt Hill
#
# Bulk Modulus (GPa) = 51.32559 58.68651 55.00605
# Shear Modulus (GPa) = 14.74159 26.45302 20.59730
#
# Velocity S-wave (km/s) = 2.69593 3.61139 3.18670
# Velocity P-wave (km/s) = 5.91572 6.80615 6.37649
#
# Compressibility (1/GPa) = 0.01948346
#
# Stress axis : x y z
#
# Youngs Moduli (GPa) = 44.86276 78.87047 71.04338
#
# Poissons Ratio (x) = 0.15998 0.64552
# Poissons Ratio (y) = 0.09100 0.26046
# Poissons Ratio (z) = 0.40764 0.28916
#
# Static dielectric constant tensor:
#      x y z
#    x 4.040150 0.000000 0.259740 
#    y 0.000000 3.199450 0.000000 
#    z 0.259740 0.000000 3.946000 
# 
# 
# High freq. dielectric constant tensor:
#      x y z
#    x 1.817090 0.000000 0.006270 
#    y 0.000000 1.734910 0.000000 
#    z 0.006270 0.000000 1.809440 
# 
# From -- ./inp_files/61922.got.cif
#   From: 2010.06.25/outbox.cif.g09.slc.cpg/sg10_31_cif.got.tgz:61922.got - 2010.06.27 22:07:45.
