data_PCOD8064865
_publ_section_title
;
Structure prediction by ZEFSAII (Michael W. Deem and Ramdas Pophale) SiO2 
 PCOD8064865
Probable space group: P 2/M
;
_chemical_formula_sum "Si O2"
_cell_formula_units_Z 28
_cell_length_a 9.789851
_cell_length_b 7.917059
_cell_length_c 29.499317
_cell_angle_alpha 90.000000
_cell_angle_beta 142.400934
_cell_angle_gamma 90.000000
_cell_volume 1395.005450
_symmetry_space_group_name_H-M "P 2/M"
_symmetry_group_IT_number 10
_symmetry_cell_setting 'monoclinic'
loop_
_space_group_symop_operation_xyz
x,y,z
-x,y,-z
-x,-y,-z
x,-y,z
loop_
_atom_site_type_symbol
_atom_site_label
_atom_site_fract_x
_atom_site_fract_y
_atom_site_fract_z
Si Si1 0.994276 0.309449 0.148614
Si Si2 0.284542 0.308020 0.840792
Si Si3 0.352510 0.190060 0.005052
Si Si4 0.262269 0.193451 0.569560
Si Si5 0.598768 0.500000 0.454506
Si Si6 0.817819 0.192671 0.282805
Si Si7 0.141671 0.500000 0.387173
Si Si8 0.517583 0.807761 0.728081
O O1 0.910822 0.500000 0.126719
O O2 0.883625 0.229277 0.165126
O O3 0.261290 0.302894 0.220160
O O4 0.902447 0.229856 0.077213
O O5 0.221684 0.500000 0.811743
O O6 0.542592 0.300099 0.926453
O O7 0.258402 0.196398 0.789224
O O8 0.367369 0.000000 0.026072
O O9 0.500000 0.227803 0.000000
O O10 0.383568 0.327859 0.569449
O O11 0.346064 0.225821 0.642352
O O12 0.000000 0.229302 0.500000
O O13 0.314656 0.000000 0.567630
O O14 0.354493 0.500000 0.411041
O O15 0.791805 0.500000 0.542825
O O16 0.606099 0.242983 0.258151
O O17 0.011939 0.326788 0.343142
O O18 0.897021 0.000000 0.315306
O O19 0.599583 0.000000 0.750650
#
# Coordination Sequence:
#
# PCOD8064865 Si02
#       8
#     4   4   4   4   2   4   2   4
#     4  10  21  34  58  89 120 156 200 258 307 353
#     4  10  20  36  59  88 123 160 205 249 303 370
#     4   9  17  32  54  83 119 158 201 249 303 359
#     4  10  22  41  66  94 125 162 207 255 305 365
#     4  11  25  42  66  94 124 160 208 251 308 367
#     4  11  24  42  63  87 123 167 204 247 310 366
#     4  11  26  44  62  92 127 162 200 256 306 367
#     4  10  23  39  59  88 120 155 204 256 303 362
#
# _framework density 20.071608000000001
#
# number of rings (size 3 to 8) (size 9 to 14) (size 15 to 20)
#    0.000    1.857    0.714    2.357    4.000    5.714 
#    0.000    2.143    0.000    4.286    0.000    0.000 
#    0.000    0.000    0.000    0.000    0.000    0.000 
#
# Total GULP energy -347161.317246 kJ/mol
# GULP energy per Si atom -12398.618473 kJ/mol
# Density = 2.002592 g / cm^3
# Si number density = 20.071608 Si / 1000 Ang^3
#
#
#
# Elastic Constant Matrix: (Units=GPa)
#
#
# Indices 1 2 3 4 5 6 
#
# 1 97.3809 37.1010 58.5604 0.0000 -11.3268 0.0000
# 2 37.1010 92.5428 36.0365 0.0000 -8.0607 0.0000
# 3 58.5604 36.0365 121.6753 0.0000 4.9761 0.0000
# 4 0.0000 0.0000 0.0000 30.9010 0.0000 0.3720
# 5 -11.3268 -8.0607 4.9761 0.0000 25.4542 0.0000
# 6 0.0000 0.0000 0.0000 0.3720 0.0000 27.7108
#
#
#
# Elastic Compliance Matrix: (Units=1/GPa)
#
#
# Indices 1 2 3 4 5 6 
#
# 1 0.016942 -0.003155 -0.007547 0.000000 0.008015 0.000000
# 2 -0.003155 0.013364 -0.002576 0.000000 0.003332 0.000000
# 3 -0.007547 -0.002576 0.012888 0.000000 -0.006693 0.000000
# 4 0.000000 0.000000 0.000000 0.032367 0.000000 -0.000434
# 5 0.008015 0.003332 -0.006693 0.000000 0.045216 0.000000
# 6 0.000000 0.000000 0.000000 -0.000434 0.000000 0.036093
#
#
# Mechanical properties :
#
#
# Convention : Reuss Voigt Hill
#
# Bulk Modulus (GPa) = 60.10601 63.88832 61.99717
# Shear Modulus (GPa) = 26.45911 28.80661 27.63286
#
# Velocity S-wave (km/s) = 3.63469 3.79250 3.71443
# Velocity P-wave (km/s) = 6.90112 7.14680 7.02503
#
# Compressibility (1/GPa) = 0.01663727
#
# Stress axis : x y z
#
# Youngs Moduli (GPa) = 59.02561 74.82858 77.59435
#
# Poissons Ratio (x) = 0.23609 0.58562
# Poissons Ratio (y) = 0.18623 0.19986
# Poissons Ratio (z) = 0.44548 0.19274
#
# Static dielectric constant tensor:
#      x y z
#    x 3.439820 0.000000 -0.115280 
#    y 0.000000 3.671060 0.000000 
#    z -0.115280 0.000000 3.784560 
# 
# 
# High freq. dielectric constant tensor:
#      x y z
#    x 1.758480 0.000000 -0.006450 
#    y 0.000000 1.792160 0.000000 
#    z -0.006450 0.000000 1.795280 
# 
# From -- ./inp_files/92179.got.cif
#   From: 2010.06.25/outbox.cif.g09.slc.cpg/sg10_47_cif.got.tgz:92179.got - 2010.06.27 22:07:45.
