data_PCOD8064239
_publ_section_title
;
Structure prediction by ZEFSAII (Michael W. Deem and Ramdas Pophale) SiO2 
 PCOD8064239
Probable space group: P 2/M
;
_chemical_formula_sum "Si O2"
_cell_formula_units_Z 32
_cell_length_a 14.391744
_cell_length_b 9.253028
_cell_length_c 25.678204
_cell_angle_alpha 90.000000
_cell_angle_beta 150.731714
_cell_angle_gamma 90.000000
_cell_volume 1671.789890
_symmetry_space_group_name_H-M "P 2/M"
_symmetry_group_IT_number 10
_symmetry_cell_setting 'monoclinic'
loop_
_space_group_symop_operation_xyz
x,y,z
-x,y,-z
-x,-y,-z
x,-y,z
loop_
_atom_site_type_symbol
_atom_site_label
_atom_site_fract_x
_atom_site_fract_y
_atom_site_fract_z
Si Si1 0.703342 0.670298 0.442743
Si Si2 0.028035 0.831674 0.349111
Si Si3 0.285432 0.666027 0.271992
Si Si4 0.585230 0.166689 0.286763
Si Si5 0.163928 0.166371 0.116825
Si Si6 0.627433 0.669310 0.014278
Si Si7 0.953683 0.667531 0.745927
Si Si8 0.389926 0.166405 0.818604
O O1 0.742106 0.500000 0.459813
O O2 0.871550 0.749120 0.554884
O O3 0.506796 0.708321 0.376224
O O4 0.700584 0.732286 0.382863
O O5 0.095012 0.765013 0.327368
O O6 0.803483 0.806971 0.244555
O O7 0.082585 0.000000 0.377915
O O8 0.254997 0.500000 0.242459
O O9 0.158710 0.754769 0.169593
O O10 0.213829 0.698946 0.295046
O O11 0.361605 0.190752 0.184264
O O12 0.639025 0.217172 0.255021
O O13 0.642144 0.000000 0.324782
O O14 0.122325 0.000000 0.108288
O O15 0.000000 0.232110 0.000000
O O16 0.600465 0.500000 0.993004
O O17 0.845381 0.711718 0.130695
O O18 0.500000 0.725327 0.000000
O O19 0.559172 0.745325 0.928109
O O20 0.957275 0.500000 0.730367
O O21 0.451768 0.000000 0.849351
#
# Coordination Sequence:
#
# PCOD8064239 Si02
#       8
#     4   4   4   4   4   4   4   4
#     4  10  21  39  60  81 107 142 183 230 277 322
#     4  11  23  38  57  82 109 143 185 228 275 325
#     4   9  20  37  56  79 108 143 182 222 270 324
#     4   9  19  37  56  78 111 146 180 222 272 324
#     4   9  18  32  52  79 109 142 180 222 268 317
#     4  10  20  35  56  81 112 147 181 224 272 317
#     4  10  21  38  57  81 113 147 182 222 271 325
#     4  10  22  37  56  82 112 147 184 222 269 326
#
# _framework density 19.141162000000001
#
# number of rings (size 3 to 8) (size 9 to 14) (size 15 to 20)
#    0.000    2.250    1.250    0.750    1.750    4.000 
#    0.000    5.000    0.000    0.000    0.000    0.000 
#    0.000    0.000    0.000    0.000    0.000    0.000 
#
# Total GULP energy -396937.706583 kJ/mol
# GULP energy per Si atom -12404.303331 kJ/mol
# Density = 1.909760 g / cm^3
# Si number density = 19.141162 Si / 1000 Ang^3
#
#
#
# Elastic Constant Matrix: (Units=GPa)
#
#
# Indices 1 2 3 4 5 6 
#
# 1 73.3960 25.7542 8.7275 0.0000 -20.9479 0.0000
# 2 25.7542 72.3245 45.4076 0.0000 -17.3730 0.0000
# 3 8.7275 45.4076 87.3291 0.0000 -23.1297 0.0000
# 4 0.0000 0.0000 0.0000 29.4397 0.0000 -0.1086
# 5 -20.9479 -17.3730 -23.1297 0.0000 25.9484 0.0000
# 6 0.0000 0.0000 0.0000 -0.1086 0.0000 20.0959
#
#
#
# Elastic Compliance Matrix: (Units=1/GPa)
#
#
# Indices 1 2 3 4 5 6 
#
# 1 0.020219 -0.006925 0.006120 0.000000 0.017142 0.000000
# 2 -0.006925 0.023526 -0.011584 0.000000 -0.000165 0.000000
# 3 0.006120 -0.011584 0.021098 0.000000 0.015991 0.000000
# 4 0.000000 0.000000 0.000000 0.033968 0.000000 0.000184
# 5 0.017142 -0.000165 0.015991 0.000000 0.066520 0.000000
# 6 0.000000 0.000000 0.000000 0.000184 0.000000 0.049762
#
#
# Mechanical properties :
#
#
# Convention : Reuss Voigt Hill
#
# Bulk Modulus (GPa) = 24.95924 43.64758 34.30341
# Shear Modulus (GPa) = 19.74524 25.30749 22.52636
#
# Velocity S-wave (km/s) = 3.21527 3.64008 3.43425
# Velocity P-wave (km/s) = 5.18188 6.36549 5.80393
#
# Compressibility (1/GPa) = 0.04006533
#
# Stress axis : x y z
#
# Youngs Moduli (GPa) = 49.45786 42.50697 47.39828
#
# Poissons Ratio (x) = 0.29434 -0.29008
# Poissons Ratio (y) = 0.34248 0.54906
# Poissons Ratio (z) = -0.30268 0.49240
#
# Static dielectric constant tensor:
#      x y z
#    x 3.531440 0.000000 -0.013330 
#    y 0.000000 3.452300 0.000000 
#    z -0.013330 0.000000 3.427710 
# 
# 
# High freq. dielectric constant tensor:
#      x y z
#    x 1.745440 0.000000 -0.004380 
#    y 0.000000 1.739820 0.000000 
#    z -0.004380 0.000000 1.745320 
# 
# From -- ./inp_files/66480.got.cif
#   From: 2010.06.25/outbox.cif.g09.slc.cpg/sg10_34_cif.got.tgz:66480.got - 2010.06.27 22:07:45.
