data_PCOD8064333
_publ_section_title
;
Structure prediction by ZEFSAII (Michael W. Deem and Ramdas Pophale) SiO2 
 PCOD8064333
Probable space group: P 2/M
;
_chemical_formula_sum "Si O2"
_cell_formula_units_Z 28
_cell_length_a 27.694118
_cell_length_b 9.427261
_cell_length_c 7.878542
_cell_angle_alpha 90.000000
_cell_angle_beta 136.237881
_cell_angle_gamma 90.000000
_cell_volume 1422.706272
_symmetry_space_group_name_H-M "P 2/M"
_symmetry_group_IT_number 10
_symmetry_cell_setting 'monoclinic'
loop_
_space_group_symop_operation_xyz
x,y,z
-x,y,-z
-x,-y,-z
x,-y,z
loop_
_atom_site_type_symbol
_atom_site_label
_atom_site_fract_x
_atom_site_fract_y
_atom_site_fract_z
Si Si1 0.072102 0.168096 0.261582
Si Si2 0.646561 0.335256 0.685608
Si Si3 0.073728 0.662665 0.601570
Si Si4 0.417501 0.837673 0.786988
Si Si5 0.214706 0.660037 0.137910
Si Si6 0.212082 0.161830 0.448370
Si Si7 0.648442 0.837151 0.023471
O O1 0.081738 0.232067 0.468668
O O2 0.136811 0.222111 0.313005
O O3 0.072478 0.000000 0.280318
O O4 0.000000 0.224802 0.000000
O O5 0.623924 0.500000 0.637161
O O6 0.609547 0.263070 0.431123
O O7 0.730420 0.320774 0.876482
O O8 0.624059 0.259297 0.803714
O O9 0.079991 0.500000 0.556509
O O10 0.000000 0.692734 0.500000
O O11 0.136518 0.702740 0.886671
O O12 0.389214 0.786637 0.898909
O O13 0.392750 0.000000 0.690655
O O14 0.500000 0.826835 0.000000
O O15 0.215755 0.500000 0.207826
O O16 0.240176 0.756387 0.356596
O O17 0.268047 0.179027 0.741324
O O18 0.204728 0.000000 0.373944
O O19 0.628363 0.000000 0.931360
#
# Coordination Sequence:
#
# PCOD8064333 Si02
#       7
#     4   4   4   4   4   4   4
#     4  10  21  35  51  77 110 142 183 236 293 346
#     4  11  23  38  60  90 123 158 195 241 298 355
#     4  10  21  36  53  76 107 146 193 237 283 344
#     4  10  22  42  66  90 119 156 198 245 294 348
#     4  10  21  36  55  82 114 149 190 238 291 344
#     4  10  20  35  57  83 110 147 193 239 288 344
#     4  10  21  38  61  88 117 153 199 244 288 347
#
# _framework density 19.680802
#
# number of rings (size 3 to 8) (size 9 to 14) (size 15 to 20)
#    0.000    1.857    1.429    2.143    0.000    4.286 
#    0.000    2.857    0.000    0.000    0.000    0.000 
#    0.000    0.000    0.000    0.000    0.000    0.000 
#
# Total GULP energy -347235.801674 kJ/mol
# GULP energy per Si atom -12401.278631 kJ/mol
# Density = 1.963601 g / cm^3
# Si number density = 19.680802 Si / 1000 Ang^3
#
#
#
# Elastic Constant Matrix: (Units=GPa)
#
#
# Indices 1 2 3 4 5 6 
#
# 1 108.6465 47.6072 51.4876 0.0000 -12.2705 0.0000
# 2 47.6072 70.4832 48.7973 0.0000 -18.4774 0.0000
# 3 51.4876 48.7973 81.8842 0.0000 -10.0157 0.0000
# 4 0.0000 0.0000 0.0000 35.7508 0.0000 -14.9192
# 5 -12.2705 -18.4774 -10.0157 0.0000 38.2107 0.0000
# 6 0.0000 0.0000 0.0000 -14.9192 0.0000 36.4004
#
#
#
# Elastic Compliance Matrix: (Units=1/GPa)
#
#
# Indices 1 2 3 4 5 6 
#
# 1 0.014423 -0.005783 -0.005577 0.000000 0.000373 0.000000
# 2 -0.005783 0.029220 -0.012682 0.000000 0.008948 0.000000
# 3 -0.005577 -0.012682 0.023047 0.000000 -0.001883 0.000000
# 4 0.000000 0.000000 0.000000 0.033743 0.000000 0.013830
# 5 0.000373 0.008948 -0.001883 0.000000 0.030124 0.000000
# 6 0.000000 0.000000 0.000000 0.013830 0.000000 0.033141
#
#
# Mechanical properties :
#
#
# Convention : Reuss Voigt Hill
#
# Bulk Modulus (GPa) = 53.74897 61.86647 57.80772
# Shear Modulus (GPa) = 22.93739 29.61383 26.27561
#
# Velocity S-wave (km/s) = 3.41760 3.88326 3.65785
# Velocity P-wave (km/s) = 6.55309 7.18397 6.87577
#
# Compressibility (1/GPa) = 0.01860501
#
# Stress axis : x y z
#
# Youngs Moduli (GPa) = 69.33161 34.22322 43.38997
#
# Poissons Ratio (x) = 0.19791 0.24200
# Poissons Ratio (y) = 0.40094 0.55028
# Poissons Ratio (z) = 0.38669 0.43403
#
# Static dielectric constant tensor:
#      x y z
#    x 3.850390 0.000000 0.375170 
#    y 0.000000 3.541650 0.000000 
#    z 0.375170 0.000000 3.701850 
# 
# 
# High freq. dielectric constant tensor:
#      x y z
#    x 1.773050 0.000000 0.008860 
#    y 0.000000 1.761510 0.000000 
#    z 0.008860 0.000000 1.767290 
# 
# From -- ./inp_files/37908.got.cif
#   From: 2010.06.25/outbox.cif.g09.slc.cpg/sg10_19_cif.got.tgz:37908.got - 2010.06.27 22:07:45.
