data_PCOD8064811
_publ_section_title
;
Structure prediction by ZEFSAII (Michael W. Deem and Ramdas Pophale) SiO2 
 PCOD8064811
Probable space group: P 2/M
;
_chemical_formula_sum "Si O2"
_cell_formula_units_Z 32
_cell_length_a 12.800107
_cell_length_b 14.710887
_cell_length_c 8.547748
_cell_angle_alpha 90.000000
_cell_angle_beta 84.448376
_cell_angle_gamma 90.000000
_cell_volume 1601.999187
_symmetry_space_group_name_H-M "P 2/M"
_symmetry_group_IT_number 10
_symmetry_cell_setting 'monoclinic'
loop_
_space_group_symop_operation_xyz
x,y,z
-x,y,-z
-x,-y,-z
x,-y,z
loop_
_atom_site_type_symbol
_atom_site_label
_atom_site_fract_x
_atom_site_fract_y
_atom_site_fract_z
Si Si1 0.467444 0.606644 0.338793
Si Si2 0.877533 0.103516 0.046480
Si Si3 0.205611 0.102968 0.278365
Si Si4 0.113590 0.729203 0.426966
Si Si5 0.623095 0.895448 0.492538
Si Si6 0.742320 0.602927 0.766490
Si Si7 0.671654 0.602147 0.130562
Si Si8 0.766602 0.766141 0.292065
O O1 0.500000 0.650920 0.500000
O O2 0.451558 0.500000 0.359693
O O3 0.353149 0.647239 0.318432
O O4 0.550764 0.626760 0.188829
O O5 0.849253 0.171411 0.189413
O O6 0.860850 0.000000 0.104754
O O7 0.800554 0.122051 0.907508
O O8 0.000000 0.121767 0.000000
O O9 0.117265 0.166284 0.370109
O O10 0.320556 0.121691 0.343790
O O11 0.170104 0.000000 0.315986
O O12 0.155122 0.664267 0.280143
O O13 0.187046 0.717742 0.564102
O O14 0.000000 0.698996 0.500000
O O15 0.500000 0.873344 0.500000
O O16 0.669991 0.830704 0.352258
O O17 0.642684 0.000000 0.442072
O O18 0.771141 0.500000 0.714381
O O19 0.696799 0.605093 0.945988
O O20 0.696407 0.500000 0.192443
O O21 0.742094 0.679337 0.192739
#
# Coordination Sequence:
#
# PCOD8064811 Si02
#       8
#     4   4   4   4   4   4   4   4
#     4   9  17  32  56  83 108 136 175 223 274 327
#     4  10  20  36  59  85 113 145 183 232 287 337
#     4   9  19  36  57  81 111 145 182 226 278 336
#     4  11  23  37  56  81 108 143 187 234 280 326
#     4   9  19  37  58  81 113 150 185 223 271 331
#     4  10  21  38  57  77 108 147 185 229 279 333
#     4  10  21  36  55  81 112 146 182 225 279 335
#     4  11  22  35  57  83 110 142 184 231 278 333
#
# _framework density 19.975041000000001
#
# number of rings (size 3 to 8) (size 9 to 14) (size 15 to 20)
#    0.000    2.125    0.000    3.000    0.000    6.500 
#    0.000    1.875    0.000    4.875    0.000    0.000 
#    0.000    0.000    0.000    0.000    0.000    0.000 
#
# Total GULP energy -396506.294697 kJ/mol
# GULP energy per Si atom -12390.821709 kJ/mol
# Density = 1.992958 g / cm^3
# Si number density = 19.975041 Si / 1000 Ang^3
#
#
#
# Elastic Constant Matrix: (Units=GPa)
#
#
# Indices 1 2 3 4 5 6 
#
# 1 99.4706 46.8830 33.9478 0.0000 -20.8686 0.0000
# 2 46.8830 88.8346 34.2221 0.0000 -11.0130 0.0000
# 3 33.9478 34.2221 73.4862 0.0000 -10.8147 0.0000
# 4 0.0000 0.0000 0.0000 29.5974 0.0000 -5.7172
# 5 -20.8686 -11.0130 -10.8147 0.0000 32.5948 0.0000
# 6 0.0000 0.0000 0.0000 -5.7172 0.0000 24.6760
#
#
#
# Elastic Compliance Matrix: (Units=1/GPa)
#
#
# Indices 1 2 3 4 5 6 
#
# 1 0.015450 -0.006033 -0.003335 0.000000 0.006747 0.000000
# 2 -0.006033 0.016294 -0.004793 0.000000 0.000052 0.000000
# 3 -0.003335 -0.004793 0.017692 0.000000 0.002115 0.000000
# 4 0.000000 0.000000 0.000000 0.035370 0.000000 0.008195
# 5 0.006747 0.000052 0.002115 0.000000 0.035719 0.000000
# 6 0.000000 0.000000 0.000000 0.008195 0.000000 0.042424
#
#
# Mechanical properties :
#
#
# Convention : Reuss Voigt Hill
#
# Bulk Modulus (GPa) = 47.36196 54.65524 51.00860
# Shear Modulus (GPa) = 25.21316 27.15622 26.18469
#
# Velocity S-wave (km/s) = 3.55665 3.69115 3.62452
# Velocity P-wave (km/s) = 6.37404 6.75184 6.56565
#
# Compressibility (1/GPa) = 0.02111399
#
# Stress axis : x y z
#
# Youngs Moduli (GPa) = 64.72343 61.37324 56.52212
#
# Poissons Ratio (x) = 0.37025 0.18851
# Poissons Ratio (y) = 0.39046 0.27093
# Poissons Ratio (z) = 0.21586 0.29418
#
# Static dielectric constant tensor:
#      x y z
#    x 3.588210 0.000000 0.100760 
#    y 0.000000 3.693810 0.000000 
#    z 0.100760 0.000000 3.831920 
# 
# 
# High freq. dielectric constant tensor:
#      x y z
#    x 1.765000 0.000000 0.002030 
#    y 0.000000 1.785560 0.000000 
#    z 0.002030 0.000000 1.779370 
# 
# From -- ./inp_files/25307.got.cif
#   From: 2010.06.25/outbox.cif.g09.slc.cpg/sg10_13_cif.got.tgz:25307.got - 2010.06.27 22:07:45.
