data_PCOD8064465
_publ_section_title
;
Structure prediction by ZEFSAII (Michael W. Deem and Ramdas Pophale) SiO2 
 PCOD8064465
Probable space group: P 2/M
;
_chemical_formula_sum "Si O2"
_cell_formula_units_Z 26
_cell_length_a 9.262679
_cell_length_b 11.408106
_cell_length_c 13.556745
_cell_angle_alpha 90.000000
_cell_angle_beta 65.038496
_cell_angle_gamma 90.000000
_cell_volume 1298.725139
_symmetry_space_group_name_H-M "P 2/M"
_symmetry_group_IT_number 10
_symmetry_cell_setting 'monoclinic'
loop_
_space_group_symop_operation_xyz
x,y,z
-x,y,-z
-x,-y,-z
x,-y,z
loop_
_atom_site_type_symbol
_atom_site_label
_atom_site_fract_x
_atom_site_fract_y
_atom_site_fract_z
Si Si1 0.500000 0.283261 0.500000
Si Si2 0.894120 0.640128 0.721969
Si Si3 0.230905 0.000000 0.013006
Si Si4 0.310473 0.362074 0.844003
Si Si5 0.626182 0.633002 0.661630
Si Si6 0.131064 0.000000 0.830304
Si Si7 0.193823 0.766079 0.698559
Si Si8 0.683281 0.746868 0.956802
O O1 0.403530 0.358523 0.446849
O O2 0.638682 0.210171 0.406169
O O3 0.924752 0.500000 0.720440
O O4 0.798749 0.676925 0.649095
O O5 0.789171 0.685513 0.843504
O O6 0.058331 0.712724 0.666095
O O7 0.257601 0.000000 0.885473
O O8 0.306258 0.887791 0.046011
O O9 0.044037 0.000000 0.077938
O O10 0.307234 0.500000 0.862214
O O11 0.484469 0.307723 0.766011
O O12 0.199389 0.330710 0.783561
O O13 0.246510 0.298448 0.959653
O O14 0.614859 0.500000 0.696609
O O15 0.148927 0.110402 0.755225
O O16 0.500000 0.706472 0.000000
#
# Coordination Sequence:
#
# PCOD8064465 Si02
#       8
#     2   4   2   4   4   2   4   4
#     4  10  23  41  66  88 114 158 209 261 306 362
#     4  11  23  37  60  95 130 161 197 248 309 367
#     4  11  23  40  60  91 120 169 211 242 298 358
#     4  10  20  35  58  89 127 164 197 242 300 367
#     4   9  19  37  60  88 123 162 199 245 302 362
#     4  11  22  41  66  82 122 162 204 257 300 356
#     4  11  23  42  62  88 121 157 211 258 304 360
#     4  12  22  37  60  91 128 166 204 244 296 369
#
# _framework density 20.019632000000001
#
# number of rings (size 3 to 8) (size 9 to 14) (size 15 to 20)
#    0.000    1.385    4.615    1.385    0.000    4.000 
#    0.000    3.077    0.000    2.769    0.000    0.000 
#    0.000    0.000    0.000    0.000    0.000    0.000 
#
# Total GULP energy -322216.512185 kJ/mol
# GULP energy per Si atom -12392.942776 kJ/mol
# Density = 1.997407 g / cm^3
# Si number density = 20.019632 Si / 1000 Ang^3
#
#
#
# Elastic Constant Matrix: (Units=GPa)
#
#
# Indices 1 2 3 4 5 6 
#
# 1 121.0085 26.1305 42.7793 0.0000 6.4463 0.0000
# 2 26.1305 94.8481 26.3316 0.0000 -2.8661 0.0000
# 3 42.7793 26.3316 86.4472 0.0000 6.5155 0.0000
# 4 0.0000 0.0000 0.0000 32.7234 0.0000 7.3706
# 5 6.4463 -2.8661 6.5155 0.0000 32.5289 0.0000
# 6 0.0000 0.0000 0.0000 7.3706 0.0000 28.7332
#
#
#
# Elastic Compliance Matrix: (Units=1/GPa)
#
#
# Indices 1 2 3 4 5 6 
#
# 1 0.010270 -0.001621 -0.004492 0.000000 -0.001278 0.000000
# 2 -0.001621 0.011871 -0.002962 0.000000 0.001960 0.000000
# 3 -0.004492 -0.002962 0.014870 0.000000 -0.002349 0.000000
# 4 0.000000 0.000000 0.000000 0.032433 0.000000 -0.008320
# 5 -0.001278 0.001960 -0.002349 0.000000 0.031639 0.000000
# 6 0.000000 0.000000 0.000000 -0.008320 0.000000 0.036937
#
#
# Mechanical properties :
#
#
# Convention : Reuss Voigt Hill
#
# Bulk Modulus (GPa) = 53.01711 54.75408 53.88559
# Shear Modulus (GPa) = 30.77748 32.60125 31.68937
#
# Velocity S-wave (km/s) = 3.92518 4.03980 3.98290
# Velocity P-wave (km/s) = 6.86169 7.01210 6.93730
#
# Compressibility (1/GPa) = 0.01886183
#
# Stress axis : x y z
#
# Youngs Moduli (GPa) = 97.37011 84.23782 67.24994
#
# Poissons Ratio (x) = 0.13654 0.30210
# Poissons Ratio (y) = 0.15783 0.19916
# Poissons Ratio (z) = 0.43741 0.24948
#
# Static dielectric constant tensor:
#      x y z
#    x 4.041630 0.000000 0.096300 
#    y 0.000000 3.432440 0.000000 
#    z 0.096300 0.000000 3.613000 
# 
# 
# High freq. dielectric constant tensor:
#      x y z
#    x 1.794530 0.000000 0.003630 
#    y 0.000000 1.760280 0.000000 
#    z 0.003630 0.000000 1.775980 
# 
# From -- ./inp_files/34952.got.cif
#   From: 2010.06.25/outbox.cif.g09.slc.cpg/sg10_18_cif.got.tgz:34952.got - 2010.06.27 22:07:45.
