data_PCOD8064765
_publ_section_title
;
Structure prediction by ZEFSAII (Michael W. Deem and Ramdas Pophale) SiO2 
 PCOD8064765
Probable space group: P 2/M
;
_chemical_formula_sum "Si O2"
_cell_formula_units_Z 32
_cell_length_a 8.741683
_cell_length_b 13.861514
_cell_length_c 25.241485
_cell_angle_alpha 90.000000
_cell_angle_beta 31.476173
_cell_angle_gamma 90.000000
_cell_volume 1597.021879
_symmetry_space_group_name_H-M "P 2/M"
_symmetry_group_IT_number 10
_symmetry_cell_setting 'monoclinic'
loop_
_space_group_symop_operation_xyz
x,y,z
-x,y,-z
-x,-y,-z
x,-y,z
loop_
_atom_site_type_symbol
_atom_site_label
_atom_site_fract_x
_atom_site_fract_y
_atom_site_fract_z
Si Si1 0.161794 0.387699 0.591809
Si Si2 0.213736 0.889510 0.055311
Si Si3 0.795300 0.723880 0.012761
Si Si4 0.622361 0.887459 0.292715
Si Si5 0.581327 0.888182 0.533335
Si Si6 0.208477 0.611299 0.196531
Si Si7 0.908317 0.238056 0.584219
Si Si8 0.150998 0.395800 0.099891
O O1 0.500000 0.355501 0.500000
O O2 0.143562 0.500000 0.580072
O O3 0.019637 0.368374 0.690378
O O4 0.969516 0.325881 0.606810
O O5 0.201386 0.837303 0.001752
O O6 0.942077 0.871431 0.174314
O O7 0.255163 0.000000 0.028363
O O8 0.500000 0.847279 0.000000
O O9 0.945675 0.678952 0.915841
O O10 0.480607 0.682983 0.121326
O O11 0.000000 0.697896 0.000000
O O12 0.635414 0.865712 0.352656
O O13 0.416295 0.809219 0.323059
O O14 0.521676 0.000000 0.313805
O O15 0.500000 0.839773 0.500000
O O16 0.898420 0.852550 0.456362
O O17 0.607472 0.000000 0.515591
O O18 0.321107 0.500000 0.163395
O O19 0.036190 0.633176 0.192319
O O20 0.000000 0.279339 0.500000
O O21 0.023022 0.500000 0.121426
O O22 0.500000 0.399787 0.000000
#
# Coordination Sequence:
#
# PCOD8064765 Si02
#       8
#     4   4   4   4   4   4   4   4
#     4  10  22  41  62  87 122 162 201 240 286 349
#     4  10  22  42  61  81 115 163 207 240 287 356
#     4  11  22  35  57  90 119 150 187 249 301 352
#     4   9  19  37  63  88 119 158 195 242 301 354
#     4   9  17  33  57  91 124 153 197 247 292 342
#     4   9  19  38  62  85 114 154 199 244 290 343
#     4  10  20  36  58  89 123 158 194 241 295 351
#     4   8  15  32  56  82 111 145 188 235 288 339
#
# _framework density 20.037296999999999
#
# number of rings (size 3 to 8) (size 9 to 14) (size 15 to 20)
#    0.000    2.500    0.000    3.000    1.750    3.000 
#   13.500    0.000    0.000    0.000    0.000    0.000 
#    0.000    0.000    0.000    0.000    0.000    0.000 
#
# Total GULP energy -396479.526603 kJ/mol
# GULP energy per Si atom -12389.985206 kJ/mol
# Density = 1.999169 g / cm^3
# Si number density = 20.037297 Si / 1000 Ang^3
#
#
#
# Elastic Constant Matrix: (Units=GPa)
#
#
# Indices 1 2 3 4 5 6 
#
# 1 129.0371 52.2135 59.2067 0.0000 17.2036 0.0000
# 2 52.2135 79.5050 51.6396 0.0000 4.7927 0.0000
# 3 59.2067 51.6396 122.8988 0.0000 9.5161 0.0000
# 4 0.0000 0.0000 0.0000 -32.9394 0.0000 -32.6426
# 5 17.2036 4.7927 9.5161 0.0000 26.5604 0.0000
# 6 0.0000 0.0000 0.0000 -32.6426 0.0000 0.7139
#
#
#
# Elastic Compliance Matrix: (Units=1/GPa)
#
#
# Indices 1 2 3 4 5 6 
#
# 1 0.012228 -0.005703 -0.003046 0.000000 -0.005800 0.000000
# 2 -0.005703 0.019966 -0.005810 0.000000 0.002173 0.000000
# 3 -0.003046 -0.005810 0.012148 0.000000 -0.001331 0.000000
# 4 0.000000 0.000000 0.000000 -0.000656 0.000000 -0.029973
# 5 -0.005800 0.002173 -0.001331 0.000000 0.041492 0.000000
# 6 0.000000 0.000000 0.000000 -0.029973 0.000000 0.030246
#
#
# Mechanical properties :
#
#
# Convention : Reuss Voigt Hill
#
# Bulk Modulus (GPa) = 65.68040 73.06228 69.37134
# Shear Modulus (GPa) = 33.41884 10.09239 21.75561
#
# Velocity S-wave (km/s) = 4.08834 2.24672 3.29866
# Velocity P-wave (km/s) = 7.42538 6.57819 7.01459
#
# Compressibility (1/GPa) = 0.01522524
#
# Stress axis : x y z
#
# Youngs Moduli (GPa) = 81.77989 50.08569 82.31547
#
# Poissons Ratio (x) = 0.28562 0.25070
# Poissons Ratio (y) = 0.46637 0.47827
# Poissons Ratio (z) = 0.24907 0.29101
#
# Static dielectric constant tensor:
#      x y z
#    x 3.870060 0.000000 0.400920 
#    y 0.000000 3.725090 0.000000 
#    z 0.400920 0.000000 3.762220 
# 
# 
# High freq. dielectric constant tensor:
#      x y z
#    x 1.771080 0.000000 0.017760 
#    y 0.000000 1.790990 0.000000 
#    z 0.017760 0.000000 1.773110 
# 
# From -- ./inp_files/88230.got.cif
#   From: 2010.06.25/outbox.cif.g09.slc.cpg/sg10_45_cif.got.tgz:88230.got - 2010.06.27 22:07:45.
