data_PCOD8064952
_publ_section_title
;
Structure prediction by ZEFSAII (Michael W. Deem and Ramdas Pophale) SiO2 
 PCOD8064952
Probable space group: P 2/M
;
_chemical_formula_sum "Si O2"
_cell_formula_units_Z 30
_cell_length_a 8.361557
_cell_length_b 24.871108
_cell_length_c 13.822074
_cell_angle_alpha 90.000000
_cell_angle_beta 32.388351
_cell_angle_gamma 90.000000
_cell_volume 1539.716496
_symmetry_space_group_name_H-M "P 2/M"
_symmetry_group_IT_number 10
_symmetry_cell_setting 'monoclinic'
loop_
_space_group_symop_operation_xyz
x,y,z
-x,y,-z
-x,-y,-z
x,-y,z
loop_
_atom_site_type_symbol
_atom_site_label
_atom_site_fract_x
_atom_site_fract_y
_atom_site_fract_z
Si Si1 0.643816 0.724831 0.672091
Si Si2 0.639513 0.352556 0.327057
Si Si3 0.459380 0.061406 0.357563
Si Si4 0.348983 0.648412 0.974013
Si Si5 0.349364 0.440893 0.829984
Si Si6 0.965492 0.060429 0.255798
Si Si7 0.500000 0.133646 0.000000
Si Si8 0.665457 0.157682 0.706034
O O1 0.518374 0.699988 0.636871
O O2 0.485276 0.696524 0.842857
O O3 0.544904 0.787215 0.720395
O O4 0.000000 0.718114 0.500000
O O5 0.500000 0.364914 0.500000
O O6 0.544401 0.404442 0.313247
O O7 0.992976 0.343472 0.155751
O O8 0.720456 0.070685 0.300124
O O9 0.154917 0.071645 0.573716
O O10 0.501411 0.104216 0.249092
O O11 0.464561 0.000000 0.313790
O O12 0.431330 0.590310 0.886827
O O13 0.500000 0.651021 0.000000
O O14 0.504859 0.500000 0.749587
O O15 0.000000 0.448882 0.000000
O O16 0.235879 0.098507 0.091609
O O17 0.083095 0.000000 0.190285
O O18 0.375218 0.166201 0.156880
O O19 0.000000 0.150079 0.500000
#
# Coordination Sequence:
#
# PCOD8064952 Si02
#       8
#     4   4   4   4   4   4   2   4
#     4  10  22  41  60  81 115 151 197 251 300 347
#     4  10  20  38  60  89 117 157 203 238 295 350
#     4   9  19  40  62  83 119 156 186 234 297 355
#     4  10  20  36  61  86 118 156 201 244 288 350
#     4   8  16  32  55  85 124 160 194 241 287 337
#     4   9  19  37  62  88 115 151 191 230 284 358
#     4  12  23  38  60  90 116 146 193 240 286 358
#     4  11  24  42  60  89 119 150 193 245 301 357
#
# _framework density 19.484105
#
# number of rings (size 3 to 8) (size 9 to 14) (size 15 to 20)
#    0.000    2.267    1.333    3.000    0.933    2.400 
#    7.200    1.333    0.000   13.600    0.000    0.000 
#    0.000    0.000    0.000    0.000    0.000    0.000 
#
# Total GULP energy -371817.224959 kJ/mol
# GULP energy per Si atom -12393.907499 kJ/mol
# Density = 1.943976 g / cm^3
# Si number density = 19.484105 Si / 1000 Ang^3
#
#
#
# Elastic Constant Matrix: (Units=GPa)
#
#
# Indices 1 2 3 4 5 6 
#
# 1 55.1087 24.5124 21.1228 0.0000 6.4564 0.0000
# 2 24.5124 130.9306 29.7540 0.0000 0.7601 0.0000
# 3 21.1228 29.7540 90.9682 0.0000 6.7508 0.0000
# 4 0.0000 0.0000 0.0000 43.4093 0.0000 0.9585
# 5 6.4564 0.7601 6.7508 0.0000 32.6965 0.0000
# 6 0.0000 0.0000 0.0000 0.9585 0.0000 21.9783
#
#
#
# Elastic Compliance Matrix: (Units=1/GPa)
#
#
# Indices 1 2 3 4 5 6 
#
# 1 0.021350 -0.003141 -0.003679 0.000000 -0.003383 0.000000
# 2 -0.003141 0.008718 -0.002186 0.000000 0.000869 0.000000
# 3 -0.003679 -0.002186 0.012699 0.000000 -0.001845 0.000000
# 4 0.000000 0.000000 0.000000 0.023059 0.000000 -0.001006
# 5 -0.003383 0.000869 -0.001845 0.000000 0.031613 0.000000
# 6 0.000000 0.000000 0.000000 -0.001006 0.000000 0.045543
#
#
# Mechanical properties :
#
#
# Convention : Reuss Voigt Hill
#
# Bulk Modulus (GPa) = 40.39896 47.53176 43.96536
# Shear Modulus (GPa) = 29.54284 33.05804 31.30044
#
# Velocity S-wave (km/s) = 3.89813 4.12353 4.01242
# Velocity P-wave (km/s) = 6.40624 6.86436 6.63925
#
# Compressibility (1/GPa) = 0.02475311
#
# Stress axis : x y z
#
# Youngs Moduli (GPa) = 46.83912 114.71090 78.74568
#
# Poissons Ratio (x) = 0.36035 0.28969
# Poissons Ratio (y) = 0.14714 0.17217
# Poissons Ratio (z) = 0.17231 0.25081
#
# Static dielectric constant tensor:
#      x y z
#    x 4.123740 0.000000 2.277680 
#    y 0.000000 3.840860 0.000000 
#    z 2.277680 0.000000 11.053050 
# 
# 
# High freq. dielectric constant tensor:
#      x y z
#    x 1.755260 0.000000 0.005660 
#    y 0.000000 1.758770 0.000000 
#    z 0.005660 0.000000 1.755960 
# 
# From -- ./inp_files/62658.got.cif
#   From: 2010.06.25/outbox.cif.g09.slc.cpg/sg10_32_cif.got.tgz:62658.got - 2010.06.27 22:07:45.
