data_PCOD8064651
_publ_section_title
;
Structure prediction by ZEFSAII (Michael W. Deem and Ramdas Pophale) SiO2 
 PCOD8064651
Probable space group: P 2/M
;
_chemical_formula_sum "Si O2"
_cell_formula_units_Z 32
_cell_length_a 12.145328
_cell_length_b 8.731291
_cell_length_c 31.756076
_cell_angle_alpha 90.000000
_cell_angle_beta 151.751650
_cell_angle_gamma 90.000000
_cell_volume 1593.844018
_symmetry_space_group_name_H-M "P 2/M"
_symmetry_group_IT_number 10
_symmetry_cell_setting 'monoclinic'
loop_
_space_group_symop_operation_xyz
x,y,z
-x,y,-z
-x,-y,-z
x,-y,z
loop_
_atom_site_type_symbol
_atom_site_label
_atom_site_fract_x
_atom_site_fract_y
_atom_site_fract_z
Si Si1 0.109136 0.177245 0.806245
Si Si2 0.037524 0.181561 0.151794
Si Si3 0.707138 0.180937 0.518208
Si Si4 0.621643 0.823348 0.954274
Si Si5 0.218815 0.680526 0.369327
Si Si6 0.261776 0.681041 0.090630
Si Si7 0.548419 0.319362 0.756862
Si Si8 0.030012 0.679039 0.558772
O O1 0.009020 0.238766 0.816592
O O2 0.386294 0.200180 0.901229
O O3 0.004483 0.278939 0.733654
O O4 0.044442 0.000000 0.776658
O O5 0.288325 0.242059 0.222856
O O6 0.030139 0.000000 0.148094
O O7 0.836095 0.247275 0.053168
O O8 0.827546 0.260861 0.598953
O O9 0.442766 0.237614 0.424599
O O10 0.843120 0.224855 0.521875
O O11 0.709727 0.000000 0.525614
O O12 0.593182 0.738300 0.900327
O O13 0.668467 0.000000 0.960390
O O14 0.260695 0.500000 0.384453
O O15 0.260566 0.500000 0.090105
O O16 0.383080 0.742516 0.173883
O O17 0.000000 0.746847 0.000000
O O18 0.582010 0.500000 0.764391
O O19 0.285690 0.269735 0.659369
O O20 0.987183 0.500000 0.552609
O O21 0.000000 0.721098 0.500000
#
# Coordination Sequence:
#
# PCOD8064651 Si02
#       8
#     4   4   4   4   4   4   4   4
#     4  10  22  39  59  88 122 156 198 249 302 351
#     4  10  21  38  60  85 119 160 200 245 297 358
#     4  11  23  42  66  91 123 156 196 249 305 360
#     4  10  21  37  59  86 119 158 200 244 295 355
#     4  11  23  41  65  91 119 157 202 247 302 362
#     4  10  20  36  57  83 118 157 196 245 300 355
#     4  10  22  39  59  85 119 160 202 246 298 357
#     4  10  23  42  63  90 125 164 204 249 299 357
#
# _framework density 20.077247
#
# number of rings (size 3 to 8) (size 9 to 14) (size 15 to 20)
#    0.000    1.750    1.250    3.375    3.500    4.000 
#    0.000    0.000    0.000    2.250    0.000    0.000 
#    0.000    0.000    0.000    0.000    0.000    0.000 
#
# Total GULP energy -396965.791281 kJ/mol
# GULP energy per Si atom -12405.180978 kJ/mol
# Density = 2.003155 g / cm^3
# Si number density = 20.077247 Si / 1000 Ang^3
#
#
#
# Elastic Constant Matrix: (Units=GPa)
#
#
# Indices 1 2 3 4 5 6 
#
# 1 121.5302 30.1789 29.7477 0.0000 -4.0403 0.0000
# 2 30.1789 51.7950 21.8630 0.0000 -2.0738 0.0000
# 3 29.7477 21.8630 100.8082 0.0000 -9.6637 0.0000
# 4 0.0000 0.0000 0.0000 21.1907 0.0000 2.0340
# 5 -4.0403 -2.0738 -9.6637 0.0000 27.2317 0.0000
# 6 0.0000 0.0000 0.0000 2.0340 0.0000 28.8258
#
#
#
# Elastic Compliance Matrix: (Units=1/GPa)
#
#
# Indices 1 2 3 4 5 6 
#
# 1 0.009927 -0.005006 -0.001800 0.000000 0.000453 0.000000
# 2 -0.005006 0.023777 -0.003703 0.000000 -0.000246 0.000000
# 3 -0.001800 -0.003703 0.011596 0.000000 0.003566 0.000000
# 4 0.000000 0.000000 0.000000 0.047512 0.000000 -0.003353
# 5 0.000453 -0.000246 0.003566 0.000000 0.038036 0.000000
# 6 0.000000 0.000000 0.000000 -0.003353 0.000000 0.034928
#
#
# Mechanical properties :
#
#
# Convention : Reuss Voigt Hill
#
# Bulk Modulus (GPa) = 41.18397 48.63472 44.90935
# Shear Modulus (GPa) = 25.65565 28.27257 26.96411
#
# Velocity S-wave (km/s) = 3.57858 3.75666 3.66870
# Velocity P-wave (km/s) = 6.13451 6.56453 6.35316
#
# Compressibility (1/GPa) = 0.02428129
#
# Stress axis : x y z
#
# Youngs Moduli (GPa) = 100.73232 42.05745 86.23644
#
# Poissons Ratio (x) = 0.21055 0.15525
# Poissons Ratio (y) = 0.50428 0.31933
# Poissons Ratio (z) = 0.18135 0.15574
#
# Static dielectric constant tensor:
#      x y z
#    x 3.660030 0.000000 -0.077900 
#    y 0.000000 3.449020 0.000000 
#    z -0.077900 0.000000 3.752740 
# 
# 
# High freq. dielectric constant tensor:
#      x y z
#    x 1.793010 0.000000 -0.002670 
#    y 0.000000 1.770590 0.000000 
#    z -0.002670 0.000000 1.789940 
# 
# From -- ./inp_files/95074.got.cif
#   From: 2010.06.25/outbox.cif.g09.slc.cpg/sg10_48_cif.got.tgz:95074.got - 2010.06.27 22:07:45.
