data_PCOD8064703
_publ_section_title
;
Structure prediction by ZEFSAII (Michael W. Deem and Ramdas Pophale) SiO2 
 PCOD8064703
Probable space group: P 2/M
;
_chemical_formula_sum "Si O2"
_cell_formula_units_Z 32
_cell_length_a 26.444159
_cell_length_b 9.184136
_cell_length_c 10.749743
_cell_angle_alpha 90.000000
_cell_angle_beta 37.312825
_cell_angle_gamma 90.000000
_cell_volume 1582.552177
_symmetry_space_group_name_H-M "P 2/M"
_symmetry_group_IT_number 10
_symmetry_cell_setting 'monoclinic'
loop_
_space_group_symop_operation_xyz
x,y,z
-x,y,-z
-x,-y,-z
x,-y,z
loop_
_atom_site_type_symbol
_atom_site_label
_atom_site_fract_x
_atom_site_fract_y
_atom_site_fract_z
Si Si1 0.782558 0.832527 0.241072
Si Si2 0.057219 0.171376 0.506803
Si Si3 0.036070 0.172980 0.059044
Si Si4 0.366594 0.166908 0.044086
Si Si5 0.618335 0.836204 0.699202
Si Si6 0.229175 0.667039 0.192684
Si Si7 0.686848 0.336136 0.228624
Si Si8 0.476451 0.329851 0.317720
O O1 0.716006 0.808182 0.480962
O O2 0.752433 0.762181 0.172550
O O3 0.796856 0.000000 0.180832
O O4 0.870355 0.764088 0.111956
O O5 0.142800 0.258401 0.325227
O O6 0.000000 0.211753 0.500000
O O7 0.015444 0.222635 0.718289
O O8 0.076318 0.000000 0.470997
O O9 0.036157 0.000000 0.050882
O O10 0.000000 0.237750 0.000000
O O11 0.397377 0.180653 0.124895
O O12 0.276878 0.246665 0.208730
O O13 0.356084 0.000000 0.022779
O O14 0.438118 0.243790 0.821151
O O15 0.562382 0.719061 0.738008
O O16 0.593730 0.000000 0.703179
O O17 0.212804 0.500000 0.263169
O O18 0.294510 0.678772 0.952240
O O19 0.699814 0.500000 0.251813
O O20 0.590693 0.290850 0.443179
O O21 0.497911 0.500000 0.270828
#
# Coordination Sequence:
#
# PCOD8064703 Si02
#       8
#     4   4   4   4   4   4   4   4
#     4   9  17  32  57  84 106 139 185 229 273 329
#     4  10  21  38  61  88 115 148 193 242 287 341
#     4   9  18  31  54  84 115 147 183 230 286 342
#     4  11  23  37  55  82 116 149 184 233 284 332
#     4   9  19  34  55  82 113 147 186 230 277 331
#     4  11  24  40  58  81 111 150 191 232 282 339
#     4   9  20  38  57  78 107 145 186 229 278 333
#     4  10  20  36  58  82 110 147 188 230 279 337
#
# _framework density 20.220503000000001
#
# number of rings (size 3 to 8) (size 9 to 14) (size 15 to 20)
#    0.000    2.250    0.000    2.250    1.750    5.750 
#    0.000    3.125    0.000    0.750    0.000    0.000 
#    0.000    0.000    0.000    0.000    0.000    0.000 
#
# Total GULP energy -396786.501766 kJ/mol
# GULP energy per Si atom -12399.578180 kJ/mol
# Density = 2.017448 g / cm^3
# Si number density = 20.220503 Si / 1000 Ang^3
#
#
#
# Elastic Constant Matrix: (Units=GPa)
#
#
# Indices 1 2 3 4 5 6 
#
# 1 63.8842 33.3948 33.4922 0.0000 -7.6659 0.0000
# 2 33.3948 82.2915 37.8269 0.0000 -14.4277 0.0000
# 3 33.4922 37.8269 97.7157 0.0000 -10.4649 0.0000
# 4 0.0000 0.0000 0.0000 25.6256 0.0000 -2.5175
# 5 -7.6659 -14.4277 -10.4649 0.0000 37.8092 0.0000
# 6 0.0000 0.0000 0.0000 -2.5175 0.0000 15.5641
#
#
#
# Elastic Compliance Matrix: (Units=1/GPa)
#
#
# Indices 1 2 3 4 5 6 
#
# 1 0.021641 -0.006446 -0.004860 0.000000 0.000583 0.000000
# 2 -0.006446 0.017373 -0.004066 0.000000 0.004197 0.000000
# 3 -0.004860 -0.004066 0.013605 0.000000 0.001229 0.000000
# 4 0.000000 0.000000 0.000000 0.039654 0.000000 0.006414
# 5 0.000583 0.004197 0.001229 0.000000 0.028508 0.000000
# 6 0.000000 0.000000 0.000000 0.006414 0.000000 0.065288
#
#
# Mechanical properties :
#
#
# Convention : Reuss Voigt Hill
#
# Bulk Modulus (GPa) = 45.71519 50.36879 48.04199
# Shear Modulus (GPa) = 22.31112 25.07829 23.69470
#
# Velocity S-wave (km/s) = 3.32534 3.52553 3.42689
# Velocity P-wave (km/s) = 6.11565 6.44486 6.28242
#
# Compressibility (1/GPa) = 0.02187457
#
# Stress axis : x y z
#
# Youngs Moduli (GPa) = 46.20958 57.56136 73.50165
#
# Poissons Ratio (x) = 0.37104 0.35719
# Poissons Ratio (y) = 0.29787 0.29888
# Poissons Ratio (z) = 0.22456 0.23407
#
# Static dielectric constant tensor:
#      x y z
#    x 3.574090 0.000000 -0.060770 
#    y 0.000000 3.557630 0.000000 
#    z -0.060770 0.000000 3.800930 
# 
# 
# High freq. dielectric constant tensor:
#      x y z
#    x 1.785040 0.000000 -0.008720 
#    y 0.000000 1.771580 0.000000 
#    z -0.008720 0.000000 1.800740 
# 
# From -- ./inp_files/58200.got.cif
#   From: 2010.06.25/outbox.cif.g09.slc.cpg/sg10_30_cif.got.tgz:58200.got - 2010.06.27 22:07:45.
