data_PCOD8064046
_publ_section_title
;
Structure prediction by ZEFSAII (Michael W. Deem and Ramdas Pophale) SiO2 
 PCOD8064046
Probable space group: P 2/M
;
_chemical_formula_sum "Si O2"
_cell_formula_units_Z 28
_cell_length_a 9.686770
_cell_length_b 14.718724
_cell_length_c 14.488905
_cell_angle_alpha 90.000000
_cell_angle_beta 130.799926
_cell_angle_gamma 90.000000
_cell_volume 1563.789316
_symmetry_space_group_name_H-M "P 2/M"
_symmetry_group_IT_number 10
_symmetry_cell_setting 'monoclinic'
loop_
_space_group_symop_operation_xyz
x,y,z
-x,y,-z
-x,-y,-z
x,-y,z
loop_
_atom_site_type_symbol
_atom_site_label
_atom_site_fract_x
_atom_site_fract_y
_atom_site_fract_z
Si Si1 0.979292 0.897004 0.776397
Si Si2 0.548083 0.217266 0.250051
Si Si3 0.567376 0.104933 0.631808
Si Si4 0.888752 0.105381 0.363387
Si Si5 0.616010 0.399424 0.193502
Si Si6 0.848981 0.774045 0.009427
Si Si7 0.226861 0.400445 0.928187
O O1 0.983193 0.877602 0.668918
O O2 0.781038 0.874047 0.729739
O O3 0.031173 0.000000 0.818869
O O4 0.131740 0.840092 0.895460
O O5 0.534171 0.177765 0.347486
O O6 0.698803 0.157351 0.263749
O O7 0.615724 0.322831 0.274147
O O8 0.353503 0.209022 0.115851
O O9 0.500000 0.122679 0.500000
O O10 0.525473 0.000000 0.643011
O O11 0.000000 0.143710 0.500000
O O12 0.841991 0.000000 0.357842
O O13 0.654952 0.500000 0.253675
O O14 0.763571 0.376926 0.177312
O O15 0.425478 0.400943 0.058566
O O16 0.889787 0.673025 0.066172
O O17 0.000000 0.797704 0.000000
O O18 0.135856 0.500000 0.900927
#
# Coordination Sequence:
#
# PCOD8064046 Si02
#       7
#     4   4   4   4   4   4   4
#     4  10  21  35  50  72 108 143 167 213 269 313
#     4  11  20  33  56  80 103 142 175 214 268 320
#     4  10  20  35  54  74  99 138 186 223 256 305
#     4  10  21  37  56  79 103 131 182 236 264 294
#     4   8  15  29  50  77 104 134 172 213 261 314
#     4  11  21  33  48  78 115 142 173 211 260 329
#     4   8  15  29  49  72 104 141 174 211 254 305
#
# _framework density 17.905225000000002
#
# number of rings (size 3 to 8) (size 9 to 14) (size 15 to 20)
#    0.000    2.286    1.429    3.000    0.000    5.714 
#    0.000    1.429    0.000    0.857    0.000    2.000 
#    0.000    0.000    0.000    0.000    0.000    0.000 
#
# Total GULP energy -347028.381761 kJ/mol
# GULP energy per Si atom -12393.870777 kJ/mol
# Density = 1.786447 g / cm^3
# Si number density = 17.905225 Si / 1000 Ang^3
#
#
#
# Elastic Constant Matrix: (Units=GPa)
#
#
# Indices 1 2 3 4 5 6 
#
# 1 63.1611 47.3246 18.8411 0.0000 -11.0208 0.0000
# 2 47.3246 107.3856 45.2876 0.0000 -14.8951 0.0000
# 3 18.8411 45.2876 59.0412 0.0000 -7.4991 0.0000
# 4 0.0000 0.0000 0.0000 7.5553 0.0000 -12.3321
# 5 -11.0208 -14.8951 -7.4991 0.0000 23.5377 0.0000
# 6 0.0000 0.0000 0.0000 -12.3321 0.0000 28.3534
#
#
#
# Elastic Compliance Matrix: (Units=1/GPa)
#
#
# Indices 1 2 3 4 5 6 
#
# 1 0.024194 -0.010310 0.000831 0.000000 0.005069 0.000000
# 2 -0.010310 0.018897 -0.010734 0.000000 0.003712 0.000000
# 3 0.000831 -0.010734 0.025108 0.000000 0.001596 0.000000
# 4 0.000000 0.000000 0.000000 0.456314 0.000000 0.198470
# 5 0.005069 0.003712 0.001596 0.000000 0.047715 0.000000
# 6 0.000000 0.000000 0.000000 0.198470 0.000000 0.121592
#
#
# Mechanical properties :
#
#
# Convention : Reuss Voigt Hill
#
# Bulk Modulus (GPa) = 36.00402 50.27715 43.14059
# Shear Modulus (GPa) = 6.72492 19.76492 13.24492
#
# Velocity S-wave (km/s) = 1.94010 3.32605 2.72274
# Velocity P-wave (km/s) = 5.01701 6.54910 5.83357
#
# Compressibility (1/GPa) = 0.02777467
#
# Stress axis : x y z
#
# Youngs Moduli (GPa) = 41.33318 52.91790 39.82771
#
# Poissons Ratio (x) = 0.54556 -0.03310
# Poissons Ratio (y) = 0.42613 0.42750
# Poissons Ratio (z) = -0.03435 0.56801
#
# Static dielectric constant tensor:
#      x y z
#    x 3.445380 0.000000 -0.030390 
#    y 0.000000 3.636690 0.000000 
#    z -0.030390 0.000000 3.084130 
# 
# 
# High freq. dielectric constant tensor:
#      x y z
#    x 1.693940 0.000000 -0.006980 
#    y 0.000000 1.692400 0.000000 
#    z -0.006980 0.000000 1.663580 
# 
# From -- ./inp_files/51406.got.cif
#   From: 2010.06.25/outbox.cif.g09.slc.cpg/sg10_26_cif.got.tgz:51406.got - 2010.06.27 22:07:45.
