data_PCOD8064153
_publ_section_title
;
Structure prediction by ZEFSAII (Michael W. Deem and Ramdas Pophale) SiO2 
 PCOD8064153
Probable space group: P 2/M
;
_chemical_formula_sum "Si O2"
_cell_formula_units_Z 32
_cell_length_a 21.823823
_cell_length_b 8.592753
_cell_length_c 27.828256
_cell_angle_alpha 90.000000
_cell_angle_beta 161.267293
_cell_angle_gamma 90.000000
_cell_volume 1675.953670
_symmetry_space_group_name_H-M "P 2/M"
_symmetry_group_IT_number 10
_symmetry_cell_setting 'monoclinic'
loop_
_space_group_symop_operation_xyz
x,y,z
-x,y,-z
-x,-y,-z
x,-y,z
loop_
_atom_site_type_symbol
_atom_site_label
_atom_site_fract_x
_atom_site_fract_y
_atom_site_fract_z
Si Si1 0.982065 0.815507 0.661898
Si Si2 0.036429 0.318399 0.848954
Si Si3 0.956197 0.683966 0.539789
Si Si4 0.716952 0.817084 0.279967
Si Si5 0.052531 0.183956 0.962970
Si Si6 0.282620 0.183133 0.447265
Si Si7 0.693822 0.316527 0.036966
Si Si8 0.705616 0.815326 0.768026
O O1 0.182752 0.737908 0.825628
O O2 0.911171 0.745877 0.559213
O O3 0.821894 0.765755 0.581448
O O4 0.007114 0.000000 0.677286
O O5 0.006509 0.500000 0.824023
O O6 0.198811 0.265278 0.932078
O O7 0.101770 0.267622 0.950013
O O8 0.834035 0.241443 0.685498
O O9 0.985741 0.500000 0.561601
O O10 0.777127 0.727826 0.373229
O O11 0.147419 0.766096 0.662913
O O12 0.737243 0.000000 0.303665
O O13 0.503561 0.774201 0.107374
O O14 0.843944 0.236755 0.827262
O O15 0.060463 0.000000 0.960978
O O16 0.210103 0.240935 0.118345
O O17 0.495156 0.256660 0.604245
O O18 0.297425 0.000000 0.454613
O O19 0.657390 0.500000 0.012490
O O20 0.698457 0.000000 0.763942
#
# Coordination Sequence:
#
# PCOD8064153 Si02
#       8
#     4   4   4   4   4   4   4   4
#     4  10  20  35  55  81 108 138 180 228 268 310
#     4  10  21  35  51  75 108 139 172 213 260 314
#     4  11  22  38  58  81 112 147 177 211 262 322
#     4  11  22  38  59  83 109 138 178 226 264 305
#     4   9  17  32  54  76 102 135 175 218 262 311
#     4   9  18  34  55  76 102 136 176 218 262 309
#     4  10  21  38  56  77 107 143 178 217 269 327
#     4   8  16  32  53  77 101 132 175 221 262 308
#
# _framework density 19.093606000000001
#
# number of rings (size 3 to 8) (size 9 to 14) (size 15 to 20)
#    0.000    2.250    0.000    4.875    0.000    4.000 
#    0.000    8.750    0.000    0.000    0.000    0.000 
#    0.000    0.000    0.000    0.000    0.000    0.000 
#
# Total GULP energy -396859.294864 kJ/mol
# GULP energy per Si atom -12401.852965 kJ/mol
# Density = 1.905015 g / cm^3
# Si number density = 19.093606 Si / 1000 Ang^3
#
#
#
# Elastic Constant Matrix: (Units=GPa)
#
#
# Indices 1 2 3 4 5 6 
#
# 1 44.0185 13.5999 -10.5875 0.0000 -15.4038 0.0000
# 2 13.5999 40.8818 11.1806 0.0000 5.2816 0.0000
# 3 -10.5875 11.1806 65.7997 0.0000 12.6437 0.0000
# 4 0.0000 0.0000 0.0000 18.2537 0.0000 -3.5445
# 5 -15.4038 5.2816 12.6437 0.0000 23.0198 0.0000
# 6 0.0000 0.0000 0.0000 -3.5445 0.0000 28.0909
#
#
#
# Elastic Compliance Matrix: (Units=1/GPa)
#
#
# Indices 1 2 3 4 5 6 
#
# 1 0.038848 -0.017589 0.003878 0.000000 0.027901 0.000000
# 2 -0.017589 0.033934 -0.005409 0.000000 -0.016584 0.000000
# 3 0.003878 -0.005409 0.017892 0.000000 -0.005991 0.000000
# 4 0.000000 0.000000 0.000000 0.056159 0.000000 0.007086
# 5 0.027901 -0.016584 -0.005991 0.000000 0.069206 0.000000
# 6 0.000000 0.000000 0.000000 0.007086 0.000000 0.036493
#
#
# Mechanical properties :
#
#
# Convention : Reuss Voigt Hill
#
# Bulk Modulus (GPa) = 19.07138 19.89843 19.48490
# Shear Modulus (GPa) = 16.22059 22.97334 19.59697
#
# Velocity S-wave (km/s) = 2.91783 3.47247 3.20717
# Velocity P-wave (km/s) = 4.62187 5.14991 4.89302
#
# Compressibility (1/GPa) = 0.05243459
#
# Stress axis : x y z
#
# Youngs Moduli (GPa) = 25.74121 29.46921 55.89088
#
# Poissons Ratio (x) = 0.51832 -0.21676
# Poissons Ratio (y) = 0.45275 0.30233
# Poissons Ratio (z) = -0.09983 0.15941
#
# Static dielectric constant tensor:
#      x y z
#    x 3.565630 0.000000 0.036130 
#    y 0.000000 3.356060 0.000000 
#    z 0.036130 0.000000 3.701380 
# 
# 
# High freq. dielectric constant tensor:
#      x y z
#    x 1.740860 0.000000 -0.003300 
#    y 0.000000 1.735660 0.000000 
#    z -0.003300 0.000000 1.746270 
# 
# From -- ./inp_files/93808.got.cif
#   From: 2010.06.25/outbox.cif.g09.slc.cpg/sg10_47_cif.got.tgz:93808.got - 2010.06.27 22:07:45.
