data_PCOD8064688
_publ_section_title
;
Structure prediction by ZEFSAII (Michael W. Deem and Ramdas Pophale) SiO2 
 PCOD8064688
Probable space group: P 2/M
;
_chemical_formula_sum "Si O2"
_cell_formula_units_Z 28
_cell_length_a 29.236571
_cell_length_b 9.032919
_cell_length_c 9.172078
_cell_angle_alpha 90.000000
_cell_angle_beta 141.946441
_cell_angle_gamma 90.000000
_cell_volume 1493.081062
_symmetry_space_group_name_H-M "P 2/M"
_symmetry_group_IT_number 10
_symmetry_cell_setting 'monoclinic'
loop_
_space_group_symop_operation_xyz
x,y,z
-x,y,-z
-x,-y,-z
x,-y,z
loop_
_atom_site_type_symbol
_atom_site_label
_atom_site_fract_x
_atom_site_fract_y
_atom_site_fract_z
Si Si1 0.854407 0.172070 0.964820
Si Si2 0.427776 0.174011 0.910678
Si Si3 0.142063 0.828645 0.687892
Si Si4 0.291403 0.326287 0.065655
Si Si5 0.703826 0.674990 0.590131
Si Si6 0.569477 0.328100 0.777182
Si Si7 0.999053 0.176201 0.162205
O O1 0.872435 0.198557 0.178780
O O2 0.924499 0.234542 0.051737
O O3 0.838910 0.000000 0.892824
O O4 0.783278 0.265405 0.736182
O O5 0.357837 0.254767 0.666292
O O6 0.413069 0.000000 0.873207
O O7 0.500000 0.217238 0.000000
O O8 0.439955 0.228565 0.104913
O O9 0.071695 0.760992 0.425998
O O10 0.152457 0.000000 0.676958
O O11 0.216312 0.748347 0.819738
O O12 0.279028 0.500000 0.031288
O O13 0.310342 0.275505 0.278173
O O14 0.357460 0.276504 0.125997
O O15 0.701394 0.500000 0.565115
O O16 0.500000 0.298146 0.500000
O O17 0.574137 0.500000 0.834268
O O18 0.000023 0.000000 0.173344
O O19 0.000000 0.234911 0.000000
#
# Coordination Sequence:
#
# PCOD8064688 Si02
#       7
#     4   4   4   4   4   4   4
#     4   9  17  31  51  74 102 134 171 216 262 310
#     4  11  24  39  56  81 111 141 176 219 264 310
#     4   9  17  30  50  74 100 135 174 211 259 316
#     4   9  19  35  55  80 107 136 174 220 266 314
#     4  10  20  36  58  81 107 140 177 216 263 319
#     4  10  21  38  59  81 107 142 181 218 261 315
#     4   9  17  29  47  72 100 132 173 218 261 308
#
# _framework density 18.753169
#
# number of rings (size 3 to 8) (size 9 to 14) (size 15 to 20)
#    0.000    2.429    0.000    2.143    0.000    6.571 
#    0.000    2.143    0.000    4.286    0.000    0.000 
#    0.000    0.000    0.000    0.000    0.000    0.000 
#
# Total GULP energy -347278.576983 kJ/mol
# GULP energy per Si atom -12402.806321 kJ/mol
# Density = 1.871049 g / cm^3
# Si number density = 18.753169 Si / 1000 Ang^3
#
#
#
# Elastic Constant Matrix: (Units=GPa)
#
#
# Indices 1 2 3 4 5 6 
#
# 1 146.3837 41.0300 70.9815 0.0000 21.4393 0.0000
# 2 41.0300 44.2550 42.4741 0.0000 6.5700 0.0000
# 3 70.9815 42.4741 142.1479 0.0000 16.3799 0.0000
# 4 0.0000 0.0000 0.0000 25.8952 0.0000 0.3607
# 5 21.4393 6.5700 16.3799 0.0000 28.3822 0.0000
# 6 0.0000 0.0000 0.0000 0.3607 0.0000 23.6341
#
#
#
# Elastic Compliance Matrix: (Units=1/GPa)
#
#
# Indices 1 2 3 4 5 6 
#
# 1 0.010770 -0.006499 -0.002862 0.000000 -0.004979 0.000000
# 2 -0.006499 0.035710 -0.007540 0.000000 0.000994 0.000000
# 3 -0.002862 -0.007540 0.010998 0.000000 -0.002440 0.000000
# 4 0.000000 0.000000 0.000000 0.038625 0.000000 -0.000590
# 5 -0.004979 0.000994 -0.002440 0.000000 0.040172 0.000000
# 6 0.000000 0.000000 0.000000 -0.000590 0.000000 0.042321
#
#
# Mechanical properties :
#
#
# Convention : Reuss Voigt Hill
#
# Bulk Modulus (GPa) = 42.23540 71.30642 56.77091
# Shear Modulus (GPa) = 22.69719 27.46904 25.08311
#
# Velocity S-wave (km/s) = 3.48273 3.83138 3.66121
# Velocity P-wave (km/s) = 6.22440 7.59466 6.94341
#
# Compressibility (1/GPa) = 0.02367682
#
# Stress axis : x y z
#
# Youngs Moduli (GPa) = 92.84886 28.00313 90.92319
#
# Poissons Ratio (x) = 0.18199 0.26026
# Poissons Ratio (y) = 0.60341 0.68553
# Poissons Ratio (z) = 0.26577 0.21113
#
# Static dielectric constant tensor:
#      x y z
#    x 3.591420 0.000000 0.113540 
#    y 0.000000 3.246770 0.000000 
#    z 0.113540 0.000000 3.543230 
# 
# 
# High freq. dielectric constant tensor:
#      x y z
#    x 1.734060 0.000000 0.008320 
#    y 0.000000 1.707410 0.000000 
#    z 0.008320 0.000000 1.738610 
# 
# From -- ./inp_files/37064.got.cif
#   From: 2010.06.25/outbox.cif.g09.slc.cpg/sg10_19_cif.got.tgz:37064.got - 2010.06.27 22:07:45.
