data_PCOD8064522
_publ_section_title
;
Structure prediction by ZEFSAII (Michael W. Deem and Ramdas Pophale) SiO2 
 PCOD8064522
Probable space group: P 2/M
;
_chemical_formula_sum "Si O2"
_cell_formula_units_Z 32
_cell_length_a 10.738244
_cell_length_b 9.067568
_cell_length_c 31.137469
_cell_angle_alpha 90.000000
_cell_angle_beta 31.229895
_cell_angle_gamma 90.000000
_cell_volume 1571.931955
_symmetry_space_group_name_H-M "P 2/M"
_symmetry_group_IT_number 10
_symmetry_cell_setting 'monoclinic'
loop_
_space_group_symop_operation_xyz
x,y,z
-x,y,-z
-x,-y,-z
x,-y,z
loop_
_atom_site_type_symbol
_atom_site_label
_atom_site_fract_x
_atom_site_fract_y
_atom_site_fract_z
Si Si1 0.759747 0.669531 0.547536
Si Si2 0.293069 0.824856 0.526726
Si Si3 0.601855 0.170132 0.054084
Si Si4 0.638561 0.331115 0.130712
Si Si5 0.983211 0.330045 0.104907
Si Si6 0.898055 0.670382 0.694514
Si Si7 0.267951 0.332111 0.734559
Si Si8 0.931608 0.829462 0.772490
O O1 0.802062 0.500000 0.521057
O O2 0.671969 0.758517 0.531256
O O3 0.553239 0.682187 0.644539
O O4 0.000000 0.732397 0.500000
O O5 0.500000 0.775485 0.500000
O O6 0.037142 0.765594 0.618262
O O7 0.288449 0.000000 0.524108
O O8 0.672022 0.228565 0.080109
O O9 0.320449 0.202225 0.129051
O O10 0.661840 0.000000 0.034898
O O11 0.762097 0.245136 0.969626
O O12 0.660170 0.500000 0.108837
O O13 0.847652 0.287141 0.101400
O O14 0.385156 0.306870 0.229545
O O15 0.048854 0.500000 0.087516
O O16 0.806673 0.286397 0.195530
O O17 0.974248 0.500000 0.668001
O O18 0.966325 0.727171 0.721274
O O19 0.184372 0.500000 0.748673
O O20 0.144241 0.212447 0.741064
O O21 0.951769 0.000000 0.752492
#
# Coordination Sequence:
#
# PCOD8064522 Si02
#       8
#     4   4   4   4   4   4   4   4
#     4  10  23  42  66  91 121 159 201 253 308 363
#     4  11  24  40  60  89 125 160 199 249 304 363
#     4  10  21  36  55  82 115 151 191 235 285 339
#     4   9  19  35  57  83 113 147 185 234 289 340
#     4  10  21  36  56  82 114 149 190 237 285 341
#     4  10  20  35  61  89 113 146 193 242 290 345
#     4  10  22  39  60  85 113 149 194 240 289 348
#     4  10  21  38  58  82 119 157 191 237 291 344
#
# _framework density 20.357113999999999
#
# number of rings (size 3 to 8) (size 9 to 14) (size 15 to 20)
#    0.000    2.000    0.000    2.625    1.750    8.750 
#    0.000    2.500    0.000    0.000    0.000    0.000 
#    0.000    0.000    0.000    0.000    0.000    0.000 
#
# Total GULP energy -396815.077707 kJ/mol
# GULP energy per Si atom -12400.471178 kJ/mol
# Density = 2.031078 g / cm^3
# Si number density = 20.357114 Si / 1000 Ang^3
#
#
#
# Elastic Constant Matrix: (Units=GPa)
#
#
# Indices 1 2 3 4 5 6 
#
# 1 57.7191 26.2032 19.0569 0.0000 -9.1548 0.0000
# 2 26.2032 61.8467 36.0749 0.0000 -1.4271 0.0000
# 3 19.0569 36.0749 126.1472 0.0000 -2.5367 0.0000
# 4 0.0000 0.0000 0.0000 29.0505 0.0000 -3.7494
# 5 -9.1548 -1.4271 -2.5367 0.0000 22.2895 0.0000
# 6 0.0000 0.0000 0.0000 -3.7494 0.0000 20.9059
#
#
#
# Elastic Compliance Matrix: (Units=1/GPa)
#
#
# Indices 1 2 3 4 5 6 
#
# 1 0.023127 -0.009194 -0.000687 0.000000 0.008832 0.000000
# 2 -0.009194 0.023069 -0.005267 0.000000 -0.002899 0.000000
# 3 -0.000687 -0.005267 0.009547 0.000000 0.000467 0.000000
# 4 0.000000 0.000000 0.000000 0.035239 0.000000 0.006320
# 5 0.008832 -0.002899 0.000467 0.000000 0.048359 0.000000
# 6 0.000000 0.000000 0.000000 0.006320 0.000000 0.048967
#
#
# Mechanical properties :
#
#
# Convention : Reuss Voigt Hill
#
# Bulk Modulus (GPa) = 39.29612 45.37590 42.33601
# Shear Modulus (GPa) = 22.01820 25.40771 23.71295
#
# Velocity S-wave (km/s) = 3.29233 3.53668 3.41669
# Velocity P-wave (km/s) = 5.81360 6.24626 6.03381
#
# Compressibility (1/GPa) = 0.02544781
#
# Stress axis : x y z
#
# Youngs Moduli (GPa) = 43.24004 43.34743 104.75006
#
# Poissons Ratio (x) = 0.39853 0.07195
# Poissons Ratio (y) = 0.39754 0.55168
# Poissons Ratio (z) = 0.02970 0.22830
#
# Static dielectric constant tensor:
#      x y z
#    x 3.572690 0.000000 -0.084940 
#    y 0.000000 3.633840 0.000000 
#    z -0.084940 0.000000 3.934670 
# 
# 
# High freq. dielectric constant tensor:
#      x y z
#    x 1.781100 0.000000 -0.007600 
#    y 0.000000 1.790720 0.000000 
#    z -0.007600 0.000000 1.812680 
# 
# From -- ./inp_files/94923.got.cif
#   From: 2010.06.25/outbox.cif.g09.slc.cpg/sg10_48_cif.got.tgz:94923.got - 2010.06.27 22:07:45.
