data_PCOD8064298
_publ_section_title
;
Structure prediction by ZEFSAII (Michael W. Deem and Ramdas Pophale) SiO2 
 PCOD8064298
Probable space group: P 2/M
;
_chemical_formula_sum "Si O2"
_cell_formula_units_Z 28
_cell_length_a 9.343189
_cell_length_b 14.631511
_cell_length_c 12.293401
_cell_angle_alpha 90.000000
_cell_angle_beta 120.141538
_cell_angle_gamma 90.000000
_cell_volume 1453.335291
_symmetry_space_group_name_H-M "P 2/M"
_symmetry_group_IT_number 10
_symmetry_cell_setting 'monoclinic'
loop_
_space_group_symop_operation_xyz
x,y,z
-x,y,-z
-x,-y,-z
x,-y,z
loop_
_atom_site_type_symbol
_atom_site_label
_atom_site_fract_x
_atom_site_fract_y
_atom_site_fract_z
Si Si1 0.946426 0.605956 0.101878
Si Si2 0.275891 0.603069 0.345480
Si Si3 0.480855 0.710177 0.702027
Si Si4 0.190026 0.895684 0.081709
Si Si5 0.182391 0.397209 0.557474
Si Si6 0.536564 0.102198 0.642736
Si Si7 0.654832 0.263381 0.980190
O O1 0.897580 0.500000 0.102513
O O2 0.101318 0.636545 0.232835
O O3 0.795549 0.670326 0.082547
O O4 0.000000 0.625272 0.000000
O O5 0.316609 0.500000 0.321063
O O6 0.427323 0.667676 0.368193
O O7 0.257002 0.606467 0.466377
O O8 0.309724 0.663490 0.674050
O O9 0.435181 0.816943 0.662881
O O10 0.603304 0.690506 0.847413
O O11 0.273671 0.884282 0.236109
O O12 0.283825 0.838415 0.024623
O O13 0.202228 0.000000 0.048934
O O14 0.000000 0.862265 0.000000
O O15 0.178136 0.500000 0.602743
O O16 0.000000 0.354316 0.500000
O O17 0.500000 0.112934 0.500000
O O18 0.476622 0.000000 0.654324
O O19 0.500000 0.254823 0.000000
#
# Coordination Sequence:
#
# PCOD8064298 Si02
#       7
#     4   4   4   4   4   4   4
#     4  10  20  36  55  78 108 143 184 232 280 328
#     4  10  20  35  57  80 105 141 185 229 273 327
#     4  11  21  36  57  80 106 145 187 227 273 331
#     4   9  19  37  61  86 112 144 187 236 282 335
#     4  10  22  37  54  80 112 144 181 229 279 330
#     4   9  18  33  55  85 113 138 176 227 280 326
#     4  11  24  36  53  82 113 148 184 228 282 340
#
# _framework density 19.266030000000001
#
# number of rings (size 3 to 8) (size 9 to 14) (size 15 to 20)
#    0.000    2.000    1.429    2.143    4.000    2.286 
#    0.000    0.000    0.000    0.429    0.000    0.000 
#    0.000    0.000    0.000    0.000    0.000    0.000 
#
# Total GULP energy -346923.839463 kJ/mol
# GULP energy per Si atom -12390.137124 kJ/mol
# Density = 1.922218 g / cm^3
# Si number density = 19.266030 Si / 1000 Ang^3
#
#
#
# Elastic Constant Matrix: (Units=GPa)
#
#
# Indices 1 2 3 4 5 6 
#
# 1 113.5266 54.8665 19.6789 0.0000 20.2907 0.0000
# 2 54.8665 95.1776 26.2694 0.0000 19.1149 0.0000
# 3 19.6789 26.2694 61.7386 0.0000 19.8814 0.0000
# 4 0.0000 0.0000 0.0000 17.9828 0.0000 7.0104
# 5 20.2907 19.1149 19.8814 0.0000 30.5868 0.0000
# 6 0.0000 0.0000 0.0000 7.0104 0.0000 23.5144
#
#
#
# Elastic Compliance Matrix: (Units=1/GPa)
#
#
# Indices 1 2 3 4 5 6 
#
# 1 0.012710 -0.006466 0.000144 0.000000 -0.004484 0.000000
# 2 -0.006466 0.015899 -0.003650 0.000000 -0.003274 0.000000
# 3 0.000144 -0.003650 0.021501 0.000000 -0.011791 0.000000
# 4 0.000000 0.000000 0.000000 0.062922 0.000000 -0.018759
# 5 -0.004484 -0.003274 -0.011791 0.000000 0.045379 0.000000
# 6 0.000000 0.000000 0.000000 -0.018759 0.000000 0.048120
#
#
# Mechanical properties :
#
#
# Convention : Reuss Voigt Hill
#
# Bulk Modulus (GPa) = 33.14866 52.45249 42.80057
# Shear Modulus (GPa) = 21.13910 25.72535 23.43222
#
# Velocity S-wave (km/s) = 3.31603 3.65810 3.49125
# Velocity P-wave (km/s) = 5.64841 6.71764 6.20609
#
# Compressibility (1/GPa) = 0.03016713
#
# Stress axis : x y z
#
# Youngs Moduli (GPa) = 78.67819 62.89715 46.50928
#
# Poissons Ratio (x) = 0.40669 -0.00670
# Poissons Ratio (y) = 0.50873 0.16974
# Poissons Ratio (z) = -0.01133 0.22954
#
# Static dielectric constant tensor:
#      x y z
#    x 3.354580 0.000000 0.343130 
#    y 0.000000 3.701400 0.000000 
#    z 0.343130 0.000000 3.924030 
# 
# 
# High freq. dielectric constant tensor:
#      x y z
#    x 1.718960 0.000000 0.021250 
#    y 0.000000 1.753410 0.000000 
#    z 0.021250 0.000000 1.762530 
# 
# From -- ./inp_files/25022.got.cif
#   From: 2010.06.25/outbox.cif.g09.slc.cpg/sg10_13_cif.got.tgz:25022.got - 2010.06.27 22:07:45.
