data_PCOD8064551
_publ_section_title
;
Structure prediction by ZEFSAII (Michael W. Deem and Ramdas Pophale) SiO2 
 PCOD8064551
Probable space group: P 2/M
;
_chemical_formula_sum "Si O2"
_cell_formula_units_Z 32
_cell_length_a 20.886775
_cell_length_b 9.787144
_cell_length_c 26.310338
_cell_angle_alpha 90.000000
_cell_angle_beta 19.726425
_cell_angle_gamma 90.000000
_cell_volume 1815.371204
_symmetry_space_group_name_H-M "P 2/M"
_symmetry_group_IT_number 10
_symmetry_cell_setting 'monoclinic'
loop_
_space_group_symop_operation_xyz
x,y,z
-x,y,-z
-x,-y,-z
x,-y,z
loop_
_atom_site_type_symbol
_atom_site_label
_atom_site_fract_x
_atom_site_fract_y
_atom_site_fract_z
Si Si1 0.572612 0.346942 0.365619
Si Si2 0.983681 0.841802 0.228349
Si Si3 0.411004 0.655818 0.118370
Si Si4 0.331578 0.843280 0.355907
Si Si5 0.803286 0.346859 0.287018
Si Si6 0.382620 0.842058 0.433378
Si Si7 0.590764 0.843134 0.068606
Si Si8 0.982953 0.655322 0.455379
O O1 0.602534 0.500000 0.321793
O O2 0.751656 0.305163 0.267450
O O3 0.386232 0.341447 0.538752
O O4 0.549141 0.243008 0.336446
O O5 0.953767 0.757560 0.198633
O O6 0.825901 0.805589 0.388635
O O7 0.976790 0.000000 0.218058
O O8 0.188275 0.802534 0.098114
O O9 0.474811 0.500000 0.081836
O O10 0.475236 0.748152 0.116994
O O11 0.187056 0.664382 0.276957
O O12 0.500000 0.712239 0.000000
O O13 0.392650 0.802309 0.366935
O O14 0.509993 0.819368 0.185600
O O15 0.155948 0.750179 0.472148
O O16 0.262164 0.000000 0.406151
O O17 0.888694 0.500000 0.224408
O O18 0.428690 0.000000 0.408233
O O19 0.562149 0.000000 0.073131
O O20 0.904259 0.500000 0.514119
O O21 0.000000 0.709979 0.500000
#
# Coordination Sequence:
#
# PCOD8064551 Si02
#       8
#     4   4   4   4   4   4   4   4
#     4   8  14  26  45  70  99 126 157 198 242 287
#     4   9  18  31  47  70  99 127 160 201 242 286
#     4  10  22  38  54  75 101 127 159 202 249 293
#     4  10  21  35  52  73  99 132 166 201 243 291
#     4   8  14  26  45  70  98 127 158 196 242 289
#     4   9  18  31  47  71  99 126 160 202 242 283
#     4  10  21  36  52  72 100 133 165 199 243 294
#     4  10  20  36  55  74  97 126 163 204 242 288
#
# _framework density 17.627248000000002
#
# number of rings (size 3 to 8) (size 9 to 14) (size 15 to 20)
#    0.000    2.750    1.250    0.750    1.750    2.500 
#    0.000    2.500    0.000    0.750    0.000    5.250 
#    0.000    0.000    0.000    0.000    0.000    0.000 
#
# Total GULP energy -396756.341789 kJ/mol
# GULP energy per Si atom -12398.635681 kJ/mol
# Density = 1.758713 g / cm^3
# Si number density = 17.627248 Si / 1000 Ang^3
#
#
#
# Elastic Constant Matrix: (Units=GPa)
#
#
# Indices 1 2 3 4 5 6 
#
# 1 115.2767 59.2984 18.7410 0.0000 8.9731 0.0000
# 2 59.2984 70.9270 14.8563 0.0000 -2.7751 0.0000
# 3 18.7410 14.8563 40.4620 0.0000 10.0880 0.0000
# 4 0.0000 0.0000 0.0000 12.9430 0.0000 -13.3245
# 5 8.9731 -2.7751 10.0880 0.0000 21.2907 0.0000
# 6 0.0000 0.0000 0.0000 -13.3245 0.0000 28.6364
#
#
#
# Elastic Compliance Matrix: (Units=1/GPa)
#
#
# Indices 1 2 3 4 5 6 
#
# 1 0.016760 -0.014286 -0.000331 0.000000 -0.008769 0.000000
# 2 -0.014286 0.027990 -0.006884 0.000000 0.012931 0.000000
# 3 -0.000331 -0.006884 0.031280 0.000000 -0.015579 0.000000
# 4 0.000000 0.000000 0.000000 0.148298 0.000000 0.069003
# 5 -0.008769 0.012931 -0.015579 0.000000 0.059731 0.000000
# 6 0.000000 0.000000 0.000000 0.069003 0.000000 0.067027
#
#
# Mechanical properties :
#
#
# Convention : Reuss Voigt Hill
#
# Bulk Modulus (GPa) = 30.27798 45.82856 38.05327
# Shear Modulus (GPa) = 12.34268 21.49203 16.91735
#
# Velocity S-wave (km/s) = 2.64901 3.49556 3.10131
# Velocity P-wave (km/s) = 5.15465 6.50747 5.87016
#
# Compressibility (1/GPa) = 0.03302730
#
# Stress axis : x y z
#
# Youngs Moduli (GPa) = 59.66696 35.72659 31.96952
#
# Poissons Ratio (x) = 0.51038 0.01059
# Poissons Ratio (y) = 0.85238 0.22009
# Poissons Ratio (z) = 0.01977 0.24596
#
# Static dielectric constant tensor:
#      x y z
#    x 3.377730 0.000000 -0.018760 
#    y 0.000000 3.362400 0.000000 
#    z -0.018760 0.000000 3.127170 
# 
# 
# High freq. dielectric constant tensor:
#      x y z
#    x 1.680380 0.000000 -0.002030 
#    y 0.000000 1.682100 0.000000 
#    z -0.002030 0.000000 1.658120 
# 
# From -- ./inp_files/93636.got.cif
#   From: 2010.06.25/outbox.cif.g09.slc.cpg/sg10_47_cif.got.tgz:93636.got - 2010.06.27 22:07:45.
