data_PCOD8064142
_publ_section_title
;
Structure prediction by ZEFSAII (Michael W. Deem and Ramdas Pophale) SiO2 
 PCOD8064142
Probable space group: P 2/M
;
_chemical_formula_sum "Si O2"
_cell_formula_units_Z 24
_cell_length_a 14.862737
_cell_length_b 9.173051
_cell_length_c 15.048851
_cell_angle_alpha 90.000000
_cell_angle_beta 39.929927
_cell_angle_gamma 90.000000
_cell_volume 1316.890486
_symmetry_space_group_name_H-M "P 2/M"
_symmetry_group_IT_number 10
_symmetry_cell_setting 'monoclinic'
loop_
_space_group_symop_operation_xyz
x,y,z
-x,y,-z
-x,-y,-z
x,-y,z
loop_
_atom_site_type_symbol
_atom_site_label
_atom_site_fract_x
_atom_site_fract_y
_atom_site_fract_z
Si Si1 0.591184 0.826723 0.103863
Si Si2 0.302521 0.668176 0.314270
Si Si3 0.193546 0.172118 0.914629
Si Si4 0.094119 0.670610 0.627997
Si Si5 0.219217 0.330736 0.177570
Si Si6 0.105848 0.172328 0.793572
O O1 0.434908 0.769705 0.230848
O O2 0.673778 0.772248 0.129580
O O3 0.590867 0.000000 0.095922
O O4 0.664144 0.762336 0.961347
O O5 0.347905 0.500000 0.290331
O O6 0.184859 0.713483 0.473933
O O7 0.236929 0.697893 0.268158
O O8 0.203338 0.220278 0.803654
O O9 0.183208 0.000000 0.924947
O O10 0.051109 0.230547 0.067563
O O11 0.098703 0.500000 0.642092
O O12 0.160383 0.750288 0.663333
O O13 0.935168 0.723725 0.732412
O O14 0.241562 0.500000 0.137186
O O15 0.110936 0.000000 0.774660
#
# Coordination Sequence:
#
# PCOD8064142 Si02
#       6
#     4   4   4   4   4   4
#     4  11  21  35  55  81 108 135 173 220 262 304
#     4  10  22  38  53  73 108 147 176 208 258 317
#     4   8  16  31  53  78 104 135 170 210 259 313
#     4  10  20  35  55  80 106 135 176 221 259 301
#     4  10  20  36  57  77 101 140 182 215 256 310
#     4   9  16  32  56  78 102 135 172 213 261 310
#
# _framework density 18.22475
#
# number of rings (size 3 to 8) (size 9 to 14) (size 15 to 20)
#    0.000    2.333    1.667    2.500    0.000    5.333 
#    0.000    4.167    0.000    8.000    0.000    0.000 
#    0.000    0.000    0.000    0.000    0.000    0.000 
#
# Total GULP energy -297586.518430 kJ/mol
# GULP energy per Si atom -12399.438268 kJ/mol
# Density = 1.818327 g / cm^3
# Si number density = 18.224750 Si / 1000 Ang^3
#
#
#
# Elastic Constant Matrix: (Units=GPa)
#
#
# Indices 1 2 3 4 5 6 
#
# 1 98.3348 36.9239 58.3185 0.0000 29.3388 0.0000
# 2 36.9239 44.0433 29.8568 0.0000 3.7703 0.0000
# 3 58.3185 29.8568 51.8904 0.0000 -3.3972 0.0000
# 4 0.0000 0.0000 0.0000 12.4702 0.0000 8.9294
# 5 29.3388 3.7703 -3.3972 0.0000 23.8706 0.0000
# 6 0.0000 0.0000 0.0000 8.9294 0.0000 25.1230
#
#
#
# Elastic Compliance Matrix: (Units=1/GPa)
#
#
# Indices 1 2 3 4 5 6 
#
# 1 -0.068735 -0.012567 0.090989 0.000000 0.099415 0.000000
# 2 -0.012567 0.036951 -0.006569 0.000000 0.008675 0.000000
# 3 0.090989 -0.006569 -0.087277 0.000000 -0.123216 0.000000
# 4 0.000000 0.000000 0.000000 0.107568 0.000000 -0.038233
# 5 0.099415 0.008675 -0.123216 0.000000 -0.099202 0.000000
# 6 0.000000 0.000000 0.000000 -0.038233 0.000000 0.053393
#
#
# Mechanical properties :
#
#
# Convention : Reuss Voigt Hill
#
# Bulk Modulus (GPa) = 40.57516 49.38522 44.98019
# Shear Modulus (GPa) = -25.93481 16.90405 -4.51538
#
# Velocity S-wave (km/s) = -3.77643 3.04885 -1.57575
# Velocity P-wave (km/s) = 1.81572 6.28893 4.62858
#
# Compressibility (1/GPa) = 0.02464562
#
# Stress axis : x y z
#
# Youngs Moduli (GPa) = -14.54867 27.06258 -11.45782
#
# Poissons Ratio (x) = 0.34011 1.04254
# Poissons Ratio (y) = -0.18284 -0.07527
# Poissons Ratio (z) = 1.32377 0.17778
#
# Static dielectric constant tensor:
#      x y z
#    x 3.690970 0.000000 0.093680 
#    y 0.000000 3.137350 0.000000 
#    z 0.093680 0.000000 3.263350 
# 
# 
# High freq. dielectric constant tensor:
#      x y z
#    x 1.719650 0.000000 0.012510 
#    y 0.000000 1.685950 0.000000 
#    z 0.012510 0.000000 1.695740 
# 
# From -- ./inp_files/33786.got.cif
#   From: 2010.06.25/outbox.cif.g09.slc.cpg/sg10_17_cif.got.tgz:33786.got - 2010.06.27 22:07:45.
