data_PCOD8064198
_publ_section_title
;
Structure prediction by ZEFSAII (Michael W. Deem and Ramdas Pophale) SiO2 
 PCOD8064198
Probable space group: P 2/M
;
_chemical_formula_sum "Si O2"
_cell_formula_units_Z 28
_cell_length_a 26.998711
_cell_length_b 8.603161
_cell_length_c 9.482648
_cell_angle_alpha 90.000000
_cell_angle_beta 138.428470
_cell_angle_gamma 90.000000
_cell_volume 1461.528686
_symmetry_space_group_name_H-M "P 2/M"
_symmetry_group_IT_number 10
_symmetry_cell_setting 'monoclinic'
loop_
_space_group_symop_operation_xyz
x,y,z
-x,y,-z
-x,-y,-z
x,-y,z
loop_
_atom_site_type_symbol
_atom_site_label
_atom_site_fract_x
_atom_site_fract_y
_atom_site_fract_z
Si Si1 0.069523 0.828876 0.746468
Si Si2 0.585178 0.185104 0.670772
Si Si3 0.930493 0.316088 0.951002
Si Si4 0.203963 0.327400 0.922465
Si Si5 0.767911 0.183575 0.547509
Si Si6 0.700506 0.323583 0.132631
Si Si7 0.312082 0.823426 0.349648
O O1 0.051640 0.759155 0.860793
O O2 0.117740 0.707694 0.758633
O O3 0.000000 0.850912 0.500000
O O4 0.106359 0.000000 0.847104
O O5 0.500000 0.238901 0.500000
O O6 0.616433 0.246787 0.584314
O O7 0.594377 0.000000 0.700468
O O8 0.629371 0.260024 0.895411
O O9 0.926221 0.500000 0.957415
O O10 0.850155 0.259897 0.719625
O O11 0.000000 0.266311 0.000000
O O12 0.223808 0.500000 0.022475
O O13 0.225380 0.316021 0.804829
O O14 0.244541 0.193562 0.096928
O O15 0.719301 0.218337 0.306208
O O16 0.716041 0.254213 0.564263
O O17 0.779153 0.000000 0.589389
O O18 0.683582 0.500000 0.143999
O O19 0.330655 0.000000 0.423486
#
# Coordination Sequence:
#
# PCOD8064198 Si02
#       7
#     4   4   4   4   4   4   4
#     4  11  24  39  56  81 110 144 189 237 286 341
#     4   9  18  36  62  89 117 149 187 233 284 340
#     4  11  25  42  59  82 114 152 193 240 292 342
#     4  10  20  35  56  79 105 143 187 234 284 334
#     4  11  22  37  59  84 114 152 193 238 286 341
#     4  10  22  37  56  85 117 150 191 234 283 341
#     4   9  18  34  57  84 111 143 185 230 279 336
#
# _framework density 19.158021000000002
#
# number of rings (size 3 to 8) (size 9 to 14) (size 15 to 20)
#    0.000    1.857    1.429    2.143    2.000    4.857 
#    0.000    0.714    0.000    4.286    0.000    0.000 
#    0.000    0.000    0.000    0.000    0.000    0.000 
#
# Total GULP energy -346932.726723 kJ/mol
# GULP energy per Si atom -12390.454526 kJ/mol
# Density = 1.911442 g / cm^3
# Si number density = 19.158021 Si / 1000 Ang^3
#
#
#
# Elastic Constant Matrix: (Units=GPa)
#
#
# Indices 1 2 3 4 5 6 
#
# 1 146.5940 39.8943 70.3963 0.0000 7.6607 0.0000
# 2 39.8943 59.5165 27.1560 0.0000 -1.2528 0.0000
# 3 70.3963 27.1560 95.8829 0.0000 -3.1921 0.0000
# 4 0.0000 0.0000 0.0000 24.6710 0.0000 -2.8415
# 5 7.6607 -1.2528 -3.1921 0.0000 29.5628 0.0000
# 6 0.0000 0.0000 0.0000 -2.8415 0.0000 10.5838
#
#
#
# Elastic Compliance Matrix: (Units=1/GPa)
#
#
# Indices 1 2 3 4 5 6 
#
# 1 0.011942 -0.004626 -0.007595 0.000000 -0.004111 0.000000
# 2 -0.004626 0.021089 -0.002516 0.000000 0.001821 0.000000
# 3 -0.007595 -0.002516 0.016840 0.000000 0.003680 0.000000
# 4 0.000000 0.000000 0.000000 0.041827 0.000000 0.011230
# 5 -0.004111 0.001821 0.003680 0.000000 0.035366 0.000000
# 6 0.000000 0.000000 0.000000 0.011230 0.000000 0.097499
#
#
# Mechanical properties :
#
#
# Convention : Reuss Voigt Hill
#
# Bulk Modulus (GPa) = 49.02264 64.09853 56.56059
# Shear Modulus (GPa) = 19.16908 23.93331 21.55119
#
# Velocity S-wave (km/s) = 3.16662 3.53832 3.35762
# Velocity P-wave (km/s) = 6.24613 7.08684 6.67973
#
# Compressibility (1/GPa) = 0.02039874
#
# Stress axis : x y z
#
# Youngs Moduli (GPa) = 83.73505 47.41737 59.38146
#
# Poissons Ratio (x) = 0.21937 0.45098
# Poissons Ratio (y) = 0.38739 0.14938
# Poissons Ratio (z) = 0.63593 0.11929
#
# Static dielectric constant tensor:
#      x y z
#    x 4.029500 0.000000 0.004860 
#    y 0.000000 3.584470 0.000000 
#    z 0.004860 0.000000 3.227540 
# 
# 
# High freq. dielectric constant tensor:
#      x y z
#    x 1.757300 0.000000 -0.004930 
#    y 0.000000 1.748450 0.000000 
#    z -0.004930 0.000000 1.725120 
# 
# From -- ./inp_files/37317.got.cif
#   From: 2010.06.25/outbox.cif.g09.slc.cpg/sg10_19_cif.got.tgz:37317.got - 2010.06.27 22:07:45.
