data_PCOD8064439
_publ_section_title
;
Structure prediction by ZEFSAII (Michael W. Deem and Ramdas Pophale) SiO2 
 PCOD8064439
Probable space group: P 2/M
;
_chemical_formula_sum "Si O2"
_cell_formula_units_Z 22
_cell_length_a 10.779284
_cell_length_b 9.668087
_cell_length_c 11.222107
_cell_angle_alpha 90.000000
_cell_angle_beta 107.665112
_cell_angle_gamma 90.000000
_cell_volume 1114.365818
_symmetry_space_group_name_H-M "P 2/M"
_symmetry_group_IT_number 10
_symmetry_cell_setting 'monoclinic'
loop_
_space_group_symop_operation_xyz
x,y,z
-x,y,-z
-x,-y,-z
x,-y,z
loop_
_atom_site_type_symbol
_atom_site_label
_atom_site_fract_x
_atom_site_fract_y
_atom_site_fract_z
Si Si1 0.830729 0.651706 0.241656
Si Si2 0.588370 0.338938 0.328327
Si Si3 0.874792 0.838911 0.032859
Si Si4 0.000000 0.253730 0.500000
Si Si5 0.338872 0.842188 0.221282
Si Si6 0.746850 0.846412 0.544585
O O1 0.838563 0.500000 0.184835
O O2 0.685350 0.680220 0.245878
O O3 0.930028 0.651742 0.381542
O O4 0.866273 0.766569 0.157196
O O5 0.564349 0.500000 0.351231
O O6 0.455561 0.265810 0.253083
O O7 0.648329 0.266244 0.462392
O O8 0.747298 0.807317 0.918655
O O9 0.891980 0.000000 0.064749
O O10 0.000000 0.780961 0.000000
O O11 0.892289 0.160848 0.534846
O O12 0.249580 0.822124 0.312426
O O13 0.391431 0.000000 0.230104
O O14 0.692644 0.000000 0.499722
#
# Coordination Sequence:
#
# PCOD8064439 Si02
#       6
#     4   4   4   2   4   4
#     4  10  22  39  58  82 113 148 187 230 276 330
#     4  10  22  38  56  82 115 149 187 232 279 327
#     4  10  22  40  60  84 114 146 184 230 278 331
#     4  10  20  36  60  86 114 146 182 230 282 330
#     4  10  21  37  57  82 113 148 186 230 278 329
#     4  10  20  35  58  86 114 146 187 231 277 332
#
# _framework density 19.742170999999999
#
# number of rings (size 3 to 8) (size 9 to 14) (size 15 to 20)
#    0.000    2.000    0.000    2.727    0.000   11.273 
#    0.000    5.455    0.000    0.000    0.000    0.000 
#    0.000    0.000    0.000    0.000    0.000    0.000 
#
# Total GULP energy -272836.134653 kJ/mol
# GULP energy per Si atom -12401.642484 kJ/mol
# Density = 1.969724 g / cm^3
# Si number density = 19.742171 Si / 1000 Ang^3
#
#
#
# Elastic Constant Matrix: (Units=GPa)
#
#
# Indices 1 2 3 4 5 6 
#
# 1 108.2548 57.7177 51.4098 0.0000 6.7818 0.0000
# 2 57.7177 113.3888 51.1663 0.0000 -0.5119 0.0000
# 3 51.4098 51.1663 100.9989 0.0000 -7.2727 0.0000
# 4 0.0000 0.0000 0.0000 23.8319 0.0000 -2.4324
# 5 6.7818 -0.5119 -7.2727 0.0000 26.2404 0.0000
# 6 0.0000 0.0000 0.0000 -2.4324 0.0000 20.9276
#
#
#
# Elastic Compliance Matrix: (Units=1/GPa)
#
#
# Indices 1 2 3 4 5 6 
#
# 1 0.014878 -0.005191 -0.005334 0.000000 -0.005425 0.000000
# 2 -0.005191 0.013295 -0.004059 0.000000 0.000476 0.000000
# 3 -0.005334 -0.004059 0.015067 0.000000 0.005475 0.000000
# 4 0.000000 0.000000 0.000000 0.042464 0.000000 0.004936
# 5 -0.005425 0.000476 0.005475 0.000000 0.041038 0.000000
# 6 0.000000 0.000000 0.000000 0.004936 0.000000 0.048357
#
#
# Mechanical properties :
#
#
# Convention : Reuss Voigt Hill
#
# Bulk Modulus (GPa) = 71.06127 71.47000 71.26563
# Shear Modulus (GPa) = 23.92828 25.02325 24.47576
#
# Velocity S-wave (km/s) = 3.48521 3.56406 3.52486
# Velocity P-wave (km/s) = 7.22969 7.29500 7.26242
#
# Compressibility (1/GPa) = 0.01407236
#
# Stress axis : x y z
#
# Youngs Moduli (GPa) = 67.21337 75.21523 66.37152
#
# Poissons Ratio (x) = 0.39043 0.35403
# Poissons Ratio (y) = 0.34889 0.26940
# Poissons Ratio (z) = 0.35852 0.30529
#
# Static dielectric constant tensor:
#      x y z
#    x 3.687730 0.000000 -0.013930 
#    y 0.000000 3.559900 0.000000 
#    z -0.013930 0.000000 3.473400 
# 
# 
# High freq. dielectric constant tensor:
#      x y z
#    x 1.776760 0.000000 -0.001240 
#    y 0.000000 1.770590 0.000000 
#    z -0.001240 0.000000 1.765830 
# 
# From -- ./inp_files/45023.got.cif
#   From: 2010.06.25/outbox.cif.g09.slc.cpg/sg10_23_cif.got.tgz:45023.got - 2010.06.27 22:07:45.
