data_PCOD8064415
_publ_section_title
;
Structure prediction by ZEFSAII (Michael W. Deem and Ramdas Pophale) SiO2 
 PCOD8064415
Probable space group: P 2/M
;
_chemical_formula_sum "Si O2"
_cell_formula_units_Z 28
_cell_length_a 28.954622
_cell_length_b 9.203328
_cell_length_c 9.242080
_cell_angle_alpha 90.000000
_cell_angle_beta 37.523216
_cell_angle_gamma 90.000000
_cell_volume 1500.060893
_symmetry_space_group_name_H-M "P 2/M"
_symmetry_group_IT_number 10
_symmetry_cell_setting 'monoclinic'
loop_
_space_group_symop_operation_xyz
x,y,z
-x,y,-z
-x,-y,-z
x,-y,z
loop_
_atom_site_type_symbol
_atom_site_label
_atom_site_fract_x
_atom_site_fract_y
_atom_site_fract_z
Si Si1 0.429329 0.832453 0.070859
Si Si2 0.870665 0.835665 0.649752
Si Si3 0.996802 0.670155 0.174825
Si Si4 0.873448 0.831363 0.978259
Si Si5 0.295586 0.827548 0.606339
Si Si6 0.305131 0.168254 0.904894
Si Si7 0.428885 0.328835 0.775176
O O1 0.354813 0.773345 0.339259
O O2 0.418592 0.000000 0.051129
O O3 0.500000 0.814288 0.000000
O O4 0.443701 0.735517 0.896023
O O5 0.889650 0.805300 0.769466
O O6 0.917898 0.726907 0.434133
O O7 0.894252 0.000000 0.552159
O O8 0.782454 0.811367 0.835813
O O9 0.000487 0.500000 0.191317
O O10 0.068537 0.739429 0.073973
O O11 0.000000 0.713029 0.000000
O O12 0.882740 0.000000 0.995319
O O13 0.788658 0.774862 0.227085
O O14 0.319271 0.771030 0.707122
O O15 0.294463 0.000000 0.622035
O O16 0.352880 0.262463 0.897883
O O17 0.329386 0.000000 0.857826
O O18 0.500000 0.285291 0.500000
O O19 0.418736 0.500000 0.813316
#
# Coordination Sequence:
#
# PCOD8064415 Si02
#       7
#     4   4   4   4   4   4   4
#     4  10  20  35  58  84 107 137 180 225 267 313
#     4   9  19  36  59  84 105 132 174 221 268 317
#     4  11  24  37  49  73 110 146 180 218 260 311
#     4   9  18  35  58  80 104 135 174 219 266 319
#     4   8  16  33  57  84 108 131 168 221 273 317
#     4   9  18  36  61  84 106 134 173 220 266 315
#     4  11  24  38  52  76 112 149 181 215 260 314
#
# _framework density 18.665908999999999
#
# number of rings (size 3 to 8) (size 9 to 14) (size 15 to 20)
#    0.000    2.429    0.000    3.857    0.000    7.714 
#    0.000    7.857    0.000    0.000    0.000    0.000 
#    0.000    0.000    0.000    0.000    0.000    0.000 
#
# Total GULP energy -347241.429021 kJ/mol
# GULP energy per Si atom -12401.479608 kJ/mol
# Density = 1.862342 g / cm^3
# Si number density = 18.665909 Si / 1000 Ang^3
#
#
#
# Elastic Constant Matrix: (Units=GPa)
#
#
# Indices 1 2 3 4 5 6 
#
# 1 113.0681 57.2757 56.5776 0.0000 -1.1178 0.0000
# 2 57.2757 67.2372 55.7732 0.0000 3.7186 0.0000
# 3 56.5776 55.7732 134.4249 0.0000 5.6732 0.0000
# 4 0.0000 0.0000 0.0000 19.6784 0.0000 17.9275
# 5 -1.1178 3.7186 5.6732 0.0000 23.4199 0.0000
# 6 0.0000 0.0000 0.0000 17.9275 0.0000 -13.6136
#
#
#
# Elastic Compliance Matrix: (Units=1/GPa)
#
#
# Indices 1 2 3 4 5 6 
#
# 1 0.016013 -0.012372 -0.001739 0.000000 0.003150 0.000000
# 2 -0.012372 0.032277 -0.008026 0.000000 -0.003771 0.000000
# 3 -0.001739 -0.008026 0.011569 0.000000 -0.001611 0.000000
# 4 0.000000 0.000000 0.000000 0.023102 0.000000 0.030422
# 5 0.003150 -0.003771 -0.001611 0.000000 0.043838 0.000000
# 6 0.000000 0.000000 0.000000 0.030422 0.000000 -0.033394
#
#
# Mechanical properties :
#
#
# Convention : Reuss Voigt Hill
#
# Bulk Modulus (GPa) = 64.16226 72.66482 68.41354
# Shear Modulus (GPa) = 34.99567 15.57053 25.28310
#
# Velocity S-wave (km/s) = 4.33464 2.89133 3.68436
# Velocity P-wave (km/s) = 7.71368 7.08238 7.40476
#
# Compressibility (1/GPa) = 0.01558548
#
# Stress axis : x y z
#
# Youngs Moduli (GPa) = 62.45004 30.98135 86.43725
#
# Poissons Ratio (x) = 0.38330 0.15035
# Poissons Ratio (y) = 0.77262 0.69372
# Poissons Ratio (z) = 0.10863 0.24865
#
# Static dielectric constant tensor:
#      x y z
#    x 3.377100 0.000000 -0.040840 
#    y 0.000000 3.222230 0.000000 
#    z -0.040840 0.000000 3.698470 
# 
# 
# High freq. dielectric constant tensor:
#      x y z
#    x 1.730740 0.000000 -0.006380 
#    y 0.000000 1.703020 0.000000 
#    z -0.006380 0.000000 1.735890 
# 
# From -- ./inp_files/37103.got.cif
#   From: 2010.06.25/outbox.cif.g09.slc.cpg/sg10_19_cif.got.tgz:37103.got - 2010.06.27 22:07:45.
