data_PCOD8064205
_publ_section_title
;
Structure prediction by ZEFSAII (Michael W. Deem and Ramdas Pophale) SiO2 
 PCOD8064205
Probable space group: P 2/M
;
_chemical_formula_sum "Si O2"
_cell_formula_units_Z 24
_cell_length_a 15.356919
_cell_length_b 8.804650
_cell_length_c 9.318422
_cell_angle_alpha 90.000000
_cell_angle_beta 90.325601
_cell_angle_gamma 90.000000
_cell_volume 1259.944897
_symmetry_space_group_name_H-M "P 2/M"
_symmetry_group_IT_number 10
_symmetry_cell_setting 'monoclinic'
loop_
_space_group_symop_operation_xyz
x,y,z
-x,y,-z
-x,-y,-z
x,-y,z
loop_
_atom_site_type_symbol
_atom_site_label
_atom_site_fract_x
_atom_site_fract_y
_atom_site_fract_z
Si Si1 0.582017 0.821140 0.406991
Si Si2 0.073535 0.675518 0.112336
Si Si3 0.262791 0.680182 0.419993
Si Si4 0.417537 0.675543 0.898088
Si Si5 0.731820 0.324123 0.901999
Si Si6 0.082600 0.177511 0.410406
O O1 0.500000 0.766266 0.500000
O O2 0.668201 0.743379 0.467882
O O3 0.566577 0.771879 0.243965
O O4 0.594149 0.000000 0.415750
O O5 0.064666 0.500000 0.160525
O O6 0.169127 0.702657 0.044306
O O7 0.061102 0.784016 0.246545
O O8 0.000000 0.722872 0.000000
O O9 0.264873 0.500000 0.422494
O O10 0.281379 0.743678 0.258774
O O11 0.167264 0.733846 0.468170
O O12 0.402654 0.500000 0.854923
O O13 0.500000 0.694876 0.000000
O O14 0.334429 0.746797 0.982525
O O15 0.707807 0.500000 0.891979
O O16 0.000000 0.232481 0.500000
O O17 0.100148 0.000000 0.428170
#
# Coordination Sequence:
#
# PCOD8064205 Si02
#       6
#     4   4   4   4   4   4
#     4  11  24  39  55  80 115 149 180 219 270 327
#     4   9  18  33  53  77 106 141 183 226 266 316
#     4  10  20  37  61  83 106 141 186 231 272 319
#     4  10  20  35  56  80 106 138 179 224 267 317
#     4   8  16  32  53  78 104 132 173 225 273 312
#     4  10  21  36  54  80 115 149 181 222 274 329
#
# _framework density 19.048452000000001
#
# number of rings (size 3 to 8) (size 9 to 14) (size 15 to 20)
#    0.000    2.333    0.000    3.500    0.000    6.000 
#    0.000    5.833    0.000    0.000    0.000    0.000 
#    0.000    0.000    0.000    0.000    0.000    0.000 
#
# Total GULP energy -297612.270205 kJ/mol
# GULP energy per Si atom -12400.511259 kJ/mol
# Density = 1.900510 g / cm^3
# Si number density = 19.048452 Si / 1000 Ang^3
#
#
#
# Elastic Constant Matrix: (Units=GPa)
#
#
# Indices 1 2 3 4 5 6 
#
# 1 141.8578 39.2631 70.7558 0.0000 -7.8054 0.0000
# 2 39.2631 52.0200 29.6234 0.0000 -3.6571 0.0000
# 3 70.7558 29.6234 94.4458 0.0000 -9.2203 0.0000
# 4 0.0000 0.0000 0.0000 13.7198 0.0000 13.0509
# 5 -7.8054 -3.6571 -9.2203 0.0000 42.8374 0.0000
# 6 0.0000 0.0000 0.0000 13.0509 0.0000 9.0729
#
#
#
# Elastic Compliance Matrix: (Units=1/GPa)
#
#
# Indices 1 2 3 4 5 6 
#
# 1 0.012192 -0.004868 -0.007590 0.000000 0.000172 0.000000
# 2 -0.004868 0.025355 -0.004271 0.000000 0.000358 0.000000
# 3 -0.007590 -0.004271 0.017818 0.000000 0.002087 0.000000
# 4 0.000000 0.000000 0.000000 -0.197891 0.000000 0.284655
# 5 0.000172 0.000358 0.002087 0.000000 0.023855 0.000000
# 6 0.000000 0.000000 0.000000 0.284655 0.000000 -0.299243
#
#
# Mechanical properties :
#
#
# Convention : Reuss Voigt Hill
#
# Bulk Modulus (GPa) = 45.64795 63.06759 54.35777
# Shear Modulus (GPa) = -13.25717 23.03811 4.89047
#
# Velocity S-wave (km/s) = -2.64099 3.48148 1.60404
# Velocity P-wave (km/s) = 3.83619 7.02438 5.65943
#
# Compressibility (1/GPa) = 0.02190679
#
# Stress axis : x y z
#
# Youngs Moduli (GPa) = 82.02175 39.44045 56.12358
#
# Poissons Ratio (x) = 0.19198 0.42599
# Poissons Ratio (y) = 0.39925 0.23970
# Poissons Ratio (z) = 0.62256 0.16845
#
# Static dielectric constant tensor:
#      x y z
#    x 3.714780 0.000000 -0.127180 
#    y 0.000000 3.294070 0.000000 
#    z -0.127180 0.000000 3.524280 
# 
# 
# High freq. dielectric constant tensor:
#      x y z
#    x 1.757360 0.000000 -0.001580 
#    y 0.000000 1.722870 0.000000 
#    z -0.001580 0.000000 1.735920 
# 
# From -- ./inp_files/27200.got.cif
#   From: 2010.06.25/outbox.cif.g09.slc.cpg/sg10_14_cif.got.tgz:27200.got - 2010.06.27 22:07:45.
