data_PCOD8064723
_publ_section_title
;
Structure prediction by ZEFSAII (Michael W. Deem and Ramdas Pophale) SiO2 
 PCOD8064723
Probable space group: P 2/M
;
_chemical_formula_sum "Si O2"
_cell_formula_units_Z 28
_cell_length_a 24.861994
_cell_length_b 9.379550
_cell_length_c 9.423338
_cell_angle_alpha 90.000000
_cell_angle_beta 139.108609
_cell_angle_gamma 90.000000
_cell_volume 1438.522963
_symmetry_space_group_name_H-M "P 2/M"
_symmetry_group_IT_number 10
_symmetry_cell_setting 'monoclinic'
loop_
_space_group_symop_operation_xyz
x,y,z
-x,y,-z
-x,-y,-z
x,-y,z
loop_
_atom_site_type_symbol
_atom_site_label
_atom_site_fract_x
_atom_site_fract_y
_atom_site_fract_z
Si Si1 0.316675 0.659101 0.335162
Si Si2 0.588623 0.659988 0.203251
Si Si3 0.319694 0.836991 0.828737
Si Si4 0.987023 0.834098 0.309672
Si Si5 0.407184 0.168287 0.287693
Si Si6 0.855322 0.669260 0.869985
Si Si7 0.137437 0.163392 0.407138
O O1 0.304351 0.500000 0.247998
O O2 0.393581 0.660856 0.594917
O O3 0.339475 0.766764 0.256854
O O4 0.235648 0.708077 0.257506
O O5 0.589680 0.500000 0.143088
O O6 0.658891 0.748174 0.266877
O O7 0.500000 0.731495 0.000000
O O8 0.222935 0.813129 0.661754
O O9 0.339691 0.000000 0.835657
O O10 0.376174 0.784461 0.071162
O O11 0.068855 0.797536 0.385188
O O12 0.000000 0.794612 0.500000
O O13 0.962648 0.000000 0.244771
O O14 0.915720 0.734853 0.106860
O O15 0.500000 0.225507 0.500000
O O16 0.403984 0.000000 0.302567
O O17 0.868584 0.500000 0.883837
O O18 0.871547 0.737180 0.748269
O O19 0.128951 0.000000 0.337979
#
# Coordination Sequence:
#
# PCOD8064723 Si02
#       7
#     4   4   4   4   4   4   4
#     4  10  22  38  56  84 117 152 196 238 284 347
#     4  10  20  36  58  83 114 152 194 238 283 338
#     4  10  21  36  57  85 116 150 193 241 288 343
#     4  10  23  41  64  91 119 153 193 236 285 346
#     4  10  22  38  57  85 119 154 195 244 295 345
#     4  11  23  40  61  88 121 154 192 239 291 344
#     4  10  21  39  61  87 116 152 196 238 287 348
#
# _framework density 19.464410999999998
#
# number of rings (size 3 to 8) (size 9 to 14) (size 15 to 20)
#    0.000    1.857    1.429    1.714    2.000    5.429 
#    0.000    0.000    0.000    0.000    0.000    0.000 
#    0.000    0.000    0.000    0.000    0.000    0.000 
#
# Total GULP energy -347232.609031 kJ/mol
# GULP energy per Si atom -12401.164608 kJ/mol
# Density = 1.942011 g / cm^3
# Si number density = 19.464411 Si / 1000 Ang^3
#
#
#
# Elastic Constant Matrix: (Units=GPa)
#
#
# Indices 1 2 3 4 5 6 
#
# 1 106.2682 46.0748 32.7690 0.0000 -5.6939 0.0000
# 2 46.0748 63.7984 43.1592 0.0000 -5.4844 0.0000
# 3 32.7690 43.1592 112.1782 0.0000 0.5824 0.0000
# 4 0.0000 0.0000 0.0000 26.5793 0.0000 1.3623
# 5 -5.6939 -5.4844 0.5824 0.0000 32.2567 0.0000
# 6 0.0000 0.0000 0.0000 1.3623 0.0000 33.2847
#
#
#
# Elastic Compliance Matrix: (Units=1/GPa)
#
#
# Indices 1 2 3 4 5 6 
#
# 1 0.013725 -0.009638 -0.000305 0.000000 0.000790 0.000000
# 2 -0.009638 0.028421 -0.008136 0.000000 0.003278 0.000000
# 3 -0.000305 -0.008136 0.012142 0.000000 -0.001657 0.000000
# 4 0.000000 0.000000 0.000000 0.037702 0.000000 -0.001543
# 5 0.000790 0.003278 -0.001657 0.000000 0.031728 0.000000
# 6 0.000000 0.000000 0.000000 -0.001543 0.000000 0.030107
#
#
# Mechanical properties :
#
#
# Convention : Reuss Voigt Hill
#
# Bulk Modulus (GPa) = 55.15845 58.47230 56.81538
# Shear Modulus (GPa) = 25.50660 29.10694 27.30677
#
# Velocity S-wave (km/s) = 3.62390 3.87123 3.74960
# Velocity P-wave (km/s) = 6.77568 7.07727 6.92811
#
# Compressibility (1/GPa) = 0.01812959
#
# Stress axis : x y z
#
# Youngs Moduli (GPa) = 72.85796 35.18572 82.35539
#
# Poissons Ratio (x) = 0.33911 0.02515
# Poissons Ratio (y) = 0.70219 0.67006
# Poissons Ratio (z) = 0.02225 0.28628
#
# Static dielectric constant tensor:
#      x y z
#    x 3.478560 0.000000 0.132170 
#    y 0.000000 3.502460 0.000000 
#    z 0.132170 0.000000 3.687860 
# 
# 
# High freq. dielectric constant tensor:
#      x y z
#    x 1.759000 0.000000 0.007910 
#    y 0.000000 1.751260 0.000000 
#    z 0.007910 0.000000 1.769260 
# 
# From -- ./inp_files/36916.got.cif
#   From: 2010.06.25/outbox.cif.g09.slc.cpg/sg10_19_cif.got.tgz:36916.got - 2010.06.27 22:07:45.
