data_PCOD8064561
_publ_section_title
;
Structure prediction by ZEFSAII (Michael W. Deem and Ramdas Pophale) SiO2 
 PCOD8064561
Probable space group: P 2/M
;
_chemical_formula_sum "Si O2"
_cell_formula_units_Z 32
_cell_length_a 26.196363
_cell_length_b 9.207976
_cell_length_c 11.292604
_cell_angle_alpha 90.000000
_cell_angle_beta 145.395388
_cell_angle_gamma 90.000000
_cell_volume 1546.958967
_symmetry_space_group_name_H-M "P 2/M"
_symmetry_group_IT_number 10
_symmetry_cell_setting 'monoclinic'
loop_
_space_group_symop_operation_xyz
x,y,z
-x,y,-z
-x,-y,-z
x,-y,z
loop_
_atom_site_type_symbol
_atom_site_label
_atom_site_fract_x
_atom_site_fract_y
_atom_site_fract_z
Si Si1 0.550279 0.330197 0.714194
Si Si2 0.012861 0.837233 0.160053
Si Si3 0.253443 0.668793 0.846754
Si Si4 0.104642 0.171326 0.700826
Si Si5 0.477258 0.666284 0.825438
Si Si6 0.779700 0.836477 0.433496
Si Si7 0.729721 0.660795 0.557025
Si Si8 0.128611 0.664567 0.972667
O O1 0.500000 0.264289 0.500000
O O2 0.527002 0.500000 0.674803
O O3 0.520917 0.263652 0.787941
O O4 0.657667 0.303345 0.903706
O O5 0.115259 0.829883 0.394733
O O6 0.961469 0.716258 0.135284
O O7 0.974996 0.000000 0.113383
O O8 0.000000 0.795966 0.000000
O O9 0.229564 0.500000 0.796966
O O10 0.164345 0.756034 0.713429
O O11 0.275391 0.728532 0.757173
O O12 0.149665 0.227730 0.906191
O O13 0.000000 0.219937 0.500000
O O14 0.113131 0.000000 0.703501
O O15 0.510272 0.500000 0.895513
O O16 0.372442 0.684171 0.603228
O O17 0.500000 0.737579 0.000000
O O18 0.763832 0.785711 0.536314
O O19 0.743194 0.000000 0.349619
O O20 0.744812 0.500000 0.529904
O O21 0.784443 0.676001 0.781265
O O22 0.113373 0.500000 0.898741
#
# Coordination Sequence:
#
# PCOD8064561 Si02
#       8
#     4   4   4   4   4   4   4   4
#     4   9  19  35  60  91 122 158 200 248 306 370
#     4  10  20  36  55  78 113 160 203 237 286 361
#     4  11  23  39  64  94 122 152 199 257 305 349
#     4  11  25  44  63  84 117 164 209 244 294 368
#     4   9  17  32  56  85 118 153 192 242 299 358
#     4  11  22  37  59  85 119 161 202 240 295 364
#     4  10  21  35  57  89 120 150 194 248 300 352
#     4  11  23  36  57  89 120 150 194 254 309 351
#
# _framework density 20.685745000000001
#
# number of rings (size 3 to 8) (size 9 to 14) (size 15 to 20)
#    0.000    1.750    1.250    3.000    1.750    7.750 
#    0.000    0.000    0.000    5.625    0.000    0.000 
#    0.000    0.000    0.000    0.000    0.000    0.000 
#
# Total GULP energy -396637.904820 kJ/mol
# GULP energy per Si atom -12394.934526 kJ/mol
# Density = 2.063866 g / cm^3
# Si number density = 20.685745 Si / 1000 Ang^3
#
#
#
# Elastic Constant Matrix: (Units=GPa)
#
#
# Indices 1 2 3 4 5 6 
#
# 1 88.8758 36.5364 47.9525 0.0000 -6.6974 0.0000
# 2 36.5364 78.3341 40.9769 0.0000 -0.7137 0.0000
# 3 47.9525 40.9769 87.6504 0.0000 -13.6333 0.0000
# 4 0.0000 0.0000 0.0000 22.8037 0.0000 -6.8187
# 5 -6.6974 -0.7137 -13.6333 0.0000 31.5023 0.0000
# 6 0.0000 0.0000 0.0000 -6.8187 0.0000 19.3187
#
#
#
# Elastic Compliance Matrix: (Units=1/GPa)
#
#
# Indices 1 2 3 4 5 6 
#
# 1 0.016874 -0.004059 -0.007281 0.000000 0.000345 0.000000
# 2 -0.004059 0.018192 -0.006813 0.000000 -0.003399 0.000000
# 3 -0.007281 -0.006813 0.019634 0.000000 0.006795 0.000000
# 4 0.000000 0.000000 0.000000 0.049027 0.000000 0.017304
# 5 0.000345 -0.003399 0.006795 0.000000 0.034681 0.000000
# 6 0.000000 0.000000 0.000000 0.017304 0.000000 0.057871
#
#
# Mechanical properties :
#
#
# Convention : Reuss Voigt Hill
#
# Bulk Modulus (GPa) = 54.36118 56.19911 55.28015
# Shear Modulus (GPa) = 20.94543 23.35124 22.14833
#
# Velocity S-wave (km/s) = 3.18552 3.36349 3.27571
# Velocity P-wave (km/s) = 6.31400 6.50470 6.41006
#
# Compressibility (1/GPa) = 0.01839548
#
# Stress axis : x y z
#
# Youngs Moduli (GPa) = 59.26115 54.96957 50.93180
#
# Poissons Ratio (x) = 0.22311 0.37082
# Poissons Ratio (y) = 0.24053 0.34700
# Poissons Ratio (z) = 0.43146 0.37451
#
# Static dielectric constant tensor:
#      x y z
#    x 4.150860 0.000000 -0.350630 
#    y 0.000000 3.558920 0.000000 
#    z -0.350630 0.000000 3.980680 
# 
# 
# High freq. dielectric constant tensor:
#      x y z
#    x 1.811430 0.000000 -0.007050 
#    y 0.000000 1.778220 0.000000 
#    z -0.007050 0.000000 1.823060 
# 
# From -- ./inp_files/58310.got.cif
#   From: 2010.06.25/outbox.cif.g09.slc.cpg/sg10_30_cif.got.tgz:58310.got - 2010.06.27 22:07:45.
