data_PCOD8064961
_publ_section_title
;
Structure prediction by ZEFSAII (Michael W. Deem and Ramdas Pophale) SiO2 
 PCOD8064961
Probable space group: P 2/M
;
_chemical_formula_sum "Si O2"
_cell_formula_units_Z 28
_cell_length_a 20.159500
_cell_length_b 9.221588
_cell_length_c 14.554435
_cell_angle_alpha 90.000000
_cell_angle_beta 32.536538
_cell_angle_gamma 90.000000
_cell_volume 1455.230439
_symmetry_space_group_name_H-M "P 2/M"
_symmetry_group_IT_number 10
_symmetry_cell_setting 'monoclinic'
loop_
_space_group_symop_operation_xyz
x,y,z
-x,y,-z
-x,-y,-z
x,-y,z
loop_
_atom_site_type_symbol
_atom_site_label
_atom_site_fract_x
_atom_site_fract_y
_atom_site_fract_z
Si Si1 0.701947 0.330308 0.907175
Si Si2 0.202455 0.670197 0.004774
Si Si3 0.644203 0.832018 0.320004
Si Si4 0.950619 0.829829 0.280621
Si Si5 0.223382 0.835238 0.349808
Si Si6 0.551107 0.832869 0.780953
Si Si7 0.271359 0.171794 0.581993
O O1 0.686510 0.500000 0.911588
O O2 0.786538 0.268177 0.726672
O O3 0.769898 0.291423 0.922297
O O4 0.567746 0.260956 0.059555
O O5 0.196887 0.500000 0.993680
O O6 0.311501 0.736934 0.816683
O O7 0.074159 0.739828 0.124668
O O8 0.500000 0.807793 0.500000
O O9 0.712657 0.775891 0.332283
O O10 0.675132 0.000000 0.264967
O O11 0.885910 0.793324 0.452893
O O12 0.860760 0.777833 0.302943
O O13 0.980432 0.000000 0.237970
O O14 0.355662 0.816337 0.243194
O O15 0.207141 0.000000 0.335388
O O16 0.616703 0.770289 0.612354
O O17 0.510988 0.000000 0.815553
O O18 0.278744 0.000000 0.565157
#
# Coordination Sequence:
#
# PCOD8064961 Si02
#       7
#     4   4   4   4   4   4   4
#     4  11  23  35  49  74 110 149 182 217 265 316
#     4  11  25  40  52  74 111 148 181 220 264 312
#     4  10  20  36  61  88 109 136 175 216 263 319
#     4   9  19  38  60  80 104 137 179 223 266 314
#     4   9  19  35  57  83 107 135 175 224 271 314
#     4   9  17  33  57  83 110 137 171 219 270 320
#     4   8  16  33  58  85 109 134 171 222 271 313
#
# _framework density 19.240939000000001
#
# number of rings (size 3 to 8) (size 9 to 14) (size 15 to 20)
#    0.000    2.429    0.000    3.857    0.000    7.714 
#    0.000    9.286    0.000    0.000    0.000    0.000 
#    0.000    0.000    0.000    0.000    0.000    0.000 
#
# Total GULP energy -347240.167019 kJ/mol
# GULP energy per Si atom -12401.434536 kJ/mol
# Density = 1.919715 g / cm^3
# Si number density = 19.240939 Si / 1000 Ang^3
#
#
#
# Elastic Constant Matrix: (Units=GPa)
#
#
# Indices 1 2 3 4 5 6 
#
# 1 99.1252 51.2433 43.9334 0.0000 12.4828 0.0000
# 2 51.2433 69.8201 43.3481 0.0000 10.9638 0.0000
# 3 43.9334 43.3481 78.6877 0.0000 -0.9942 0.0000
# 4 0.0000 0.0000 0.0000 -1.2635 0.0000 14.8663
# 5 12.4828 10.9638 -0.9942 0.0000 22.7441 0.0000
# 6 0.0000 0.0000 0.0000 14.8663 0.0000 17.4220
#
#
#
# Elastic Compliance Matrix: (Units=1/GPa)
#
#
# Indices 1 2 3 4 5 6 
#
# 1 0.017636 -0.008986 -0.004966 0.000000 -0.005564 0.000000
# 2 -0.008986 0.029510 -0.011363 0.000000 -0.009790 0.000000
# 3 -0.004966 -0.011363 0.021857 0.000000 0.009159 0.000000
# 4 0.000000 0.000000 0.000000 -0.071690 0.000000 0.061173
# 5 -0.005564 -0.009790 0.009159 0.000000 0.052141 0.000000
# 6 0.000000 0.000000 0.000000 0.061173 0.000000 0.005199
#
#
# Mechanical properties :
#
#
# Convention : Reuss Voigt Hill
#
# Bulk Modulus (GPa) = 54.43350 58.29806 56.36578
# Shear Modulus (GPa) = 44.88025 15.05441 29.96733
#
# Velocity S-wave (km/s) = 4.83488 2.80020 3.95077
# Velocity P-wave (km/s) = 7.71492 6.38902 7.08306
#
# Compressibility (1/GPa) = 0.01837104
#
# Stress axis : x y z
#
# Youngs Moduli (GPa) = 56.70364 33.88686 45.75233
#
# Poissons Ratio (x) = 0.30451 0.22722
# Poissons Ratio (y) = 0.50955 0.51989
# Poissons Ratio (z) = 0.28161 0.38506
#
# Static dielectric constant tensor:
#      x y z
#    x 3.753570 0.000000 0.132800 
#    y 0.000000 3.278640 0.000000 
#    z 0.132800 0.000000 3.463320 
# 
# 
# High freq. dielectric constant tensor:
#      x y z
#    x 1.755710 0.000000 0.004560 
#    y 0.000000 1.723340 0.000000 
#    z 0.004560 0.000000 1.753030 
# 
# From -- ./inp_files/49340.got.cif
#   From: 2010.06.25/outbox.cif.g09.slc.cpg/sg10_25_cif.got.tgz:49340.got - 2010.06.27 22:07:45.
