data_PCOD8064126
_publ_section_title
;
Structure prediction by ZEFSAII (Michael W. Deem and Ramdas Pophale) SiO2 
 PCOD8064126
Probable space group: P 2/M
;
_chemical_formula_sum "Si O2"
_cell_formula_units_Z 32
_cell_length_a 12.073733
_cell_length_b 8.745392
_cell_length_c 21.939921
_cell_angle_alpha 90.000000
_cell_angle_beta 133.697560
_cell_angle_gamma 90.000000
_cell_volume 1674.912575
_symmetry_space_group_name_H-M "P 2/M"
_symmetry_group_IT_number 10
_symmetry_cell_setting 'monoclinic'
loop_
_space_group_symop_operation_xyz
x,y,z
-x,y,-z
-x,-y,-z
x,-y,z
loop_
_atom_site_type_symbol
_atom_site_label
_atom_site_fract_x
_atom_site_fract_y
_atom_site_fract_z
Si Si1 0.237493 0.181362 0.580882
Si Si2 0.922608 0.319661 0.030663
Si Si3 0.425763 0.181352 0.267581
Si Si4 0.135126 0.318952 0.217685
Si Si5 0.977724 0.818315 0.395382
Si Si6 0.588655 0.320211 0.871253
Si Si7 0.943214 0.820427 0.246082
Si Si8 0.597673 0.820882 0.095138
O O1 0.411454 0.240316 0.644196
O O2 0.156293 0.245132 0.611412
O O3 0.142527 0.235574 0.485128
O O4 0.234601 0.000000 0.583247
O O5 0.945531 0.500000 0.037905
O O6 0.010341 0.253149 0.122439
O O7 0.744609 0.275580 0.965927
O O8 0.000000 0.247068 0.000000
O O9 0.299873 0.250629 0.264570
O O10 0.408691 0.237412 0.192249
O O11 0.412797 0.000000 0.263287
O O12 0.147799 0.500000 0.220821
O O13 0.078705 0.264157 0.261948
O O14 0.951700 0.753604 0.317859
O O15 0.969559 0.000000 0.390303
O O16 0.576304 0.500000 0.854705
O O17 0.451375 0.263978 0.861674
O O18 0.776915 0.783449 0.153590
O O19 0.976122 0.000000 0.257129
O O20 0.569759 0.000000 0.094505
O O21 0.500000 0.760666 0.000000
#
# Coordination Sequence:
#
# PCOD8064126 Si02
#       8
#     4   4   4   4   4   4   4   4
#     4   8  15  29  53  82 107 131 166 215 265 311
#     4   9  17  33  52  70  97 135 179 218 251 294
#     4  11  21  34  53  80 109 134 169 220 275 318
#     4  11  22  37  55  74 103 142 182 221 260 311
#     4   8  14  29  54  81 105 133 171 213 257 308
#     4  11  21  34  55  79 105 139 180 220 261 314
#     4  10  20  35  55  78 107 142 178 216 262 313
#     4  10  21  36  53  78 113 143 171 217 271 316
#
# _framework density 19.105475999999999
#
# number of rings (size 3 to 8) (size 9 to 14) (size 15 to 20)
#    0.000    2.250    1.250    3.375    0.000    2.750 
#    0.000    3.125    0.000    5.250    0.000    5.250 
#    0.000    0.000    0.000    0.000    0.000    0.000 
#
# Total GULP energy -396747.578976 kJ/mol
# GULP energy per Si atom -12398.361843 kJ/mol
# Density = 1.906199 g / cm^3
# Si number density = 19.105476 Si / 1000 Ang^3
#
#
#
# Elastic Constant Matrix: (Units=GPa)
#
#
# Indices 1 2 3 4 5 6 
#
# 1 139.9974 35.8591 67.7415 0.0000 7.6898 0.0000
# 2 35.8591 44.9329 27.4536 0.0000 5.4792 0.0000
# 3 67.7415 27.4536 134.6737 0.0000 6.6356 0.0000
# 4 0.0000 0.0000 0.0000 12.9644 0.0000 -1.1256
# 5 7.6898 5.4792 6.6356 0.0000 34.4058 0.0000
# 6 0.0000 0.0000 0.0000 -1.1256 0.0000 17.6887
#
#
#
# Elastic Compliance Matrix: (Units=1/GPa)
#
#
# Indices 1 2 3 4 5 6 
#
# 1 0.010702 -0.005931 -0.004142 0.000000 -0.000649 0.000000
# 2 -0.005931 0.029036 -0.002800 0.000000 -0.002758 0.000000
# 3 -0.004142 -0.002800 0.010108 0.000000 -0.000578 0.000000
# 4 0.000000 0.000000 0.000000 0.077563 0.000000 0.004936
# 5 -0.000649 -0.002758 -0.000578 0.000000 0.029761 0.000000
# 6 0.000000 0.000000 0.000000 0.004936 0.000000 0.056848
#
#
# Mechanical properties :
#
#
# Convention : Reuss Voigt Hill
#
# Bulk Modulus (GPa) = 41.49384 64.63470 53.06427
# Shear Modulus (GPa) = 20.17788 25.58176 22.87982
#
# Velocity S-wave (km/s) = 3.25334 3.66317 3.46432
# Velocity P-wave (km/s) = 5.98980 7.19692 6.62093
#
# Compressibility (1/GPa) = 0.02409996
#
# Stress axis : x y z
#
# Youngs Moduli (GPa) = 93.43970 34.44042 98.93046
#
# Poissons Ratio (x) = 0.20426 0.40979
# Poissons Ratio (y) = 0.55419 0.27698
# Poissons Ratio (z) = 0.38705 0.09643
#
# Static dielectric constant tensor:
#      x y z
#    x 3.563390 0.000000 0.097050 
#    y 0.000000 3.104620 0.000000 
#    z 0.097050 0.000000 3.808620 
# 
# 
# High freq. dielectric constant tensor:
#      x y z
#    x 1.747180 0.000000 0.004900 
#    y 0.000000 1.707180 0.000000 
#    z 0.004900 0.000000 1.745300 
# 
# From -- ./inp_files/83627.got.cif
#   From: 2010.06.25/outbox.cif.g09.slc.cpg/sg10_42_cif.got.tgz:83627.got - 2010.06.27 22:07:45.
