data_PCOD8064927
_publ_section_title
;
Structure prediction by ZEFSAII (Michael W. Deem and Ramdas Pophale) SiO2 
 PCOD8064927
Probable space group: P 2/M
;
_chemical_formula_sum "Si O2"
_cell_formula_units_Z 32
_cell_length_a 13.708847
_cell_length_b 14.324724
_cell_length_c 18.794562
_cell_angle_alpha 90.000000
_cell_angle_beta 158.167883
_cell_angle_gamma 90.000000
_cell_volume 1372.561598
_symmetry_space_group_name_H-M "P 2/M"
_symmetry_group_IT_number 10
_symmetry_cell_setting 'monoclinic'
loop_
_space_group_symop_operation_xyz
x,y,z
-x,y,-z
-x,-y,-z
x,-y,z
loop_
_atom_site_type_symbol
_atom_site_label
_atom_site_fract_x
_atom_site_fract_y
_atom_site_fract_z
Si Si1 0.905014 0.605894 0.860536
Si Si2 0.353753 0.890767 0.968952
Si Si3 0.109995 0.393636 0.851771
Si Si4 0.675480 0.389980 0.221286
Si Si5 0.228861 0.609704 0.556938
Si Si6 0.245636 0.893061 0.472879
Si Si7 0.406035 0.705393 0.543787
Si Si8 0.272749 0.889933 0.656561
O O1 0.809974 0.500000 0.807701
O O2 0.128878 0.610705 0.951329
O O3 0.648127 0.665039 0.662379
O O4 0.000000 0.648278 0.000000
O O5 0.046240 0.872210 0.752734
O O6 0.410284 0.000000 0.006517
O O7 0.500000 0.844954 0.000000
O O8 0.483137 0.849968 0.130101
O O9 0.046820 0.500000 0.784567
O O10 0.875699 0.326618 0.673815
O O11 0.382242 0.356715 0.999835
O O12 0.655892 0.500000 0.219660
O O13 0.729653 0.348853 0.336375
O O14 0.914426 0.369570 0.327972
O O15 0.290366 0.500000 0.591356
O O16 0.418881 0.666120 0.633227
O O17 0.427112 0.818474 0.554359
O O18 0.290574 0.866626 0.585556
O O19 0.329386 0.000000 0.513366
O O20 0.000000 0.846181 0.500000
O O21 0.263947 0.000000 0.660634
#
# Coordination Sequence:
#
# PCOD8064927 Si02
#       8
#     4   4   4   4   4   4   4   4
#     4  10  21  40  68  94 118 149 189 244 304 358
#     4   9  15  29  53  76 103 146 201 256 304 349
#     4  10  20  36  60  89 117 147 190 247 298 350
#     4   8  16  33  54  79 118 163 195 223 278 354
#     4   9  17  33  54  78 119 164 193 226 277 356
#     4  10  22  39  53  78 119 160 203 252 306 360
#     4  12  23  36  55  90 118 152 197 246 303 352
#     4   9  15  29  54  76 101 148 203 254 304 348
#
# _framework density 23.314070999999998
#
# number of rings (size 3 to 8) (size 9 to 14) (size 15 to 20)
#    0.000    2.375    1.250    3.000    0.000    3.500 
#    9.000    1.875    0.000    1.875    0.000    0.000 
#    0.000    0.000    0.000    0.000    0.000    0.000 
#
# Total GULP energy -396456.402401 kJ/mol
# GULP energy per Si atom -12389.262575 kJ/mol
# Density = 2.326101 g / cm^3
# Si number density = 23.314071 Si / 1000 Ang^3
#
#
#
# Elastic Constant Matrix: (Units=GPa)
#
#
# Indices 1 2 3 4 5 6 
#
# 1 12.1459 9.5560 2.8656 0.0000 6.4365 0.0000
# 2 9.5560 73.1523 13.5659 0.0000 9.9535 0.0000
# 3 2.8656 13.5659 86.5873 0.0000 -12.0185 0.0000
# 4 0.0000 0.0000 0.0000 2.4440 0.0000 1.6380
# 5 6.4365 9.9535 -12.0185 0.0000 46.4073 0.0000
# 6 0.0000 0.0000 0.0000 1.6380 0.0000 17.9774
#
#
#
# Elastic Compliance Matrix: (Units=1/GPa)
#
#
# Indices 1 2 3 4 5 6 
#
# 1 0.097825 -0.010516 -0.003278 0.000000 -0.012161 0.000000
# 2 -0.010516 0.015859 -0.002496 0.000000 -0.002589 0.000000
# 3 -0.003278 -0.002496 0.012640 0.000000 0.004264 0.000000
# 4 0.000000 0.000000 0.000000 0.435782 0.000000 -0.039707
# 5 -0.012161 -0.002589 0.004264 0.000000 0.024895 0.000000
# 6 0.000000 0.000000 0.000000 -0.039707 0.000000 0.059243
#
#
# Mechanical properties :
#
#
# Convention : Reuss Voigt Hill
#
# Bulk Modulus (GPa) = 10.66741 24.87339 17.77040
# Shear Modulus (GPa) = 7.04153 23.09227 15.06690
#
# Velocity S-wave (km/s) = 1.73978 3.15061 2.54492
# Velocity P-wave (km/s) = 2.93620 4.89154 4.03413
#
# Compressibility (1/GPa) = 0.09374344
#
# Stress axis : x y z
#
# Youngs Moduli (GPa) = 10.22237 63.05530 79.11158
#
# Poissons Ratio (x) = 0.66312 0.25932
# Poissons Ratio (y) = 0.10750 0.19747
# Poissons Ratio (z) = 0.03351 0.15739
#
# Static dielectric constant tensor:
#      x y z
#    x 4.232270 0.000000 -0.248810 
#    y 0.000000 3.824580 0.000000 
#    z -0.248810 0.000000 4.459760 
# 
# 
# High freq. dielectric constant tensor:
#      x y z
#    x 1.905460 0.000000 -0.019270 
#    y 0.000000 1.893380 0.000000 
#    z -0.019270 0.000000 1.922880 
# 
# From -- ./inp_files/85435.got.cif
#   From: 2010.06.25/outbox.cif.g09.slc.cpg/sg10_43_cif.got.tgz:85435.got - 2010.06.27 22:07:45.
