data_PCOD8064953
_publ_section_title
;
Structure prediction by ZEFSAII (Michael W. Deem and Ramdas Pophale) SiO2 
 PCOD8064953
Probable space group: P 2/M
;
_chemical_formula_sum "Si O2"
_cell_formula_units_Z 26
_cell_length_a 13.937510
_cell_length_b 11.175600
_cell_length_c 8.609312
_cell_angle_alpha 90.000000
_cell_angle_beta 69.660535
_cell_angle_gamma 90.000000
_cell_volume 1257.375887
_symmetry_space_group_name_H-M "P 2/M"
_symmetry_group_IT_number 10
_symmetry_cell_setting 'monoclinic'
loop_
_space_group_symop_operation_xyz
x,y,z
-x,y,-z
-x,-y,-z
x,-y,z
loop_
_atom_site_type_symbol
_atom_site_label
_atom_site_fract_x
_atom_site_fract_y
_atom_site_fract_z
Si Si1 0.564680 0.500000 0.250936
Si Si2 0.000000 0.776337 0.000000
Si Si3 0.695985 0.285961 0.109514
Si Si4 0.340793 0.500000 0.461431
Si Si5 0.881367 0.364807 0.825458
Si Si6 0.385421 0.139436 0.106236
Si Si7 0.806364 0.863109 0.278747
Si Si8 0.766069 0.268752 0.598087
O O1 0.599635 0.375232 0.154678
O O2 0.442778 0.500000 0.299427
O O3 0.617468 0.500000 0.388695
O O4 0.024215 0.698146 0.140245
O O5 0.904808 0.856868 0.109427
O O6 0.716747 0.224259 0.264109
O O7 0.790581 0.367086 0.002127
O O8 0.682758 0.173409 0.003158
O O9 0.268624 0.388488 0.468031
O O10 0.912401 0.500000 0.764382
O O11 0.847670 0.295492 0.688405
O O12 0.338447 0.207215 0.281310
O O13 0.378519 0.000000 0.144997
O O14 0.500000 0.180014 0.000000
O O15 0.825082 0.818058 0.444242
O O16 0.769233 0.000000 0.304117
#
# Coordination Sequence:
#
# PCOD8064953 Si02
#       8
#     2   2   4   2   4   4   4   4
#     4  11  20  35  59  90 123 162 198 252 290 353
#     4  10  24  42  64  92 114 151 201 250 306 360
#     4  10  20  36  61  86 118 158 203 241 305 352
#     4  11  22  35  57  90 130 154 200 250 297 349
#     4  10  20  38  61  90 122 153 191 244 301 366
#     4  10  21  37  56  84 122 162 206 247 288 348
#     4  11  23  42  64  86 118 156 202 252 301 364
#     4  11  22  39  61  90 122 161 199 245 305 354
#
# _framework density 20.677983999999999
#
# number of rings (size 3 to 8) (size 9 to 14) (size 15 to 20)
#    0.000    1.538    3.077    2.308    0.000    0.615 
#    1.385    6.154    0.000    3.692    0.000    0.000 
#    0.000    0.000    0.000    0.000    0.000    0.000 
#
# Total GULP energy -322308.561719 kJ/mol
# GULP energy per Si atom -12396.483143 kJ/mol
# Density = 2.063092 g / cm^3
# Si number density = 20.677984 Si / 1000 Ang^3
#
#
#
# Elastic Constant Matrix: (Units=GPa)
#
#
# Indices 1 2 3 4 5 6 
#
# 1 62.5236 22.1047 10.3412 0.0000 11.1523 0.0000
# 2 22.1047 117.5328 36.5849 0.0000 7.1819 0.0000
# 3 10.3412 36.5849 85.9059 0.0000 8.7229 0.0000
# 4 0.0000 0.0000 0.0000 22.9006 0.0000 -5.3411
# 5 11.1523 7.1819 8.7229 0.0000 32.9202 0.0000
# 6 0.0000 0.0000 0.0000 -5.3411 0.0000 17.4190
#
#
#
# Elastic Compliance Matrix: (Units=1/GPa)
#
#
# Indices 1 2 3 4 5 6 
#
# 1 0.018058 -0.002952 -0.000371 0.000000 -0.005375 0.000000
# 2 -0.002952 0.010327 -0.004024 0.000000 -0.000187 0.000000
# 3 -0.000371 -0.004024 0.013665 0.000000 -0.002617 0.000000
# 4 0.000000 0.000000 0.000000 0.047030 0.000000 0.014421
# 5 -0.005375 -0.000187 -0.002617 0.000000 0.032932 0.000000
# 6 0.000000 0.000000 0.000000 0.014421 0.000000 0.061830
#
#
# Mechanical properties :
#
#
# Convention : Reuss Voigt Hill
#
# Bulk Modulus (GPa) = 36.55471 44.89153 40.72312
# Shear Modulus (GPa) = 24.07846 27.77673 25.92759
#
# Velocity S-wave (km/s) = 3.41610 3.66908 3.54485
# Velocity P-wave (km/s) = 5.76855 6.30131 6.04080
#
# Compressibility (1/GPa) = 0.02735625
#
# Stress axis : x y z
#
# Youngs Moduli (GPa) = 55.37772 96.82951 73.18155
#
# Poissons Ratio (x) = 0.28587 0.02713
# Poissons Ratio (y) = 0.16349 0.29447
# Poissons Ratio (z) = 0.02053 0.38962
#
# Static dielectric constant tensor:
#      x y z
#    x 3.628360 0.000000 0.020930 
#    y 0.000000 3.641990 0.000000 
#    z 0.020930 0.000000 3.726660 
# 
# 
# High freq. dielectric constant tensor:
#      x y z
#    x 1.798510 0.000000 0.008270 
#    y 0.000000 1.814710 0.000000 
#    z 0.008270 0.000000 1.806940 
# 
# From -- ./inp_files/28158.got.cif
#   From: 2010.06.25/outbox.cif.g09.slc.cpg/sg10_15_cif.got.tgz:28158.got - 2010.06.27 22:07:45.
