data_PCOD8064941
_publ_section_title
;
Structure prediction by ZEFSAII (Michael W. Deem and Ramdas Pophale) SiO2 
 PCOD8064941
Probable space group: P 2/M
;
_chemical_formula_sum "Si O2"
_cell_formula_units_Z 32
_cell_length_a 12.311537
_cell_length_b 14.077492
_cell_length_c 18.508652
_cell_angle_alpha 90.000000
_cell_angle_beta 26.815736
_cell_angle_gamma 90.000000
_cell_volume 1447.128190
_symmetry_space_group_name_H-M "P 2/M"
_symmetry_group_IT_number 10
_symmetry_cell_setting 'monoclinic'
loop_
_space_group_symop_operation_xyz
x,y,z
-x,y,-z
-x,-y,-z
x,-y,z
loop_
_atom_site_type_symbol
_atom_site_label
_atom_site_fract_x
_atom_site_fract_y
_atom_site_fract_z
Si Si1 0.786894 0.111080 0.176112
Si Si2 0.982335 0.713001 0.623608
Si Si3 0.976141 0.893768 0.219453
Si Si4 0.425541 0.389802 0.201558
Si Si5 0.477740 0.390123 0.331050
Si Si6 0.258103 0.607086 0.689072
Si Si7 0.751594 0.108633 0.506189
Si Si8 0.180814 0.292774 0.123601
O O1 0.517713 0.148408 0.315987
O O2 0.828932 0.131506 0.235091
O O3 0.780732 0.000000 0.164006
O O4 0.000000 0.157230 0.000000
O O5 0.824255 0.670912 0.651226
O O6 0.815384 0.696302 0.792726
O O7 0.222586 0.656185 0.497093
O O8 0.053787 0.823794 0.568736
O O9 0.198759 0.820084 0.094849
O O10 0.792901 0.883815 0.395435
O O11 0.086137 0.000000 0.150100
O O12 0.362714 0.500000 0.225661
O O13 0.555254 0.374212 0.201805
O O14 0.599688 0.352619 0.036534
O O15 0.440211 0.500000 0.371697
O O16 0.682419 0.352451 0.265088
O O17 0.500000 0.608444 0.500000
O O18 0.152146 0.500000 0.756414
O O19 0.067759 0.674240 0.764396
O O20 0.788429 0.000000 0.510703
#
# Coordination Sequence:
#
# PCOD8064941 Si02
#       8
#     4   4   4   4   4   4   4   4
#     4   9  17  30  51  82 120 159 197 244 301 356
#     4  11  22  38  64  87 118 161 212 250 293 356
#     4   9  19  35  54  80 119 162 204 245 295 360
#     4  11  25  43  62  89 121 157 205 257 307 364
#     4  10  22  40  62  87 118 158 199 242 301 372
#     4  10  20  36  60  90 123 154 192 244 308 375
#     4   9  19  35  57  86 119 159 208 253 294 351
#     4  11  23  37  61  92 123 156 201 253 314 359
#
# _framework density 22.112763000000001
#
# number of rings (size 3 to 8) (size 9 to 14) (size 15 to 20)
#    0.000    2.000    1.250    1.875    1.750    6.000 
#    0.000    2.500    0.000    4.500    0.000    0.000 
#    0.000    0.000    0.000    0.000    0.000    0.000 
#
# Total GULP energy -396693.546209 kJ/mol
# GULP energy per Si atom -12396.673319 kJ/mol
# Density = 2.206243 g / cm^3
# Si number density = 22.112763 Si / 1000 Ang^3
#
#
#
# Elastic Constant Matrix: (Units=GPa)
#
#
# Indices 1 2 3 4 5 6 
#
# 1 73.8604 31.1456 10.4525 0.0000 -9.9857 0.0000
# 2 31.1456 67.1257 27.5595 0.0000 -5.9074 0.0000
# 3 10.4525 27.5595 76.1454 0.0000 3.1489 0.0000
# 4 0.0000 0.0000 0.0000 26.0994 0.0000 -4.3444
# 5 -9.9857 -5.9074 3.1489 0.0000 21.5430 0.0000
# 6 0.0000 0.0000 0.0000 -4.3444 0.0000 28.6546
#
#
#
# Elastic Compliance Matrix: (Units=1/GPa)
#
#
# Indices 1 2 3 4 5 6 
#
# 1 0.017572 -0.007670 0.000115 0.000000 0.006025 0.000000
# 2 -0.007670 0.021586 -0.006899 0.000000 0.003372 0.000000
# 3 0.000115 -0.006899 0.015785 0.000000 -0.004146 0.000000
# 4 0.000000 0.000000 0.000000 0.039307 0.000000 0.005959
# 5 0.006025 0.003372 -0.004146 0.000000 0.050742 0.000000
# 6 0.000000 0.000000 0.000000 0.005959 0.000000 0.035802
#
#
# Mechanical properties :
#
#
# Convention : Reuss Voigt Hill
#
# Bulk Modulus (GPa) = 38.41119 39.49410 38.95264
# Shear Modulus (GPa) = 22.89584 25.12433 24.01008
#
# Velocity S-wave (km/s) = 3.22127 3.37440 3.29873
# Velocity P-wave (km/s) = 5.58961 5.75163 5.67120
#
# Compressibility (1/GPa) = 0.02603408
#
# Stress axis : x y z
#
# Youngs Moduli (GPa) = 56.90982 46.32737 63.34947
#
# Poissons Ratio (x) = 0.35533 -0.00727
# Poissons Ratio (y) = 0.43650 0.43705
# Poissons Ratio (z) = -0.00653 0.31962
#
# Static dielectric constant tensor:
#      x y z
#    x 4.038460 0.000000 0.116840 
#    y 0.000000 4.241280 0.000000 
#    z 0.116840 0.000000 3.885680 
# 
# 
# High freq. dielectric constant tensor:
#      x y z
#    x 1.860910 0.000000 0.011970 
#    y 0.000000 1.876980 0.000000 
#    z 0.011970 0.000000 1.855660 
# 
# From -- ./inp_files/77004.got.cif
#   From: 2010.06.25/outbox.cif.g09.slc.cpg/sg10_39_cif.got.tgz:77004.got - 2010.06.27 22:07:45.
