data_PCOD8064523
_publ_section_title
;
Structure prediction by ZEFSAII (Michael W. Deem and Ramdas Pophale) SiO2 
 PCOD8064523
Probable space group: P 2/M
;
_chemical_formula_sum "Si O2"
_cell_formula_units_Z 18
_cell_length_a 7.676668
_cell_length_b 19.049968
_cell_length_c 5.470237
_cell_angle_alpha 90.000000
_cell_angle_beta 58.916850
_cell_angle_gamma 90.000000
_cell_volume 685.108605
_symmetry_space_group_name_H-M "P 2/M"
_symmetry_group_IT_number 10
_symmetry_cell_setting 'monoclinic'
loop_
_space_group_symop_operation_xyz
x,y,z
-x,y,-z
-x,-y,-z
x,-y,z
loop_
_atom_site_type_symbol
_atom_site_label
_atom_site_fract_x
_atom_site_fract_y
_atom_site_fract_z
Si Si1 0.218783 0.077378 0.217931
Si Si2 0.241853 0.580414 0.819372
Si Si3 0.326452 0.795846 0.431609
Si Si4 0.241616 0.650537 0.317442
Si Si5 0.000000 0.843948 0.000000
O O1 0.364971 0.130505 0.261341
O O2 0.181875 0.107269 0.973038
O O3 0.000000 0.073461 0.500000
O O4 0.319476 0.000000 0.135681
O O5 0.310538 0.500000 0.776885
O O6 0.329415 0.613652 0.502162
O O7 0.330651 0.617995 0.000289
O O8 0.000000 0.587938 0.000000
O O9 0.500000 0.782802 0.500000
O O10 0.313864 0.731540 0.252839
O O11 0.103634 0.795262 0.721260
O O12 0.000000 0.641785 0.500000
#
# Coordination Sequence:
#
# PCOD8064523 Si02
#       5
#     4   4   4   4   2
#     4   9  19  38  63  91 123 162 211 264 322 383
#     4   9  18  33  59  93 125 163 214 266 323 388
#     4  11  25  40  60  92 127 167 215 263 319 386
#     4  10  20  35  61  89 129 168 213 268 323 384
#     4  10  21  40  66  86 123 164 212 266 323 384
#
# _framework density 26.273206999999999
#
# number of rings (size 3 to 8) (size 9 to 14) (size 15 to 20)
#    0.000    2.222    0.000    3.000    7.778    4.889 
#    0.000    1.111    0.000    4.000    0.000    0.000 
#    0.000    0.000    0.000    0.000    0.000    0.000 
#
# Total GULP energy -223233.320120 kJ/mol
# GULP energy per Si atom -12401.851118 kJ/mol
# Density = 2.621341 g / cm^3
# Si number density = 26.273207 Si / 1000 Ang^3
#
#
#
# Elastic Constant Matrix: (Units=GPa)
#
#
# Indices 1 2 3 4 5 6 
#
# 1 71.8909 36.2225 47.4094 0.0000 34.8270 0.0000
# 2 36.2225 214.2652 70.4608 0.0000 35.2008 0.0000
# 3 47.4094 70.4608 165.8984 0.0000 24.6092 0.0000
# 4 0.0000 0.0000 0.0000 -1.9857 0.0000 32.9923
# 5 34.8270 35.2008 24.6092 0.0000 48.1013 0.0000
# 6 0.0000 0.0000 0.0000 32.9923 0.0000 6.0120
#
#
#
# Elastic Compliance Matrix: (Units=1/GPa)
#
#
# Indices 1 2 3 4 5 6 
#
# 1 0.024413 -0.000088 -0.004682 0.000000 -0.015217 0.000000
# 2 -0.000088 0.005863 -0.001989 0.000000 -0.003210 0.000000
# 3 -0.004682 -0.001989 0.008107 0.000000 0.000698 0.000000
# 4 0.000000 0.000000 0.000000 -0.005463 0.000000 0.029981
# 5 -0.015217 -0.003210 0.000698 0.000000 0.033799 0.000000
# 6 0.000000 0.000000 0.000000 0.029981 0.000000 0.001804
#
#
# Mechanical properties :
#
#
# Convention : Reuss Voigt Hill
#
# Bulk Modulus (GPa) = 40.21572 84.47110 62.34341
# Shear Modulus (GPa) = 55.35245 30.28965 42.82105
#
# Velocity S-wave (km/s) = 4.59497 3.39908 4.04150
# Velocity P-wave (km/s) = 6.59482 6.90115 6.74972
#
# Compressibility (1/GPa) = 0.02486590
#
# Stress axis : x y z
#
# Youngs Moduli (GPa) = 40.96108 170.55050 123.34796
#
# Poissons Ratio (x) = 0.01493 0.57755
# Poissons Ratio (y) = 0.00359 0.24536
# Poissons Ratio (z) = 0.19179 0.33925
#
# Static dielectric constant tensor:
#      x y z
#    x 4.596610 0.000000 0.260780 
#    y 0.000000 4.840640 0.000000 
#    z 0.260780 0.000000 4.893520 
# 
# 
# High freq. dielectric constant tensor:
#      x y z
#    x 2.067580 0.000000 -0.000420 
#    y 0.000000 2.046420 0.000000 
#    z -0.000420 0.000000 2.062540 
# 
# From -- ./inp_files/4038.got.cif
#   From: 2010.06.25/outbox.cif.g09.slc.cpg/sg10_3_cif.got.tgz:4038.got - 2010.06.27 22:07:45.
