data_PCOD8064461
_publ_section_title
;
Structure prediction by ZEFSAII (Michael W. Deem and Ramdas Pophale) SiO2 
 PCOD8064461
Probable space group: P 2/M
;
_chemical_formula_sum "Si O2"
_cell_formula_units_Z 28
_cell_length_a 11.076516
_cell_length_b 8.657525
_cell_length_c 16.374905
_cell_angle_alpha 90.000000
_cell_angle_beta 60.419749
_cell_angle_gamma 90.000000
_cell_volume 1365.613435
_symmetry_space_group_name_H-M "P 2/M"
_symmetry_group_IT_number 10
_symmetry_cell_setting 'monoclinic'
loop_
_space_group_symop_operation_xyz
x,y,z
-x,y,-z
-x,-y,-z
x,-y,z
loop_
_atom_site_type_symbol
_atom_site_label
_atom_site_fract_x
_atom_site_fract_y
_atom_site_fract_z
Si Si1 0.830387 0.320541 0.378944
Si Si2 0.107898 0.679073 0.033853
Si Si3 0.631095 0.678158 0.156509
Si Si4 0.684017 0.320823 0.751359
Si Si5 0.096564 0.179401 0.210246
Si Si6 0.703625 0.179322 0.574462
Si Si7 0.381907 0.178633 0.670188
O O1 0.866528 0.500000 0.359239
O O2 0.800371 0.278639 0.482752
O O3 0.696077 0.281337 0.370020
O O4 0.960571 0.222118 0.306137
O O5 0.090945 0.500000 0.063166
O O6 0.073186 0.780969 0.123692
O O7 0.263344 0.716865 0.951566
O O8 0.000000 0.726170 0.000000
O O9 0.644892 0.500000 0.178714
O O10 0.476890 0.716993 0.176343
O O11 0.670681 0.780532 0.221640
O O12 0.705527 0.500000 0.725042
O O13 0.770516 0.272779 0.801650
O O14 0.738846 0.225456 0.655298
O O15 0.126816 0.000000 0.210324
O O16 0.543911 0.217718 0.608043
O O17 0.736184 0.000000 0.550751
O O18 0.350592 0.000000 0.662644
#
# Coordination Sequence:
#
# PCOD8064461 Si02
#       7
#     4   4   4   4   4   4   4
#     4  12  24  38  58  84 116 156 200 243 291 348
#     4  10  21  39  63  91 121 153 190 234 287 347
#     4   9  19  36  61  89 119 157 196 239 288 340
#     4  10  21  40  62  86 117 154 199 242 286 343
#     4  12  26  42  60  84 116 153 195 245 297 347
#     4  10  21  38  60  88 121 155 193 239 291 344
#     4  10  20  35  58  89 124 156 190 238 292 345
#
# _framework density 20.503608
#
# number of rings (size 3 to 8) (size 9 to 14) (size 15 to 20)
#    0.000    1.571    0.000    5.143    0.000    7.143 
#    0.000    5.714    0.000    0.000    0.000    0.000 
#    0.000    0.000    0.000    0.000    0.000    0.000 
#
# Total GULP energy -347400.437712 kJ/mol
# GULP energy per Si atom -12407.158490 kJ/mol
# Density = 2.045694 g / cm^3
# Si number density = 20.503608 Si / 1000 Ang^3
#
#
#
# Elastic Constant Matrix: (Units=GPa)
#
#
# Indices 1 2 3 4 5 6 
#
# 1 87.3357 19.8107 44.1625 0.0000 8.2083 0.0000
# 2 19.8107 59.6381 23.2292 0.0000 -1.3319 0.0000
# 3 44.1625 23.2292 96.3174 0.0000 -13.8457 0.0000
# 4 0.0000 0.0000 0.0000 29.4128 0.0000 2.7110
# 5 8.2083 -1.3319 -13.8457 0.0000 23.5213 0.0000
# 6 0.0000 0.0000 0.0000 2.7110 0.0000 31.3070
#
#
#
# Elastic Compliance Matrix: (Units=1/GPa)
#
#
# Indices 1 2 3 4 5 6 
#
# 1 0.017821 -0.002582 -0.009246 0.000000 -0.011807 0.000000
# 2 -0.002582 0.018945 -0.003388 0.000000 -0.000020 0.000000
# 3 -0.009246 -0.003388 0.017342 0.000000 0.013243 0.000000
# 4 0.000000 0.000000 0.000000 0.034272 0.000000 -0.002968
# 5 -0.011807 -0.000020 0.013243 0.000000 0.054429 0.000000
# 6 0.000000 0.000000 0.000000 -0.002968 0.000000 0.032199
#
#
# Mechanical properties :
#
#
# Convention : Reuss Voigt Hill
#
# Bulk Modulus (GPa) = 42.23632 46.41067 44.32349
# Shear Modulus (GPa) = 23.43768 27.25414 25.34591
#
# Velocity S-wave (km/s) = 3.38464 3.64982 3.51973
# Velocity P-wave (km/s) = 5.99321 6.35973 6.17919
#
# Compressibility (1/GPa) = 0.02367631
#
# Stress axis : x y z
#
# Youngs Moduli (GPa) = 56.11458 52.78519 57.66250
#
# Poissons Ratio (x) = 0.13630 0.53312
# Poissons Ratio (y) = 0.14490 0.19536
# Poissons Ratio (z) = 0.51881 0.17883
#
# Static dielectric constant tensor:
#      x y z
#    x 3.746950 0.000000 -0.074270 
#    y 0.000000 3.716810 0.000000 
#    z -0.074270 0.000000 3.688470 
# 
# 
# High freq. dielectric constant tensor:
#      x y z
#    x 1.802740 0.000000 -0.003220 
#    y 0.000000 1.803880 0.000000 
#    z -0.003220 0.000000 1.804660 
# 
# From -- ./inp_files/63639.got.cif
#   From: 2010.06.25/outbox.cif.g09.slc.cpg/sg10_32_cif.got.tgz:63639.got - 2010.06.27 22:07:45.
