data_PCOD8064623
_publ_section_title
;
Structure prediction by ZEFSAII (Michael W. Deem and Ramdas Pophale) SiO2 
 PCOD8064623
Probable space group: P 2/M
;
_chemical_formula_sum "Si O2"
_cell_formula_units_Z 32
_cell_length_a 30.039990
_cell_length_b 9.312405
_cell_length_c 12.583446
_cell_angle_alpha 90.000000
_cell_angle_beta 151.779744
_cell_angle_gamma 90.000000
_cell_volume 1664.546472
_symmetry_space_group_name_H-M "P 2/M"
_symmetry_group_IT_number 10
_symmetry_cell_setting 'monoclinic'
loop_
_space_group_symop_operation_xyz
x,y,z
-x,y,-z
-x,-y,-z
x,-y,z
loop_
_atom_site_type_symbol
_atom_site_label
_atom_site_fract_x
_atom_site_fract_y
_atom_site_fract_z
Si Si1 0.324129 0.666979 0.391279
Si Si2 0.248817 0.169129 0.865399
Si Si3 0.274963 0.162487 0.679692
Si Si4 0.116314 0.667388 0.997013
Si Si5 0.034339 0.167565 0.455221
Si Si6 0.100404 0.162987 0.170435
Si Si7 0.396902 0.329570 0.322100
Si Si8 0.609948 0.335667 0.245798
O O1 0.346044 0.500000 0.447693
O O2 0.382480 0.726282 0.413010
O O3 0.359067 0.736954 0.576288
O O4 0.213270 0.695272 0.136846
O O5 0.273274 0.215602 0.797187
O O6 0.142252 0.214759 0.668896
O O7 0.262299 0.000000 0.911974
O O8 0.318617 0.255048 0.086762
O O9 0.169062 0.174253 0.414734
O O10 0.344440 0.258563 0.758107
O O11 0.311955 0.000000 0.750251
O O12 0.092649 0.500000 0.954726
O O13 0.028854 0.746562 0.760559
O O14 0.135399 0.729115 0.153976
O O15 0.000000 0.208416 0.500000
O O16 0.021122 0.000000 0.402902
O O17 0.096203 0.000000 0.116848
O O18 0.000000 0.215164 0.000000
O O19 0.500000 0.282207 0.500000
O O20 0.382839 0.500000 0.284075
O O21 0.643648 0.500000 0.313186
O O22 0.500000 0.320158 0.000000
#
# Coordination Sequence:
#
# PCOD8064623 Si02
#       8
#     4   4   4   4   4   4   4   4
#     4   9  19  37  56  84 120 147 183 238 289 335
#     4  10  22  40  59  84 119 153 189 239 291 334
#     4  10  21  37  57  83 118 153 188 236 286 337
#     4  11  21  34  56  84 117 150 183 234 289 338
#     4  10  21  38  60  84 113 153 199 238 279 341
#     4  10  20  36  57  80 111 153 193 229 278 337
#     4  10  22  39  62  87 113 150 194 237 285 343
#     4  10  21  37  61  85 112 151 191 236 288 341
#
# _framework density 19.224456
#
# number of rings (size 3 to 8) (size 9 to 14) (size 15 to 20)
#    0.000    2.000    1.250    1.875    1.750    4.000 
#    0.000    2.500    0.000    0.000    0.000    0.000 
#    0.000    0.000    0.000    0.000    0.000    0.000 
#
# Total GULP energy -396850.922740 kJ/mol
# GULP energy per Si atom -12401.591336 kJ/mol
# Density = 1.918070 g / cm^3
# Si number density = 19.224456 Si / 1000 Ang^3
#
#
#
# Elastic Constant Matrix: (Units=GPa)
#
#
# Indices 1 2 3 4 5 6 
#
# 1 161.5315 45.9723 55.7452 0.0000 -1.6314 0.0000
# 2 45.9723 48.0038 38.8490 0.0000 0.5201 0.0000
# 3 55.7452 38.8490 97.4384 0.0000 -9.4665 0.0000
# 4 0.0000 0.0000 0.0000 34.3255 0.0000 0.2438
# 5 -1.6314 0.5201 -9.4665 0.0000 30.4056 0.0000
# 6 0.0000 0.0000 0.0000 0.2438 0.0000 31.5958
#
#
#
# Elastic Compliance Matrix: (Units=1/GPa)
#
#
# Indices 1 2 3 4 5 6 
#
# 1 0.008906 -0.006478 -0.002532 0.000000 -0.000200 0.000000
# 2 -0.006478 0.036071 -0.011105 0.000000 -0.004422 0.000000
# 3 -0.002532 -0.011105 0.016648 0.000000 0.005237 0.000000
# 4 0.000000 0.000000 0.000000 0.029134 0.000000 -0.000225
# 5 -0.000200 -0.004422 0.005237 0.000000 0.034584 0.000000
# 6 0.000000 0.000000 0.000000 -0.000225 0.000000 0.031651
#
#
# Mechanical properties :
#
#
# Convention : Reuss Voigt Hill
#
# Bulk Modulus (GPa) = 46.74026 65.34520 56.04273
# Shear Modulus (GPa) = 24.46709 30.35919 27.41314
#
# Velocity S-wave (km/s) = 3.57137 3.97822 3.78027
# Velocity P-wave (km/s) = 6.43210 7.42739 6.94759
#
# Compressibility (1/GPa) = 0.02139483
#
# Stress axis : x y z
#
# Youngs Moduli (GPa) = 112.28188 27.72335 60.06813
#
# Poissons Ratio (x) = 0.17960 0.15208
# Poissons Ratio (y) = 0.72738 0.66705
# Poissons Ratio (z) = 0.28428 0.30787
#
# Static dielectric constant tensor:
#      x y z
#    x 3.806810 0.000000 -0.088660 
#    y 0.000000 3.357530 0.000000 
#    z -0.088660 0.000000 3.581520 
# 
# 
# High freq. dielectric constant tensor:
#      x y z
#    x 1.761810 0.000000 -0.000080 
#    y 0.000000 1.727160 0.000000 
#    z -0.000080 0.000000 1.756910 
# 
# From -- ./inp_files/58213.got.cif
#   From: 2010.06.25/outbox.cif.g09.slc.cpg/sg10_30_cif.got.tgz:58213.got - 2010.06.27 22:07:45.
