data_PCOD8064794
_publ_section_title
;
Structure prediction by ZEFSAII (Michael W. Deem and Ramdas Pophale) SiO2 
 PCOD8064794
Probable space group: P 2/M
;
_chemical_formula_sum "Si O2"
_cell_formula_units_Z 32
_cell_length_a 15.394100
_cell_length_b 9.155839
_cell_length_c 11.960858
_cell_angle_alpha 90.000000
_cell_angle_beta 89.984612
_cell_angle_gamma 90.000000
_cell_volume 1685.833849
_symmetry_space_group_name_H-M "P 2/M"
_symmetry_group_IT_number 10
_symmetry_cell_setting 'monoclinic'
loop_
_space_group_symop_operation_xyz
x,y,z
-x,y,-z
-x,-y,-z
x,-y,z
loop_
_atom_site_type_symbol
_atom_site_label
_atom_site_fract_x
_atom_site_fract_y
_atom_site_fract_z
Si Si1 0.903651 0.332672 0.218811
Si Si2 0.657984 0.172559 0.999943
Si Si3 0.745885 0.672069 0.627073
Si Si4 0.401116 0.829252 0.238027
Si Si5 0.856055 0.827069 0.999906
Si Si6 0.096439 0.332689 0.219291
Si Si7 0.745801 0.327889 0.372194
Si Si8 0.401433 0.829265 0.762192
O O1 0.884290 0.500000 0.185435
O O2 0.832155 0.275954 0.306875
O O3 0.999953 0.318345 0.272740
O O4 0.902665 0.234925 0.108624
O O5 0.612205 0.232876 0.887892
O O6 0.756804 0.225952 0.000435
O O7 0.650402 0.000000 0.999669
O O8 0.611679 0.232565 0.111761
O O9 0.732816 0.500000 0.636323
O O10 0.660787 0.747261 0.676380
O O11 0.832378 0.723669 0.692161
O O12 0.757051 0.722645 0.499629
O O13 0.499862 0.799920 0.274999
O O14 0.377950 0.000000 0.241923
O O15 0.902032 0.765487 0.890614
O O16 0.865040 0.000000 0.000031
O O17 0.115797 0.500000 0.185752
O O18 0.732964 0.500000 0.362923
O O19 0.660560 0.252941 0.323135
O O20 0.378209 0.000000 0.758199
#
# Coordination Sequence:
#
# PCOD8064794 Si02
#       8
#     4   4   4   4   4   4   4   4
#     4  10  21  37  57  81 110 144 182 224 270 322
#     4   9  17  32  55  82 110 139 172 216 267 317
#     4  10  22  39  57  78 107 144 185 229 273 316
#     4  10  20  36  59  84 110 142 180 221 268 325
#     4  11  20  33  57  85 113 144 177 218 271 328
#     4  10  21  37  57  81 110 144 182 224 270 322
#     4  10  22  39  57  78 107 144 185 229 273 316
#     4  10  20  36  59  84 110 142 180 221 268 325
#
# _framework density 18.981703
#
# number of rings (size 3 to 8) (size 9 to 14) (size 15 to 20)
#    0.000    2.000    2.500    1.125    0.000    5.500 
#    0.000    5.625    0.000    1.500    0.000    3.500 
#    0.000    0.000    0.000    0.000    0.000    0.000 
#
# Total GULP energy -396838.975307 kJ/mol
# GULP energy per Si atom -12401.217978 kJ/mol
# Density = 1.893850 g / cm^3
# Si number density = 18.981703 Si / 1000 Ang^3
#
#
#
# Elastic Constant Matrix: (Units=GPa)
#
#
# Indices 1 2 3 4 5 6 
#
# 1 134.5288 35.6754 71.8767 0.0000 0.8070 0.0000
# 2 35.6754 37.3872 40.7644 0.0000 -0.0870 0.0000
# 3 71.8767 40.7644 149.5860 0.0000 0.4979 0.0000
# 4 0.0000 0.0000 0.0000 24.9328 0.0000 -0.0431
# 5 0.8070 -0.0870 0.4979 0.0000 10.9829 0.0000
# 6 0.0000 0.0000 0.0000 -0.0431 0.0000 29.2754
#
#
#
# Elastic Compliance Matrix: (Units=1/GPa)
#
#
# Indices 1 2 3 4 5 6 
#
# 1 0.011099 -0.006801 -0.003477 0.000000 -0.000712 0.000000
# 2 -0.006801 0.042228 -0.008244 0.000000 0.001208 0.000000
# 3 -0.003477 -0.008244 0.010604 0.000000 -0.000290 0.000000
# 4 0.000000 0.000000 0.000000 0.040108 0.000000 0.000059
# 5 -0.000712 0.001208 -0.000290 0.000000 0.091126 0.000000
# 6 0.000000 0.000000 0.000000 0.000059 0.000000 0.034158
#
#
# Mechanical properties :
#
#
# Convention : Reuss Voigt Hill
#
# Bulk Modulus (GPa) = 37.19387 68.68165 52.93776
# Shear Modulus (GPa) = 18.16004 24.58391 21.37197
#
# Velocity S-wave (km/s) = 3.09643 3.60271 3.35912
# Velocity P-wave (km/s) = 5.69394 7.31899 6.55700
#
# Compressibility (1/GPa) = 0.02688615
#
# Stress axis : x y z
#
# Youngs Moduli (GPa) = 90.09744 23.68089 94.30778
#
# Poissons Ratio (x) = 0.16105 0.32795
# Poissons Ratio (y) = 0.61276 0.77746
# Poissons Ratio (z) = 0.31331 0.19522
#
# Static dielectric constant tensor:
#      x y z
#    x 3.622200 0.000000 0.001630 
#    y 0.000000 3.259160 0.000000 
#    z 0.001630 0.000000 3.547690 
# 
# 
# High freq. dielectric constant tensor:
#      x y z
#    x 1.753670 0.000000 0.000050 
#    y 0.000000 1.715430 0.000000 
#    z 0.000050 0.000000 1.734140 
# 
# From -- ./inp_files/43000.got.cif
#   From: 2010.06.25/outbox.cif.g09.slc.cpg/sg10_22_cif.got.tgz:43000.got - 2010.06.27 22:07:45.
