data_PCOD8064240
_publ_section_title
;
Structure prediction by ZEFSAII (Michael W. Deem and Ramdas Pophale) SiO2 
 PCOD8064240
Probable space group: P 2/M
;
_chemical_formula_sum "Si O2"
_cell_formula_units_Z 28
_cell_length_a 24.788411
_cell_length_b 9.411386
_cell_length_c 11.306140
_cell_angle_alpha 90.000000
_cell_angle_beta 32.919171
_cell_angle_gamma 90.000000
_cell_volume 1433.443253
_symmetry_space_group_name_H-M "P 2/M"
_symmetry_group_IT_number 10
_symmetry_cell_setting 'monoclinic'
loop_
_space_group_symop_operation_xyz
x,y,z
-x,y,-z
-x,-y,-z
x,-y,z
loop_
_atom_site_type_symbol
_atom_site_label
_atom_site_fract_x
_atom_site_fract_y
_atom_site_fract_z
Si Si1 0.443285 0.167478 0.721066
Si Si2 0.435402 0.833139 0.002247
Si Si3 0.900348 0.845311 0.892704
Si Si4 0.111141 0.160034 0.817630
Si Si5 0.758699 0.338603 0.583662
Si Si6 0.084228 0.340528 0.500364
Si Si7 0.224687 0.160390 0.089190
O O1 0.500000 0.232503 0.500000
O O2 0.484403 0.201601 0.780439
O O3 0.440423 0.000000 0.707595
O O4 0.331463 0.229477 0.920117
O O5 0.410502 0.000000 0.054135
O O6 0.500000 0.790133 0.000000
O O7 0.334669 0.744526 0.192138
O O8 0.797619 0.833237 0.009263
O O9 0.976573 0.720576 0.725845
O O10 0.950832 0.000000 0.774053
O O11 0.863320 0.838870 0.093219
O O12 0.198347 0.258832 0.608560
O O13 0.117739 0.000000 0.751371
O O14 0.000000 0.220774 0.000000
O O15 0.727412 0.500000 0.609829
O O16 0.848609 0.335670 0.508479
O O17 0.070482 0.500000 0.478922
O O18 0.134547 0.248500 0.307510
O O19 0.221735 0.000000 0.145071
#
# Coordination Sequence:
#
# PCOD8064240 Si02
#       7
#     4   4   4   4   4   4   4
#     4   9  18  34  58  86 113 142 179 230 289 340
#     4  10  21  38  63  90 111 141 189 242 291 344
#     4  10  21  35  54  83 113 147 190 234 279 330
#     4  10  20  35  56  81 112 149 188 235 283 326
#     4  11  23  37  57  83 113 152 191 229 278 339
#     4  11  22  35  54  80 112 151 191 230 271 328
#     4  10  20  35  57  82 111 146 185 230 279 337
#
# _framework density 19.533386
#
# number of rings (size 3 to 8) (size 9 to 14) (size 15 to 20)
#    0.000    1.857    2.857    1.286    0.000    5.714 
#    0.000    4.286    0.000    1.714    0.000    0.000 
#    0.000    0.000    0.000    0.000    0.000    0.000 
#
# Total GULP energy -346942.333174 kJ/mol
# GULP energy per Si atom -12390.797613 kJ/mol
# Density = 1.948893 g / cm^3
# Si number density = 19.533386 Si / 1000 Ang^3
#
#
#
# Elastic Constant Matrix: (Units=GPa)
#
#
# Indices 1 2 3 4 5 6 
#
# 1 113.4488 23.0073 33.0686 0.0000 15.5262 0.0000
# 2 23.0073 78.1578 38.8892 0.0000 3.1942 0.0000
# 3 33.0686 38.8892 87.3602 0.0000 14.9748 0.0000
# 4 0.0000 0.0000 0.0000 -15.1443 0.0000 -7.2004
# 5 15.5262 3.1942 14.9748 0.0000 27.3608 0.0000
# 6 0.0000 0.0000 0.0000 -7.2004 0.0000 5.9250
#
#
#
# Elastic Compliance Matrix: (Units=1/GPa)
#
#
# Indices 1 2 3 4 5 6 
#
# 1 0.010475 -0.001678 -0.002464 0.000000 -0.004400 0.000000
# 2 -0.001678 0.016836 -0.007378 0.000000 0.003025 0.000000
# 3 -0.002464 -0.007378 0.016858 0.000000 -0.006967 0.000000
# 4 0.000000 0.000000 0.000000 -0.041850 0.000000 -0.050859
# 5 -0.004400 0.003025 -0.006967 0.000000 0.042505 0.000000
# 6 0.000000 0.000000 0.000000 -0.050859 0.000000 0.106971
#
#
# Mechanical properties :
#
#
# Convention : Reuss Voigt Hill
#
# Bulk Modulus (GPa) = 47.32700 52.09967 49.71334
# Shear Modulus (GPa) = 27.49089 15.89505 21.69297
#
# Velocity S-wave (km/s) = 3.75558 2.85570 3.33612
# Velocity P-wave (km/s) = 6.56408 6.13216 6.35179
#
# Compressibility (1/GPa) = 0.02112959
#
# Stress axis : x y z
#
# Youngs Moduli (GPa) = 95.46365 59.39646 59.31787
#
# Poissons Ratio (x) = 0.09965 0.14617
# Poissons Ratio (y) = 0.16016 0.43765
# Poissons Ratio (z) = 0.23524 0.43823
#
# Static dielectric constant tensor:
#      x y z
#    x 3.820720 0.000000 0.170870 
#    y 0.000000 3.562950 0.000000 
#    z 0.170870 0.000000 3.463350 
# 
# 
# High freq. dielectric constant tensor:
#      x y z
#    x 1.775740 0.000000 0.012070 
#    y 0.000000 1.738040 0.000000 
#    z 0.012070 0.000000 1.745230 
# 
# From -- ./inp_files/57392.got.cif
#   From: 2010.06.25/outbox.cif.g09.slc.cpg/sg10_29_cif.got.tgz:57392.got - 2010.06.27 22:07:45.
