data_PCOD8064211
_publ_section_title
;
Structure prediction by ZEFSAII (Michael W. Deem and Ramdas Pophale) SiO2 
 PCOD8064211
Probable space group: P 2/M
;
_chemical_formula_sum "Si O2"
_cell_formula_units_Z 28
_cell_length_a 23.387120
_cell_length_b 8.535721
_cell_length_c 20.376243
_cell_angle_alpha 90.000000
_cell_angle_beta 19.615850
_cell_angle_gamma 90.000000
_cell_volume 1365.551684
_symmetry_space_group_name_H-M "P 2/M"
_symmetry_group_IT_number 10
_symmetry_cell_setting 'monoclinic'
loop_
_space_group_symop_operation_xyz
x,y,z
-x,y,-z
-x,-y,-z
x,-y,z
loop_
_atom_site_type_symbol
_atom_site_label
_atom_site_fract_x
_atom_site_fract_y
_atom_site_fract_z
Si Si1 0.460619 0.670984 0.242409
Si Si2 0.414677 0.313466 0.432959
Si Si3 0.784622 0.185530 0.053590
Si Si4 0.058554 0.822403 0.510144
Si Si5 0.851656 0.327426 0.844389
Si Si6 0.398471 0.319714 0.169997
Si Si7 0.061670 0.816646 0.861194
O O1 0.371725 0.500000 0.331611
O O2 0.390215 0.754576 0.384602
O O3 0.429813 0.764281 0.207175
O O4 0.657312 0.647056 0.040044
O O5 0.433937 0.500000 0.409911
O O6 0.591159 0.248944 0.273955
O O7 0.245223 0.265898 0.654764
O O8 0.771327 0.000000 0.065261
O O9 0.874188 0.247972 0.890806
O O10 0.912506 0.241380 0.973209
O O11 0.915434 0.787589 0.718478
O O12 0.000000 0.793786 0.500000
O O13 0.201910 0.694466 0.367089
O O14 0.123943 0.000000 0.448631
O O15 0.940824 0.500000 0.747704
O O16 0.457959 0.500000 0.110398
O O17 0.500000 0.237245 0.000000
O O18 0.092969 0.000000 0.818450
O O19 0.000000 0.772133 0.000000
#
# Coordination Sequence:
#
# PCOD8064211 Si02
#       7
#     4   4   4   4   4   4   4
#     4   8  17  34  55  82 110 141 184 236 290 342
#     4  10  21  38  61  90 125 162 204 252 306 365
#     4  10  21  39  63  91 124 161 203 250 307 367
#     4  11  24  38  52  77 114 152 191 237 291 350
#     4  10  20  37  61  85 112 148 192 242 294 351
#     4  10  20  35  56  80 107 144 191 240 289 344
#     4  10  23  42  63  89 123 164 208 254 306 368
#
# _framework density 20.504532999999999
#
# number of rings (size 3 to 8) (size 9 to 14) (size 15 to 20)
#    0.000    2.143    0.000    3.429    2.000    4.571 
#    0.000    6.429    0.000    0.000    0.000    0.000 
#    0.000    0.000    0.000    0.000    0.000    0.000 
#
# Total GULP energy -346948.239524 kJ/mol
# GULP energy per Si atom -12391.008554 kJ/mol
# Density = 2.045786 g / cm^3
# Si number density = 20.504533 Si / 1000 Ang^3
#
#
#
# Elastic Constant Matrix: (Units=GPa)
#
#
# Indices 1 2 3 4 5 6 
#
# 1 155.5984 39.1225 62.9165 0.0000 10.5999 0.0000
# 2 39.1225 52.3640 23.6371 0.0000 1.3114 0.0000
# 3 62.9165 23.6371 100.9497 0.0000 19.0605 0.0000
# 4 0.0000 0.0000 0.0000 29.0964 0.0000 -0.6977
# 5 10.5999 1.3114 19.0605 0.0000 26.9988 0.0000
# 6 0.0000 0.0000 0.0000 -0.6977 0.0000 17.0129
#
#
#
# Elastic Compliance Matrix: (Units=1/GPa)
#
#
# Indices 1 2 3 4 5 6 
#
# 1 0.009645 -0.005034 -0.004804 0.000000 -0.000151 0.000000
# 2 -0.005034 0.024177 -0.003086 0.000000 0.002981 0.000000
# 3 -0.004804 -0.003086 0.015274 0.000000 -0.008747 0.000000
# 4 0.000000 0.000000 0.000000 0.034402 0.000000 0.001411
# 5 -0.000151 0.002981 -0.008747 0.000000 0.043128 0.000000
# 6 0.000000 0.000000 0.000000 0.001411 0.000000 0.058837
#
#
# Mechanical properties :
#
#
# Convention : Reuss Voigt Hill
#
# Bulk Modulus (GPa) = 43.01584 62.25157 52.63371
# Shear Modulus (GPa) = 22.82456 26.83735 24.83096
#
# Velocity S-wave (km/s) = 3.34001 3.62173 3.48372
# Velocity P-wave (km/s) = 5.99153 6.92207 6.47354
#
# Compressibility (1/GPa) = 0.02324725
#
# Stress axis : x y z
#
# Youngs Moduli (GPa) = 103.67649 41.36232 65.46872
#
# Poissons Ratio (x) = 0.20821 0.31453
# Poissons Ratio (y) = 0.52190 0.20206
# Poissons Ratio (z) = 0.49810 0.12766
#
# Static dielectric constant tensor:
#      x y z
#    x 3.706650 0.000000 -0.090610 
#    y 0.000000 3.602190 0.000000 
#    z -0.090610 0.000000 3.416280 
# 
# 
# High freq. dielectric constant tensor:
#      x y z
#    x 1.813060 0.000000 0.006360 
#    y 0.000000 1.781280 0.000000 
#    z 0.006360 0.000000 1.802490 
# 
# From -- ./inp_files/86464.got.cif
#   From: 2010.06.25/outbox.cif.g09.slc.cpg/sg10_44_cif.got.tgz:86464.got - 2010.06.27 22:07:45.
