data_PCOD8064180
_publ_section_title
;
Structure prediction by ZEFSAII (Michael W. Deem and Ramdas Pophale) SiO2 
 PCOD8064180
Probable space group: P 2/M
;
_chemical_formula_sum "Si O2"
_cell_formula_units_Z 24
_cell_length_a 9.104638
_cell_length_b 11.748983
_cell_length_c 23.877809
_cell_angle_alpha 90.000000
_cell_angle_beta 151.599516
_cell_angle_gamma 90.000000
_cell_volume 1214.865416
_symmetry_space_group_name_H-M "P 2/M"
_symmetry_group_IT_number 10
_symmetry_cell_setting 'monoclinic'
loop_
_space_group_symop_operation_xyz
x,y,z
-x,y,-z
-x,-y,-z
x,-y,z
loop_
_atom_site_type_symbol
_atom_site_label
_atom_site_fract_x
_atom_site_fract_y
_atom_site_fract_z
Si Si1 0.330975 0.218777 0.290426
Si Si2 0.636488 0.128201 0.882466
Si Si3 0.259975 0.000000 0.341226
Si Si4 0.615372 0.634396 0.477170
Si Si5 0.794048 0.777885 0.347431
Si Si6 0.767238 0.870103 0.046099
Si Si7 0.077934 0.000000 0.397722
O O1 0.244221 0.107157 0.295711
O O2 0.371297 0.320042 0.348881
O O3 0.648128 0.219897 0.360774
O O4 0.038026 0.223137 0.149604
O O5 0.481437 0.223311 0.791018
O O6 0.509714 0.000000 0.823341
O O7 0.577793 0.161746 0.926690
O O8 0.000000 0.128564 0.000000
O O9 0.994879 0.000000 0.302175
O O10 0.559628 0.000000 0.478353
O O11 0.500000 0.675569 0.500000
O O12 0.614741 0.500000 0.472960
O O13 0.966132 0.674878 0.581849
O O14 0.980380 0.891742 0.400368
O O15 0.903168 0.000000 0.086983
O O16 0.500000 0.862149 0.000000
#
# Coordination Sequence:
#
# PCOD8064180 Si02
#       7
#     4   4   2   4   4   4   2
#     4  12  23  38  63  92 127 160 204 257 304 367
#     4  10  20  35  55  86 133 170 197 235 290 364
#     4  11  23  35  53  87 132 163 203 242 301 377
#     4  11  27  48  67  87 115 158 210 265 319 368
#     4  12  23  37  64  92 125 164 202 253 309 365
#     4  10  22  35  55  90 131 172 203 237 288 363
#     4  11  23  35  53  89 126 170 199 239 309 372
#
# _framework density 19.755274
#
# number of rings (size 3 to 8) (size 9 to 14) (size 15 to 20)
#    0.000    1.000    5.000    2.000    4.667    2.000 
#    0.000    0.000    0.000    2.000    0.000    0.000 
#    0.000    0.000    0.000    0.000    0.000    0.000 
#
# Total GULP energy -297329.007396 kJ/mol
# GULP energy per Si atom -12388.708642 kJ/mol
# Density = 1.971031 g / cm^3
# Si number density = 19.755274 Si / 1000 Ang^3
#
#
#
# Elastic Constant Matrix: (Units=GPa)
#
#
# Indices 1 2 3 4 5 6 
#
# 1 106.5266 27.2686 0.9718 0.0000 -12.0717 0.0000
# 2 27.2686 70.8792 24.7210 0.0000 -6.2403 0.0000
# 3 0.9718 24.7210 70.5472 0.0000 -6.3106 0.0000
# 4 0.0000 0.0000 0.0000 14.6885 0.0000 -4.0753
# 5 -12.0717 -6.2403 -6.3106 0.0000 27.7900 0.0000
# 6 0.0000 0.0000 0.0000 -4.0753 0.0000 21.8730
#
#
#
# Elastic Compliance Matrix: (Units=1/GPa)
#
#
# Indices 1 2 3 4 5 6 
#
# 1 0.010993 -0.004487 0.001795 0.000000 0.004175 0.000000
# 2 -0.004487 0.018060 -0.006204 0.000000 0.000697 0.000000
# 3 0.001795 -0.006204 0.016607 0.000000 0.003157 0.000000
# 4 0.000000 0.000000 0.000000 0.071792 0.000000 0.013376
# 5 0.004175 0.000697 0.003157 0.000000 0.038671 0.000000
# 6 0.000000 0.000000 0.000000 0.013376 0.000000 0.048211
#
#
# Mechanical properties :
#
#
# Convention : Reuss Voigt Hill
#
# Bulk Modulus (GPa) = 35.88728 39.31954 37.60341
# Shear Modulus (GPa) = 21.60607 25.86974 23.73791
#
# Velocity S-wave (km/s) = 3.31068 3.62264 3.47017
# Velocity P-wave (km/s) = 5.72883 6.11920 5.92723
#
# Compressibility (1/GPa) = 0.02786503
#
# Stress axis : x y z
#
# Youngs Moduli (GPa) = 90.96900 55.37005 60.21635
#
# Poissons Ratio (x) = 0.24847 -0.10806
# Poissons Ratio (y) = 0.40822 0.37361
# Poissons Ratio (z) = -0.16325 0.34354
#
# Static dielectric constant tensor:
#      x y z
#    x 3.845610 0.000000 0.064240 
#    y 0.000000 3.107170 0.000000 
#    z 0.064240 0.000000 3.667150 
# 
# 
# High freq. dielectric constant tensor:
#      x y z
#    x 1.806310 0.000000 -0.005010 
#    y 0.000000 1.703760 0.000000 
#    z -0.005010 0.000000 1.789180 
# 
# From -- ./inp_files/88142.got.cif
#   From: 2010.06.25/outbox.cif.g09.slc.cpg/sg10_45_cif.got.tgz:88142.got - 2010.06.27 22:07:45.
