data_PCOD8064738
_publ_section_title
;
Structure prediction by ZEFSAII (Michael W. Deem and Ramdas Pophale) SiO2 
 PCOD8064738
Probable space group: P 2/M
;
_chemical_formula_sum "Si O2"
_cell_formula_units_Z 26
_cell_length_a 9.853363
_cell_length_b 11.997155
_cell_length_c 13.678248
_cell_angle_alpha 90.000000
_cell_angle_beta 57.991464
_cell_angle_gamma 90.000000
_cell_volume 1371.113076
_symmetry_space_group_name_H-M "P 2/M"
_symmetry_group_IT_number 10
_symmetry_cell_setting 'monoclinic'
loop_
_space_group_symop_operation_xyz
x,y,z
-x,y,-z
-x,-y,-z
x,-y,z
loop_
_atom_site_type_symbol
_atom_site_label
_atom_site_fract_x
_atom_site_fract_y
_atom_site_fract_z
Si Si1 0.733931 0.500000 0.078576
Si Si2 0.570017 0.127501 0.872440
Si Si3 0.826320 0.719610 0.286945
Si Si4 0.694779 0.372909 0.525577
Si Si5 0.023091 0.500000 0.835755
Si Si6 0.425904 0.295286 0.775762
Si Si7 0.062128 0.127202 0.293412
Si Si8 0.000000 0.720771 0.500000
O O1 0.858244 0.500000 0.118908
O O2 0.620368 0.391746 0.129215
O O3 0.836004 0.500000 0.939156
O O4 0.503273 0.193990 0.804964
O O5 0.758986 0.137728 0.813891
O O6 0.517087 0.000000 0.875625
O O7 0.500000 0.175437 0.000000
O O8 0.703301 0.703132 0.424661
O O9 0.940710 0.610329 0.240901
O O10 0.733049 0.743118 0.221788
O O11 0.939411 0.826416 0.259233
O O12 0.673265 0.500000 0.500598
O O13 0.545613 0.339208 0.648165
O O14 0.854695 0.359414 0.527869
O O15 0.051147 0.199309 0.394013
O O16 0.015671 0.000000 0.334186
#
# Coordination Sequence:
#
# PCOD8064738 Si02
#       8
#     2   4   4   4   2   4   4   2
#     4   9  20  33  57  81 115 155 187 227 284 339
#     4  10  23  43  63  81 111 155 199 240 288 342
#     4  10  22  35  60  89 117 153 189 237 286 347
#     4  11  20  35  58  89 122 155 191 231 286 348
#     4   9  18  37  52  82 118 154 187 224 283 344
#     4  11  21  38  60  88 118 149 192 239 289 339
#     4  10  21  39  59  82 113 151 193 238 289 341
#     4  10  20  36  58  84 114 155 193 240 280 344
#
# _framework density 18.962696000000001
#
# number of rings (size 3 to 8) (size 9 to 14) (size 15 to 20)
#    0.000    1.846    3.077    0.923    2.154    1.231 
#    0.000    1.154    0.000    5.538    0.000    0.000 
#    0.000    0.000    0.000    0.000    0.000    0.000 
#
# Total GULP energy -322435.646797 kJ/mol
# GULP energy per Si atom -12401.371031 kJ/mol
# Density = 1.891954 g / cm^3
# Si number density = 18.962696 Si / 1000 Ang^3
#
#
#
# Elastic Constant Matrix: (Units=GPa)
#
#
# Indices 1 2 3 4 5 6 
#
# 1 75.5255 31.4196 18.3731 0.0000 5.7028 0.0000
# 2 31.4196 79.6067 23.9487 0.0000 0.0541 0.0000
# 3 18.3731 23.9487 84.8762 0.0000 -20.4100 0.0000
# 4 0.0000 0.0000 0.0000 27.1561 0.0000 -3.6731
# 5 5.7028 0.0541 -20.4100 0.0000 21.6561 0.0000
# 6 0.0000 0.0000 0.0000 -3.6731 0.0000 20.7017
#
#
#
# Elastic Compliance Matrix: (Units=1/GPa)
#
#
# Indices 1 2 3 4 5 6 
#
# 1 0.017199 -0.005517 -0.004205 0.000000 -0.008478 0.000000
# 2 -0.005517 0.015888 -0.003813 0.000000 -0.002180 0.000000
# 3 -0.004205 -0.003813 0.018150 0.000000 0.018222 0.000000
# 4 0.000000 0.000000 0.000000 0.037730 0.000000 0.006694
# 5 -0.008478 -0.002180 0.018222 0.000000 0.065588 0.000000
# 6 0.000000 0.000000 0.000000 0.006694 0.000000 0.049493
#
#
# Mechanical properties :
#
#
# Convention : Reuss Voigt Hill
#
# Bulk Modulus (GPa) = 41.38019 43.05459 42.21739
# Shear Modulus (GPa) = 20.90531 24.98725 22.94628
#
# Velocity S-wave (km/s) = 3.32391 3.63396 3.48239
# Velocity P-wave (km/s) = 6.04983 6.35309 6.20331
#
# Compressibility (1/GPa) = 0.02416615
#
# Stress axis : x y z
#
# Youngs Moduli (GPa) = 58.14294 62.94087 55.09687
#
# Poissons Ratio (x) = 0.34727 0.23168
# Poissons Ratio (y) = 0.32080 0.21008
# Poissons Ratio (z) = 0.24449 0.23999
#
# Static dielectric constant tensor:
#      x y z
#    x 3.486820 0.000000 -0.117650 
#    y 0.000000 3.456290 0.000000 
#    z -0.117650 0.000000 3.626870 
# 
# 
# High freq. dielectric constant tensor:
#      x y z
#    x 1.731540 0.000000 -0.009330 
#    y 0.000000 1.729930 0.000000 
#    z -0.009330 0.000000 1.746420 
# 
# From -- ./inp_files/60903.got.cif
#   From: 2010.06.25/outbox.cif.g09.slc.cpg/sg10_31_cif.got.tgz:60903.got - 2010.06.27 22:07:45.
