data_PCOD8064414
_publ_section_title
;
Structure prediction by ZEFSAII (Michael W. Deem and Ramdas Pophale) SiO2 
 PCOD8064414
Probable space group: P 2/M
;
_chemical_formula_sum "Si O2"
_cell_formula_units_Z 32
_cell_length_a 16.312292
_cell_length_b 9.223670
_cell_length_c 10.734448
_cell_angle_alpha 90.000000
_cell_angle_beta 87.860846
_cell_angle_gamma 90.000000
_cell_volume 1613.970911
_symmetry_space_group_name_H-M "P 2/M"
_symmetry_group_IT_number 10
_symmetry_cell_setting 'monoclinic'
loop_
_space_group_symop_operation_xyz
x,y,z
-x,y,-z
-x,-y,-z
x,-y,z
loop_
_atom_site_type_symbol
_atom_site_label
_atom_site_fract_x
_atom_site_fract_y
_atom_site_fract_z
Si Si1 0.771316 0.829679 0.112088
Si Si2 0.784581 0.335628 0.626202
Si Si3 0.950975 0.166527 0.630608
Si Si4 0.386050 0.835390 0.737229
Si Si5 0.541550 0.330597 0.760697
Si Si6 0.954013 0.827828 0.127008
Si Si7 0.637251 0.833566 0.546052
Si Si8 0.301148 0.660451 0.105002
O O1 0.705877 0.783711 0.221532
O O2 0.861269 0.763252 0.134987
O O3 0.781081 0.000000 0.103160
O O4 0.737235 0.778294 0.982224
O O5 0.788300 0.500000 0.575446
O O6 0.873874 0.268927 0.621497
O O7 0.726507 0.240848 0.540422
O O8 0.748707 0.331528 0.765555
O O9 0.000000 0.182131 0.500000
O O10 0.002256 0.222469 0.747744
O O11 0.923786 0.000000 0.652870
O O12 0.452479 0.732873 0.801653
O O13 0.398656 0.823800 0.589732
O O14 0.399884 0.000000 0.782574
O O15 0.535068 0.500000 0.729136
O O16 0.573750 0.248704 0.637122
O O17 0.603287 0.304344 0.872586
O O18 0.951769 0.000000 0.122400
O O19 0.000000 0.768259 0.000000
O O20 0.645892 0.000000 0.589404
O O21 0.293499 0.500000 0.046216
#
# Coordination Sequence:
#
# PCOD8064414 Si02
#       8
#     4   4   4   4   4   4   4   4
#     4  10  21  36  57  82 111 145 184 236 287 336
#     4  10  21  37  57  82 114 149 187 232 282 338
#     4  10  21  35  58  87 114 149 192 239 293 348
#     4  10  22  36  53  81 115 148 185 234 286 335
#     4  10  21  37  57  81 112 149 188 232 281 335
#     4   9  18  34  57  84 113 146 189 238 288 343
#     4  10  20  35  58  83 112 148 189 233 279 336
#     4   9  20  38  56  78 108 144 187 231 277 335
#
# _framework density 19.826875999999999
#
# number of rings (size 3 to 8) (size 9 to 14) (size 15 to 20)
#    0.000    2.250    0.000    3.000    1.750    7.750 
#    0.000    3.125    0.000    2.250    0.000    0.000 
#    0.000    0.000    0.000    0.000    0.000    0.000 
#
# Total GULP energy -396781.285098 kJ/mol
# GULP energy per Si atom -12399.415159 kJ/mol
# Density = 1.978175 g / cm^3
# Si number density = 19.826876 Si / 1000 Ang^3
#
#
#
# Elastic Constant Matrix: (Units=GPa)
#
#
# Indices 1 2 3 4 5 6 
#
# 1 144.1391 54.8392 22.5494 0.0000 -0.7735 0.0000
# 2 54.8392 77.3154 16.1721 0.0000 1.0541 0.0000
# 3 22.5494 16.1721 57.6881 0.0000 4.4183 0.0000
# 4 0.0000 0.0000 0.0000 8.7818 0.0000 -5.3496
# 5 -0.7735 1.0541 4.4183 0.0000 18.5143 0.0000
# 6 0.0000 0.0000 0.0000 -5.3496 0.0000 20.4016
#
#
#
# Elastic Compliance Matrix: (Units=1/GPa)
#
#
# Indices 1 2 3 4 5 6 
#
# 1 0.009740 -0.006490 -0.002085 0.000000 0.001274 0.000000
# 2 -0.006490 0.018064 -0.002473 0.000000 -0.000709 0.000000
# 3 -0.002085 -0.002473 0.019190 0.000000 -0.004526 0.000000
# 4 0.000000 0.000000 0.000000 0.135519 0.000000 0.035535
# 5 0.001274 -0.000709 -0.004526 0.000000 0.055186 0.000000
# 6 0.000000 0.000000 0.000000 0.035535 0.000000 0.058334
#
#
# Mechanical properties :
#
#
# Convention : Reuss Voigt Hill
#
# Bulk Modulus (GPa) = 40.16474 51.80709 45.98592
# Shear Modulus (GPa) = 15.31734 21.91166 18.61450
#
# Velocity S-wave (km/s) = 2.78250 3.32799 3.06739
# Velocity P-wave (km/s) = 5.53397 6.39951 5.98241
#
# Compressibility (1/GPa) = 0.02489746
#
# Stress axis : x y z
#
# Youngs Moduli (GPa) = 102.67098 55.35881 52.11133
#
# Poissons Ratio (x) = 0.35925 0.10868
# Poissons Ratio (y) = 0.66629 0.12887
# Poissons Ratio (z) = 0.21412 0.13690
#
# Static dielectric constant tensor:
#      x y z
#    x 3.914070 0.000000 0.018020 
#    y 0.000000 3.606520 0.000000 
#    z 0.018020 0.000000 3.514230 
# 
# 
# High freq. dielectric constant tensor:
#      x y z
#    x 1.788050 0.000000 0.001470 
#    y 0.000000 1.758420 0.000000 
#    z 0.001470 0.000000 1.764130 
# 
# From -- ./inp_files/49800.got.cif
#   From: 2010.06.25/outbox.cif.g09.slc.cpg/sg10_25_cif.got.tgz:49800.got - 2010.06.27 22:07:45.
