data_PCOD8064368
_publ_section_title
;
Structure prediction by ZEFSAII (Michael W. Deem and Ramdas Pophale) SiO2 
 PCOD8064368
Probable space group: P 2/M
;
_chemical_formula_sum "Si O2"
_cell_formula_units_Z 28
_cell_length_a 9.077202
_cell_length_b 19.280052
_cell_length_c 15.893989
_cell_angle_alpha 90.000000
_cell_angle_beta 28.895844
_cell_angle_gamma 90.000000
_cell_volume 1344.116780
_symmetry_space_group_name_H-M "P 2/M"
_symmetry_group_IT_number 10
_symmetry_cell_setting 'monoclinic'
loop_
_space_group_symop_operation_xyz
x,y,z
-x,y,-z
-x,-y,-z
x,-y,z
loop_
_atom_site_type_symbol
_atom_site_label
_atom_site_fract_x
_atom_site_fract_y
_atom_site_fract_z
Si Si1 0.641085 0.650607 0.016736
Si Si2 0.641242 0.924528 0.519147
Si Si3 0.641270 0.075473 0.839601
Si Si4 0.649793 0.219552 0.770406
Si Si5 0.358915 0.349393 0.657821
Si Si6 0.651431 0.582015 0.674285
Si Si7 0.350219 0.780448 0.420192
O O1 0.558244 0.732021 0.067267
O O2 0.508846 0.608583 0.161280
O O3 0.500000 0.622068 0.000000
O O4 1.000000 0.640406 0.834326
O O5 0.500000 0.909758 0.500000
O O6 0.542377 0.860858 0.628313
O O7 0.999987 0.925975 0.329315
O O8 0.530984 0.000000 0.610035
O O9 0.542407 0.139141 0.829294
O O10 0.531016 0.000000 0.858970
O O11 0.500000 0.090248 0.000000
O O12 0.609820 0.245042 0.695091
O O13 0.000004 0.227095 0.624824
O O14 0.500000 0.377933 0.500000
O O15 0.491152 0.391413 0.670130
O O16 0.441752 0.267979 0.625515
O O17 0.631195 0.500000 0.684395
O O18 0.000000 0.608455 0.500000
#
# Coordination Sequence:
#
# PCOD8064368 Si02
#       7
#     4   4   4   4   4   4   4
#     4  12  25  42  67  97 131 172 215 260 311 372
#     4   9  18  32  50  75 108 151 203 257 314 373
#     4   9  18  32  50  75 108 151 203 257 314 373
#     4  10  20  35  57  84 119 160 206 263 318 372
#     4  12  25  42  67  97 131 172 215 260 311 372
#     4  11  25  47  73 101 134 167 204 255 311 372
#     4  10  20  35  57  84 119 160 206 263 318 372
#
# _framework density 20.831522
#
# number of rings (size 3 to 8) (size 9 to 14) (size 15 to 20)
#    0.000    1.571    1.429    3.857    0.000    5.714 
#    0.000    2.857    0.000    0.000    0.000    6.000 
#    0.000    0.000    0.000    0.000    0.000    0.000 
#
# Total GULP energy -347142.081563 kJ/mol
# GULP energy per Si atom -12397.931484 kJ/mol
# Density = 2.078411 g / cm^3
# Si number density = 20.831522 Si / 1000 Ang^3
#
#
#
# Elastic Constant Matrix: (Units=GPa)
#
#
# Indices 1 2 3 4 5 6 
#
# 1 131.4578 44.6048 61.8391 0.0000 2.4204 0.0000
# 2 44.6048 94.8399 45.4003 0.0000 -0.8206 0.0000
# 3 61.8391 45.4003 125.7820 0.0000 3.3880 0.0000
# 4 0.0000 0.0000 0.0000 26.1999 0.0000 -0.5307
# 5 2.4204 -0.8206 3.3880 0.0000 32.6367 0.0000
# 6 0.0000 0.0000 0.0000 -0.5307 0.0000 25.6770
#
#
#
# Elastic Compliance Matrix: (Units=1/GPa)
#
#
# Indices 1 2 3 4 5 6 
#
# 1 0.010563 -0.003012 -0.004094 0.000000 -0.000434 0.000000
# 2 -0.003012 0.013626 -0.003463 0.000000 0.000925 0.000000
# 3 -0.004094 -0.003463 0.011239 0.000000 -0.000950 0.000000
# 4 0.000000 0.000000 0.000000 0.038184 0.000000 0.000789
# 5 -0.000434 0.000925 -0.000950 0.000000 0.030794 0.000000
# 6 0.000000 0.000000 0.000000 0.000789 0.000000 0.038962
#
#
# Mechanical properties :
#
#
# Convention : Reuss Voigt Hill
#
# Bulk Modulus (GPa) = 69.97707 72.86313 71.42010
# Shear Modulus (GPa) = 29.53889 30.25175 29.89532
#
# Velocity S-wave (km/s) = 3.76971 3.81492 3.79238
# Velocity P-wave (km/s) = 7.25344 7.37957 7.31678
#
# Compressibility (1/GPa) = 0.01429040
#
# Stress axis : x y z
#
# Youngs Moduli (GPa) = 94.67072 73.38873 88.97916
#
# Poissons Ratio (x) = 0.22102 0.36431
# Poissons Ratio (y) = 0.28512 0.30809
# Poissons Ratio (z) = 0.38762 0.25411
#
# Static dielectric constant tensor:
#      x y z
#    x 3.733140 0.000000 -0.025800 
#    y 0.000000 4.133040 0.000000 
#    z -0.025800 0.000000 3.758170 
# 
# 
# High freq. dielectric constant tensor:
#      x y z
#    x 1.810400 0.000000 0.003670 
#    y 0.000000 1.829740 0.000000 
#    z 0.003670 0.000000 1.806790 
# 
# From -- ./inp_files/62459.got.cif
#   From: 2010.06.25/outbox.cif.g09.slc.cpg/sg10_32_cif.got.tgz:62459.got - 2010.06.27 22:07:45.
