data_PCOD8064511
_publ_section_title
;
Structure prediction by ZEFSAII (Michael W. Deem and Ramdas Pophale) SiO2 
 PCOD8064511
Probable space group: P 2/M
;
_chemical_formula_sum "Si O2"
_cell_formula_units_Z 32
_cell_length_a 25.315930
_cell_length_b 8.633163
_cell_length_c 16.268501
_cell_angle_alpha 90.000000
_cell_angle_beta 26.690456
_cell_angle_gamma 90.000000
_cell_volume 1597.063856
_symmetry_space_group_name_H-M "P 2/M"
_symmetry_group_IT_number 10
_symmetry_cell_setting 'monoclinic'
loop_
_space_group_symop_operation_xyz
x,y,z
-x,y,-z
-x,-y,-z
x,-y,z
loop_
_atom_site_type_symbol
_atom_site_label
_atom_site_fract_x
_atom_site_fract_y
_atom_site_fract_z
Si Si1 0.226628 0.167709 0.022638
Si Si2 0.789942 0.676868 0.518541
Si Si3 0.808581 0.321455 0.191417
Si Si4 0.395212 0.677410 0.088556
Si Si5 0.589690 0.182076 0.107804
Si Si6 0.373718 0.830069 0.660222
Si Si7 0.959473 0.182895 0.842296
Si Si8 0.324145 0.182632 0.477202
O O1 0.114331 0.252545 0.134212
O O2 0.183576 0.000000 0.116912
O O3 0.302373 0.258399 0.988180
O O4 0.319147 0.139050 0.823266
O O5 0.826278 0.500000 0.450309
O O6 0.728289 0.692714 0.692511
O O7 0.698232 0.733708 0.577967
O O8 0.904872 0.782874 0.359302
O O9 0.834576 0.500000 0.173978
O O10 0.692689 0.300337 0.298403
O O11 0.780363 0.234349 0.315927
O O12 0.918191 0.251290 0.987939
O O13 0.421749 0.500000 0.027121
O O14 0.500000 0.741563 0.000000
O O15 0.387043 0.779038 0.018762
O O16 0.457037 0.233682 0.319985
O O17 0.599316 0.000000 0.107864
O O18 0.500000 0.758462 0.500000
O O19 0.378164 0.000000 0.607888
O O20 0.935293 0.000000 0.879963
O O21 0.316345 0.000000 0.474660
#
# Coordination Sequence:
#
# PCOD8064511 Si02
#       8
#     4   4   4   4   4   4   4   4
#     4   8  16  32  54  81 111 146 185 233 283 326
#     4  11  23  40  61  84 114 150 190 237 290 344
#     4  11  22  35  53  81 117 154 194 237 286 342
#     4  10  21  39  60  84 118 153 182 223 292 356
#     4  10  20  35  60  90 117 145 189 240 283 334
#     4   9  16  30  52  75 108 152 196 238 285 335
#     4  10  21  40  62  82 112 154 199 238 282 337
#     4  11  22  36  57  87 118 150 193 239 288 343
#
# _framework density 20.036770000000001
#
# number of rings (size 3 to 8) (size 9 to 14) (size 15 to 20)
#    0.000    2.000    1.250    3.750    0.000    4.500 
#    0.000    6.250    0.000    3.750    0.000    0.000 
#    0.000    0.000    0.000    0.000    0.000    0.000 
#
# Total GULP energy -396488.315059 kJ/mol
# GULP energy per Si atom -12390.259846 kJ/mol
# Density = 1.999117 g / cm^3
# Si number density = 20.036770 Si / 1000 Ang^3
#
#
#
# Elastic Constant Matrix: (Units=GPa)
#
#
# Indices 1 2 3 4 5 6 
#
# 1 80.9198 10.7850 19.6569 0.0000 4.9582 0.0000
# 2 10.7850 46.1832 18.7304 0.0000 6.4075 0.0000
# 3 19.6569 18.7304 83.2017 0.0000 -5.2880 0.0000
# 4 0.0000 0.0000 0.0000 26.7163 0.0000 3.4847
# 5 4.9582 6.4075 -5.2880 0.0000 22.1890 0.0000
# 6 0.0000 0.0000 0.0000 3.4847 0.0000 20.0691
#
#
#
# Elastic Compliance Matrix: (Units=1/GPa)
#
#
# Indices 1 2 3 4 5 6 
#
# 1 0.013502 -0.001443 -0.003077 0.000000 -0.003334 0.000000
# 2 -0.001443 0.025583 -0.005958 0.000000 -0.008485 0.000000
# 3 -0.003077 -0.005958 0.014459 0.000000 0.005854 0.000000
# 4 0.000000 0.000000 0.000000 0.038298 0.000000 -0.006650
# 5 -0.003334 -0.008485 0.005854 0.000000 0.049658 0.000000
# 6 0.000000 0.000000 0.000000 -0.006650 0.000000 0.050983
#
#
# Mechanical properties :
#
#
# Convention : Reuss Voigt Hill
#
# Bulk Modulus (GPa) = 30.68461 34.29436 32.48948
# Shear Modulus (GPa) = 22.29154 24.53703 23.41429
#
# Velocity S-wave (km/s) = 3.33908 3.50323 3.42214
# Velocity P-wave (km/s) = 5.49667 5.78933 5.64489
#
# Compressibility (1/GPa) = 0.03258963
#
# Stress axis : x y z
#
# Youngs Moduli (GPa) = 74.06350 39.08798 69.16005
#
# Poissons Ratio (x) = 0.05639 0.21281
# Poissons Ratio (y) = 0.10684 0.41204
# Poissons Ratio (z) = 0.22790 0.23288
#
# Static dielectric constant tensor:
#      x y z
#    x 3.568240 0.000000 -0.020680 
#    y 0.000000 3.405370 0.000000 
#    z -0.020680 0.000000 3.557570 
# 
# 
# High freq. dielectric constant tensor:
#      x y z
#    x 1.783390 0.000000 -0.005740 
#    y 0.000000 1.757880 0.000000 
#    z -0.005740 0.000000 1.776400 
# 
# From -- ./inp_files/71432.got.cif
#   From: 2010.06.25/outbox.cif.g09.slc.cpg/sg10_36_cif.got.tgz:71432.got - 2010.06.27 22:07:45.
