data_PCOD8064169
_publ_section_title
;
Structure prediction by ZEFSAII (Michael W. Deem and Ramdas Pophale) SiO2 
 PCOD8064169
Probable space group: P 2/M
;
_chemical_formula_sum "Si O2"
_cell_formula_units_Z 32
_cell_length_a 24.699425
_cell_length_b 8.886641
_cell_length_c 16.226474
_cell_angle_alpha 90.000000
_cell_angle_beta 153.476477
_cell_angle_gamma 90.000000
_cell_volume 1590.499394
_symmetry_space_group_name_H-M "P 2/M"
_symmetry_group_IT_number 10
_symmetry_cell_setting 'monoclinic'
loop_
_space_group_symop_operation_xyz
x,y,z
-x,y,-z
-x,-y,-z
x,-y,z
loop_
_atom_site_type_symbol
_atom_site_label
_atom_site_fract_x
_atom_site_fract_y
_atom_site_fract_z
Si Si1 0.815899 0.670333 0.937743
Si Si2 0.260136 0.178359 0.861227
Si Si3 0.516206 0.177927 0.276229
Si Si4 0.262767 0.823629 0.533613
Si Si5 0.592224 0.821924 0.557266
Si Si6 0.947142 0.327976 0.841334
Si Si7 0.182054 0.322111 0.590701
Si Si8 0.905200 0.676305 0.234196
O O1 0.769865 0.500000 0.863721
O O2 0.728039 0.777395 0.766923
O O3 0.820939 0.715316 0.040805
O O4 0.952094 0.687216 0.091354
O O5 0.256548 0.246188 0.765410
O O6 0.144622 0.233871 0.755532
O O7 0.257918 0.000000 0.851960
O O8 0.383018 0.238017 0.071705
O O9 0.608572 0.224996 0.329825
O O10 0.557084 0.246878 0.420206
O O11 0.514553 0.000000 0.282711
O O12 0.162038 0.782751 0.328743
O O13 0.242898 0.729879 0.589026
O O14 0.257082 0.000000 0.545757
O O15 0.500000 0.756539 0.500000
O O16 0.585147 0.000000 0.545065
O O17 0.899864 0.500000 0.782407
O O18 0.000000 0.273827 0.000000
O O19 0.193230 0.500000 0.612533
O O20 0.042201 0.270232 0.403881
O O21 0.902000 0.500000 0.250149
#
# Coordination Sequence:
#
# PCOD8064169 Si02
#       8
#     4   4   4   4   4   4   4   4
#     4  10  20  35  55  83 116 153 191 234 291 347
#     4  11  23  40  63  89 116 151 200 248 294 355
#     4   9  21  40  58  83 123 160 192 244 306 349
#     4  11  22  38  61  86 117 157 202 246 292 351
#     4  10  20  36  58  84 116 157 200 242 292 346
#     4  10  20  36  57  83 117 156 194 237 294 350
#     4  11  23  42  63  86 121 157 192 243 306 358
#     4  10  21  39  60  84 121 158 189 237 305 361
#
# _framework density 20.119468000000001
#
# number of rings (size 3 to 8) (size 9 to 14) (size 15 to 20)
#    0.000    1.750    1.250    3.000    0.000    5.500 
#    0.000    6.875    0.000    0.000    0.000    0.000 
#    0.000    0.000    0.000    0.000    0.000    0.000 
#
# Total GULP energy -396928.393115 kJ/mol
# GULP energy per Si atom -12404.012285 kJ/mol
# Density = 2.007367 g / cm^3
# Si number density = 20.119468 Si / 1000 Ang^3
#
#
#
# Elastic Constant Matrix: (Units=GPa)
#
#
# Indices 1 2 3 4 5 6 
#
# 1 117.8171 31.6673 46.5961 0.0000 -8.3590 0.0000
# 2 31.6673 45.2241 31.2372 0.0000 -1.9250 0.0000
# 3 46.5961 31.2372 109.1737 0.0000 -8.9727 0.0000
# 4 0.0000 0.0000 0.0000 27.0401 0.0000 -6.8956
# 5 -8.3590 -1.9250 -8.9727 0.0000 34.2476 0.0000
# 6 0.0000 0.0000 0.0000 -6.8956 0.0000 27.2571
#
#
#
# Elastic Compliance Matrix: (Units=1/GPa)
#
#
# Indices 1 2 3 4 5 6 
#
# 1 0.011369 -0.005774 -0.003065 0.000000 0.001647 0.000000
# 2 -0.005774 0.030500 -0.006375 0.000000 -0.001365 0.000000
# 3 -0.003065 -0.006375 0.012469 0.000000 0.002161 0.000000
# 4 0.000000 0.000000 0.000000 0.039533 0.000000 0.010001
# 5 0.001647 -0.001365 0.002161 0.000000 0.030091 0.000000
# 6 0.000000 0.000000 0.000000 0.010001 0.000000 0.039218
#
#
# Mechanical properties :
#
#
# Convention : Reuss Voigt Hill
#
# Bulk Modulus (GPa) = 41.82072 54.57958 48.20015
# Shear Modulus (GPa) = 24.80458 28.55658 26.68058
#
# Velocity S-wave (km/s) = 3.51503 3.77151 3.64553
# Velocity P-wave (km/s) = 6.10780 6.79356 6.45978
#
# Compressibility (1/GPa) = 0.02391159
#
# Stress axis : x y z
#
# Youngs Moduli (GPa) = 87.96185 32.78689 80.19653
#
# Poissons Ratio (x) = 0.18930 0.24579
# Poissons Ratio (y) = 0.50785 0.51124
# Poissons Ratio (z) = 0.26959 0.20901
#
# Static dielectric constant tensor:
#      x y z
#    x 3.832440 0.000000 -0.105850 
#    y 0.000000 3.425100 0.000000 
#    z -0.105850 0.000000 3.764630 
# 
# 
# High freq. dielectric constant tensor:
#      x y z
#    x 1.798990 0.000000 -0.008020 
#    y 0.000000 1.766350 0.000000 
#    z -0.008020 0.000000 1.791140 
# 
# From -- ./inp_files/71627.got.cif
#   From: 2010.06.25/outbox.cif.g09.slc.cpg/sg10_36_cif.got.tgz:71627.got - 2010.06.27 22:07:45.
