data_PCOD8064508
_publ_section_title
;
Structure prediction by ZEFSAII (Michael W. Deem and Ramdas Pophale) SiO2 
 PCOD8064508
Probable space group: P 2/M
;
_chemical_formula_sum "Si O2"
_cell_formula_units_Z 28
_cell_length_a 21.178964
_cell_length_b 8.545430
_cell_length_c 14.712975
_cell_angle_alpha 90.000000
_cell_angle_beta 29.638993
_cell_angle_gamma 90.000000
_cell_volume 1316.845548
_symmetry_space_group_name_H-M "P 2/M"
_symmetry_group_IT_number 10
_symmetry_cell_setting 'monoclinic'
loop_
_space_group_symop_operation_xyz
x,y,z
-x,y,-z
-x,-y,-z
x,-y,z
loop_
_atom_site_type_symbol
_atom_site_label
_atom_site_fract_x
_atom_site_fract_y
_atom_site_fract_z
Si Si1 0.101217 0.682826 0.948780
Si Si2 0.950999 0.817990 0.797755
Si Si3 0.754815 0.818560 0.899154
Si Si4 0.371929 0.675953 0.216594
Si Si5 0.613076 0.815562 0.425216
Si Si6 0.471937 0.185994 0.268346
Si Si7 0.144294 0.820792 0.410290
O O1 0.118151 0.500000 0.913102
O O2 0.242994 0.755947 0.772079
O O3 0.036284 0.719841 0.126601
O O4 0.000000 0.748724 0.000000
O O5 0.810551 0.796921 0.930296
O O6 0.044260 0.741842 0.604787
O O7 0.981286 0.000000 0.781043
O O8 0.846814 0.747923 0.703603
O O9 0.740598 0.000000 0.892065
O O10 0.614344 0.744641 0.075925
O O11 0.315439 0.500000 0.284643
O O12 0.384088 0.727402 0.305702
O O13 0.282562 0.801995 0.280814
O O14 0.500000 0.684896 0.000000
O O15 0.500000 0.749241 0.500000
O O16 0.576359 0.764575 0.572385
O O17 0.618743 0.000000 0.405030
O O18 0.465779 0.000000 0.263134
O O19 0.101174 0.000000 0.457713
#
# Coordination Sequence:
#
# PCOD8064508 Si02
#       7
#     4   4   4   4   4   4   4
#     4  11  26  45  62  86 125 171 210 252 308 369
#     4  10  21  38  63  91 117 151 198 249 300 351
#     4   9  17  34  60  91 123 150 183 237 297 353
#     4  11  23  37  53  79 119 162 199 239 286 342
#     4  10  22  42  69  98 123 152 202 266 320 367
#     4  10  20  35  61  90 117 151 192 241 299 354
#     4  10  20  35  60  89 118 153 194 240 294 354
#
# _framework density 21.262936
#
# number of rings (size 3 to 8) (size 9 to 14) (size 15 to 20)
#    0.000    1.857    1.429    2.143    2.000    7.143 
#    0.000    2.857    0.000    1.714    0.000    0.000 
#    0.000    0.000    0.000    0.000    0.000    0.000 
#
# Total GULP energy -346997.747725 kJ/mol
# GULP energy per Si atom -12392.776704 kJ/mol
# Density = 2.121454 g / cm^3
# Si number density = 21.262936 Si / 1000 Ang^3
#
#
#
# Elastic Constant Matrix: (Units=GPa)
#
#
# Indices 1 2 3 4 5 6 
#
# 1 145.4179 16.6370 39.8548 0.0000 17.4336 0.0000
# 2 16.6370 20.7257 13.6353 0.0000 5.5268 0.0000
# 3 39.8548 13.6353 100.0328 0.0000 13.6249 0.0000
# 4 0.0000 0.0000 0.0000 16.2456 0.0000 -3.2387
# 5 17.4336 5.5268 13.6249 0.0000 38.3838 0.0000
# 6 0.0000 0.0000 0.0000 -3.2387 0.0000 9.3618
#
#
#
# Elastic Compliance Matrix: (Units=1/GPa)
#
#
# Indices 1 2 3 4 5 6 
#
# 1 0.008320 -0.004497 -0.002391 0.000000 -0.002283 0.000000
# 2 -0.004497 0.056489 -0.005337 0.000000 -0.004197 0.000000
# 3 -0.002391 -0.005337 0.012005 0.000000 -0.002407 0.000000
# 4 0.000000 0.000000 0.000000 0.066115 0.000000 0.022872
# 5 -0.002283 -0.004197 -0.002407 0.000000 0.028548 0.000000
# 6 0.000000 0.000000 0.000000 0.022872 0.000000 0.114730
#
#
# Mechanical properties :
#
#
# Convention : Reuss Voigt Hill
#
# Bulk Modulus (GPa) = 19.09685 45.15896 32.12791
# Shear Modulus (GPa) = 15.23873 25.86818 20.55346
#
# Velocity S-wave (km/s) = 2.67999 3.49174 3.11245
# Velocity P-wave (km/s) = 4.31014 6.12706 5.29708
#
# Compressibility (1/GPa) = 0.05236466
#
# Stress axis : x y z
#
# Youngs Moduli (GPa) = 120.18935 17.70248 83.30147
#
# Poissons Ratio (x) = 0.07961 0.19917
# Poissons Ratio (y) = 0.54050 0.44455
# Poissons Ratio (z) = 0.28737 0.09447
#
# Static dielectric constant tensor:
#      x y z
#    x 4.074460 0.000000 0.057940 
#    y 0.000000 3.500710 0.000000 
#    z 0.057940 0.000000 4.009740 
# 
# 
# High freq. dielectric constant tensor:
#      x y z
#    x 1.851020 0.000000 0.005020 
#    y 0.000000 1.788840 0.000000 
#    z 0.005020 0.000000 1.845450 
# 
# From -- ./inp_files/49643.got.cif
#   From: 2010.06.25/outbox.cif.g09.slc.cpg/sg10_25_cif.got.tgz:49643.got - 2010.06.27 22:07:45.
