data_PCOD8064962
_publ_section_title
;
Structure prediction by ZEFSAII (Michael W. Deem and Ramdas Pophale) SiO2 
 PCOD8064962
Probable space group: P 2/M
;
_chemical_formula_sum "Si O2"
_cell_formula_units_Z 26
_cell_length_a 7.415768
_cell_length_b 9.390542
_cell_length_c 21.812288
_cell_angle_alpha 90.000000
_cell_angle_beta 46.356113
_cell_angle_gamma 90.000000
_cell_volume 1099.189660
_symmetry_space_group_name_H-M "P 2/M"
_symmetry_group_IT_number 10
_symmetry_cell_setting 'monoclinic'
loop_
_space_group_symop_operation_xyz
x,y,z
-x,y,-z
-x,-y,-z
x,-y,z
loop_
_atom_site_type_symbol
_atom_site_label
_atom_site_fract_x
_atom_site_fract_y
_atom_site_fract_z
Si Si1 0.862192 0.839464 0.468519
Si Si2 0.732084 0.153764 0.829002
Si Si3 0.077263 0.658484 0.313577
Si Si4 0.258068 0.159746 0.770651
Si Si5 0.455646 0.659818 0.622419
Si Si6 0.500000 0.268296 0.000000
Si Si7 0.017792 0.342285 0.926107
O O1 0.047434 0.761868 0.378270
O O2 0.612022 0.746534 0.535012
O O3 0.000000 0.846193 0.500000
O O4 0.796860 0.000000 0.461103
O O5 0.539886 0.175381 0.929639
O O6 0.711817 0.274010 0.780876
O O7 0.010350 0.152065 0.789121
O O8 0.672227 0.000000 0.813499
O O9 0.163641 0.500000 0.313271
O O10 0.821349 0.647441 0.337143
O O11 0.459060 0.255586 0.686528
O O12 0.200345 0.232154 0.849478
O O13 0.365065 0.000000 0.755678
O O14 0.566383 0.500000 0.605628
O O15 0.749217 0.357863 0.955289
O O16 0.137351 0.500000 0.896240
O O17 0.000000 0.287754 0.000000
#
# Coordination Sequence:
#
# PCOD8064962 Si02
#       7
#     4   4   4   4   4   2   4
#     4  11  24  40  57  81 115 153 193 238 290 347
#     4   9  18  34  58  86 116 150 191 238 288 344
#     4  10  21  37  59  88 116 147 193 240 289 351
#     4   9  18  34  57  84 114 148 189 236 285 342
#     4  10  20  36  61  88 113 147 189 236 289 348
#     4  10  20  36  62  88 116 158 200 246 300 354
#     4  10  21  37  57  84 117 153 197 246 298 356
#
# _framework density 23.653789
#
# number of rings (size 3 to 8) (size 9 to 14) (size 15 to 20)
#    0.000    2.154    0.000    2.769    0.000   10.154 
#    2.769    0.000    0.000    0.000    0.000    0.000 
#    0.000    0.000    0.000    0.000    0.000    0.000 
#
# Total GULP energy -322343.443367 kJ/mol
# GULP energy per Si atom -12397.824745 kJ/mol
# Density = 2.359995 g / cm^3
# Si number density = 23.653789 Si / 1000 Ang^3
#
#
#
# Elastic Constant Matrix: (Units=GPa)
#
#
# Indices 1 2 3 4 5 6 
#
# 1 26.9186 10.9065 5.9040 0.0000 7.6658 0.0000
# 2 10.9065 229.8777 94.7636 0.0000 17.0477 0.0000
# 3 5.9040 94.7636 162.9043 0.0000 25.3461 0.0000
# 4 0.0000 0.0000 0.0000 31.4224 0.0000 13.4954
# 5 7.6658 17.0477 25.3461 0.0000 31.0256 0.0000
# 6 0.0000 0.0000 0.0000 13.4954 0.0000 11.9738
#
#
#
# Elastic Compliance Matrix: (Units=1/GPa)
#
#
# Indices 1 2 3 4 5 6 
#
# 1 0.040402 -0.001597 0.001010 0.000000 -0.009930 0.000000
# 2 -0.001597 0.005792 -0.003297 0.000000 -0.000095 0.000000
# 3 0.001010 -0.003297 0.008909 0.000000 -0.005716 0.000000
# 4 0.000000 0.000000 0.000000 0.061682 0.000000 -0.069520
# 5 -0.009930 -0.000095 -0.005716 0.000000 0.039407 0.000000
# 6 0.000000 0.000000 0.000000 -0.069520 0.000000 0.161870
#
#
# Mechanical properties :
#
#
# Convention : Reuss Voigt Hill
#
# Bulk Modulus (GPa) = 21.12562 71.42764 46.27663
# Shear Modulus (GPa) = 14.63665 35.42614 25.03139
#
# Velocity S-wave (km/s) = 2.49024 3.87420 3.25659
# Velocity P-wave (km/s) = 4.14957 7.09051 5.80923
#
# Compressibility (1/GPa) = 0.04733589
#
# Stress axis : x y z
#
# Youngs Moduli (GPa) = 24.75102 172.65491 112.24554
#
# Poissons Ratio (x) = 0.27567 -0.11332
# Poissons Ratio (y) = 0.03952 0.37003
# Poissons Ratio (z) = -0.02499 0.56917
#
# Static dielectric constant tensor:
#      x y z
#    x 3.808370 0.000000 0.041830 
#    y 0.000000 4.655350 0.000000 
#    z 0.041830 0.000000 4.387570 
# 
# 
# High freq. dielectric constant tensor:
#      x y z
#    x 1.912750 0.000000 0.007250 
#    y 0.000000 1.943880 0.000000 
#    z 0.007250 0.000000 1.940870 
# 
# From -- ./inp_files/34278.got.cif
#   From: 2010.06.25/outbox.cif.g09.slc.cpg/sg10_18_cif.got.tgz:34278.got - 2010.06.27 22:07:45.
