data_PCOD8064608
_publ_section_title
;
Structure prediction by ZEFSAII (Michael W. Deem and Ramdas Pophale) SiO2 
 PCOD8064608
Probable space group: P 2/M
;
_chemical_formula_sum "Si O2"
_cell_formula_units_Z 28
_cell_length_a 22.310247
_cell_length_b 9.035359
_cell_length_c 21.444139
_cell_angle_alpha 90.000000
_cell_angle_beta 160.633628
_cell_angle_gamma 90.000000
_cell_volume 1433.450572
_symmetry_space_group_name_H-M "P 2/M"
_symmetry_group_IT_number 10
_symmetry_cell_setting 'monoclinic'
loop_
_space_group_symop_operation_xyz
x,y,z
-x,y,-z
-x,-y,-z
x,-y,z
loop_
_atom_site_type_symbol
_atom_site_label
_atom_site_fract_x
_atom_site_fract_y
_atom_site_fract_z
Si Si1 0.282001 0.825569 0.219456
Si Si2 0.867944 0.828718 0.666461
Si Si3 0.791881 0.674523 0.975004
Si Si4 0.691442 0.825703 0.618027
Si Si5 0.490501 0.828219 0.755443
Si Si6 0.513640 0.175779 0.917865
Si Si7 0.204174 0.824021 0.704673
O O1 0.487184 0.767176 0.416655
O O2 0.211823 0.787765 0.220811
O O3 0.262365 0.000000 0.186714
O O4 0.171059 0.736581 0.058457
O O5 0.798324 0.761099 0.664057
O O6 0.719807 0.807420 0.467326
O O7 0.044381 0.734131 0.821037
O O8 0.923064 0.000000 0.726819
O O9 0.786614 0.500000 0.969526
O O10 0.605018 0.735892 0.818482
O O11 0.678511 0.000000 0.597217
O O12 0.522283 0.763668 0.855942
O O13 0.546766 0.000000 0.805279
O O14 0.329635 0.233519 0.770691
O O15 0.504375 0.000000 0.908075
O O16 0.694573 0.227371 0.132253
O O17 0.000000 0.757024 0.500000
O O18 0.191762 0.000000 0.690831
#
# Coordination Sequence:
#
# PCOD8064608 Si02
#       7
#     4   4   4   4   4   4   4
#     4   9  16  33  58  80 101 130 175 223 269 322
#     4  10  20  36  57  79 102 135 181 228 270 316
#     4  12  25  37  51  76 110 145 177 218 276 330
#     4   8  15  30  57  83 100 126 171 226 273 316
#     4  10  20  37  59  79 104 141 188 231 260 302
#     4   8  15  26  44  74 106 138 173 208 253 308
#     4   8  13  23  41  71 113 144 160 195 258 318
#
# _framework density 19.533284999999999
#
# number of rings (size 3 to 8) (size 9 to 14) (size 15 to 20)
#    0.000    2.714    1.429    3.000    0.000    2.286 
#    0.000    9.286    0.000    0.000    0.000    2.000 
#    0.000    5.714    0.000    0.000    0.000    0.000 
#
# Total GULP energy -347023.467224 kJ/mol
# GULP energy per Si atom -12393.695258 kJ/mol
# Density = 1.948883 g / cm^3
# Si number density = 19.533285 Si / 1000 Ang^3
#
#
#
# Elastic Constant Matrix: (Units=GPa)
#
#
# Indices 1 2 3 4 5 6 
#
# 1 72.5342 18.5289 38.6562 0.0000 -24.4168 0.0000
# 2 18.5289 58.4406 30.2298 0.0000 -6.3015 0.0000
# 3 38.6562 30.2298 117.2739 0.0000 -6.4642 0.0000
# 4 0.0000 0.0000 0.0000 6.2885 0.0000 4.0186
# 5 -24.4168 -6.3015 -6.4642 0.0000 31.2012 0.0000
# 6 0.0000 0.0000 0.0000 4.0186 0.0000 4.1681
#
#
#
# Elastic Compliance Matrix: (Units=1/GPa)
#
#
# Indices 1 2 3 4 5 6 
#
# 1 0.023177 -0.002420 -0.006113 0.000000 0.016382 0.000000
# 2 -0.002420 0.020272 -0.004356 0.000000 0.001298 0.000000
# 3 -0.006113 -0.004356 0.011484 0.000000 -0.003284 0.000000
# 4 0.000000 0.000000 0.000000 0.414218 0.000000 -0.399354
# 5 0.016382 0.001298 -0.003284 0.000000 0.044452 0.000000
# 6 0.000000 0.000000 0.000000 -0.399354 0.000000 0.624939
#
#
# Mechanical properties :
#
#
# Convention : Reuss Voigt Hill
#
# Bulk Modulus (GPa) = 34.29969 47.00872 40.65420
# Shear Modulus (GPa) = 4.25880 19.05384 11.65632
#
# Velocity S-wave (km/s) = 1.47818 3.12662 2.44548
# Velocity P-wave (km/s) = 4.52892 6.09529 5.36952
#
# Compressibility (1/GPa) = 0.02915478
#
# Stress axis : x y z
#
# Youngs Moduli (GPa) = 43.14562 49.32912 87.07825
#
# Poissons Ratio (x) = 0.11937 0.53231
# Poissons Ratio (y) = 0.10441 0.37934
# Poissons Ratio (z) = 0.26375 0.21489
#
# Static dielectric constant tensor:
#      x y z
#    x 3.800770 0.000000 -0.080380 
#    y 0.000000 2.888340 0.000000 
#    z -0.080380 0.000000 3.787030 
# 
# 
# High freq. dielectric constant tensor:
#      x y z
#    x 1.756140 0.000000 -0.003140 
#    y 0.000000 1.687300 0.000000 
#    z -0.003140 0.000000 1.773040 
# 
# From -- ./inp_files/86557.got.cif
#   From: 2010.06.25/outbox.cif.g09.slc.cpg/sg10_44_cif.got.tgz:86557.got - 2010.06.27 22:07:45.
