data_PCOD8064301
_publ_section_title
;
Structure prediction by ZEFSAII (Michael W. Deem and Ramdas Pophale) SiO2 
 PCOD8064301
Probable space group: P 2/M
;
_chemical_formula_sum "Si O2"
_cell_formula_units_Z 28
_cell_length_a 5.162344
_cell_length_b 33.483463
_cell_length_c 8.356001
_cell_angle_alpha 90.000000
_cell_angle_beta 115.995271
_cell_angle_gamma 90.000000
_cell_volume 1298.235440
_symmetry_space_group_name_H-M "P 2/M"
_symmetry_group_IT_number 10
_symmetry_cell_setting 'monoclinic'
loop_
_space_group_symop_operation_xyz
x,y,z
-x,y,-z
-x,-y,-z
x,-y,z
loop_
_atom_site_type_symbol
_atom_site_label
_atom_site_fract_x
_atom_site_fract_y
_atom_site_fract_z
Si Si1 0.859916 0.872131 0.287181
Si Si2 0.666541 0.500000 0.380972
Si Si3 0.143532 0.218121 0.712620
Si Si4 0.332042 0.000000 0.120931
Si Si5 0.667176 0.654993 0.888945
Si Si6 0.356631 0.736789 0.289333
Si Si7 0.634320 0.083577 0.709822
Si Si8 0.338677 0.586489 0.623268
O O1 0.844303 0.826995 0.218389
O O2 0.536172 0.888939 0.209638
O O3 0.000000 0.873431 0.500000
O O4 0.037693 0.900223 0.211206
O O5 0.500000 0.500000 0.500000
O O6 0.600487 0.542606 0.277537
O O7 0.000000 0.500000 0.500000
O O8 0.460772 0.237346 0.788433
O O9 0.000000 0.218816 0.500000
O O10 0.962098 0.244458 0.789270
O O11 0.404378 0.038265 0.246572
O O12 0.500000 0.000000 0.000000
O O13 0.000000 0.000000 0.000000
O O14 0.667132 0.690690 0.762411
O O15 0.472045 0.618385 0.778401
O O16 0.500000 0.670564 0.000000
O O17 0.000000 0.641210 0.000000
O O18 0.500000 0.739474 0.500000
O O19 0.500000 0.088143 0.500000
O O20 0.500000 0.589857 0.500000
O O21 0.000000 0.594562 0.500000
#
# Coordination Sequence:
#
# PCOD8064301 Si02
#       8
#     4   2   4   2   4   4   4   4
#     4   9  17  31  56  87 112 133 171 231 281 317
#     4   8  16  32  58  88 112 140 186 242 288 336
#     4   9  17  31  55  86 110 134 179 235 281 322
#     4  12  25  40  57  78 112 148 180 220 267 314
#     4  12  25  39  55  82 120 156 192 240 293 339
#     4  10  20  35  57  80 107 147 192 231 272 333
#     4  10  20  36  59  84 109 141 180 220 268 327
#     4  10  20  38  63  87 113 150 196 239 286 349
#
# _framework density 21.567737999999999
#
# number of rings (size 3 to 8) (size 9 to 14) (size 15 to 20)
#    0.000    2.000    0.000    4.071    0.000    5.143 
#    0.000    3.571    0.000   17.143    0.000    0.000 
#    0.000    0.000    0.000    0.000    0.000    0.000 
#
# Total GULP energy -347084.576776 kJ/mol
# GULP energy per Si atom -12395.877742 kJ/mol
# Density = 2.151865 g / cm^3
# Si number density = 21.567738 Si / 1000 Ang^3
#
#
#
# Elastic Constant Matrix: (Units=GPa)
#
#
# Indices 1 2 3 4 5 6 
#
# 1 197.9101 69.0144 29.7947 0.0000 1.8605 0.0000
# 2 69.0144 187.6830 18.9374 0.0000 -4.1196 0.0000
# 3 29.7947 18.9374 11.8377 0.0000 1.6408 0.0000
# 4 0.0000 0.0000 0.0000 4.3837 0.0000 0.3103
# 5 1.8605 -4.1196 1.6408 0.0000 24.7874 0.0000
# 6 0.0000 0.0000 0.0000 0.3103 0.0000 39.5351
#
#
#
# Elastic Compliance Matrix: (Units=1/GPa)
#
#
# Indices 1 2 3 4 5 6 
#
# 1 0.008337 -0.001111 -0.019271 0.000000 0.000465 0.000000
# 2 -0.001111 0.006577 -0.007962 0.000000 0.001704 0.000000
# 3 -0.019271 -0.007962 0.147048 0.000000 -0.009611 0.000000
# 4 0.000000 0.000000 0.000000 0.228243 0.000000 -0.001791
# 5 0.000465 0.001704 -0.009611 0.000000 0.041228 0.000000
# 6 0.000000 0.000000 0.000000 -0.001791 0.000000 0.025308
#
#
# Mechanical properties :
#
#
# Convention : Reuss Voigt Hill
#
# Bulk Modulus (GPa) = 9.49895 70.32487 39.91191
# Shear Modulus (GPa) = 9.11544 32.38687 20.75115
#
# Velocity S-wave (km/s) = 2.05806 3.87930 3.10520
# Velocity P-wave (km/s) = 3.17195 7.26241 5.60374
#
# Compressibility (1/GPa) = 0.10527478
#
# Stress axis : x y z
#
# Youngs Moduli (GPa) = 119.94725 152.03470 6.80050
#
# Poissons Ratio (x) = 0.16891 0.13105
# Poissons Ratio (y) = 0.13326 0.05415
# Poissons Ratio (z) = 2.31147 1.21051
#
# Static dielectric constant tensor:
#      x y z
#    x 4.311900 0.000000 -0.026600 
#    y 0.000000 3.991030 0.000000 
#    z -0.026600 0.000000 3.405270 
# 
# 
# High freq. dielectric constant tensor:
#      x y z
#    x 1.873670 0.000000 -0.001660 
#    y 0.000000 1.863580 0.000000 
#    z -0.001660 0.000000 1.806790 
# 
# From -- ./inp_files/15929.got.cif
#   From: 2010.06.25/outbox.cif.g09.slc.cpg/sg10_8_cif.got.tgz:15929.got - 2010.06.27 22:07:45.
