data_PCOD8064417
_publ_section_title
;
Structure prediction by ZEFSAII (Michael W. Deem and Ramdas Pophale) SiO2 
 PCOD8064417
Probable space group: P 2/M
;
_chemical_formula_sum "Si O2"
_cell_formula_units_Z 28
_cell_length_a 9.208916
_cell_length_b 15.836140
_cell_length_c 22.051951
_cell_angle_alpha 90.000000
_cell_angle_beta 153.355416
_cell_angle_gamma 90.000000
_cell_volume 1442.193285
_symmetry_space_group_name_H-M "P 2/M"
_symmetry_group_IT_number 10
_symmetry_cell_setting 'monoclinic'
loop_
_space_group_symop_operation_xyz
x,y,z
-x,y,-z
-x,-y,-z
x,-y,z
loop_
_atom_site_type_symbol
_atom_site_label
_atom_site_fract_x
_atom_site_fract_y
_atom_site_fract_z
Si Si1 0.677426 0.838232 0.761684
Si Si2 0.371535 0.404835 0.384952
Si Si3 0.182457 0.277076 0.008900
Si Si4 0.302150 0.000000 0.822805
Si Si5 0.192114 0.265359 0.511592
Si Si6 0.687579 0.159320 0.253113
Si Si7 0.353209 0.593217 0.879805
Si Si8 0.941784 0.000000 0.130864
O O1 0.429721 0.810408 0.617469
O O2 0.486099 0.869868 0.749824
O O3 0.854888 0.916416 0.799597
O O4 0.916435 0.758788 0.862846
O O5 0.500000 0.407731 0.500000
O O6 0.367532 0.500000 0.355506
O O7 0.611154 0.347183 0.435658
O O8 0.006567 0.366583 0.249954
O O9 0.418387 0.200031 0.110243
O O10 0.396200 0.353480 0.065365
O O11 0.000000 0.311445 0.000000
O O12 0.184843 0.919935 0.738613
O O13 0.166735 0.000000 0.840074
O O14 0.685185 0.000000 0.979556
O O15 0.000000 0.294226 0.500000
O O16 0.965063 0.228127 0.373167
O O17 0.324474 0.500000 0.839138
O O18 0.500000 0.585843 0.000000
#
# Coordination Sequence:
#
# PCOD8064417 Si02
#       8
#     4   4   4   2   4   4   4   2
#     4  10  21  38  59  83 113 151 189 235 287 341
#     4  10  21  38  59  84 116 157 195 232 287 347
#     4  10  20  35  58  84 109 148 194 234 281 337
#     4  11  23  38  57  86 116 148 190 236 283 341
#     4  10  22  39  59  88 117 149 195 241 287 340
#     4  10  21  38  60  82 113 149 190 236 288 338
#     4  10  21  36  55  82 115 149 186 231 287 343
#     4  11  23  38  57  86 116 146 194 235 279 343
#
# _framework density 19.414873
#
# number of rings (size 3 to 8) (size 9 to 14) (size 15 to 20)
#    0.000    1.857    1.429    2.143    0.000    5.143 
#    0.000    2.857    0.000   10.286    0.000    0.000 
#    0.000    0.000    0.000    0.000    0.000    0.000 
#
# Total GULP energy -347096.805458 kJ/mol
# GULP energy per Si atom -12396.314481 kJ/mol
# Density = 1.937068 g / cm^3
# Si number density = 19.414873 Si / 1000 Ang^3
#
#
#
# Elastic Constant Matrix: (Units=GPa)
#
#
# Indices 1 2 3 4 5 6 
#
# 1 90.2889 69.8533 34.8948 0.0000 13.7344 0.0000
# 2 69.8533 95.8115 19.8907 0.0000 16.3252 0.0000
# 3 34.8948 19.8907 93.0256 0.0000 13.2811 0.0000
# 4 0.0000 0.0000 0.0000 16.6157 0.0000 25.9004
# 5 13.7344 16.3252 13.2811 0.0000 30.9933 0.0000
# 6 0.0000 0.0000 0.0000 25.9004 0.0000 25.1214
#
#
#
# Elastic Compliance Matrix: (Units=1/GPa)
#
#
# Indices 1 2 3 4 5 6 
#
# 1 0.028839 -0.019721 -0.006667 0.000000 0.000465 0.000000
# 2 -0.019721 0.025207 0.002829 0.000000 -0.005751 0.000000
# 3 -0.006667 0.002829 0.013247 0.000000 -0.004212 0.000000
# 4 0.000000 0.000000 0.000000 -0.099128 0.000000 0.102202
# 5 0.000465 -0.005751 -0.004212 0.000000 0.036893 0.000000
# 6 0.000000 0.000000 0.000000 0.102202 0.000000 -0.065565
#
#
# Mechanical properties :
#
#
# Convention : Reuss Voigt Hill
#
# Bulk Modulus (GPa) = 49.56723 58.71153 54.13938
# Shear Modulus (GPa) = -750.52194 24.84521 -362.83836
#
# Velocity S-wave (km/s) = -19.68273 3.58117 -13.68549
# Velocity P-wave (km/s) = 22.15763 6.88519 14.89219
#
# Compressibility (1/GPa) = 0.02017462
#
# Stress axis : x y z
#
# Youngs Moduli (GPa) = 34.67557 39.67082 75.48714
#
# Poissons Ratio (x) = 0.78233 0.50331
# Poissons Ratio (y) = 0.68382 -0.21352
# Poissons Ratio (z) = 0.23120 -0.11221
#
# Static dielectric constant tensor:
#      x y z
#    x 3.269390 0.000000 0.082860 
#    y 0.000000 3.453690 0.000000 
#    z 0.082860 0.000000 3.792630 
# 
# 
# High freq. dielectric constant tensor:
#      x y z
#    x 1.749730 0.000000 0.002790 
#    y 0.000000 1.750370 0.000000 
#    z 0.002790 0.000000 1.772130 
# 
# From -- ./inp_files/82920.got.cif
#   From: 2010.06.25/outbox.cif.g09.slc.cpg/sg10_42_cif.got.tgz:82920.got - 2010.06.27 22:07:45.
