data_PCOD8064163
_publ_section_title
;
Structure prediction by ZEFSAII (Michael W. Deem and Ramdas Pophale) SiO2 
 PCOD8064163
Probable space group: P 2/M
;
_chemical_formula_sum "Si O2"
_cell_formula_units_Z 28
_cell_length_a 8.572109
_cell_length_b 14.294875
_cell_length_c 20.060155
_cell_angle_alpha 90.000000
_cell_angle_beta 35.343757
_cell_angle_gamma 90.000000
_cell_volume 1421.972631
_symmetry_space_group_name_H-M "P 2/M"
_symmetry_group_IT_number 10
_symmetry_cell_setting 'monoclinic'
loop_
_space_group_symop_operation_xyz
x,y,z
-x,y,-z
-x,-y,-z
x,-y,z
loop_
_atom_site_type_symbol
_atom_site_label
_atom_site_fract_x
_atom_site_fract_y
_atom_site_fract_z
Si Si1 0.668573 0.000000 0.544099
Si Si2 0.810991 0.698468 0.245604
Si Si3 0.921365 0.000000 0.311616
Si Si4 0.810886 0.608204 0.382159
Si Si5 0.254454 0.167956 0.133756
Si Si6 0.714651 0.270643 0.744444
Si Si7 0.293525 0.808221 0.390705
Si Si8 0.764413 0.391593 0.124765
O O1 0.870340 0.000000 0.409637
O O2 0.362719 0.000000 0.626447
O O3 0.719919 0.911425 0.573445
O O4 0.870782 0.627965 0.284478
O O5 0.518769 0.748555 0.351035
O O6 0.828742 0.630484 0.177867
O O7 0.041725 0.777596 0.161582
O O8 0.095892 0.912690 0.227657
O O9 0.500000 0.631874 0.500000
O O10 0.877844 0.500000 0.377159
O O11 0.984582 0.684001 0.363695
O O12 0.365142 0.231112 0.155386
O O13 0.500000 0.134008 0.000000
O O14 0.658845 0.192375 0.706384
O O15 0.523976 0.357573 0.798060
O O16 0.000000 0.759883 0.500000
O O17 0.761981 0.500000 0.112801
O O18 0.000000 0.342743 0.000000
#
# Coordination Sequence:
#
# PCOD8064163 Si02
#       8
#     2   4   2   4   4   4   4   4
#     4  11  23  40  63  88 119 144 186 238 287 346
#     4  10  21  36  56  84 115 150 197 235 283 336
#     4  11  23  40  63  90 113 149 189 234 287 343
#     4  10  20  35  55  82 117 155 192 236 286 337
#     4  11  22  40  61  84 117 155 195 236 284 340
#     4  10  22  36  57  86 115 149 195 236 286 337
#     4  11  21  37  58  86 117 148 186 236 291 343
#     4  10  20  36  57  81 112 151 192 238 286 330
#
# _framework density 19.690954999999999
#
# number of rings (size 3 to 8) (size 9 to 14) (size 15 to 20)
#    0.000    1.571    1.429    3.857    0.000    1.714 
#    0.000    0.000    0.000   14.571    0.000    0.000 
#    0.000    0.000    0.000    0.000    0.000    0.000 
#
# Total GULP energy -347023.847924 kJ/mol
# GULP energy per Si atom -12393.708854 kJ/mol
# Density = 1.964614 g / cm^3
# Si number density = 19.690955 Si / 1000 Ang^3
#
#
#
# Elastic Constant Matrix: (Units=GPa)
#
#
# Indices 1 2 3 4 5 6 
#
# 1 107.6614 36.8370 40.2664 0.0000 -1.1675 0.0000
# 2 36.8370 71.2332 40.5449 0.0000 8.1285 0.0000
# 3 40.2664 40.5449 120.7035 0.0000 -0.5949 0.0000
# 4 0.0000 0.0000 0.0000 -1.7953 0.0000 23.4968
# 5 -1.1675 8.1285 -0.5949 0.0000 24.0474 0.0000
# 6 0.0000 0.0000 0.0000 23.4968 0.0000 41.8945
#
#
#
# Elastic Compliance Matrix: (Units=1/GPa)
#
#
# Indices 1 2 3 4 5 6 
#
# 1 0.011909 -0.005145 -0.002233 0.000000 0.002262 0.000000
# 2 -0.005145 0.020495 -0.005204 0.000000 -0.007306 0.000000
# 3 -0.002233 -0.005204 0.010787 0.000000 0.001917 0.000000
# 4 0.000000 0.000000 0.000000 -0.066784 0.000000 0.037456
# 5 0.002262 -0.007306 0.001917 0.000000 0.044211 0.000000
# 6 0.000000 0.000000 0.000000 0.037456 0.000000 0.002862
#
#
# Mechanical properties :
#
#
# Convention : Reuss Voigt Hill
#
# Bulk Modulus (GPa) = 55.47572 59.43275 57.45423
# Shear Modulus (GPa) = 91.48545 24.95930 58.22237
#
# Velocity S-wave (km/s) = 6.82360 3.56413 5.44355
# Velocity P-wave (km/s) = 9.50349 6.86918 8.29162
#
# Compressibility (1/GPa) = 0.01802591
#
# Stress axis : x y z
#
# Youngs Moduli (GPa) = 83.97243 48.79256 92.70237
#
# Poissons Ratio (x) = 0.25106 0.20702
# Poissons Ratio (y) = 0.43207 0.48241
# Poissons Ratio (z) = 0.18753 0.25391
#
# Static dielectric constant tensor:
#      x y z
#    x 3.695220 0.000000 -0.125680 
#    y 0.000000 3.448970 0.000000 
#    z -0.125680 0.000000 3.711940 
# 
# 
# High freq. dielectric constant tensor:
#      x y z
#    x 1.783560 0.000000 -0.004390 
#    y 0.000000 1.760070 0.000000 
#    z -0.004390 0.000000 1.769670 
# 
# From -- ./inp_files/24965.got.cif
#   From: 2010.06.25/outbox.cif.g09.slc.cpg/sg10_13_cif.got.tgz:24965.got - 2010.06.27 22:07:45.
