data_PCOD8064157
_publ_section_title
;
Structure prediction by ZEFSAII (Michael W. Deem and Ramdas Pophale) SiO2 
 PCOD8064157
Probable space group: P 2/M
;
_chemical_formula_sum "Si O2"
_cell_formula_units_Z 32
_cell_length_a 10.310905
_cell_length_b 9.300638
_cell_length_c 18.181210
_cell_angle_alpha 90.000000
_cell_angle_beta 118.063438
_cell_angle_gamma 90.000000
_cell_volume 1538.548608
_symmetry_space_group_name_H-M "P 2/M"
_symmetry_group_IT_number 10
_symmetry_cell_setting 'monoclinic'
loop_
_space_group_symop_operation_xyz
x,y,z
-x,y,-z
-x,-y,-z
x,-y,z
loop_
_atom_site_type_symbol
_atom_site_label
_atom_site_fract_x
_atom_site_fract_y
_atom_site_fract_z
Si Si1 0.128341 0.840436 0.583407
Si Si2 0.846908 0.661519 0.197690
Si Si3 0.838423 0.330486 0.925737
Si Si4 0.657236 0.670353 0.018512
Si Si5 0.618493 0.167327 0.587596
Si Si6 0.644196 0.172333 0.764269
Si Si7 0.936347 0.844542 0.671985
Si Si8 0.360551 0.335581 0.716844
O O1 0.268888 0.736172 0.624637
O O2 0.000000 0.769853 0.500000
O O3 0.062024 0.859151 0.645820
O O4 0.173812 0.000000 0.565072
O O5 0.891175 0.500000 0.191936
O O6 0.773984 0.734888 0.107351
O O7 0.734045 0.670129 0.234822
O O8 0.003705 0.736638 0.251185
O O9 0.836841 0.500000 0.906608
O O10 0.792606 0.239298 0.840727
O O11 0.712489 0.290686 0.951970
O O12 0.000000 0.286916 0.000000
O O13 0.649336 0.500000 0.027023
O O14 0.500000 0.737463 0.000000
O O15 0.500000 0.241546 0.500000
O O16 0.624383 0.222420 0.673737
O O17 0.779448 0.204036 0.596438
O O18 0.581158 0.000000 0.579808
O O19 0.506164 0.242811 0.769871
O O20 0.644656 0.000000 0.773318
O O21 0.909756 0.000000 0.703193
O O22 0.399178 0.500000 0.706308
#
# Coordination Sequence:
#
# PCOD8064157 Si02
#       8
#     4   4   4   4   4   4   4   4
#     4   9  18  31  53  82 109 141 183 232 284 341
#     4   9  18  33  56  82 109 145 183 226 275 333
#     4  10  22  39  60  87 117 153 195 238 288 346
#     4   9  17  32  56  82 109 146 190 229 273 336
#     4   9  20  37  58  81 107 147 194 234 278 336
#     4  11  23  38  60  85 114 151 192 238 285 338
#     4   9  18  33  53  78 107 139 180 230 280 332
#     4  10  20  35  55  81 113 148 185 230 286 339
#
# _framework density 20.798824
#
# number of rings (size 3 to 8) (size 9 to 14) (size 15 to 20)
#    0.000    2.500    0.000    1.500    3.500    3.000 
#    0.000    1.250    0.000    3.375    0.000    0.000 
#    0.000    0.000    0.000    0.000    0.000    0.000 
#
# Total GULP energy -396477.671444 kJ/mol
# GULP energy per Si atom -12389.927233 kJ/mol
# Density = 2.075149 g / cm^3
# Si number density = 20.798824 Si / 1000 Ang^3
#
#
#
# Elastic Constant Matrix: (Units=GPa)
#
#
# Indices 1 2 3 4 5 6 
#
# 1 61.7808 25.6369 30.3594 0.0000 19.9414 0.0000
# 2 25.6369 78.4293 54.2166 0.0000 13.9808 0.0000
# 3 30.3594 54.2166 170.0614 0.0000 25.3782 0.0000
# 4 0.0000 0.0000 0.0000 26.3860 0.0000 17.5362
# 5 19.9414 13.9808 25.3782 0.0000 33.0624 0.0000
# 6 0.0000 0.0000 0.0000 17.5362 0.0000 5.0126
#
#
#
# Elastic Compliance Matrix: (Units=1/GPa)
#
#
# Indices 1 2 3 4 5 6 
#
# 1 0.021982 -0.004714 -0.000836 0.000000 -0.010623 0.000000
# 2 -0.004714 0.017689 -0.004637 0.000000 -0.001078 0.000000
# 3 -0.000836 -0.004637 0.008064 0.000000 -0.003724 0.000000
# 4 0.000000 0.000000 0.000000 -0.028601 0.000000 0.100060
# 5 -0.010623 -0.001078 -0.003724 0.000000 0.039968 0.000000
# 6 0.000000 0.000000 0.000000 0.100060 0.000000 -0.150557
#
#
# Mechanical properties :
#
#
# Convention : Reuss Voigt Hill
#
# Bulk Modulus (GPa) = 36.54885 58.96636 47.75760
# Shear Modulus (GPa) = -80.69462 26.22945 -27.23259
#
# Velocity S-wave (km/s) = -6.23554 3.55505 -3.62240
# Velocity P-wave (km/s) = 5.85080 6.72782 2.34859
#
# Compressibility (1/GPa) = 0.02736064
#
# Stress axis : x y z
#
# Youngs Moduli (GPa) = 45.49139 56.53332 124.01445
#
# Poissons Ratio (x) = 0.26648 0.10370
# Poissons Ratio (y) = 0.21444 0.57505
# Poissons Ratio (z) = 0.03804 0.26214
#
# Static dielectric constant tensor:
#      x y z
#    x 3.702510 0.000000 0.182910 
#    y 0.000000 3.668580 0.000000 
#    z 0.182910 0.000000 4.047420 
# 
# 
# High freq. dielectric constant tensor:
#      x y z
#    x 1.811510 0.000000 0.013140 
#    y 0.000000 1.772520 0.000000 
#    z 0.013140 0.000000 1.826580 
# 
# From -- ./inp_files/83610.got.cif
#   From: 2010.06.25/outbox.cif.g09.slc.cpg/sg10_42_cif.got.tgz:83610.got - 2010.06.27 22:07:45.
