data_PCOD8064299
_publ_section_title
;
Structure prediction by ZEFSAII (Michael W. Deem and Ramdas Pophale) SiO2 
 PCOD8064299
Probable space group: P 2/M
;
_chemical_formula_sum "Si O2"
_cell_formula_units_Z 18
_cell_length_a 9.945759
_cell_length_b 21.864073
_cell_length_c 5.123031
_cell_angle_alpha 90.000000
_cell_angle_beta 129.010678
_cell_angle_gamma 90.000000
_cell_volume 865.631444
_symmetry_space_group_name_H-M "P 2/M"
_symmetry_group_IT_number 10
_symmetry_cell_setting 'monoclinic'
loop_
_space_group_symop_operation_xyz
x,y,z
-x,y,-z
-x,-y,-z
x,-y,z
loop_
_atom_site_type_symbol
_atom_site_label
_atom_site_fract_x
_atom_site_fract_y
_atom_site_fract_z
Si Si1 0.620775 0.867562 0.397039
Si Si2 0.382998 0.000000 0.606563
Si Si3 0.109053 0.235442 0.384647
Si Si4 0.294454 0.641075 0.743256
Si Si5 0.293909 0.431395 0.243425
O O1 0.500000 0.856984 0.500000
O O2 0.717660 0.934767 0.519748
O O3 0.770684 0.818209 0.575312
O O4 0.500000 0.860270 0.000000
O O5 0.500000 0.000000 0.500000
O O6 0.500000 0.000000 0.000000
O O7 0.220073 0.291545 0.627727
O O8 0.000000 0.211150 0.500000
O O9 0.000000 0.256827 0.000000
O O10 0.226082 0.598332 0.426873
O O11 0.500000 0.646528 0.000000
O O12 0.224852 0.610284 0.922813
O O13 0.500000 0.433524 0.500000
O O14 0.219553 0.500000 0.125508
#
# Coordination Sequence:
#
# PCOD8064299 Si02
#       5
#     4   2   4   4   4
#     4  10  20  38  63  87 113 149 194 234 277 336
#     4   8  16  32  58  88 112 140 184 238 280 322
#     4  12  25  39  55  82 120 155 189 234 285 329
#     4  10  20  35  57  80 106 145 188 227 275 337
#     4   9  17  31  55  85 108 130 176 239 286 324
#
# _framework density 20.794070000000001
#
# number of rings (size 3 to 8) (size 9 to 14) (size 15 to 20)
#    0.000    2.000    0.000    4.000    0.000    5.333 
#    0.000    1.111    0.000   13.333    0.000    0.000 
#    0.000    0.000    0.000    0.000    0.000    0.000 
#
# Total GULP energy -223111.121337 kJ/mol
# GULP energy per Si atom -12395.062297 kJ/mol
# Density = 2.074674 g / cm^3
# Si number density = 20.794070 Si / 1000 Ang^3
#
#
#
# Elastic Constant Matrix: (Units=GPa)
#
#
# Indices 1 2 3 4 5 6 
#
# 1 101.7972 53.3529 47.4191 0.0000 -30.8655 0.0000
# 2 53.3529 193.6734 52.5776 0.0000 -5.7737 0.0000
# 3 47.4191 52.5776 95.2681 0.0000 -37.6694 0.0000
# 4 0.0000 0.0000 0.0000 14.2001 0.0000 -22.5949
# 5 -30.8655 -5.7737 -37.6694 0.0000 35.6282 0.0000
# 6 0.0000 0.0000 0.0000 -22.5949 0.0000 8.7594
#
#
#
# Elastic Compliance Matrix: (Units=1/GPa)
#
#
# Indices 1 2 3 4 5 6 
#
# 1 0.015947 -0.003729 -0.001127 0.000000 0.012019 0.000000
# 2 -0.003729 0.007375 -0.005187 0.000000 -0.007520 0.000000
# 3 -0.001127 -0.005187 0.022686 0.000000 0.022169 0.000000
# 4 0.000000 0.000000 0.000000 -0.022684 0.000000 -0.058514
# 5 0.012019 -0.007520 0.022169 0.000000 0.060701 0.000000
# 6 0.000000 0.000000 0.000000 -0.058514 0.000000 -0.036774
#
#
# Mechanical properties :
#
#
# Convention : Reuss Voigt Hill
#
# Bulk Modulus (GPa) = 38.57835 77.49310 58.03573
# Shear Modulus (GPa) = 65.80874 27.54348 46.67611
#
# Velocity S-wave (km/s) = 5.63174 3.64343 4.74295
# Velocity P-wave (km/s) = 7.80266 7.41939 7.61344
#
# Compressibility (1/GPa) = 0.02592127
#
# Stress axis : x y z
#
# Youngs Moduli (GPa) = 62.70721 135.60066 44.07949
#
# Poissons Ratio (x) = 0.50562 0.04969
# Poissons Ratio (y) = 0.23382 0.22866
# Poissons Ratio (z) = 0.07069 0.70341
#
# Static dielectric constant tensor:
#      x y z
#    x 3.724550 0.000000 -0.346830 
#    y 0.000000 4.241830 0.000000 
#    z -0.346830 0.000000 3.723480 
# 
# 
# High freq. dielectric constant tensor:
#      x y z
#    x 1.803850 0.000000 -0.035430 
#    y 0.000000 1.834020 0.000000 
#    z -0.035430 0.000000 1.808140 
# 
# From -- ./inp_files/3970.got.cif
#   From: 2010.06.25/outbox.cif.g09.slc.cpg/sg10_2_cif.got.tgz:3970.got - 2010.06.27 22:07:45.
