data_PCOD8064553
_publ_section_title
;
Structure prediction by ZEFSAII (Michael W. Deem and Ramdas Pophale) SiO2 
 PCOD8064553
Probable space group: P 2/M
;
_chemical_formula_sum "Si O2"
_cell_formula_units_Z 32
_cell_length_a 20.471109
_cell_length_b 9.569652
_cell_length_c 25.728880
_cell_angle_alpha 90.000000
_cell_angle_beta 159.003841
_cell_angle_gamma 90.000000
_cell_volume 1805.974883
_symmetry_space_group_name_H-M "P 2/M"
_symmetry_group_IT_number 10
_symmetry_cell_setting 'monoclinic'
loop_
_space_group_symop_operation_xyz
x,y,z
-x,y,-z
-x,-y,-z
x,-y,z
loop_
_atom_site_type_symbol
_atom_site_label
_atom_site_fract_x
_atom_site_fract_y
_atom_site_fract_z
Si Si1 0.545137 0.835962 0.365026
Si Si2 0.191806 0.162199 0.168281
Si Si3 0.251420 0.339619 0.958529
Si Si4 0.159331 0.339226 0.354243
Si Si5 0.209021 0.161899 0.658196
Si Si6 0.453919 0.339651 0.908667
Si Si7 0.295365 0.339148 0.341142
Si Si8 0.496850 0.162785 0.785358
O O1 0.355586 0.793233 0.251583
O O2 0.711716 0.755955 0.515114
O O3 0.536486 0.790326 0.298497
O O4 0.583153 0.000000 0.398675
O O5 0.195723 0.248723 0.223933
O O6 0.206386 0.000000 0.193504
O O7 0.000000 0.198377 0.000000
O O8 0.253218 0.500000 0.978990
O O9 0.049020 0.293300 0.791696
O O10 0.368358 0.316941 0.993944
O O11 0.330228 0.246720 0.063942
O O12 0.194594 0.500000 0.396169
O O13 0.192062 0.315731 0.317900
O O14 0.288239 0.248480 0.764739
O O15 0.314345 0.197684 0.682762
O O16 0.000000 0.207184 0.500000
O O17 0.229889 0.000000 0.687438
O O18 0.390040 0.500000 0.861823
O O19 0.500000 0.285168 0.000000
O O20 0.500000 0.283783 0.500000
O O21 0.294711 0.500000 0.322613
O O22 0.546862 0.000000 0.825692
#
# Coordination Sequence:
#
# PCOD8064553 Si02
#       8
#     4   4   4   4   4   4   4   4
#     4  10  21  36  52  74 103 133 167 207 251 299
#     4  10  22  37  53  76 103 131 167 209 252 299
#     4   9  19  35  53  75 102 133 169 206 249 299
#     4  10  21  36  53  75 103 133 167 208 252 299
#     4   9  18  33  52  75 103 135 169 206 249 295
#     4   9  18  33  52  75 104 134 166 207 250 294
#     4  10  20  36  55  75 101 132 167 208 252 298
#     4   9  19  35  53  74 103 135 168 208 250 295
#
# _framework density 17.718962000000001
#
# number of rings (size 3 to 8) (size 9 to 14) (size 15 to 20)
#    0.000    2.500    1.250    0.000    1.750    3.500 
#    0.000    0.000    0.000    0.000    0.000    0.000 
#    0.000    0.000    0.000    0.000    0.000    0.000 
#
# Total GULP energy -396882.071964 kJ/mol
# GULP energy per Si atom -12402.564749 kJ/mol
# Density = 1.767863 g / cm^3
# Si number density = 17.718962 Si / 1000 Ang^3
#
#
#
# Elastic Constant Matrix: (Units=GPa)
#
#
# Indices 1 2 3 4 5 6 
#
# 1 96.0532 47.8564 71.3410 0.0000 -19.5524 0.0000
# 2 47.8564 61.5489 71.7182 0.0000 -13.6024 0.0000
# 3 71.3410 71.7182 163.2136 0.0000 -6.9795 0.0000
# 4 0.0000 0.0000 0.0000 31.1827 0.0000 -12.6444
# 5 -19.5524 -13.6024 -6.9795 0.0000 29.3972 0.0000
# 6 0.0000 0.0000 0.0000 -12.6444 0.0000 24.4184
#
#
#
# Elastic Compliance Matrix: (Units=1/GPa)
#
#
# Indices 1 2 3 4 5 6 
#
# 1 0.019501 -0.007834 -0.004730 0.000000 0.008222 0.000000
# 2 -0.007834 0.041285 -0.014268 0.000000 0.010505 0.000000
# 3 -0.004730 -0.014268 0.014191 0.000000 -0.006378 0.000000
# 4 0.000000 0.000000 0.000000 0.040592 0.000000 0.021020
# 5 0.008222 0.010505 -0.006378 0.000000 0.042832 0.000000
# 6 0.000000 0.000000 0.000000 0.021020 0.000000 0.051837
#
#
# Mechanical properties :
#
#
# Convention : Reuss Voigt Hill
#
# Bulk Modulus (GPa) = 46.91806 78.07188 62.49497
# Shear Modulus (GPa) = 18.44971 25.65965 22.05468
#
# Velocity S-wave (km/s) = 3.23033 3.80958 3.53185
# Velocity P-wave (km/s) = 6.36002 7.96915 7.20962
#
# Compressibility (1/GPa) = 0.02131376
#
# Stress axis : x y z
#
# Youngs Moduli (GPa) = 51.28034 24.22162 70.46688
#
# Poissons Ratio (x) = 0.18975 0.33329
# Poissons Ratio (y) = 0.40173 1.00541
# Poissons Ratio (z) = 0.24254 0.34559
#
# Static dielectric constant tensor:
#      x y z
#    x 3.391250 0.000000 0.102400 
#    y 0.000000 3.263170 0.000000 
#    z 0.102400 0.000000 3.332310 
# 
# 
# High freq. dielectric constant tensor:
#      x y z
#    x 1.690060 0.000000 0.004320 
#    y 0.000000 1.681420 0.000000 
#    z 0.004320 0.000000 1.689100 
# 
# From -- ./inp_files/93658.got.cif
#   From: 2010.06.25/outbox.cif.g09.slc.cpg/sg10_47_cif.got.tgz:93658.got - 2010.06.27 22:07:45.
