data_PCOD8064544
_publ_section_title
;
Structure prediction by ZEFSAII (Michael W. Deem and Ramdas Pophale) SiO2 
 PCOD8064544
Probable space group: P 2/M
;
_chemical_formula_sum "Si O2"
_cell_formula_units_Z 28
_cell_length_a 7.849517
_cell_length_b 8.707207
_cell_length_c 20.110929
_cell_angle_alpha 90.000000
_cell_angle_beta 89.315843
_cell_angle_gamma 90.000000
_cell_volume 1374.431102
_symmetry_space_group_name_H-M "P 2/M"
_symmetry_group_IT_number 10
_symmetry_cell_setting 'monoclinic'
loop_
_space_group_symop_operation_xyz
x,y,z
-x,y,-z
-x,-y,-z
x,-y,z
loop_
_atom_site_type_symbol
_atom_site_label
_atom_site_fract_x
_atom_site_fract_y
_atom_site_fract_z
Si Si1 0.182971 0.180793 0.163577
Si Si2 0.204793 0.817919 0.832063
Si Si3 0.674704 0.820401 0.432168
Si Si4 0.203508 0.669085 0.697222
Si Si5 0.507206 0.182814 0.925361
Si Si6 0.690840 0.319500 0.563193
Si Si7 0.808970 0.331565 0.702833
O O1 0.319007 0.246844 0.109580
O O2 0.254755 0.227704 0.235916
O O3 0.988964 0.239674 0.150224
O O4 0.183213 0.000000 0.160228
O O5 0.278544 0.747631 0.763048
O O6 0.335180 0.762603 0.888574
O O7 0.205098 0.000000 0.823767
O O8 0.778764 0.780249 0.365983
O O9 0.507887 0.716009 0.431948
O O10 0.774089 0.770102 0.499490
O O11 0.631019 0.000000 0.434384
O O12 0.287319 0.500000 0.685249
O O13 0.007046 0.647642 0.710841
O O14 0.512730 0.000000 0.925906
O O15 0.500000 0.249254 0.000000
O O16 0.726732 0.500000 0.554710
O O17 0.769624 0.254929 0.631584
O O18 0.720502 0.500000 0.706893
#
# Coordination Sequence:
#
# PCOD8064544 Si02
#       7
#     4   4   4   4   4   4   4
#     4   9  18  32  52  78 108 142 177 222 272 316
#     4   9  18  33  52  78 109 139 179 225 269 320
#     4  11  22  35  51  76 107 140 177 221 270 318
#     4  10  20  36  55  76 103 138 177 220 270 322
#     4   9  18  32  52  81 111 140 177 218 266 324
#     4  10  20  36  54  75 103 139 181 222 268 321
#     4   9  20  36  55  77 102 135 177 222 269 320
#
# _framework density 20.372066
#
# number of rings (size 3 to 8) (size 9 to 14) (size 15 to 20)
#    0.000    2.429    0.000    3.000    2.000    2.857 
#    0.000    5.714    0.000    1.714    0.000    4.000 
#    0.000    0.000    0.000    0.000    0.000    0.000 
#
# Total GULP energy -346991.248581 kJ/mol
# GULP energy per Si atom -12392.544592 kJ/mol
# Density = 2.032570 g / cm^3
# Si number density = 20.372066 Si / 1000 Ang^3
#
#
#
# Elastic Constant Matrix: (Units=GPa)
#
#
# Indices 1 2 3 4 5 6 
#
# 1 77.1477 20.0811 65.3425 0.0000 1.0754 0.0000
# 2 20.0811 40.6742 32.0340 0.0000 -2.0391 0.0000
# 3 65.3425 32.0340 197.3249 0.0000 2.0532 0.0000
# 4 0.0000 0.0000 0.0000 18.2789 0.0000 4.1706
# 5 1.0754 -2.0391 2.0532 0.0000 32.5561 0.0000
# 6 0.0000 0.0000 0.0000 4.1706 0.0000 13.1865
#
#
#
# Elastic Compliance Matrix: (Units=1/GPa)
#
#
# Indices 1 2 3 4 5 6 
#
# 1 0.018887 -0.005084 -0.005423 0.000000 -0.000600 0.000000
# 2 -0.005084 0.029696 -0.003161 0.000000 0.002227 0.000000
# 3 -0.005423 -0.003161 0.007382 0.000000 -0.000484 0.000000
# 4 0.000000 0.000000 0.000000 0.058963 0.000000 -0.018649
# 5 -0.000600 0.002227 -0.000484 0.000000 0.030906 0.000000
# 6 0.000000 0.000000 0.000000 -0.018649 0.000000 0.081733
#
#
# Mechanical properties :
#
#
# Convention : Reuss Voigt Hill
#
# Bulk Modulus (GPa) = 34.92782 61.11798 48.02290
# Shear Modulus (GPa) = 18.90754 25.98356 22.44555
#
# Velocity S-wave (km/s) = 3.04980 3.57522 3.32291
# Velocity P-wave (km/s) = 5.43910 6.86359 6.19245
#
# Compressibility (1/GPa) = 0.02863047
#
# Stress axis : x y z
#
# Youngs Moduli (GPa) = 52.94747 33.67401 135.47252
#
# Poissons Ratio (x) = 0.17119 0.73461
# Poissons Ratio (y) = 0.26918 0.42818
# Poissons Ratio (z) = 0.28711 0.10643
#
# Static dielectric constant tensor:
#      x y z
#    x 3.676730 0.000000 0.000980 
#    y 0.000000 3.663740 0.000000 
#    z 0.000980 0.000000 4.233020 
# 
# 
# High freq. dielectric constant tensor:
#      x y z
#    x 1.783220 0.000000 0.001410 
#    y 0.000000 1.771800 0.000000 
#    z 0.001410 0.000000 1.805170 
# 
# From -- ./inp_files/81762.got.cif
#   From: 2010.06.25/outbox.cif.g09.slc.cpg/sg10_41_cif.got.tgz:81762.got - 2010.06.27 22:07:45.
