data_PCOD8064109
_publ_section_title
;
Structure prediction by ZEFSAII (Michael W. Deem and Ramdas Pophale) SiO2 
 PCOD8064109
Probable space group: P 2/M
;
_chemical_formula_sum "Si O2"
_cell_formula_units_Z 24
_cell_length_a 13.596630
_cell_length_b 9.035318
_cell_length_c 15.390441
_cell_angle_alpha 90.000000
_cell_angle_beta 139.116889
_cell_angle_gamma 90.000000
_cell_volume 1237.506161
_symmetry_space_group_name_H-M "P 2/M"
_symmetry_group_IT_number 10
_symmetry_cell_setting 'monoclinic'
loop_
_space_group_symop_operation_xyz
x,y,z
-x,y,-z
-x,-y,-z
x,-y,z
loop_
_atom_site_type_symbol
_atom_site_label
_atom_site_fract_x
_atom_site_fract_y
_atom_site_fract_z
Si Si1 0.921444 0.171494 0.536278
Si Si2 0.392341 0.675684 0.676961
Si Si3 0.903071 0.171179 0.172744
Si Si4 0.581524 0.323924 0.639559
Si Si5 0.442533 0.173135 0.056488
Si Si6 0.080631 0.324320 0.140125
O O1 0.774412 0.268361 0.453610
O O2 0.000000 0.222435 0.500000
O O3 0.039349 0.202190 0.691736
O O4 0.874018 0.000000 0.499904
O O5 0.390178 0.500000 0.680010
O O6 0.497862 0.734060 0.669506
O O7 0.455645 0.737677 0.808770
O O8 0.999938 0.265924 0.171396
O O9 0.920617 0.000000 0.160098
O O10 0.730492 0.221734 0.050689
O O11 0.500000 0.259547 0.500000
O O12 0.580665 0.500000 0.637440
O O13 0.750482 0.262517 0.751273
O O14 0.463988 0.000000 0.088938
O O15 0.500000 0.216015 0.000000
O O16 0.077115 0.500000 0.142089
O O17 0.000000 0.264663 0.000000
#
# Coordination Sequence:
#
# PCOD8064109 Si02
#       6
#     4   4   4   4   4   4
#     4  10  21  39  60  81 111 151 188 222 271 336
#     4  11  22  36  58  87 114 142 183 234 278 319
#     4  10  21  36  57  84 110 142 188 235 273 317
#     4   9  18  33  52  75 106 144 180 215 266 330
#     4  10  21  39  60  80 109 151 189 222 273 337
#     4  10  20  35  55  77 106 146 184 220 273 335
#
# _framework density 19.393843
#
# number of rings (size 3 to 8) (size 9 to 14) (size 15 to 20)
#    0.000    2.000    0.000    3.500    0.000    7.667 
#    0.000    3.333    0.000    4.500    0.000    0.000 
#    0.000    0.000    0.000    0.000    0.000    0.000 
#
# Total GULP energy -297704.602667 kJ/mol
# GULP energy per Si atom -12404.358444 kJ/mol
# Density = 1.934970 g / cm^3
# Si number density = 19.393843 Si / 1000 Ang^3
#
#
#
# Elastic Constant Matrix: (Units=GPa)
#
#
# Indices 1 2 3 4 5 6 
#
# 1 113.9819 20.1580 18.0956 0.0000 0.4983 0.0000
# 2 20.1580 32.3435 18.0612 0.0000 -1.2441 0.0000
# 3 18.0956 18.0612 100.8460 0.0000 3.1542 0.0000
# 4 0.0000 0.0000 0.0000 19.4608 0.0000 -3.0105
# 5 0.4983 -1.2441 3.1542 0.0000 41.0907 0.0000
# 6 0.0000 0.0000 0.0000 -3.0105 0.0000 27.1656
#
#
#
# Elastic Compliance Matrix: (Units=1/GPa)
#
#
# Indices 1 2 3 4 5 6 
#
# 1 0.009913 -0.005776 -0.000737 0.000000 -0.000239 0.000000
# 2 -0.005776 0.037814 -0.005788 0.000000 0.001659 0.000000
# 3 -0.000737 -0.005788 0.011117 0.000000 -0.001020 0.000000
# 4 0.000000 0.000000 0.000000 0.052282 0.000000 0.005794
# 5 -0.000239 0.001659 -0.001020 0.000000 0.024468 0.000000
# 6 0.000000 0.000000 0.000000 0.005794 0.000000 0.037453
#
#
# Mechanical properties :
#
#
# Convention : Reuss Voigt Hill
#
# Bulk Modulus (GPa) = 29.20357 39.97788 34.59073
# Shear Modulus (GPa) = 23.91643 30.26718 27.09181
#
# Velocity S-wave (km/s) = 3.51550 3.95480 3.74161
# Velocity P-wave (km/s) = 5.61865 6.44301 6.04490
#
# Compressibility (1/GPa) = 0.03424239
#
# Stress axis : x y z
#
# Youngs Moduli (GPa) = 100.87946 26.44537 89.95390
#
# Poissons Ratio (x) = 0.15274 0.06628
# Poissons Ratio (y) = 0.58266 0.52064
# Poissons Ratio (z) = 0.07433 0.15306
#
# Static dielectric constant tensor:
#      x y z
#    x 3.732460 0.000000 0.171060 
#    y 0.000000 3.276710 0.000000 
#    z 0.171060 0.000000 4.160870 
# 
# 
# High freq. dielectric constant tensor:
#      x y z
#    x 1.771630 0.000000 0.000600 
#    y 0.000000 1.728550 0.000000 
#    z 0.000600 0.000000 1.774710 
# 
# From -- ./inp_files/56524.got.cif
#   From: 2010.06.25/outbox.cif.g09.slc.cpg/sg10_29_cif.got.tgz:56524.got - 2010.06.27 22:07:45.
