data_PCOD8064885
_publ_section_title
;
Structure prediction by ZEFSAII (Michael W. Deem and Ramdas Pophale) SiO2 
 PCOD8064885
Probable space group: P 2/M
;
_chemical_formula_sum "Si O2"
_cell_formula_units_Z 32
_cell_length_a 14.547630
_cell_length_b 8.865739
_cell_length_c 20.857813
_cell_angle_alpha 90.000000
_cell_angle_beta 36.982073
_cell_angle_gamma 90.000000
_cell_volume 1618.298381
_symmetry_space_group_name_H-M "P 2/M"
_symmetry_group_IT_number 10
_symmetry_cell_setting 'monoclinic'
loop_
_space_group_symop_operation_xyz
x,y,z
-x,y,-z
-x,-y,-z
x,-y,z
loop_
_atom_site_type_symbol
_atom_site_label
_atom_site_fract_x
_atom_site_fract_y
_atom_site_fract_z
Si Si1 0.275574 0.167706 0.872140
Si Si2 0.855973 0.178142 0.922429
Si Si3 0.807170 0.175983 0.308918
Si Si4 0.436072 0.327439 0.964956
Si Si5 0.713109 0.176819 0.504352
Si Si6 0.150694 0.676317 0.452956
Si Si7 0.615643 0.677289 0.308441
Si Si8 0.407130 0.168768 0.234221
O O1 0.269917 0.273565 0.812810
O O2 0.446527 0.165316 0.802439
O O3 0.224271 0.000000 0.879283
O O4 0.165179 0.226687 0.990943
O O5 0.023229 0.225403 0.805881
O O6 0.825092 0.000000 0.933041
O O7 0.736148 0.264199 0.943826
O O8 0.781032 0.217589 0.397332
O O9 0.683608 0.268581 0.337802
O O10 0.779888 0.000000 0.310934
O O11 0.436077 0.500000 0.941042
O O12 0.550042 0.227585 0.859518
O O13 0.500000 0.313314 0.000000
O O14 0.835985 0.234447 0.487585
O O15 0.551509 0.254231 0.607471
O O16 0.688337 0.000000 0.526854
O O17 0.147904 0.500000 0.470004
O O18 0.290155 0.713921 0.329042
O O19 0.000000 0.729831 0.500000
O O20 0.600086 0.500000 0.317050
O O21 0.337538 0.000000 0.267662
#
# Coordination Sequence:
#
# PCOD8064885 Si02
#       8
#     4   4   4   4   4   4   4   4
#     4   9  18  35  60  86 114 150 193 244 296 350
#     4   9  20  39  61  86 116 154 201 251 302 354
#     4  10  23  42  62  86 120 159 201 253 305 358
#     4  10  21  36  57  86 120 158 196 241 300 359
#     4  11  23  41  64  88 118 159 206 252 300 356
#     4  11  24  40  60  89 123 157 194 244 306 362
#     4  12  24  37  60  90 120 158 202 248 304 366
#     4  10  20  36  60  85 112 152 198 245 293 347
#
# _framework density 19.773855999999999
#
# number of rings (size 3 to 8) (size 9 to 14) (size 15 to 20)
#    0.000    1.750    1.250    3.750    0.000    8.500 
#    0.000    5.000    0.000    0.000    0.000    0.000 
#    0.000    0.000    0.000    0.000    0.000    0.000 
#
# Total GULP energy -396894.111602 kJ/mol
# GULP energy per Si atom -12402.940988 kJ/mol
# Density = 1.972885 g / cm^3
# Si number density = 19.773856 Si / 1000 Ang^3
#
#
#
# Elastic Constant Matrix: (Units=GPa)
#
#
# Indices 1 2 3 4 5 6 
#
# 1 114.4743 52.8083 48.4838 0.0000 16.8228 0.0000
# 2 52.8083 88.5202 32.3318 0.0000 12.8596 0.0000
# 3 48.4838 32.3318 108.5337 0.0000 10.6216 0.0000
# 4 0.0000 0.0000 0.0000 17.6819 0.0000 1.0858
# 5 16.8228 12.8596 10.6216 0.0000 18.8913 0.0000
# 6 0.0000 0.0000 0.0000 1.0858 0.0000 30.1850
#
#
#
# Elastic Compliance Matrix: (Units=1/GPa)
#
#
# Indices 1 2 3 4 5 6 
#
# 1 0.014104 -0.006093 -0.003875 0.000000 -0.006233 0.000000
# 2 -0.006093 0.016215 -0.001650 0.000000 -0.004684 0.000000
# 3 -0.003875 -0.001650 0.011629 0.000000 -0.001964 0.000000
# 4 0.000000 0.000000 0.000000 0.056680 0.000000 -0.002039
# 5 -0.006233 -0.004684 -0.001964 0.000000 0.062778 0.000000
# 6 0.000000 0.000000 0.000000 -0.002039 0.000000 0.033202
#
#
# Mechanical properties :
#
#
# Convention : Reuss Voigt Hill
#
# Bulk Modulus (GPa) = 53.44580 64.30846 58.87713
# Shear Modulus (GPa) = 22.31337 25.21192 23.76265
#
# Velocity S-wave (km/s) = 3.36285 3.57461 3.47034
# Velocity P-wave (km/s) = 6.49350 7.04483 6.77478
#
# Compressibility (1/GPa) = 0.01871055
#
# Stress axis : x y z
#
# Youngs Moduli (GPa) = 70.90409 61.67187 85.99444
#
# Poissons Ratio (x) = 0.37576 0.33325
# Poissons Ratio (y) = 0.43201 0.14190
# Poissons Ratio (z) = 0.27477 0.10177
#
# Static dielectric constant tensor:
#      x y z
#    x 3.583250 0.000000 0.085960 
#    y 0.000000 3.644220 0.000000 
#    z 0.085960 0.000000 3.839810 
# 
# 
# High freq. dielectric constant tensor:
#      x y z
#    x 1.769000 0.000000 0.009560 
#    y 0.000000 1.771510 0.000000 
#    z 0.009560 0.000000 1.776410 
# 
# From -- ./inp_files/84717.got.cif
#   From: 2010.06.25/outbox.cif.g09.slc.cpg/sg10_43_cif.got.tgz:84717.got - 2010.06.27 22:07:45.
