data_PCOD8064177
_publ_section_title
;
Structure prediction by ZEFSAII (Michael W. Deem and Ramdas Pophale) SiO2 
 PCOD8064177
Probable space group: P 2/M
;
_chemical_formula_sum "Si O2"
_cell_formula_units_Z 32
_cell_length_a 22.481793
_cell_length_b 8.924901
_cell_length_c 14.838169
_cell_angle_alpha 90.000000
_cell_angle_beta 29.846295
_cell_angle_gamma 90.000000
_cell_volume 1481.700576
_symmetry_space_group_name_H-M "P 2/M"
_symmetry_group_IT_number 10
_symmetry_cell_setting 'monoclinic'
loop_
_space_group_symop_operation_xyz
x,y,z
-x,y,-z
-x,-y,-z
x,-y,z
loop_
_atom_site_type_symbol
_atom_site_label
_atom_site_fract_x
_atom_site_fract_y
_atom_site_fract_z
Si Si1 0.867428 0.830423 0.502365
Si Si2 0.260033 0.331517 0.176607
Si Si3 0.595777 0.673757 0.447484
Si Si4 0.154915 0.328104 0.972277
Si Si5 0.334560 0.823775 0.469583
Si Si6 0.135013 0.831665 0.182996
Si Si7 0.476269 0.330202 0.131983
Si Si8 0.107873 0.672958 0.715843
O O1 0.768627 0.777002 0.702642
O O2 0.868909 0.717136 0.417772
O O3 0.993933 0.825875 0.387272
O O4 0.838578 0.000000 0.507522
O O5 0.217677 0.500000 0.255349
O O6 0.198440 0.281281 0.166281
O O7 0.401067 0.325764 0.973488
O O8 0.500000 0.735431 0.500000
O O9 0.569434 0.500000 0.499703
O O10 0.730996 0.703246 0.238906
O O11 0.581400 0.758756 0.561392
O O12 0.153089 0.500000 0.009196
O O13 0.164082 0.216581 0.043535
O O14 0.032275 0.295908 0.077216
O O15 0.380590 0.770457 0.310885
O O16 0.197227 0.767762 0.661908
O O17 0.339173 0.000000 0.469044
O O18 0.183761 0.000000 0.133549
O O19 0.425828 0.500000 0.191900
O O20 0.500000 0.267616 0.000000
O O21 0.140061 0.500000 0.688373
#
# Coordination Sequence:
#
# PCOD8064177 Si02
#       8
#     4   4   4   4   4   4   4   4
#     4  10  20  35  55  84 122 161 202 250 311 369
#     4  11  22  34  55  83 114 157 209 260 306 366
#     4  10  23  44  69  94 126 166 209 260 313 369
#     4   9  20  39  64  93 120 158 209 257 307 365
#     4  12  26  42  64  95 129 165 208 257 315 380
#     4  10  21  35  54  83 122 163 199 249 312 371
#     4  10  23  43  64  87 118 160 210 260 311 367
#     4  10  20  38  64  90 122 160 205 256 307 369
#
# _framework density 21.596806000000001
#
# number of rings (size 3 to 8) (size 9 to 14) (size 15 to 20)
#    0.000    1.750    0.000    3.750    1.750    7.000 
#    0.000    2.500    0.000    0.000    0.000    0.000 
#    0.000    0.000    0.000    0.000    0.000    0.000 
#
# Total GULP energy -396876.264088 kJ/mol
# GULP energy per Si atom -12402.383253 kJ/mol
# Density = 2.154765 g / cm^3
# Si number density = 21.596806 Si / 1000 Ang^3
#
#
#
# Elastic Constant Matrix: (Units=GPa)
#
#
# Indices 1 2 3 4 5 6 
#
# 1 108.5143 37.3571 29.4722 0.0000 -11.2128 0.0000
# 2 37.3571 102.7073 38.8241 0.0000 -4.9274 0.0000
# 3 29.4722 38.8241 84.8757 0.0000 -6.3099 0.0000
# 4 0.0000 0.0000 0.0000 19.3018 0.0000 2.4499
# 5 -11.2128 -4.9274 -6.3099 0.0000 24.4395 0.0000
# 6 0.0000 0.0000 0.0000 2.4499 0.0000 21.9901
#
#
#
# Elastic Compliance Matrix: (Units=1/GPa)
#
#
# Indices 1 2 3 4 5 6 
#
# 1 0.011288 -0.003077 -0.002216 0.000000 0.003987 0.000000
# 2 -0.003077 0.012635 -0.004717 0.000000 -0.000082 0.000000
# 3 -0.002216 -0.004717 0.014848 0.000000 0.001866 0.000000
# 4 0.000000 0.000000 0.000000 0.052552 0.000000 -0.005855
# 5 0.003987 -0.000082 0.001866 0.000000 0.043212 0.000000
# 6 0.000000 0.000000 0.000000 -0.005855 0.000000 0.046127
#
#
# Mechanical properties :
#
#
# Convention : Reuss Voigt Hill
#
# Bulk Modulus (GPa) = 53.33053 56.37823 54.85438
# Shear Modulus (GPa) = 24.16255 25.84254 25.00254
#
# Velocity S-wave (km/s) = 3.34848 3.46293 3.40618
# Velocity P-wave (km/s) = 6.30056 6.49236 6.39718
#
# Compressibility (1/GPa) = 0.01875098
#
# Stress axis : x y z
#
# Youngs Moduli (GPa) = 88.58621 79.14699 67.35004
#
# Poissons Ratio (x) = 0.24353 0.14924
# Poissons Ratio (y) = 0.27258 0.31770
# Poissons Ratio (z) = 0.19630 0.37334
#
# Static dielectric constant tensor:
#      x y z
#    x 3.940710 0.000000 -0.245710 
#    y 0.000000 3.813410 0.000000 
#    z -0.245710 0.000000 3.848600 
# 
# 
# High freq. dielectric constant tensor:
#      x y z
#    x 1.854110 0.000000 -0.011920 
#    y 0.000000 1.842370 0.000000 
#    z -0.011920 0.000000 1.841350 
# 
# From -- ./inp_files/71483.got.cif
#   From: 2010.06.25/outbox.cif.g09.slc.cpg/sg10_36_cif.got.tgz:71483.got - 2010.06.27 22:07:45.
