data_PCOD8064271
_publ_section_title
;
Structure prediction by ZEFSAII (Michael W. Deem and Ramdas Pophale) SiO2 
 PCOD8064271
Probable space group: P 2/M
;
_chemical_formula_sum "Si O2"
_cell_formula_units_Z 32
_cell_length_a 32.655371
_cell_length_b 8.798962
_cell_length_c 12.502031
_cell_angle_alpha 90.000000
_cell_angle_beta 26.985848
_cell_angle_gamma 90.000000
_cell_volume 1630.057058
_symmetry_space_group_name_H-M "P 2/M"
_symmetry_group_IT_number 10
_symmetry_cell_setting 'monoclinic'
loop_
_space_group_symop_operation_xyz
x,y,z
-x,y,-z
-x,-y,-z
x,-y,z
loop_
_atom_site_type_symbol
_atom_site_label
_atom_site_fract_x
_atom_site_fract_y
_atom_site_fract_z
Si Si1 0.930583 0.819413 0.399776
Si Si2 0.178229 0.676691 0.175658
Si Si3 0.234188 0.673967 0.810615
Si Si4 0.618718 0.673962 0.007718
Si Si5 0.873327 0.821015 0.123837
Si Si6 0.202405 0.820365 0.478316
Si Si7 0.358996 0.177512 0.823708
Si Si8 0.578838 0.325345 0.527941
O O1 0.912650 0.735699 0.555106
O O2 0.855712 0.764992 0.488011
O O3 0.930146 0.000000 0.417309
O O4 0.027236 0.758826 0.134493
O O5 0.195896 0.500000 0.159608
O O6 0.175520 0.703340 0.054548
O O7 0.255427 0.780239 0.046865
O O8 0.225293 0.500000 0.794926
O O9 0.197324 0.779334 0.803352
O O10 0.339330 0.718774 0.583321
O O11 0.649658 0.500000 0.933007
O O12 0.693790 0.769022 0.770463
O O13 0.605079 0.727672 0.160337
O O14 0.518669 0.694704 0.187462
O O15 0.840910 0.751763 0.312595
O O16 0.877850 0.000000 0.123251
O O17 0.201045 0.000000 0.486045
O O18 0.418442 0.218728 0.582453
O O19 0.367099 0.000000 0.830356
O O20 0.593631 0.500000 0.456159
#
# Coordination Sequence:
#
# PCOD8064271 Si02
#       8
#     4   4   4   4   4   4   4   4
#     4  10  20  36  59  85 113 145 182 228 285 341
#     4  10  20  35  56  83 116 150 184 227 278 330
#     4   9  20  39  58  78 110 150 190 229 272 326
#     4  11  21  34  55  82 112 146 185 228 276 331
#     4  10  22  39  59  82 109 147 190 233 282 333
#     4  10  21  38  58  82 114 147 184 231 282 333
#     4  11  20  31  51  82 117 149 181 222 276 333
#     4   9  20  37  55  78 111 150 187 226 274 328
#
# _framework density 19.631215000000001
#
# number of rings (size 3 to 8) (size 9 to 14) (size 15 to 20)
#    0.000    2.000    1.250    3.375    0.000    8.000 
#    0.000    3.125    0.000    6.000    0.000    0.000 
#    0.000    0.000    0.000    0.000    0.000    0.000 
#
# Total GULP energy -396774.639509 kJ/mol
# GULP energy per Si atom -12399.207485 kJ/mol
# Density = 1.958653 g / cm^3
# Si number density = 19.631215 Si / 1000 Ang^3
#
#
#
# Elastic Constant Matrix: (Units=GPa)
#
#
# Indices 1 2 3 4 5 6 
#
# 1 65.6805 11.7848 35.1799 0.0000 1.4769 0.0000
# 2 11.7848 18.9562 14.0267 0.0000 2.5489 0.0000
# 3 35.1799 14.0267 111.2142 0.0000 -14.0019 0.0000
# 4 0.0000 0.0000 0.0000 24.9794 0.0000 -2.5398
# 5 1.4769 2.5489 -14.0019 0.0000 15.8476 0.0000
# 6 0.0000 0.0000 0.0000 -2.5398 0.0000 26.0479
#
#
#
# Elastic Compliance Matrix: (Units=1/GPa)
#
#
# Indices 1 2 3 4 5 6 
#
# 1 0.019943 -0.006962 -0.006215 0.000000 -0.006230 0.000000
# 2 -0.006962 0.065461 -0.008211 0.000000 -0.017135 0.000000
# 3 -0.006215 -0.008211 0.013763 0.000000 0.014060 0.000000
# 4 0.000000 0.000000 0.000000 0.040434 0.000000 0.003943
# 5 -0.006230 -0.017135 0.014060 0.000000 0.078860 0.000000
# 6 0.000000 0.000000 0.000000 0.003943 0.000000 0.038775
#
#
# Mechanical properties :
#
#
# Convention : Reuss Voigt Hill
#
# Bulk Modulus (GPa) = 17.73309 35.31484 26.52397
# Shear Modulus (GPa) = 15.68329 22.36562 19.02446
#
# Velocity S-wave (km/s) = 2.82954 3.37900 3.11640
# Velocity P-wave (km/s) = 4.44160 5.76643 5.14682
#
# Compressibility (1/GPa) = 0.05639175
#
# Stress axis : x y z
#
# Youngs Moduli (GPa) = 50.14217 15.27621 72.65656
#
# Poissons Ratio (x) = 0.10635 0.45155
# Poissons Ratio (y) = 0.34909 0.59660
# Poissons Ratio (z) = 0.31162 0.12544
#
# Static dielectric constant tensor:
#      x y z
#    x 3.415950 0.000000 -0.026790 
#    y 0.000000 3.404110 0.000000 
#    z -0.026790 0.000000 3.820210 
# 
# 
# High freq. dielectric constant tensor:
#      x y z
#    x 1.743080 0.000000 -0.007230 
#    y 0.000000 1.755600 0.000000 
#    z -0.007230 0.000000 1.776130 
# 
# From -- ./inp_files/58117.got.cif
#   From: 2010.06.25/outbox.cif.g09.slc.cpg/sg10_30_cif.got.tgz:58117.got - 2010.06.27 22:07:45.
