data_PCOD8064646
_publ_section_title
;
Structure prediction by ZEFSAII (Michael W. Deem and Ramdas Pophale) SiO2 
 PCOD8064646
Probable space group: P 2/M
;
_chemical_formula_sum "Si O2"
_cell_formula_units_Z 32
_cell_length_a 14.710917
_cell_length_b 9.058921
_cell_length_c 23.275436
_cell_angle_alpha 90.000000
_cell_angle_beta 30.407570
_cell_angle_gamma 90.000000
_cell_volume 1569.969893
_symmetry_space_group_name_H-M "P 2/M"
_symmetry_group_IT_number 10
_symmetry_cell_setting 'monoclinic'
loop_
_space_group_symop_operation_xyz
x,y,z
-x,y,-z
-x,-y,-z
x,-y,z
loop_
_atom_site_type_symbol
_atom_site_label
_atom_site_fract_x
_atom_site_fract_y
_atom_site_fract_z
Si Si1 0.084173 0.334917 0.804603
Si Si2 0.181541 0.666339 0.880598
Si Si3 0.236132 0.826670 0.068001
Si Si4 0.716381 0.174164 0.525267
Si Si5 0.588068 0.674304 0.832345
Si Si6 0.591200 0.839963 0.390925
Si Si7 0.893865 0.172130 0.732985
Si Si8 0.441097 0.674751 0.284461
O O1 0.041909 0.500000 0.806366
O O2 0.180527 0.332637 0.813232
O O3 0.239845 0.260305 0.682520
O O4 0.899891 0.243041 0.904355
O O5 0.177399 0.500000 0.908489
O O6 0.362774 0.741023 0.805474
O O7 0.000000 0.750169 0.000000
O O8 0.156152 0.789327 0.174160
O O9 0.253567 0.000000 0.048122
O O10 0.429864 0.754421 0.953586
O O11 0.549584 0.231824 0.577479
O O12 0.706736 0.251128 0.593209
O O13 0.900862 0.215818 0.392224
O O14 0.705767 0.000000 0.539894
O O15 0.563907 0.500000 0.853267
O O16 0.774922 0.727631 0.756349
O O17 0.592715 0.718973 0.762878
O O18 0.500000 0.871353 0.500000
O O19 0.657466 0.000000 0.330591
O O20 0.856536 0.000000 0.740894
O O21 0.431307 0.500000 0.299504
#
# Coordination Sequence:
#
# PCOD8064646 Si02
#       8
#     4   4   4   4   4   4   4   4
#     4  11  21  34  57  88 119 154 195 239 290 347
#     4   9  17  32  54  79 113 155 191 229 286 351
#     4  11  23  41  64  89 123 162 200 247 306 371
#     4  10  21  38  61  87 119 160 207 252 295 356
#     4  11  24  41  64  92 120 155 201 257 312 360
#     4  10  20  36  57  82 118 160 199 242 293 351
#     4  10  23  43  64  87 118 161 204 249 311 367
#     4  10  21  39  60  85 123 163 199 246 307 364
#
# _framework density 20.382558
#
# number of rings (size 3 to 8) (size 9 to 14) (size 15 to 20)
#    0.000    1.750    1.250    3.000    0.000    8.750 
#    0.000    3.750    0.000    1.875    0.000    0.000 
#    0.000    0.000    0.000    0.000    0.000    0.000 
#
# Total GULP energy -396725.256340 kJ/mol
# GULP energy per Si atom -12397.664261 kJ/mol
# Density = 2.033617 g / cm^3
# Si number density = 20.382558 Si / 1000 Ang^3
#
#
#
# Elastic Constant Matrix: (Units=GPa)
#
#
# Indices 1 2 3 4 5 6 
#
# 1 81.3360 34.3529 22.6245 0.0000 -6.4638 0.0000
# 2 34.3529 71.7776 37.5861 0.0000 -3.0352 0.0000
# 3 22.6245 37.5861 109.0903 0.0000 0.7386 0.0000
# 4 0.0000 0.0000 0.0000 20.2652 0.0000 -5.4496
# 5 -6.4638 -3.0352 0.7386 0.0000 34.7818 0.0000
# 6 0.0000 0.0000 0.0000 -5.4496 0.0000 30.3049
#
#
#
# Elastic Compliance Matrix: (Units=1/GPa)
#
#
# Indices 1 2 3 4 5 6 
#
# 1 0.015651 -0.006936 -0.000872 0.000000 0.002322 0.000000
# 2 -0.006936 0.020163 -0.005512 0.000000 0.000588 0.000000
# 3 -0.000872 -0.005512 0.011253 0.000000 -0.000882 0.000000
# 4 0.000000 0.000000 0.000000 0.051853 0.000000 0.009325
# 5 0.002322 0.000588 -0.000882 0.000000 0.029252 0.000000
# 6 0.000000 0.000000 0.000000 0.009325 0.000000 0.034675
#
#
# Mechanical properties :
#
#
# Convention : Reuss Voigt Hill
#
# Bulk Modulus (GPa) = 48.95671 50.14789 49.55230
# Shear Modulus (GPa) = 25.47170 28.24641 26.85906
#
# Velocity S-wave (km/s) = 3.53892 3.72669 3.63402
# Velocity P-wave (km/s) = 6.38511 6.57072 6.47858
#
# Compressibility (1/GPa) = 0.02042621
#
# Stress axis : x y z
#
# Youngs Moduli (GPa) = 63.89297 49.59606 88.86677
#
# Poissons Ratio (x) = 0.34399 0.07749
# Poissons Ratio (y) = 0.44316 0.48988
# Poissons Ratio (z) = 0.05571 0.27340
#
# Static dielectric constant tensor:
#      x y z
#    x 3.753910 0.000000 -0.088140 
#    y 0.000000 3.610400 0.000000 
#    z -0.088140 0.000000 3.793860 
# 
# 
# High freq. dielectric constant tensor:
#      x y z
#    x 1.797620 0.000000 -0.002850 
#    y 0.000000 1.780720 0.000000 
#    z -0.002850 0.000000 1.806330 
# 
# From -- ./inp_files/71712.got.cif
#   From: 2010.06.25/outbox.cif.g09.slc.cpg/sg10_36_cif.got.tgz:71712.got - 2010.06.27 22:07:45.
