data_PCOD8064798
_publ_section_title
;
Structure prediction by ZEFSAII (Michael W. Deem and Ramdas Pophale) SiO2 
 PCOD8064798
Probable space group: P 2/M
;
_chemical_formula_sum "Si O2"
_cell_formula_units_Z 32
_cell_length_a 33.642785
_cell_length_b 9.352003
_cell_length_c 11.917983
_cell_angle_alpha 90.000000
_cell_angle_beta 26.656107
_cell_angle_gamma 90.000000
_cell_volume 1682.255601
_symmetry_space_group_name_H-M "P 2/M"
_symmetry_group_IT_number 10
_symmetry_cell_setting 'monoclinic'
loop_
_space_group_symop_operation_xyz
x,y,z
-x,y,-z
-x,-y,-z
x,-y,z
loop_
_atom_site_type_symbol
_atom_site_label
_atom_site_fract_x
_atom_site_fract_y
_atom_site_fract_z
Si Si1 0.748966 0.335778 0.481754
Si Si2 0.100744 0.664387 0.725054
Si Si3 0.410561 0.166729 0.492230
Si Si4 0.611819 0.833480 0.973344
Si Si5 0.257531 0.667631 0.758954
Si Si6 0.852063 0.162729 0.608282
Si Si7 0.908095 0.333682 0.672670
Si Si8 0.351475 0.161597 0.875657
O O1 0.719975 0.500000 0.565884
O O2 0.843200 0.308909 0.303652
O O3 0.670993 0.243698 0.732170
O O4 0.761885 0.290979 0.320426
O O5 0.107135 0.500000 0.669199
O O6 0.140784 0.765924 0.530434
O O7 0.000000 0.709359 0.000000
O O8 0.345351 0.250994 0.575514
O O9 0.404548 0.227623 0.635750
O O10 0.383291 0.000000 0.560505
O O11 0.509715 0.189222 0.197038
O O12 0.638621 0.000000 0.905545
O O13 0.629143 0.763380 0.053358
O O14 0.274532 0.500000 0.730774
O O15 0.172521 0.716939 0.045070
O O16 0.910209 0.246515 0.552009
O O17 0.885521 0.000000 0.516660
O O18 0.750584 0.171396 0.901586
O O19 0.899584 0.500000 0.664190
O O20 0.000000 0.298852 0.500000
O O21 0.384578 0.000000 0.808178
#
# Coordination Sequence:
#
# PCOD8064798 Si02
#       8
#     4   4   4   4   4   4   4   4
#     4  10  22  39  57  80 112 149 189 235 284 332
#     4  10  22  39  62  86 113 151 195 237 279 335
#     4  10  20  36  59  84 111 147 189 230 278 339
#     4  10  20  36  59  84 111 147 189 230 278 339
#     4  10  22  39  57  80 112 149 189 235 284 332
#     4  11  21  36  61  89 120 150 183 232 289 342
#     4  10  22  39  62  86 113 151 195 237 279 335
#     4   9  17  33  56  83 115 145 177 224 280 332
#
# _framework density 19.022078
#
# number of rings (size 3 to 8) (size 9 to 14) (size 15 to 20)
#    0.000    2.000    2.500    0.750    1.750    3.500 
#    0.000    3.125    0.000    1.500    0.000    0.000 
#    0.000    0.000    0.000    0.000    0.000    0.000 
#
# Total GULP energy -396848.505407 kJ/mol
# GULP energy per Si atom -12401.515794 kJ/mol
# Density = 1.897878 g / cm^3
# Si number density = 19.022078 Si / 1000 Ang^3
#
#
#
# Elastic Constant Matrix: (Units=GPa)
#
#
# Indices 1 2 3 4 5 6 
#
# 1 125.5190 42.5512 32.5267 0.0000 -1.3002 0.0000
# 2 42.5512 50.3712 26.9912 0.0000 -2.4232 0.0000
# 3 32.5267 26.9912 82.1873 0.0000 -7.7106 0.0000
# 4 0.0000 0.0000 0.0000 26.4698 0.0000 -0.9016
# 5 -1.3002 -2.4232 -7.7106 0.0000 29.3402 0.0000
# 6 0.0000 0.0000 0.0000 -0.9016 0.0000 29.7798
#
#
#
# Elastic Compliance Matrix: (Units=1/GPa)
#
#
# Indices 1 2 3 4 5 6 
#
# 1 0.011353 -0.008715 -0.001693 0.000000 -0.000662 0.000000
# 2 -0.008715 0.030783 -0.006621 0.000000 0.000416 0.000000
# 3 -0.001693 -0.006621 0.015332 0.000000 0.003407 0.000000
# 4 0.000000 0.000000 0.000000 0.037818 0.000000 0.001145
# 5 -0.000662 0.000416 0.003407 0.000000 0.034983 0.000000
# 6 0.000000 0.000000 0.000000 0.001145 0.000000 0.033615
#
#
# Mechanical properties :
#
#
# Convention : Reuss Voigt Hill
#
# Bulk Modulus (GPa) = 42.71957 51.35732 47.03844
# Shear Modulus (GPa) = 24.30185 27.51851 25.91018
#
# Velocity S-wave (km/s) = 3.57818 3.80763 3.69468
# Velocity P-wave (km/s) = 6.29109 6.81088 6.55614
#
# Compressibility (1/GPa) = 0.02340848
#
# Stress axis : x y z
#
# Youngs Moduli (GPa) = 88.07987 32.48561 65.22511
#
# Poissons Ratio (x) = 0.28312 0.11043
# Poissons Ratio (y) = 0.76765 0.43187
# Poissons Ratio (z) = 0.14913 0.21509
#
# Static dielectric constant tensor:
#      x y z
#    x 3.549400 0.000000 -0.010920 
#    y 0.000000 3.320100 0.000000 
#    z -0.010920 0.000000 3.494150 
# 
# 
# High freq. dielectric constant tensor:
#      x y z
#    x 1.748700 0.000000 -0.001540 
#    y 0.000000 1.717630 0.000000 
#    z -0.001540 0.000000 1.744110 
# 
# From -- ./inp_files/58157.got.cif
#   From: 2010.06.25/outbox.cif.g09.slc.cpg/sg10_30_cif.got.tgz:58157.got - 2010.06.27 22:07:45.
