data_PCOD8064184
_publ_section_title
;
Structure prediction by ZEFSAII (Michael W. Deem and Ramdas Pophale) SiO2 
 PCOD8064184
Probable space group: P 2/M
;
_chemical_formula_sum "Si O2"
_cell_formula_units_Z 32
_cell_length_a 26.228800
_cell_length_b 9.383513
_cell_length_c 20.877452
_cell_angle_alpha 90.000000
_cell_angle_beta 159.069526
_cell_angle_gamma 90.000000
_cell_volume 1835.587813
_symmetry_space_group_name_H-M "P 2/M"
_symmetry_group_IT_number 10
_symmetry_cell_setting 'monoclinic'
loop_
_space_group_symop_operation_xyz
x,y,z
-x,y,-z
-x,-y,-z
x,-y,z
loop_
_atom_site_type_symbol
_atom_site_label
_atom_site_fract_x
_atom_site_fract_y
_atom_site_fract_z
Si Si1 0.980741 0.333122 0.655694
Si Si2 0.709047 0.662387 0.032559
Si Si3 0.105811 0.334624 0.930459
Si Si4 0.598548 0.832652 0.555398
Si Si5 0.880818 0.663991 0.911709
Si Si6 0.415218 0.166828 0.995936
Si Si7 0.592828 0.665153 0.758604
Si Si8 0.712731 0.167081 0.289107
O O1 0.944952 0.500000 0.610672
O O2 0.853356 0.249791 0.473763
O O3 0.127519 0.297444 0.791151
O O4 0.996962 0.276422 0.748593
O O5 0.700316 0.500000 0.045132
O O6 0.650133 0.758337 0.019637
O O7 0.608685 0.686389 0.853145
O O8 0.123237 0.500000 0.933801
O O9 0.050455 0.306179 0.937342
O O10 0.265418 0.272500 0.109866
O O11 0.500000 0.794751 0.500000
O O12 0.753692 0.771385 0.750782
O O13 0.538596 0.758491 0.421047
O O14 0.610070 0.000000 0.556723
O O15 0.827891 0.500000 0.845451
O O16 0.000000 0.698145 0.000000
O O17 0.580203 0.211752 0.178951
O O18 0.405925 0.000000 0.996913
O O19 0.323507 0.209378 0.826188
O O20 0.564509 0.500000 0.708039
O O21 0.742183 0.000000 0.329499
#
# Coordination Sequence:
#
# PCOD8064184 Si02
#       8
#     4   4   4   4   4   4   4   4
#     4   9  18  33  53  77 104 134 168 213 263 305
#     4   9  19  34  53  80 107 130 168 217 260 304
#     4   8  15  31  53  74 100 133 168 210 257 302
#     4  11  22  34  52  79 107 136 173 216 259 306
#     4  10  20  35  56  78 101 136 179 217 257 308
#     4   9  19  36  55  73 103 141 173 210 252 298
#     4   9  17  33  56  76  99 136 176 212 253 306
#     4   9  19  36  54  74 101 139 181 208 240 306
#
# _framework density 17.433107
#
# number of rings (size 3 to 8) (size 9 to 14) (size 15 to 20)
#    0.000    2.750    1.250    2.625    0.000    3.250 
#    2.250    6.250    0.000    0.000    0.000    0.000 
#    0.000    0.000    0.000    0.000    0.000    0.000 
#
# Total GULP energy -396703.646955 kJ/mol
# GULP energy per Si atom -12396.988967 kJ/mol
# Density = 1.739343 g / cm^3
# Si number density = 17.433107 Si / 1000 Ang^3
#
#
#
# Elastic Constant Matrix: (Units=GPa)
#
#
# Indices 1 2 3 4 5 6 
#
# 1 125.8038 49.0012 50.6800 0.0000 -4.4245 0.0000
# 2 49.0012 66.7206 58.4312 0.0000 -3.1982 0.0000
# 3 50.6800 58.4312 108.0210 0.0000 -8.3533 0.0000
# 4 0.0000 0.0000 0.0000 7.4993 0.0000 3.4842
# 5 -4.4245 -3.1982 -8.3533 0.0000 17.3825 0.0000
# 6 0.0000 0.0000 0.0000 3.4842 0.0000 44.2621
#
#
#
# Elastic Compliance Matrix: (Units=1/GPa)
#
#
# Indices 1 2 3 4 5 6 
#
# 1 0.011280 -0.006968 -0.001454 0.000000 0.000890 0.000000
# 2 -0.006968 0.032868 -0.014727 0.000000 -0.002803 0.000000
# 3 -0.001454 -0.014727 0.018349 0.000000 0.005738 0.000000
# 4 0.000000 0.000000 0.000000 0.138407 0.000000 -0.010895
# 5 0.000890 -0.002803 0.005738 0.000000 0.059998 0.000000
# 6 0.000000 0.000000 0.000000 -0.010895 0.000000 0.023450
#
#
# Mechanical properties :
#
#
# Convention : Reuss Voigt Hill
#
# Bulk Modulus (GPa) = 61.72981 68.53000 65.12991
# Shear Modulus (GPa) = 14.87868 23.32431 19.10150
#
# Velocity S-wave (km/s) = 2.92460 3.66174 3.31373
# Velocity P-wave (km/s) = 6.84768 7.56792 7.21679
#
# Compressibility (1/GPa) = 0.01619963
#
# Stress axis : x y z
#
# Youngs Moduli (GPa) = 88.65106 30.42446 54.49742
#
# Poissons Ratio (x) = 0.21201 0.07925
# Poissons Ratio (y) = 0.61775 0.80257
# Poissons Ratio (z) = 0.12891 0.44805
#
# Static dielectric constant tensor:
#      x y z
#    x 3.343470 0.000000 -0.118520 
#    y 0.000000 3.033260 0.000000 
#    z -0.118520 0.000000 3.194520 
# 
# 
# High freq. dielectric constant tensor:
#      x y z
#    x 1.673690 0.000000 -0.011130 
#    y 0.000000 1.657210 0.000000 
#    z -0.011130 0.000000 1.672720 
# 
# From -- ./inp_files/86951.got.cif
#   From: 2010.06.25/outbox.cif.g09.slc.cpg/sg10_44_cif.got.tgz:86951.got - 2010.06.27 22:07:45.
