data_PCOD8064503
_publ_section_title
;
Structure prediction by ZEFSAII (Michael W. Deem and Ramdas Pophale) SiO2 
 PCOD8064503
Probable space group: P 2/M
;
_chemical_formula_sum "Si O2"
_cell_formula_units_Z 18
_cell_length_a 11.232294
_cell_length_b 13.134759
_cell_length_c 6.144991
_cell_angle_alpha 90.000000
_cell_angle_beta 93.225469
_cell_angle_gamma 90.000000
_cell_volume 905.155698
_symmetry_space_group_name_H-M "P 2/M"
_symmetry_group_IT_number 10
_symmetry_cell_setting 'monoclinic'
loop_
_space_group_symop_operation_xyz
x,y,z
-x,y,-z
-x,-y,-z
x,-y,z
loop_
_atom_site_type_symbol
_atom_site_label
_atom_site_fract_x
_atom_site_fract_y
_atom_site_fract_z
Si Si1 0.204631 0.265619 0.309375
Si Si2 0.000000 0.231698 0.000000
Si Si3 0.369097 0.207616 0.947414
Si Si4 0.164267 0.883169 0.681925
Si Si5 0.378146 0.617309 0.613434
O O1 0.307946 0.216872 0.174595
O O2 0.150442 0.177951 0.456697
O O3 0.262035 0.357357 0.453585
O O4 0.093300 0.302424 0.145826
O O5 0.073329 0.158836 0.849677
O O6 0.500000 0.162454 0.000000
O O7 0.298956 0.129628 0.785027
O O8 0.374792 0.318665 0.834720
O O9 0.136279 0.000000 0.629630
O O10 0.500000 0.642845 0.500000
O O11 0.371430 0.500000 0.680185
#
# Coordination Sequence:
#
# PCOD8064503 Si02
#       5
#     4   2   4   4   4
#     4  10  21  37  57  83 118 149 188 232 282 331
#     4  10  21  38  61  82 112 152 189 234 281 332
#     4  10  20  36  56  83 120 152 184 229 284 337
#     4  10  22  37  58  85 113 149 193 237 279 330
#     4  10  20  35  60  88 113 145 188 234 281 335
#
# _framework density 19.886081999999998
#
# number of rings (size 3 to 8) (size 9 to 14) (size 15 to 20)
#    0.000    2.000    2.222    1.000    0.000    7.111 
#    0.000    1.667    0.000   17.333    0.000    0.000 
#    0.000    0.000    0.000    0.000    0.000    0.000 
#
# Total GULP energy -223184.107200 kJ/mol
# GULP energy per Si atom -12399.117067 kJ/mol
# Density = 1.984082 g / cm^3
# Si number density = 19.886082 Si / 1000 Ang^3
#
#
#
# Elastic Constant Matrix: (Units=GPa)
#
#
# Indices 1 2 3 4 5 6 
#
# 1 132.0674 14.5883 42.8903 0.0000 16.9799 0.0000
# 2 14.5883 66.3898 20.6838 0.0000 -7.9706 0.0000
# 3 42.8903 20.6838 102.3347 0.0000 -9.9750 0.0000
# 4 0.0000 0.0000 0.0000 9.8805 0.0000 -2.7053
# 5 16.9799 -7.9706 -9.9750 0.0000 44.8281 0.0000
# 6 0.0000 0.0000 0.0000 -2.7053 0.0000 15.5728
#
#
#
# Elastic Compliance Matrix: (Units=1/GPa)
#
#
# Indices 1 2 3 4 5 6 
#
# 1 0.009744 -0.001395 -0.004279 0.000000 -0.004891 0.000000
# 2 -0.001395 0.016486 -0.002464 0.000000 0.002912 0.000000
# 3 -0.004279 -0.002464 0.012448 0.000000 0.003953 0.000000
# 4 0.000000 0.000000 0.000000 0.106264 0.000000 0.018460
# 5 -0.004891 0.002912 0.003953 0.000000 0.025557 0.000000
# 6 0.000000 0.000000 0.000000 0.018460 0.000000 0.067422
#
#
# Mechanical properties :
#
#
# Convention : Reuss Voigt Hill
#
# Bulk Modulus (GPa) = 44.63558 50.79074 47.71316
# Shear Modulus (GPa) = 19.10833 28.89823 24.00328
#
# Velocity S-wave (km/s) = 3.10318 3.81621 3.47802
# Velocity P-wave (km/s) = 5.94424 6.70926 6.33831
#
# Compressibility (1/GPa) = 0.02240365
#
# Stress axis : x y z
#
# Youngs Moduli (GPa) = 102.62226 60.65655 80.33168
#
# Poissons Ratio (x) = 0.08464 0.34372
# Poissons Ratio (y) = 0.14320 0.19790
# Poissons Ratio (z) = 0.43910 0.14943
#
# Static dielectric constant tensor:
#      x y z
#    x 4.012030 0.000000 0.149770 
#    y 0.000000 3.162580 0.000000 
#    z 0.149770 0.000000 3.810300 
# 
# 
# High freq. dielectric constant tensor:
#      x y z
#    x 1.796690 0.000000 0.004880 
#    y 0.000000 1.729070 0.000000 
#    z 0.004880 0.000000 1.794380 
# 
# From -- ./inp_files/6251.got.cif
#   From: 2010.06.25/outbox.cif.g09.slc.cpg/sg10_4_cif.got.tgz:6251.got - 2010.06.27 22:07:45.
