data_PCOD8064589
_publ_section_title
;
Structure prediction by ZEFSAII (Michael W. Deem and Ramdas Pophale) SiO2 
 PCOD8064589
Probable space group: P 2/M
;
_chemical_formula_sum "Si O2"
_cell_formula_units_Z 24
_cell_length_a 13.333332
_cell_length_b 13.536979
_cell_length_c 13.333334
_cell_angle_alpha 90.000000
_cell_angle_beta 147.613050
_cell_angle_gamma 90.000000
_cell_volume 1289.043954
_symmetry_space_group_name_H-M "P 2/M"
_symmetry_group_IT_number 10
_symmetry_cell_setting 'monoclinic'
loop_
_space_group_symop_operation_xyz
x,y,z
-x,y,-z
-x,-y,-z
x,-y,z
loop_
_atom_site_type_symbol
_atom_site_label
_atom_site_fract_x
_atom_site_fract_y
_atom_site_fract_z
Si Si1 0.901556 0.609725 0.016902
Si Si2 0.383813 0.260667 0.689695
Si Si3 0.810305 0.260667 0.116187
Si Si4 0.516902 0.609725 0.401556
Si Si5 0.938269 0.885133 0.561731
Si Si6 0.288206 0.608747 0.788206
O O1 0.983259 0.500000 0.111566
O O2 0.933330 0.688124 0.132432
O O3 0.682204 0.599084 0.817796
O O4 0.000000 0.651413 0.000000
O O5 0.367568 0.311876 0.566670
O O6 0.267859 0.159265 0.591198
O O7 0.276839 0.334122 0.674227
O O8 0.596756 0.237800 0.903244
O O9 0.825773 0.334122 0.223161
O O10 0.908802 0.159265 0.232141
O O11 0.500000 0.651413 0.500000
O O12 0.611566 0.500000 0.483259
O O13 0.000000 0.864917 0.500000
O O14 0.925288 0.000000 0.574712
O O15 0.199698 0.500000 0.699698
O O16 0.500000 0.598592 0.000000
#
# Coordination Sequence:
#
# PCOD8064589 Si02
#       6
#     4   4   4   4   4   4
#     4   9  18  32  52  82 116 150 183 217 261 322
#     4  10  20  36  56  80 110 147 183 220 276 332
#     4  10  20  36  56  80 110 147 183 220 276 332
#     4   9  18  32  52  82 116 150 183 217 261 322
#     4  11  24  40  58  82 108 136 186 245 288 331
#     4   9  16  29  51  78 111 145 174 210 258 324
#
# _framework density 18.618448999999998
#
# number of rings (size 3 to 8) (size 9 to 14) (size 15 to 20)
#    0.000    2.333    1.667    1.000    2.333    4.667 
#    0.000    5.000    0.000    1.000    0.000    0.000 
#    0.000    0.000    0.000    0.000    0.000    0.000 
#
# Total GULP energy -297526.012774 kJ/mol
# GULP energy per Si atom -12396.917199 kJ/mol
# Density = 1.857607 g / cm^3
# Si number density = 18.618449 Si / 1000 Ang^3
#
#
#
# Elastic Constant Matrix: (Units=GPa)
#
#
# Indices 1 2 3 4 5 6 
#
# 1 148.8184 79.4217 33.5163 0.0000 -19.0540 0.0000
# 2 79.4217 142.2792 49.1320 0.0000 -8.7439 0.0000
# 3 33.5163 49.1320 70.0076 0.0000 -3.6968 0.0000
# 4 0.0000 0.0000 0.0000 24.9204 0.0000 -1.6780
# 5 -19.0540 -8.7439 -3.6968 0.0000 29.0819 0.0000
# 6 0.0000 0.0000 0.0000 -1.6780 0.0000 30.7326
#
#
#
# Elastic Compliance Matrix: (Units=1/GPa)
#
#
# Indices 1 2 3 4 5 6 
#
# 1 0.010328 -0.005065 -0.001121 0.000000 0.005102 0.000000
# 2 -0.005065 0.011874 -0.005935 0.000000 -0.000503 0.000000
# 3 -0.001121 -0.005935 0.018981 0.000000 -0.000106 0.000000
# 4 0.000000 0.000000 0.000000 0.040276 0.000000 0.002199
# 5 0.005102 -0.000503 -0.000106 0.000000 0.037564 0.000000
# 6 0.000000 0.000000 0.000000 0.002199 0.000000 0.032659
#
#
# Mechanical properties :
#
#
# Convention : Reuss Voigt Hill
#
# Bulk Modulus (GPa) = 59.02676 76.13835 67.58255
# Shear Modulus (GPa) = 27.53759 30.21599 28.87679
#
# Velocity S-wave (km/s) = 3.85001 4.03290 3.94252
# Velocity P-wave (km/s) = 7.17883 7.91635 7.55659
#
# Compressibility (1/GPa) = 0.01694147
#
# Stress axis : x y z
#
# Youngs Moduli (GPa) = 96.82268 84.21541 52.68551
#
# Poissons Ratio (x) = 0.42653 0.05905
# Poissons Ratio (y) = 0.49038 0.31270
# Poissons Ratio (z) = 0.10851 0.49984
#
# Static dielectric constant tensor:
#      x y z
#    x 3.566970 0.000000 -0.082050 
#    y 0.000000 3.300580 0.000000 
#    z -0.082050 0.000000 3.282730 
# 
# 
# High freq. dielectric constant tensor:
#      x y z
#    x 1.726830 0.000000 -0.001420 
#    y 0.000000 1.693060 0.000000 
#    z -0.001420 0.000000 1.721900 
# 
# From -- ./inp_files/36087.got.cif
#   From: 2010.06.25/outbox.cif.g09.slc.cpg/sg10_19_cif.got.tgz:36087.got - 2010.06.27 22:07:45.
