data_PCOD8064422
_publ_section_title
;
Structure prediction by ZEFSAII (Michael W. Deem and Ramdas Pophale) SiO2 
 PCOD8064422
Probable space group: P 2/M
;
_chemical_formula_sum "Si O2"
_cell_formula_units_Z 28
_cell_length_a 26.867813
_cell_length_b 9.045494
_cell_length_c 9.682646
_cell_angle_alpha 90.000000
_cell_angle_beta 141.703980
_cell_angle_gamma 90.000000
_cell_volume 1458.335132
_symmetry_space_group_name_H-M "P 2/M"
_symmetry_group_IT_number 10
_symmetry_cell_setting 'monoclinic'
loop_
_space_group_symop_operation_xyz
x,y,z
-x,y,-z
-x,-y,-z
x,-y,z
loop_
_atom_site_type_symbol
_atom_site_label
_atom_site_fract_x
_atom_site_fract_y
_atom_site_fract_z
Si Si1 0.367350 0.328293 0.998008
Si Si2 0.477604 0.166153 0.610526
Si Si3 0.066016 0.326229 0.252171
Si Si4 0.200999 0.175102 0.136456
Si Si5 0.767166 0.673294 0.515163
Si Si6 0.018576 0.826463 0.694000
Si Si7 0.678444 0.674030 0.792534
O O1 0.390136 0.500000 0.047623
O O2 0.448619 0.237867 0.145299
O O3 0.327504 0.286650 0.058242
O O4 0.306831 0.286790 0.744334
O O5 0.500000 0.165938 0.500000
O O6 0.397867 0.263157 0.458242
O O7 0.462395 0.000000 0.631812
O O8 0.061837 0.500000 0.265674
O O9 0.152705 0.274979 0.388581
O O10 0.048558 0.250005 0.359096
O O11 0.000000 0.270590 0.000000
O O12 0.242821 0.236505 0.365541
O O13 0.242061 0.247688 0.092006
O O14 0.211550 0.000000 0.151132
O O15 0.107863 0.222833 0.932754
O O16 0.770705 0.500000 0.558149
O O17 0.000000 0.772154 0.500000
O O18 0.007729 0.000000 0.685270
O O19 0.683579 0.500000 0.777981
#
# Coordination Sequence:
#
# PCOD8064422 Si02
#       7
#     4   4   4   4   4   4   4
#     4   9  19  35  57  84 112 143 183 226 272 328
#     4   9  17  32  55  83 114 145 180 222 270 323
#     4  10  20  36  59  83 108 143 187 230 272 322
#     4  11  23  38  55  79 112 148 186 227 275 328
#     4  10  21  38  57  81 113 146 183 229 277 327
#     4  10  23  40  56  79 112 148 185 228 277 328
#     4  10  20  35  58  84 112 146 182 224 276 327
#
# _framework density 19.199977000000001
#
# number of rings (size 3 to 8) (size 9 to 14) (size 15 to 20)
#    0.000    2.143    1.429    1.286    2.000    4.571 
#    0.000    0.714    0.000    4.286    0.000    0.000 
#    0.000    0.000    0.000    0.000    0.000    0.000 
#
# Total GULP energy -347303.176717 kJ/mol
# GULP energy per Si atom -12403.684883 kJ/mol
# Density = 1.915628 g / cm^3
# Si number density = 19.199977 Si / 1000 Ang^3
#
#
#
# Elastic Constant Matrix: (Units=GPa)
#
#
# Indices 1 2 3 4 5 6 
#
# 1 50.4962 22.3835 6.6680 0.0000 -8.8327 0.0000
# 2 22.3835 65.2137 28.6712 0.0000 -2.2200 0.0000
# 3 6.6680 28.6712 94.5727 0.0000 -7.3476 0.0000
# 4 0.0000 0.0000 0.0000 25.9240 0.0000 -2.5657
# 5 -8.8327 -2.2200 -7.3476 0.0000 26.9445 0.0000
# 6 0.0000 0.0000 0.0000 -2.5657 0.0000 27.2651
#
#
#
# Elastic Compliance Matrix: (Units=1/GPa)
#
#
# Indices 1 2 3 4 5 6 
#
# 1 0.024958 -0.008992 0.001578 0.000000 0.007871 0.000000
# 2 -0.008992 0.020932 -0.005933 0.000000 -0.002841 0.000000
# 3 0.001578 -0.005933 0.012529 0.000000 0.003445 0.000000
# 4 0.000000 0.000000 0.000000 0.038937 0.000000 0.003664
# 5 0.007871 -0.002841 0.003445 0.000000 0.040399 0.000000
# 6 0.000000 0.000000 0.000000 0.003664 0.000000 0.037022
#
#
# Mechanical properties :
#
#
# Convention : Reuss Voigt Hill
#
# Bulk Modulus (GPa) = 31.52071 36.19198 33.85635
# Shear Modulus (GPa) = 23.57988 26.19738 24.88863
#
# Velocity S-wave (km/s) = 3.50826 3.69785 3.60430
# Velocity P-wave (km/s) = 5.73264 6.09287 5.91550
#
# Compressibility (1/GPa) = 0.03172517
#
# Stress axis : x y z
#
# Youngs Moduli (GPa) = 40.06752 47.77327 79.81581
#
# Poissons Ratio (x) = 0.42959 -0.12595
# Poissons Ratio (y) = 0.36029 0.47352
# Poissons Ratio (z) = -0.06322 0.28342
#
# Static dielectric constant tensor:
#      x y z
#    x 3.424950 0.000000 0.109590 
#    y 0.000000 3.463840 0.000000 
#    z 0.109590 0.000000 3.546890 
# 
# 
# High freq. dielectric constant tensor:
#      x y z
#    x 1.740680 0.000000 0.008660 
#    y 0.000000 1.745730 0.000000 
#    z 0.008660 0.000000 1.747260 
# 
# From -- ./inp_files/36918.got.cif
#   From: 2010.06.25/outbox.cif.g09.slc.cpg/sg10_19_cif.got.tgz:36918.got - 2010.06.27 22:07:45.
