data_PCOD8064252
_publ_section_title
;
Structure prediction by ZEFSAII (Michael W. Deem and Ramdas Pophale) SiO2 
 PCOD8064252
Probable space group: P 2/M
;
_chemical_formula_sum "Si O2"
_cell_formula_units_Z 28
_cell_length_a 13.106919
_cell_length_b 8.982078
_cell_length_c 14.376374
_cell_angle_alpha 90.000000
_cell_angle_beta 123.010885
_cell_angle_gamma 90.000000
_cell_volume 1419.268653
_symmetry_space_group_name_H-M "P 2/M"
_symmetry_group_IT_number 10
_symmetry_cell_setting 'monoclinic'
loop_
_space_group_symop_operation_xyz
x,y,z
-x,y,-z
-x,-y,-z
x,-y,z
loop_
_atom_site_type_symbol
_atom_site_label
_atom_site_fract_x
_atom_site_fract_y
_atom_site_fract_z
Si Si1 0.929414 0.671226 0.617161
Si Si2 0.932270 0.823735 0.809029
Si Si3 0.259359 0.172376 0.598598
Si Si4 0.785462 0.330868 0.246290
Si Si5 0.503091 0.172553 0.608878
Si Si6 0.724305 0.671523 0.816023
Si Si7 0.816134 0.670913 0.057535
O O1 0.894677 0.500000 0.615623
O O2 0.890016 0.762989 0.688290
O O3 0.855768 0.734115 0.493389
O O4 0.071054 0.691113 0.667106
O O5 0.838752 0.765180 0.838676
O O6 0.066425 0.771210 0.903707
O O7 0.927909 0.000000 0.804648
O O8 0.286976 0.225526 0.717902
O O9 0.373067 0.205602 0.589099
O O10 0.225420 0.000000 0.582050
O O11 0.745634 0.500000 0.246027
O O12 0.752507 0.283663 0.123703
O O13 0.500000 0.222345 0.500000
O O14 0.599807 0.269707 0.712095
O O15 0.540000 0.000000 0.635908
O O16 0.741587 0.500000 0.796272
O O17 0.720077 0.689715 0.926233
O O18 0.862274 0.500000 0.089693
#
# Coordination Sequence:
#
# PCOD8064252 Si02
#       7
#     4   4   4   4   4   4   4
#     4  10  20  35  56  82 113 149 187 227 272 325
#     4  11  21  33  54  85 118 149 180 221 277 334
#     4  11  22  35  55  83 112 144 184 231 281 330
#     4   9  19  36  56  79 111 148 182 222 274 328
#     4  10  23  42  59  78 109 145 181 226 277 328
#     4  11  22  37  59  83 108 144 189 232 273 323
#     4   9  20  38  57  81 113 146 184 229 272 320
#
# _framework density 19.728470000000002
#
# number of rings (size 3 to 8) (size 9 to 14) (size 15 to 20)
#    0.000    1.857    0.000    5.143    0.000   10.000 
#    0.000    0.714    0.000    4.286    0.000    0.000 
#    0.000    0.000    0.000    0.000    0.000    0.000 
#
# Total GULP energy -347285.621540 kJ/mol
# GULP energy per Si atom -12403.057912 kJ/mol
# Density = 1.968357 g / cm^3
# Si number density = 19.728470 Si / 1000 Ang^3
#
#
#
# Elastic Constant Matrix: (Units=GPa)
#
#
# Indices 1 2 3 4 5 6 
#
# 1 73.7564 44.9513 41.9641 0.0000 -24.7909 0.0000
# 2 44.9513 122.9268 55.4972 0.0000 -8.8491 0.0000
# 3 41.9641 55.4972 125.1959 0.0000 -18.6001 0.0000
# 4 0.0000 0.0000 0.0000 21.4974 0.0000 -4.1121
# 5 -24.7909 -8.8491 -18.6001 0.0000 25.8892 0.0000
# 6 0.0000 0.0000 0.0000 -4.1121 0.0000 32.0119
#
#
#
# Elastic Compliance Matrix: (Units=1/GPa)
#
#
# Indices 1 2 3 4 5 6 
#
# 1 0.026319 -0.006924 -0.002642 0.000000 0.020937 0.000000
# 2 -0.006924 0.011994 -0.003775 0.000000 -0.005243 0.000000
# 3 -0.002642 -0.003775 0.011171 0.000000 0.004206 0.000000
# 4 0.000000 0.000000 0.000000 0.047689 0.000000 0.006126
# 5 0.020937 -0.005243 0.004206 0.000000 0.059905 0.000000
# 6 0.000000 0.000000 0.000000 0.006126 0.000000 0.032025
#
#
# Mechanical properties :
#
#
# Convention : Reuss Voigt Hill
#
# Bulk Modulus (GPa) = 43.85507 67.41158 55.63333
# Shear Modulus (GPa) = 22.38294 27.84414 25.11354
#
# Velocity S-wave (km/s) = 3.37196 3.76089 3.57173
# Velocity P-wave (km/s) = 6.11864 7.28718 6.72833
#
# Compressibility (1/GPa) = 0.02280238
#
# Stress axis : x y z
#
# Youngs Moduli (GPa) = 37.99592 83.37767 89.51737
#
# Poissons Ratio (x) = 0.57733 0.23647
# Poissons Ratio (y) = 0.26309 0.33789
# Poissons Ratio (z) = 0.10037 0.31471
#
# Static dielectric constant tensor:
#      x y z
#    x 3.446740 0.000000 -0.280850 
#    y 0.000000 3.598880 0.000000 
#    z -0.280850 0.000000 3.709670 
# 
# 
# High freq. dielectric constant tensor:
#      x y z
#    x 1.754180 0.000000 -0.023530 
#    y 0.000000 1.772480 0.000000 
#    z -0.023530 0.000000 1.773390 
# 
# From -- ./inp_files/63901.got.cif
#   From: 2010.06.25/outbox.cif.g09.slc.cpg/sg10_32_cif.got.tgz:63901.got - 2010.06.27 22:07:45.
