data_PCOD8064262
_publ_section_title
;
Structure prediction by ZEFSAII (Michael W. Deem and Ramdas Pophale) SiO2 
 PCOD8064262
Probable space group: P 2/M
;
_chemical_formula_sum "Si O2"
_cell_formula_units_Z 32
_cell_length_a 12.006268
_cell_length_b 14.334306
_cell_length_c 17.299405
_cell_angle_alpha 90.000000
_cell_angle_beta 144.218350
_cell_angle_gamma 90.000000
_cell_volume 1740.794057
_symmetry_space_group_name_H-M "P 2/M"
_symmetry_group_IT_number 10
_symmetry_cell_setting 'monoclinic'
loop_
_space_group_symop_operation_xyz
x,y,z
-x,y,-z
-x,-y,-z
x,-y,z
loop_
_atom_site_type_symbol
_atom_site_label
_atom_site_fract_x
_atom_site_fract_y
_atom_site_fract_z
Si Si1 0.164520 0.207315 0.157253
Si Si2 0.448572 0.110677 0.214096
Si Si3 0.878261 0.103275 0.085642
Si Si4 0.936816 0.397930 0.876857
Si Si5 0.302165 0.105254 0.856988
Si Si6 0.200572 0.784822 0.650898
Si Si7 0.261910 0.608938 0.940789
Si Si8 0.310902 0.610471 0.795387
O O1 0.346589 0.147543 0.234574
O O2 0.220959 0.315101 0.210712
O O3 0.068228 0.161985 0.177896
O O4 0.000000 0.207137 0.000000
O O5 0.640235 0.170804 0.315148
O O6 0.491121 0.000000 0.244121
O O7 0.315310 0.137128 0.065957
O O8 0.851460 0.105998 0.161718
O O9 0.918958 0.000000 0.076827
O O10 0.861550 0.500000 0.804715
O O11 0.104624 0.358192 0.914706
O O12 0.000000 0.412756 0.000000
O O13 0.212764 0.166396 0.740257
O O14 0.340884 0.000000 0.847779
O O15 0.500000 0.147958 0.000000
O O16 0.216497 0.672916 0.674532
O O17 0.000000 0.807432 0.500000
O O18 0.278692 0.500000 0.955478
O O19 0.215212 0.635521 0.825185
O O20 0.470268 0.645846 0.080906
O O21 0.288088 0.500000 0.763661
#
# Coordination Sequence:
#
# PCOD8064262 Si02
#       8
#     4   4   4   4   4   4   4   4
#     4   9  18  28  48  77 109 145 177 216 276 324
#     4  10  20  36  54  76 111 144 182 230 277 334
#     4   9  17  30  52  82 107 133 176 227 279 327
#     4   9  17  26  42  76 122 148 168 213 277 337
#     4  10  20  35  56  83 110 141 181 233 285 330
#     4  12  26  37  55  83 111 151 191 225 288 339
#     4   8  16  31  52  83 111 144 183 224 279 323
#     4   9  20  35  55  79 111 147 187 231 275 330
#
# _framework density 18.382415999999999
#
# number of rings (size 3 to 8) (size 9 to 14) (size 15 to 20)
#    0.000    2.500    1.250    1.500    8.750    2.750 
#    0.000    0.000    0.000    0.750    0.000    2.625 
#    0.000    3.000    0.000    0.000    0.000    0.000 
#
# Total GULP energy -396461.072341 kJ/mol
# GULP energy per Si atom -12389.408511 kJ/mol
# Density = 1.834058 g / cm^3
# Si number density = 18.382416 Si / 1000 Ang^3
#
#
#
# Elastic Constant Matrix: (Units=GPa)
#
#
# Indices 1 2 3 4 5 6 
#
# 1 102.0969 48.7679 27.9470 0.0000 14.0998 0.0000
# 2 48.7679 106.4889 41.1317 0.0000 7.2116 0.0000
# 3 27.9470 41.1317 70.8951 0.0000 4.6127 0.0000
# 4 0.0000 0.0000 0.0000 3.6172 0.0000 -1.5366
# 5 14.0998 7.2116 4.6127 0.0000 14.4400 0.0000
# 6 0.0000 0.0000 0.0000 -1.5366 0.0000 29.1952
#
#
#
# Elastic Compliance Matrix: (Units=1/GPa)
#
#
# Indices 1 2 3 4 5 6 
#
# 1 0.014220 -0.005013 -0.001998 0.000000 -0.010743 0.000000
# 2 -0.005013 0.014087 -0.006186 0.000000 -0.000165 0.000000
# 3 -0.001998 -0.006186 0.018539 0.000000 -0.000882 0.000000
# 4 0.000000 0.000000 0.000000 0.282781 0.000000 0.014884
# 5 -0.010743 -0.000165 -0.000882 0.000000 0.080105 0.000000
# 6 0.000000 0.000000 0.000000 0.014884 0.000000 0.035036
#
#
# Mechanical properties :
#
#
# Convention : Reuss Voigt Hill
#
# Bulk Modulus (GPa) = 48.89537 57.24160 53.06848
# Shear Modulus (GPa) = 10.46071 20.22610 15.34340
#
# Velocity S-wave (km/s) = 2.38809 3.32067 2.89221
# Velocity P-wave (km/s) = 5.85326 6.77565 6.33127
#
# Compressibility (1/GPa) = 0.02045184
#
# Stress axis : x y z
#
# Youngs Moduli (GPa) = 70.32571 70.98826 53.93904
#
# Poissons Ratio (x) = 0.35584 0.10778
# Poissons Ratio (y) = 0.35252 0.33367
# Poissons Ratio (z) = 0.14052 0.43914
#
# Static dielectric constant tensor:
#      x y z
#    x 9.971680 0.000000 1.637980 
#    y 0.000000 3.749580 0.000000 
#    z 1.637980 0.000000 3.081750 
# 
# 
# High freq. dielectric constant tensor:
#      x y z
#    x 1.727520 0.000000 0.007710 
#    y 0.000000 1.736280 0.000000 
#    z 0.007710 0.000000 1.624720 
# 
# From -- ./inp_files/77065.got.cif
#   From: 2010.06.25/outbox.cif.g09.slc.cpg/sg10_39_cif.got.tgz:77065.got - 2010.06.27 22:07:45.
