data_PCOD8064939
_publ_section_title
;
Structure prediction by ZEFSAII (Michael W. Deem and Ramdas Pophale) SiO2 
 PCOD8064939
Probable space group: P 2/M
;
_chemical_formula_sum "Si O2"
_cell_formula_units_Z 28
_cell_length_a 9.341744
_cell_length_b 8.597547
_cell_length_c 27.245157
_cell_angle_alpha 90.000000
_cell_angle_beta 141.076555
_cell_angle_gamma 90.000000
_cell_volume 1374.820746
_symmetry_space_group_name_H-M "P 2/M"
_symmetry_group_IT_number 10
_symmetry_cell_setting 'monoclinic'
loop_
_space_group_symop_operation_xyz
x,y,z
-x,y,-z
-x,-y,-z
x,-y,z
loop_
_atom_site_type_symbol
_atom_site_label
_atom_site_fract_x
_atom_site_fract_y
_atom_site_fract_z
Si Si1 0.761968 0.821173 0.958242
Si Si2 0.006931 0.819306 0.214656
Si Si3 0.762073 0.328678 0.058275
Si Si4 0.680354 0.683517 0.508756
Si Si5 0.318089 0.681250 0.794796
Si Si6 0.188247 0.316685 0.652549
Si Si7 0.500727 0.316312 0.353868
O O1 0.564916 0.715731 0.882889
O O2 0.705804 0.000000 0.931631
O O3 0.790664 0.798093 0.023713
O O4 0.000000 0.766310 0.000000
O O5 0.900766 0.721760 0.142499
O O6 0.879106 0.776838 0.230827
O O7 0.269796 0.778906 0.288898
O O8 0.973484 0.000000 0.194755
O O9 0.850628 0.500000 0.065613
O O10 0.500000 0.340083 0.000000
O O11 0.500000 0.754915 0.500000
O O12 0.687745 0.500000 0.518541
O O13 0.611905 0.726647 0.435354
O O14 0.932651 0.754495 0.585041
O O15 0.263218 0.500000 0.786958
O O16 0.315983 0.729183 0.736988
O O17 0.167444 0.500000 0.640967
O O18 0.333464 0.254313 0.645100
O O19 0.451613 0.500000 0.336160
#
# Coordination Sequence:
#
# PCOD8064939 Si02
#       7
#     4   4   4   4   4   4   4
#     4  11  25  42  61  89 125 162 199 242 301 362
#     4  12  25  40  60  86 120 159 199 248 307 365
#     4  11  23  41  66  92 116 153 204 254 300 351
#     4   9  16  30  57  91 124 156 194 243 297 351
#     4  11  22  39  61  87 117 156 206 254 299 354
#     4   9  19  34  57  91 123 154 195 248 301 349
#     4  10  20  36  60  90 122 157 198 246 296 355
#
# _framework density 20.366292000000001
#
# number of rings (size 3 to 8) (size 9 to 14) (size 15 to 20)
#    0.000    1.571    1.429    3.857    2.000    5.714 
#    0.000    0.714    0.000    6.429    0.000    0.000 
#    0.000    0.000    0.000    0.000    0.000    0.000 
#
# Total GULP energy -347259.454143 kJ/mol
# GULP energy per Si atom -12402.123362 kJ/mol
# Density = 2.031994 g / cm^3
# Si number density = 20.366292 Si / 1000 Ang^3
#
#
#
# Elastic Constant Matrix: (Units=GPa)
#
#
# Indices 1 2 3 4 5 6 
#
# 1 159.4634 18.2132 58.4133 0.0000 1.5106 0.0000
# 2 18.2132 44.3376 23.6701 0.0000 7.3056 0.0000
# 3 58.4133 23.6701 90.3645 0.0000 -1.8338 0.0000
# 4 0.0000 0.0000 0.0000 11.0572 0.0000 1.3949
# 5 1.5106 7.3056 -1.8338 0.0000 40.1834 0.0000
# 6 0.0000 0.0000 0.0000 1.3949 0.0000 22.2888
#
#
#
# Elastic Compliance Matrix: (Units=1/GPa)
#
#
# Indices 1 2 3 4 5 6 
#
# 1 0.008239 -0.000538 -0.005194 0.000000 -0.000449 0.000000
# 2 -0.000538 0.027337 -0.006920 0.000000 -0.005266 0.000000
# 3 -0.005194 -0.006920 0.016281 0.000000 0.002196 0.000000
# 4 0.000000 0.000000 0.000000 0.091159 0.000000 -0.005705
# 5 -0.000449 -0.005266 0.002196 0.000000 0.025960 0.000000
# 6 0.000000 0.000000 0.000000 -0.005705 0.000000 0.045223
#
#
# Mechanical properties :
#
#
# Convention : Reuss Voigt Hill
#
# Bulk Modulus (GPa) = 37.65957 54.97320 46.31639
# Shear Modulus (GPa) = 20.13249 27.63047 23.88148
#
# Velocity S-wave (km/s) = 3.14749 3.68730 3.42804
# Velocity P-wave (km/s) = 5.63384 6.72154 6.20158
#
# Compressibility (1/GPa) = 0.02655367
#
# Stress axis : x y z
#
# Youngs Moduli (GPa) = 121.36705 36.58051 61.42018
#
# Poissons Ratio (x) = 0.01966 0.31904
# Poissons Ratio (y) = 0.06524 0.42503
# Poissons Ratio (z) = 0.63044 0.25314
#
# Static dielectric constant tensor:
#      x y z
#    x 3.939620 0.000000 0.106050 
#    y 0.000000 3.403310 0.000000 
#    z 0.106050 0.000000 3.443070 
# 
# 
# High freq. dielectric constant tensor:
#      x y z
#    x 1.809230 0.000000 -0.001040 
#    y 0.000000 1.764820 0.000000 
#    z -0.001040 0.000000 1.809240 
# 
# From -- ./inp_files/36779.got.cif
#   From: 2010.06.25/outbox.cif.g09.slc.cpg/sg10_19_cif.got.tgz:36779.got - 2010.06.27 22:07:45.
