data_PCOD8064728
_publ_section_title
;
Structure prediction by ZEFSAII (Michael W. Deem and Ramdas Pophale) SiO2 
 PCOD8064728
Probable space group: P 2/M
;
_chemical_formula_sum "Si O2"
_cell_formula_units_Z 28
_cell_length_a 8.464764
_cell_length_b 13.346606
_cell_length_c 13.033810
_cell_angle_alpha 90.000000
_cell_angle_beta 73.591698
_cell_angle_gamma 90.000000
_cell_volume 1412.535351
_symmetry_space_group_name_H-M "P 2/M"
_symmetry_group_IT_number 10
_symmetry_cell_setting 'monoclinic'
loop_
_space_group_symop_operation_xyz
x,y,z
-x,y,-z
-x,-y,-z
x,-y,z
loop_
_atom_site_type_symbol
_atom_site_label
_atom_site_fract_x
_atom_site_fract_y
_atom_site_fract_z
Si Si1 0.690952 0.214276 0.440952
Si Si2 0.443131 0.268669 0.897773
Si Si3 0.063109 0.613060 0.598983
Si Si4 0.202048 0.711759 0.228537
Si Si5 0.165314 0.387640 0.031780
Si Si6 0.238886 0.111505 0.364027
Si Si7 0.621676 0.110142 0.249152
O O1 0.500000 0.236895 0.500000
O O2 0.782396 0.318148 0.399540
O O3 0.782298 0.158136 0.518345
O O4 0.711929 0.148550 0.334953
O O5 0.600193 0.304924 0.800873
O O6 0.347423 0.180593 0.855058
O O7 0.500000 0.229502 0.000000
O O8 0.320696 0.362949 0.930209
O O9 0.127583 0.500000 0.594960
O O10 0.000000 0.643053 0.500000
O O11 0.902224 0.624569 0.699336
O O12 0.153953 0.701208 0.117950
O O13 0.154779 0.817901 0.291764
O O14 0.192428 0.500000 0.072066
O O15 0.000000 0.383979 0.000000
O O16 0.429570 0.102626 0.305740
O O17 0.158757 0.000000 0.375123
O O18 0.692240 0.000000 0.210296
#
# Coordination Sequence:
#
# PCOD8064728 Si02
#       7
#     4   4   4   4   4   4   4
#     4  10  20  36  58  83 117 151 193 237 275 335
#     4   9  20  37  60  85 112 147 193 239 277 336
#     4  11  23  38  56  81 116 155 190 231 286 340
#     4  10  20  38  59  83 114 148 187 233 282 336
#     4  10  22  39  60  84 111 147 191 242 292 333
#     4   9  17  34  59  86 114 150 191 230 276 336
#     4   9  18  33  58  88 114 148 188 231 287 338
#
# _framework density 19.822513000000001
#
# number of rings (size 3 to 8) (size 9 to 14) (size 15 to 20)
#    0.000    2.286    1.429    0.857    2.000    5.429 
#    0.000    4.286    0.000    0.857    0.000    0.000 
#    0.000    0.000    0.000    0.000    0.000    0.000 
#
# Total GULP energy -347002.321048 kJ/mol
# GULP energy per Si atom -12392.940037 kJ/mol
# Density = 1.977740 g / cm^3
# Si number density = 19.822513 Si / 1000 Ang^3
#
#
#
# Elastic Constant Matrix: (Units=GPa)
#
#
# Indices 1 2 3 4 5 6 
#
# 1 61.9020 59.8389 38.8318 0.0000 4.8884 0.0000
# 2 59.8389 125.8576 50.9651 0.0000 22.1042 0.0000
# 3 38.8318 50.9651 91.5476 0.0000 6.0507 0.0000
# 4 0.0000 0.0000 0.0000 33.5588 0.0000 6.3782
# 5 4.8884 22.1042 6.0507 0.0000 25.8598 0.0000
# 6 0.0000 0.0000 0.0000 6.3782 0.0000 30.2993
#
#
#
# Elastic Compliance Matrix: (Units=1/GPa)
#
#
# Indices 1 2 3 4 5 6 
#
# 1 0.034141 -0.014894 -0.006709 0.000000 0.007846 0.000000
# 2 -0.014894 0.018445 -0.003144 0.000000 -0.012215 0.000000
# 3 -0.006709 -0.003144 0.015497 0.000000 0.000329 0.000000
# 4 0.000000 0.000000 0.000000 0.031040 0.000000 -0.006534
# 5 0.007846 -0.012215 0.000329 0.000000 0.047551 0.000000
# 6 0.000000 0.000000 0.000000 -0.006534 0.000000 0.034380
#
#
# Mechanical properties :
#
#
# Convention : Reuss Voigt Hill
#
# Bulk Modulus (GPa) = 53.78962 64.28653 59.03807
# Shear Modulus (GPa) = 21.12001 26.58835 23.85418
#
# Velocity S-wave (km/s) = 3.26767 3.66638 3.47275
# Velocity P-wave (km/s) = 6.43673 7.10103 6.77702
#
# Compressibility (1/GPa) = 0.01859095
#
# Stress axis : x y z
#
# Youngs Moduli (GPa) = 29.29072 54.21535 64.52762
#
# Poissons Ratio (x) = 0.80746 0.43290
# Poissons Ratio (y) = 0.43624 0.20285
# Poissons Ratio (z) = 0.19650 0.17044
#
# Static dielectric constant tensor:
#      x y z
#    x 3.499090 0.000000 -0.099150 
#    y 0.000000 3.853360 0.000000 
#    z -0.099150 0.000000 3.924110 
# 
# 
# High freq. dielectric constant tensor:
#      x y z
#    x 1.758260 0.000000 -0.000110 
#    y 0.000000 1.766420 0.000000 
#    z -0.000110 0.000000 1.774450 
# 
# From -- ./inp_files/42659.got.cif
#   From: 2010.06.25/outbox.cif.g09.slc.cpg/sg10_22_cif.got.tgz:42659.got - 2010.06.27 22:07:45.
