data_PCOD8064146
_publ_section_title
;
Structure prediction by ZEFSAII (Michael W. Deem and Ramdas Pophale) SiO2 
 PCOD8064146
Probable space group: P 2/M
;
_chemical_formula_sum "Si O2"
_cell_formula_units_Z 28
_cell_length_a 12.469215
_cell_length_b 8.628333
_cell_length_c 14.789218
_cell_angle_alpha 90.000000
_cell_angle_beta 104.644192
_cell_angle_gamma 90.000000
_cell_volume 1539.460987
_symmetry_space_group_name_H-M "P 2/M"
_symmetry_group_IT_number 10
_symmetry_cell_setting 'monoclinic'
loop_
_space_group_symop_operation_xyz
x,y,z
-x,y,-z
-x,-y,-z
x,-y,z
loop_
_atom_site_type_symbol
_atom_site_label
_atom_site_fract_x
_atom_site_fract_y
_atom_site_fract_z
Si Si1 0.435604 0.679645 0.106952
Si Si2 0.757091 0.819009 0.596771
Si Si3 0.411043 0.679353 0.307040
Si Si4 0.784440 0.319064 0.261862
Si Si5 0.343615 0.180751 0.918814
Si Si6 0.641077 0.180787 0.386566
Si Si7 0.014489 0.682103 0.399706
O O1 0.465732 0.500000 0.100319
O O2 0.390631 0.714795 0.197117
O O3 0.545831 0.779113 0.113643
O O4 0.342202 0.730057 0.014581
O O5 0.700771 0.725679 0.665935
O O6 0.701856 0.767203 0.490908
O O7 0.885972 0.776111 0.623938
O O8 0.741314 0.000000 0.610735
O O9 0.438757 0.500000 0.329238
O O10 0.511547 0.780698 0.368256
O O11 0.777358 0.500000 0.241662
O O12 0.762228 0.231230 0.162961
O O13 0.691248 0.277735 0.315146
O O14 0.904653 0.268889 0.322598
O O15 0.338686 0.000000 0.937545
O O16 0.658427 0.000000 0.370790
O O17 0.039086 0.500000 0.398737
O O18 0.000000 0.734549 0.500000
#
# Coordination Sequence:
#
# PCOD8064146 Si02
#       7
#     4   4   4   4   4   4   4
#     4  10  20  35  55  80 111 145 184 227 273 331
#     4  11  24  38  55  80 114 151 187 230 278 329
#     4  11  23  37  57  81 111 151 189 227 273 330
#     4  11  21  35  57  82 112 147 184 230 277 324
#     4  11  21  33  54  83 113 145 179 225 280 334
#     4  11  22  35  53  81 115 149 184 226 276 330
#     4  10  21  38  59  81 107 145 192 234 271 323
#
# _framework density 18.188182999999999
#
# number of rings (size 3 to 8) (size 9 to 14) (size 15 to 20)
#    0.000    1.286    2.857    4.714    0.000    6.571 
#    0.000    0.000    0.000    0.857    0.000    6.000 
#    0.000    0.000    0.000    0.000    0.000    0.000 
#
# Total GULP energy -347372.206613 kJ/mol
# GULP energy per Si atom -12406.150236 kJ/mol
# Density = 1.814679 g / cm^3
# Si number density = 18.188183 Si / 1000 Ang^3
#
#
#
# Elastic Constant Matrix: (Units=GPa)
#
#
# Indices 1 2 3 4 5 6 
#
# 1 87.4408 15.8469 40.3321 0.0000 5.6989 0.0000
# 2 15.8469 56.5665 29.9225 0.0000 4.3352 0.0000
# 3 40.3321 29.9225 113.4242 0.0000 14.6773 0.0000
# 4 0.0000 0.0000 0.0000 25.4084 0.0000 4.5632
# 5 5.6989 4.3352 14.6773 0.0000 24.5441 0.0000
# 6 0.0000 0.0000 0.0000 4.5632 0.0000 23.2431
#
#
#
# Elastic Compliance Matrix: (Units=1/GPa)
#
#
# Indices 1 2 3 4 5 6 
#
# 1 0.013787 -0.001472 -0.004480 0.000000 -0.000262 0.000000
# 2 -0.001472 0.020707 -0.004888 0.000000 -0.000392 0.000000
# 3 -0.004480 -0.004888 0.012413 0.000000 -0.005519 0.000000
# 4 0.000000 0.000000 0.000000 0.040796 0.000000 -0.008009
# 5 -0.000262 -0.000392 -0.005519 0.000000 0.044174 0.000000
# 6 0.000000 0.000000 0.000000 -0.008009 0.000000 0.044596
#
#
# Mechanical properties :
#
#
# Convention : Reuss Voigt Hill
#
# Bulk Modulus (GPa) = 39.64284 47.73719 43.69001
# Shear Modulus (GPa) = 24.20585 26.06111 25.13348
#
# Velocity S-wave (km/s) = 3.65205 3.78942 3.72137
# Velocity P-wave (km/s) = 6.29496 6.74163 6.52212
#
# Compressibility (1/GPa) = 0.02522524
#
# Stress axis : x y z
#
# Youngs Moduli (GPa) = 72.53406 48.29357 80.55865
#
# Poissons Ratio (x) = 0.07111 0.36090
# Poissons Ratio (y) = 0.10680 0.39380
# Poissons Ratio (z) = 0.32495 0.23607
#
# Static dielectric constant tensor:
#      x y z
#    x 3.127530 0.000000 0.082950 
#    y 0.000000 3.371600 0.000000 
#    z 0.082950 0.000000 3.617730 
# 
# 
# High freq. dielectric constant tensor:
#      x y z
#    x 1.678100 0.000000 0.005690 
#    y 0.000000 1.716520 0.000000 
#    z 0.005690 0.000000 1.712190 
# 
# From -- ./inp_files/63396.got.cif
#   From: 2010.06.25/outbox.cif.g09.slc.cpg/sg10_32_cif.got.tgz:63396.got - 2010.06.27 22:07:45.
