data_PCOD8064147
_publ_section_title
;
Structure prediction by ZEFSAII (Michael W. Deem and Ramdas Pophale) SiO2 
 PCOD8064147
Probable space group: P 2/M
;
_chemical_formula_sum "Si O2"
_cell_formula_units_Z 32
_cell_length_a 27.723141
_cell_length_b 8.977866
_cell_length_c 10.840016
_cell_angle_alpha 90.000000
_cell_angle_beta 144.454597
_cell_angle_gamma 90.000000
_cell_volume 1568.489397
_symmetry_space_group_name_H-M "P 2/M"
_symmetry_group_IT_number 10
_symmetry_cell_setting 'monoclinic'
loop_
_space_group_symop_operation_xyz
x,y,z
-x,y,-z
-x,-y,-z
x,-y,z
loop_
_atom_site_type_symbol
_atom_site_label
_atom_site_fract_x
_atom_site_fract_y
_atom_site_fract_z
Si Si1 0.686103 0.328353 0.473329
Si Si2 0.541970 0.174481 0.298919
Si Si3 0.208701 0.333048 0.064645
Si Si4 0.614480 0.328208 0.952677
Si Si5 0.041493 0.825363 0.714391
Si Si6 0.377775 0.669448 0.309949
Si Si7 0.775015 0.675290 0.417801
Si Si8 0.960804 0.677168 0.786442
O O1 0.663109 0.500000 0.403837
O O2 0.599670 0.242201 0.312216
O O3 0.735210 0.259565 0.460032
O O4 0.746523 0.306153 0.713238
O O5 0.448178 0.235616 0.091724
O O6 0.577499 0.216481 0.506935
O O7 0.540234 0.000000 0.278686
O O8 0.170601 0.500000 0.979008
O O9 0.138206 0.211073 0.900481
O O10 0.277995 0.310666 0.103074
O O11 0.603725 0.500000 0.966436
O O12 0.590514 0.298974 0.761236
O O13 0.710432 0.281333 0.175057
O O14 0.000000 0.769970 0.500000
O O15 0.007935 0.744204 0.766815
O O16 0.028135 0.000000 0.704837
O O17 0.399631 0.500000 0.397697
O O18 0.786860 0.500000 0.457146
O O19 0.866574 0.741034 0.584243
O O20 0.965744 0.500000 0.783891
O O21 0.000000 0.726701 0.000000
#
# Coordination Sequence:
#
# PCOD8064147 Si02
#       8
#     4   4   4   4   4   4   4   4
#     4   9  18  37  61  84 110 141 184 234 282 335
#     4  11  22  35  53  80 112 149 190 229 275 333
#     4   9  18  34  59  85 108 143 189 239 288 333
#     4  10  20  35  55  80 111 146 184 230 282 336
#     4  11  25  40  55  84 125 164 198 236 290 358
#     4   9  19  35  57  82 109 143 187 235 281 335
#     4   9  19  35  60  88 111 140 184 236 288 338
#     4  10  21  40  67  94 118 149 197 254 303 353
#
# _framework density 20.401795
#
# number of rings (size 3 to 8) (size 9 to 14) (size 15 to 20)
#    0.000    2.250    0.000    3.375    1.750    7.750 
#    0.000    4.375    0.000    0.000    0.000    0.000 
#    0.000    0.000    0.000    0.000    0.000    0.000 
#
# Total GULP energy -396725.696792 kJ/mol
# GULP energy per Si atom -12397.678025 kJ/mol
# Density = 2.035536 g / cm^3
# Si number density = 20.401795 Si / 1000 Ang^3
#
#
#
# Elastic Constant Matrix: (Units=GPa)
#
#
# Indices 1 2 3 4 5 6 
#
# 1 78.1168 23.5216 21.9855 0.0000 5.2901 0.0000
# 2 23.5216 60.1583 24.9759 0.0000 4.3103 0.0000
# 3 21.9855 24.9759 80.9121 0.0000 16.6314 0.0000
# 4 0.0000 0.0000 0.0000 14.7494 0.0000 -0.2616
# 5 5.2901 4.3103 16.6314 0.0000 35.9033 0.0000
# 6 0.0000 0.0000 0.0000 -0.2616 0.0000 15.1754
#
#
#
# Elastic Compliance Matrix: (Units=1/GPa)
#
#
# Indices 1 2 3 4 5 6 
#
# 1 0.014977 -0.004786 -0.002494 0.000000 -0.000477 0.000000
# 2 -0.004786 0.020603 -0.005190 0.000000 0.000636 0.000000
# 3 -0.002494 -0.005190 0.015954 0.000000 -0.006400 0.000000
# 4 0.000000 0.000000 0.000000 0.067820 0.000000 0.001169
# 5 -0.000477 0.000636 -0.006400 0.000000 0.030811 0.000000
# 6 0.000000 0.000000 0.000000 0.001169 0.000000 0.065916
#
#
# Mechanical properties :
#
#
# Convention : Reuss Voigt Hill
#
# Bulk Modulus (GPa) = 37.60271 40.01702 38.80987
# Shear Modulus (GPa) = 20.00904 23.07923 21.54413
#
# Velocity S-wave (km/s) = 3.13509 3.36703 3.25313
# Velocity P-wave (km/s) = 5.61926 5.89686 5.75973
#
# Compressibility (1/GPa) = 0.02659383
#
# Stress axis : x y z
#
# Youngs Moduli (GPa) = 66.77014 48.53572 62.67882
#
# Poissons Ratio (x) = 0.23230 0.15633
# Poissons Ratio (y) = 0.31958 0.32530
# Poissons Ratio (z) = 0.16653 0.25190
#
# Static dielectric constant tensor:
#      x y z
#    x 3.895510 0.000000 0.140140 
#    y 0.000000 3.326060 0.000000 
#    z 0.140140 0.000000 3.787180 
# 
# 
# High freq. dielectric constant tensor:
#      x y z
#    x 1.810410 0.000000 0.008550 
#    y 0.000000 1.759050 0.000000 
#    z 0.008550 0.000000 1.802140 
# 
# From -- ./inp_files/58232.got.cif
#   From: 2010.06.25/outbox.cif.g09.slc.cpg/sg10_30_cif.got.tgz:58232.got - 2010.06.27 22:07:45.
