data_PCOD8064546
_publ_section_title
;
Structure prediction by ZEFSAII (Michael W. Deem and Ramdas Pophale) SiO2 
 PCOD8064546
Probable space group: P 2/M
;
_chemical_formula_sum "Si O2"
_cell_formula_units_Z 32
_cell_length_a 23.982615
_cell_length_b 9.156358
_cell_length_c 25.267723
_cell_angle_alpha 90.000000
_cell_angle_beta 17.628925
_cell_angle_gamma 90.000000
_cell_volume 1680.407078
_symmetry_space_group_name_H-M "P 2/M"
_symmetry_group_IT_number 10
_symmetry_cell_setting 'monoclinic'
loop_
_space_group_symop_operation_xyz
x,y,z
-x,y,-z
-x,-y,-z
x,-y,z
loop_
_atom_site_type_symbol
_atom_site_label
_atom_site_fract_x
_atom_site_fract_y
_atom_site_fract_z
Si Si1 0.699154 0.171898 0.687333
Si Si2 0.438585 0.831849 0.832618
Si Si3 0.202487 0.327506 0.797944
Si Si4 0.696625 0.338703 0.796863
Si Si5 0.411830 0.673164 0.503696
Si Si6 0.681204 0.172838 0.519963
Si Si7 0.927076 0.169005 0.788274
Si Si8 0.945799 0.673081 0.667980
O O1 0.519643 0.218093 0.816185
O O2 0.686955 0.225947 0.758143
O O3 0.857736 0.252555 0.512264
O O4 0.735542 0.000000 0.655622
O O5 0.530308 0.760562 0.697575
O O6 0.491190 0.000000 0.779127
O O7 0.220445 0.803265 0.031201
O O8 0.185186 0.500000 0.815625
O O9 0.375259 0.277413 0.678443
O O10 0.266267 0.278523 0.681250
O O11 0.000000 0.262344 0.000000
O O12 0.761480 0.500000 0.718168
O O13 0.833783 0.277453 0.717365
O O14 0.500000 0.354638 0.000000
O O15 0.405757 0.500000 0.503063
O O16 0.343197 0.748966 0.513216
O O17 0.877782 0.218333 0.365879
O O18 0.666418 0.000000 0.524110
O O19 0.857800 0.264985 0.801328
O O20 0.927124 0.000000 0.770640
O O21 0.957801 0.500000 0.660705
#
# Coordination Sequence:
#
# PCOD8064546 Si02
#       8
#     4   4   4   4   4   4   4   4
#     4  11  21  36  57  79 103 136 182 225 268 328
#     4   9  19  36  56  78 103 138 182 224 268 321
#     4   8  15  31  54  78 109 146 179 219 266 306
#     4  10  22  38  53  75 108 139 170 219 283 338
#     4   9  18  32  53  81 107 139 185 223 257 309
#     4  10  20  36  54  77 112 146 176 218 275 320
#     4  10  20  37  59  77 102 141 184 225 267 321
#     4  11  22  36  55  78 106 137 173 219 277 335
#
# _framework density 19.043005000000001
#
# number of rings (size 3 to 8) (size 9 to 14) (size 15 to 20)
#    0.000    2.250    1.250    2.625    0.000    4.250 
#    0.000    2.500    0.000    0.750    0.000    0.000 
#    0.000    0.000    0.000    0.000    0.000    0.000 
#
# Total GULP energy -396569.582655 kJ/mol
# GULP energy per Si atom -12392.799458 kJ/mol
# Density = 1.899966 g / cm^3
# Si number density = 19.043005 Si / 1000 Ang^3
#
#
#
# Elastic Constant Matrix: (Units=GPa)
#
#
# Indices 1 2 3 4 5 6 
#
# 1 114.5776 36.4823 42.9469 0.0000 24.6658 0.0000
# 2 36.4823 40.7170 24.8027 0.0000 8.4160 0.0000
# 3 42.9469 24.8027 126.2616 0.0000 11.9424 0.0000
# 4 0.0000 0.0000 0.0000 0.2678 0.0000 18.0103
# 5 24.6658 8.4160 11.9424 0.0000 21.0454 0.0000
# 6 0.0000 0.0000 0.0000 18.0103 0.0000 26.4908
#
#
#
# Elastic Compliance Matrix: (Units=1/GPa)
#
#
# Indices 1 2 3 4 5 6 
#
# 1 0.015452 -0.009893 -0.002086 0.000000 -0.012970 0.000000
# 2 -0.009893 0.035751 -0.003595 0.000000 -0.000661 0.000000
# 3 -0.002086 -0.003595 0.009477 0.000000 -0.001496 0.000000
# 4 0.000000 0.000000 0.000000 -0.083494 0.000000 0.056765
# 5 -0.012970 -0.000661 -0.001496 0.000000 0.063831 0.000000
# 6 0.000000 0.000000 0.000000 0.056765 0.000000 -0.000844
#
#
# Mechanical properties :
#
#
# Convention : Reuss Voigt Hill
#
# Bulk Modulus (GPa) = 33.86218 54.44665 44.15442
# Shear Modulus (GPa) = 61.60339 21.38240 41.49290
#
# Velocity S-wave (km/s) = 5.69384 3.35453 4.67294
# Velocity P-wave (km/s) = 7.81326 6.60737 7.23548
#
# Compressibility (1/GPa) = 0.02953147
#
# Stress axis : x y z
#
# Youngs Moduli (GPa) = 64.71785 27.97132 105.51672
#
# Poissons Ratio (x) = 0.27673 0.22006
# Poissons Ratio (y) = 0.64028 0.37935
# Poissons Ratio (z) = 0.13497 0.10056
#
# Static dielectric constant tensor:
#      x y z
#    x 3.250620 0.000000 -0.056050 
#    y 0.000000 3.289410 0.000000 
#    z -0.056050 0.000000 3.782980 
# 
# 
# High freq. dielectric constant tensor:
#      x y z
#    x 1.738440 0.000000 0.001520 
#    y 0.000000 1.709690 0.000000 
#    z 0.001520 0.000000 1.756570 
# 
# From -- ./inp_files/90622.got.cif
#   From: 2010.06.25/outbox.cif.g09.slc.cpg/sg10_46_cif.got.tgz:90622.got - 2010.06.27 22:07:45.
