data_PCOD8064915
_publ_section_title
;
Structure prediction by ZEFSAII (Michael W. Deem and Ramdas Pophale) SiO2 
 PCOD8064915
Probable space group: P 2/M
;
_chemical_formula_sum "Si O2"
_cell_formula_units_Z 32
_cell_length_a 25.588855
_cell_length_b 9.250933
_cell_length_c 17.381073
_cell_angle_alpha 90.000000
_cell_angle_beta 24.350029
_cell_angle_gamma 90.000000
_cell_volume 1696.433553
_symmetry_space_group_name_H-M "P 2/M"
_symmetry_group_IT_number 10
_symmetry_cell_setting 'monoclinic'
loop_
_space_group_symop_operation_xyz
x,y,z
-x,y,-z
-x,-y,-z
x,-y,z
loop_
_atom_site_type_symbol
_atom_site_label
_atom_site_fract_x
_atom_site_fract_y
_atom_site_fract_z
Si Si1 0.160994 0.828792 0.862962
Si Si2 0.662808 0.829681 0.655579
Si Si3 0.356419 0.329729 0.708242
Si Si4 0.979472 0.834586 0.613574
Si Si5 0.743195 0.332258 0.992508
Si Si6 0.880044 0.170846 0.253988
Si Si7 0.740059 0.835343 0.721792
Si Si8 0.411240 0.331190 0.950387
O O1 0.269544 0.748572 0.763156
O O2 0.171349 0.779547 0.760205
O O3 0.178500 0.000000 0.849332
O O4 0.023204 0.775479 0.078429
O O5 0.786698 0.770525 0.445099
O O6 0.676442 0.791667 0.726781
O O7 0.543362 0.748959 0.781289
O O8 0.645324 0.000000 0.666243
O O9 0.500000 0.280928 0.500000
O O10 0.340582 0.500000 0.718703
O O11 0.316201 0.279904 0.847517
O O12 0.108794 0.820129 0.488301
O O13 0.000000 0.771325 0.500000
O O14 0.873573 0.749563 0.802011
O O15 0.934165 0.000000 0.667638
O O16 0.777548 0.500000 0.948229
O O17 0.639717 0.298331 0.066241
O O18 0.885018 0.000000 0.247445
O O19 0.703415 0.000000 0.793082
O O20 0.690438 0.728053 0.852921
O O21 0.430561 0.500000 0.939687
#
# Coordination Sequence:
#
# PCOD8064915 Si02
#       8
#     4   4   4   4   4   4   4   4
#     4   9  18  36  61  85 112 142 182 230 279 332
#     4  10  21  36  57  81 111 148 185 225 278 336
#     4  10  23  41  59  81 116 155 189 231 284 338
#     4  10  20  36  60  88 114 144 188 236 278 332
#     4  10  23  40  57  81 113 153 192 230 285 339
#     4   8  17  35  58  85 113 143 177 228 287 331
#     4  10  21  37  57  83 114 147 183 225 280 334
#     4  11  23  38  56  79 111 148 190 233 274 325
#
# _framework density 18.863101
#
# number of rings (size 3 to 8) (size 9 to 14) (size 15 to 20)
#    0.000    2.250    1.250    1.500    3.500    4.000 
#    0.000    1.875    0.000    0.000    0.000    0.000 
#    0.000    0.000    0.000    0.000    0.000    0.000 
#
# Total GULP energy -396846.234907 kJ/mol
# GULP energy per Si atom -12401.444841 kJ/mol
# Density = 1.882017 g / cm^3
# Si number density = 18.863101 Si / 1000 Ang^3
#
#
#
# Elastic Constant Matrix: (Units=GPa)
#
#
# Indices 1 2 3 4 5 6 
#
# 1 113.9347 40.1493 54.8211 0.0000 -12.3789 0.0000
# 2 40.1493 42.0089 39.8623 0.0000 -3.7379 0.0000
# 3 54.8211 39.8623 130.2303 0.0000 -1.8585 0.0000
# 4 0.0000 0.0000 0.0000 25.6601 0.0000 1.6160
# 5 -12.3789 -3.7379 -1.8585 0.0000 30.7685 0.0000
# 6 0.0000 0.0000 0.0000 1.6160 0.0000 -14.4689
#
#
#
# Elastic Compliance Matrix: (Units=1/GPa)
#
#
# Indices 1 2 3 4 5 6 
#
# 1 0.014326 -0.010775 -0.002671 0.000000 0.004293 0.000000
# 2 -0.010775 0.042025 -0.008324 0.000000 0.000268 0.000000
# 3 -0.002671 -0.008324 0.011331 0.000000 -0.001401 0.000000
# 4 0.000000 0.000000 0.000000 0.038699 0.000000 0.004322
# 5 0.004293 0.000268 -0.001401 0.000000 0.034176 0.000000
# 6 0.000000 0.000000 0.000000 0.004322 0.000000 -0.068631
#
#
# Mechanical properties :
#
#
# Convention : Reuss Voigt Hill
#
# Bulk Modulus (GPa) = 41.42206 61.75993 51.59099
# Shear Modulus (GPa) = 40.48200 18.48135 29.48168
#
# Velocity S-wave (km/s) = 4.63762 3.13351 3.95768
# Velocity P-wave (km/s) = 7.11925 6.77525 6.94938
#
# Compressibility (1/GPa) = 0.02414173
#
# Stress axis : x y z
#
# Youngs Moduli (GPa) = 69.80523 23.79551 88.25389
#
# Poissons Ratio (x) = 0.25639 0.23573
# Poissons Ratio (y) = 0.75214 0.73461
# Poissons Ratio (z) = 0.18645 0.19807
#
# Static dielectric constant tensor:
#      x y z
#    x 3.520990 0.000000 0.069180 
#    y 0.000000 3.249730 0.000000 
#    z 0.069180 0.000000 3.763810 
# 
# 
# High freq. dielectric constant tensor:
#      x y z
#    x 1.743880 0.000000 -0.002770 
#    y 0.000000 1.710370 0.000000 
#    z -0.002770 0.000000 1.742460 
# 
# From -- ./inp_files/71447.got.cif
#   From: 2010.06.25/outbox.cif.g09.slc.cpg/sg10_36_cif.got.tgz:71447.got - 2010.06.27 22:07:45.
