data_PCOD8064872
_publ_section_title
;
Structure prediction by ZEFSAII (Michael W. Deem and Ramdas Pophale) SiO2 
 PCOD8064872
Probable space group: P 2/M
;
_chemical_formula_sum "Si O2"
_cell_formula_units_Z 32
_cell_length_a 16.797179
_cell_length_b 13.442227
_cell_length_c 20.972101
_cell_angle_alpha 90.000000
_cell_angle_beta 19.437086
_cell_angle_gamma 90.000000
_cell_volume 1575.780605
_symmetry_space_group_name_H-M "P 2/M"
_symmetry_group_IT_number 10
_symmetry_cell_setting 'monoclinic'
loop_
_space_group_symop_operation_xyz
x,y,z
-x,y,-z
-x,-y,-z
x,-y,z
loop_
_atom_site_type_symbol
_atom_site_label
_atom_site_fract_x
_atom_site_fract_y
_atom_site_fract_z
Si Si1 0.746917 0.113530 0.777555
Si Si2 0.006317 0.612017 0.146703
Si Si3 0.495320 0.887220 0.167741
Si Si4 0.496888 0.614995 0.302230
Si Si5 0.767155 0.109761 0.274532
Si Si6 0.193581 0.206209 0.499935
Si Si7 0.767845 0.689080 0.211026
Si Si8 0.004112 0.802568 0.218259
O O1 0.712865 0.127621 0.727436
O O2 0.943070 0.193540 0.652158
O O3 0.833266 0.000000 0.727077
O O4 0.500000 0.135195 0.000000
O O5 0.985334 0.500000 0.187393
O O6 0.982008 0.683676 0.225719
O O7 0.780704 0.637348 0.270686
O O8 0.259911 0.632347 0.920902
O O9 0.398695 0.857514 0.310381
O O10 0.582676 0.000000 0.104475
O O11 0.719992 0.823307 0.975208
O O12 0.420344 0.500000 0.360552
O O13 0.281283 0.678750 0.433950
O O14 0.537546 0.654407 0.344404
O O15 0.500000 0.108315 0.500000
O O16 0.781636 0.190854 0.207148
O O17 0.936065 0.138261 0.206018
O O18 0.842494 0.000000 0.192359
O O19 0.159345 0.166048 0.598133
O O20 0.000000 0.648248 0.000000
#
# Coordination Sequence:
#
# PCOD8064872 Si02
#       8
#     4   4   4   4   4   4   4   4
#     4  10  21  40  65  91 121 157 196 243 297 355
#     4   9  18  36  61  86 118 160 204 252 304 349
#     4  11  23  40  62  91 122 156 198 243 295 359
#     4  10  20  36  59  90 122 153 200 257 303 354
#     4  10  21  36  51  75 119 165 200 241 292 351
#     4  12  23  37  63  91 123 156 196 247 306 359
#     4   9  18  34  57  83 115 155 203 247 296 347
#     4  11  22  38  59  87 123 159 202 250 298 351
#
# _framework density 20.307397000000002
#
# number of rings (size 3 to 8) (size 9 to 14) (size 15 to 20)
#    0.000    1.750    2.500    2.250    0.000    4.750 
#    0.000    1.250    0.000    6.750    0.000    0.000 
#    0.000    0.000    0.000    0.000    0.000    0.000 
#
# Total GULP energy -396739.801366 kJ/mol
# GULP energy per Si atom -12398.118793 kJ/mol
# Density = 2.026118 g / cm^3
# Si number density = 20.307397 Si / 1000 Ang^3
#
#
#
# Elastic Constant Matrix: (Units=GPa)
#
#
# Indices 1 2 3 4 5 6 
#
# 1 84.8805 56.0053 30.1240 0.0000 -0.2058 0.0000
# 2 56.0053 125.7561 35.9872 0.0000 -17.5828 0.0000
# 3 30.1240 35.9872 67.5181 0.0000 -8.2542 0.0000
# 4 0.0000 0.0000 0.0000 33.9861 0.0000 -2.0935
# 5 -0.2058 -17.5828 -8.2542 0.0000 36.8490 0.0000
# 6 0.0000 0.0000 0.0000 -2.0935 0.0000 28.7874
#
#
#
# Elastic Compliance Matrix: (Units=1/GPa)
#
#
# Indices 1 2 3 4 5 6 
#
# 1 0.018384 -0.007451 -0.004784 0.000000 -0.004524 0.000000
# 2 -0.007451 0.012850 -0.002859 0.000000 0.005450 0.000000
# 3 -0.004784 -0.002859 0.018814 0.000000 0.002824 0.000000
# 4 0.000000 0.000000 0.000000 0.029556 0.000000 0.002149
# 5 -0.004524 0.005450 0.002824 0.000000 0.030345 0.000000
# 6 0.000000 0.000000 0.000000 0.002149 0.000000 0.034894
#
#
# Mechanical properties :
#
#
# Convention : Reuss Voigt Hill
#
# Bulk Modulus (GPa) = 50.34908 58.04309 54.19608
# Shear Modulus (GPa) = 27.52516 30.32705 28.92610
#
# Velocity S-wave (km/s) = 3.68560 3.86864 3.77823
# Velocity P-wave (km/s) = 6.55430 6.97133 6.76603
#
# Compressibility (1/GPa) = 0.01986134
#
# Stress axis : x y z
#
# Youngs Moduli (GPa) = 54.39372 77.82001 53.15141
#
# Poissons Ratio (x) = 0.57984 0.25429
# Poissons Ratio (y) = 0.40529 0.15194
# Poissons Ratio (z) = 0.26023 0.22245
#
# Static dielectric constant tensor:
#      x y z
#    x 3.863610 0.000000 -0.011810 
#    y 0.000000 3.737540 0.000000 
#    z -0.011810 0.000000 3.597950 
# 
# 
# High freq. dielectric constant tensor:
#      x y z
#    x 1.782340 0.000000 0.005960 
#    y 0.000000 1.781390 0.000000 
#    z 0.005960 0.000000 1.796040 
# 
# From -- ./inp_files/90202.got.cif
#   From: 2010.06.25/outbox.cif.g09.slc.cpg/sg10_46_cif.got.tgz:90202.got - 2010.06.27 22:07:45.
