data_PCOD8064321
_publ_section_title
;
Structure prediction by ZEFSAII (Michael W. Deem and Ramdas Pophale) SiO2 
 PCOD8064321
Probable space group: P 2/M
;
_chemical_formula_sum "Si O2"
_cell_formula_units_Z 32
_cell_length_a 5.278555
_cell_length_b 12.978613
_cell_length_c 24.274162
_cell_angle_alpha 90.000000
_cell_angle_beta 76.622788
_cell_angle_gamma 90.000000
_cell_volume 1617.862045
_symmetry_space_group_name_H-M "P 2/M"
_symmetry_group_IT_number 10
_symmetry_cell_setting 'monoclinic'
loop_
_space_group_symop_operation_xyz
x,y,z
-x,y,-z
-x,-y,-z
x,-y,z
loop_
_atom_site_type_symbol
_atom_site_label
_atom_site_fract_x
_atom_site_fract_y
_atom_site_fract_z
Si Si1 0.550927 0.383310 0.210777
Si Si2 0.869530 0.304621 0.843610
Si Si3 0.789560 0.619154 0.964379
Si Si4 0.026088 0.708382 0.435523
Si Si5 0.410927 0.236357 0.702568
Si Si6 0.602335 0.381302 0.387887
Si Si7 0.968187 0.117931 0.768780
Si Si8 0.850152 0.883495 0.645890
O O1 0.550419 0.500000 0.231283
O O2 0.369331 0.374493 0.166191
O O3 0.423397 0.311349 0.265037
O O4 0.850544 0.350181 0.186690
O O5 0.846646 0.304809 0.910619
O O6 0.819892 0.189504 0.820838
O O7 0.822880 0.500000 0.944362
O O8 0.500000 0.640742 0.000000
O O9 0.000000 0.647620 0.000000
O O10 0.212785 0.632261 0.567922
O O11 0.304660 0.655359 0.411388
O O12 0.973286 0.811563 0.401568
O O13 0.000000 0.740387 0.500000
O O14 0.262377 0.315928 0.668961
O O15 0.559320 0.159718 0.653124
O O16 0.258550 0.162017 0.752103
O O17 0.596168 0.500000 0.371567
O O18 0.882024 0.129484 0.709830
O O19 0.955016 0.000000 0.789877
O O20 0.884008 0.000000 0.624080
#
# Coordination Sequence:
#
# PCOD8064321 Si02
#       8
#     4   4   4   4   4   4   4   4
#     4  11  21  33  54  83 121 154 182 229 287 342
#     4  11  22  37  56  88 119 151 195 240 281 336
#     4  10  20  35  57  82 114 156 196 231 276 333
#     4  11  24  41  60  86 114 148 197 242 283 345
#     4  10  20  36  55  86 116 149 187 235 280 357
#     4  11  23  39  61  84 114 152 190 232 285 344
#     4  10  20  37  60  84 114 152 193 239 293 347
#     4  10  20  38  60  82 113 149 189 241 296 346
#
# _framework density 19.77919
#
# number of rings (size 3 to 8) (size 9 to 14) (size 15 to 20)
#    0.000    1.500    2.500    3.375    0.000    2.750 
#    0.000    3.750    0.000    3.000    0.000    0.000 
#    0.000    0.000    0.000    0.000    0.000    0.000 
#
# Total GULP energy -396420.883001 kJ/mol
# GULP energy per Si atom -12388.152594 kJ/mol
# Density = 1.973417 g / cm^3
# Si number density = 19.779190 Si / 1000 Ang^3
#
#
#
# Elastic Constant Matrix: (Units=GPa)
#
#
# Indices 1 2 3 4 5 6 
#
# 1 105.5463 34.6598 19.5774 0.0000 10.8104 0.0000
# 2 34.6598 139.1118 51.9052 0.0000 4.0615 0.0000
# 3 19.5774 51.9052 94.8803 0.0000 14.6348 0.0000
# 4 0.0000 0.0000 0.0000 23.2828 0.0000 1.7673
# 5 10.8104 4.0615 14.6348 0.0000 27.9161 0.0000
# 6 0.0000 0.0000 0.0000 1.7673 0.0000 16.0213
#
#
#
# Elastic Compliance Matrix: (Units=1/GPa)
#
#
# Indices 1 2 3 4 5 6 
#
# 1 0.010707 -0.002445 -0.000312 0.000000 -0.003627 0.000000
# 2 -0.002445 0.009640 -0.005112 0.000000 0.002224 0.000000
# 3 -0.000312 -0.005112 0.014435 0.000000 -0.006703 0.000000
# 4 0.000000 0.000000 0.000000 0.043313 0.000000 -0.004778
# 5 -0.003627 0.002224 -0.006703 0.000000 0.040416 0.000000
# 6 0.000000 0.000000 0.000000 -0.004778 0.000000 0.062944
#
#
# Mechanical properties :
#
#
# Convention : Reuss Voigt Hill
#
# Bulk Modulus (GPa) = 52.51484 61.31370 56.91427
# Shear Modulus (GPa) = 24.56500 29.00377 26.78439
#
# Velocity S-wave (km/s) = 3.52797 3.83349 3.68390
# Velocity P-wave (km/s) = 6.57295 7.11762 6.85070
#
# Compressibility (1/GPa) = 0.01904224
#
# Stress axis : x y z
#
# Youngs Moduli (GPa) = 93.39799 103.73140 69.27799
#
# Poissons Ratio (x) = 0.25365 0.02162
# Poissons Ratio (y) = 0.22838 0.35417
# Poissons Ratio (z) = 0.02915 0.53031
#
# Static dielectric constant tensor:
#      x y z
#    x 3.639460 0.000000 0.080340 
#    y 0.000000 3.607410 0.000000 
#    z 0.080340 0.000000 3.544150 
# 
# 
# High freq. dielectric constant tensor:
#      x y z
#    x 1.775690 0.000000 0.009160 
#    y 0.000000 1.766450 0.000000 
#    z 0.009160 0.000000 1.753510 
# 
# From -- ./inp_files/87487.got.cif
#   From: 2010.06.25/outbox.cif.g09.slc.cpg/sg10_44_cif.got.tgz:87487.got - 2010.06.27 22:07:45.
