data_PCOD8064014
_publ_section_title
;
Structure prediction by ZEFSAII (Michael W. Deem and Ramdas Pophale) SiO2 
 PCOD8064014
Probable space group: P 2/M
;
_chemical_formula_sum "Si O2"
_cell_formula_units_Z 28
_cell_length_a 16.919903
_cell_length_b 8.833807
_cell_length_c 15.089768
_cell_angle_alpha 90.000000
_cell_angle_beta 45.778160
_cell_angle_gamma 90.000000
_cell_volume 1616.338429
_symmetry_space_group_name_H-M "P 2/M"
_symmetry_group_IT_number 10
_symmetry_cell_setting 'monoclinic'
loop_
_space_group_symop_operation_xyz
x,y,z
-x,y,-z
-x,-y,-z
x,-y,z
loop_
_atom_site_type_symbol
_atom_site_label
_atom_site_fract_x
_atom_site_fract_y
_atom_site_fract_z
Si Si1 0.210220 0.679061 0.517013
Si Si2 0.641935 0.823888 0.748978
Si Si3 0.659027 0.821108 0.438097
Si Si4 0.610559 0.176370 0.095858
Si Si5 0.578163 0.178719 0.316600
Si Si6 0.986610 0.679230 0.608987
Si Si7 0.743134 0.678405 0.841247
O O1 0.215599 0.500000 0.512679
O O2 0.294988 0.737687 0.377636
O O3 0.240216 0.740413 0.590957
O O4 0.087111 0.738381 0.591097
O O5 0.512614 0.793761 0.841012
O O6 0.676447 0.764107 0.817561
O O7 0.670020 0.000000 0.718684
O O8 0.544940 0.759054 0.569478
O O9 0.660231 0.775391 0.332768
O O10 0.671142 0.000000 0.440973
O O11 0.623696 0.235967 0.186801
O O12 0.641568 0.000000 0.062800
O O13 0.694791 0.276191 0.973778
O O14 0.565225 0.000000 0.323875
O O15 0.992008 0.500000 0.598511
O O16 0.870438 0.731584 0.740636
O O17 0.000000 0.748377 0.500000
O O18 0.732072 0.500000 0.833835
#
# Coordination Sequence:
#
# PCOD8064014 Si02
#       7
#     4   4   4   4   4   4   4
#     4  11  20  32  53  77 104 134 167 211 258 298
#     4  11  21  34  52  75 105 138 168 203 250 305
#     4   9  16  31  53  77 101 132 170 204 249 304
#     4  10  20  35  52  74 105 139 168 200 249 305
#     4   8  15  30  53  74 101 138 167 196 248 311
#     4   9  18  35  53  69  97 137 171 206 255 301
#     4  11  22  36  53  73 100 136 176 211 249 299
#
# _framework density 17.323105000000002
#
# number of rings (size 3 to 8) (size 9 to 14) (size 15 to 20)
#    0.000    2.143    2.857    2.571    0.000    2.857 
#    0.000    5.714    0.000    0.857    0.000    6.000 
#    0.000    0.000    0.000    0.000    0.000    0.000 
#
# Total GULP energy -347151.289808 kJ/mol
# GULP energy per Si atom -12398.260350 kJ/mol
# Density = 1.728368 g / cm^3
# Si number density = 17.323105 Si / 1000 Ang^3
#
#
#
# Elastic Constant Matrix: (Units=GPa)
#
#
# Indices 1 2 3 4 5 6 
#
# 1 154.9265 40.1820 72.9917 0.0000 12.6572 0.0000
# 2 40.1820 40.4258 23.2872 0.0000 -3.1112 0.0000
# 3 72.9917 23.2872 88.7310 0.0000 -0.0477 0.0000
# 4 0.0000 0.0000 0.0000 -6.7504 0.0000 6.0150
# 5 12.6572 -3.1112 -0.0477 0.0000 24.7144 0.0000
# 6 0.0000 0.0000 0.0000 6.0150 0.0000 23.0133
#
#
#
# Elastic Compliance Matrix: (Units=1/GPa)
#
#
# Indices 1 2 3 4 5 6 
#
# 1 0.013646 -0.009097 -0.008842 0.000000 -0.008151 0.000000
# 2 -0.009097 0.035541 -0.001839 0.000000 0.009130 0.000000
# 3 -0.008842 -0.001839 0.019029 0.000000 0.004334 0.000000
# 4 0.000000 0.000000 0.000000 -0.120155 0.000000 0.031405
# 5 -0.008151 0.009130 0.004334 0.000000 0.045794 0.000000
# 6 0.000000 0.000000 0.000000 0.031405 0.000000 0.035245
#
#
# Mechanical properties :
#
#
# Convention : Reuss Voigt Hill
#
# Bulk Modulus (GPa) = 34.89360 61.88947 48.39154
# Shear Modulus (GPa) = 63.93020 18.03695 40.98358
#
# Velocity S-wave (km/s) = 6.08150 3.23028 4.86926
# Velocity P-wave (km/s) = 8.33663 7.05103 7.72064
#
# Compressibility (1/GPa) = 0.02865855
#
# Stress axis : x y z
#
# Youngs Moduli (GPa) = 73.28130 28.13626 52.55193
#
# Poissons Ratio (x) = 0.25597 0.46468
# Poissons Ratio (y) = 0.66668 0.09665
# Poissons Ratio (z) = 0.64797 0.05174
#
# Static dielectric constant tensor:
#      x y z
#    x 3.551430 0.000000 0.135390 
#    y 0.000000 3.018870 0.000000 
#    z 0.135390 0.000000 3.281520 
# 
# 
# High freq. dielectric constant tensor:
#      x y z
#    x 1.675380 0.000000 0.010350 
#    y 0.000000 1.649380 0.000000 
#    z 0.010350 0.000000 1.653360 
# 
# From -- ./inp_files/68563.got.cif
#   From: 2010.06.25/outbox.cif.g09.slc.cpg/sg10_35_cif.got.tgz:68563.got - 2010.06.27 22:07:45.
