data_PCOD8064634
_publ_section_title
;
Structure prediction by ZEFSAII (Michael W. Deem and Ramdas Pophale) SiO2 
 PCOD8064634
Probable space group: P 2/M
;
_chemical_formula_sum "Si O2"
_cell_formula_units_Z 24
_cell_length_a 19.276303
_cell_length_b 8.928147
_cell_length_c 7.844657
_cell_angle_alpha 90.000000
_cell_angle_beta 66.442710
_cell_angle_gamma 90.000000
_cell_volume 1237.564224
_symmetry_space_group_name_H-M "P 2/M"
_symmetry_group_IT_number 10
_symmetry_cell_setting 'monoclinic'
loop_
_space_group_symop_operation_xyz
x,y,z
-x,y,-z
-x,-y,-z
x,-y,z
loop_
_atom_site_type_symbol
_atom_site_label
_atom_site_fract_x
_atom_site_fract_y
_atom_site_fract_z
Si Si1 0.322771 0.677072 0.433288
Si Si2 0.917929 0.670775 0.994332
Si Si3 0.581417 0.676044 0.990497
Si Si4 0.990355 0.159731 0.318939
Si Si5 0.168651 0.176206 0.653653
Si Si6 0.583567 0.177104 0.355386
O O1 0.327883 0.500000 0.455472
O O2 0.360577 0.723130 0.216061
O O3 0.237004 0.732485 0.504115
O O4 0.359715 0.754808 0.561557
O O5 0.892497 0.500000 0.022010
O O6 0.848406 0.767795 0.136789
O O7 0.000000 0.702018 0.000000
O O8 0.938498 0.729758 0.786951
O O9 0.584247 0.500000 0.026068
O O10 0.500000 0.725739 0.000000
O O11 0.599846 0.759148 0.150049
O O12 0.906738 0.228354 0.372245
O O13 0.000000 0.117012 0.500000
O O14 0.995750 0.000000 0.211012
O O15 0.186226 0.000000 0.630245
O O16 0.500000 0.221307 0.500000
O O17 0.595692 0.000000 0.336983
#
# Coordination Sequence:
#
# PCOD8064634 Si02
#       6
#     4   4   4   4   4   4
#     4  11  23  40  62  86 119 158 199 248 300 355
#     4   9  17  31  53  78 104 139 182 225 271 331
#     4  10  21  39  63  88 116 157 202 245 295 353
#     4   9  18  34  56  81 110 147 188 232 284 345
#     4  10  20  36  57  81 112 148 187 235 292 347
#     4  11  23  38  61  91 120 154 198 247 298 356
#
# _framework density 19.392932999999999
#
# number of rings (size 3 to 8) (size 9 to 14) (size 15 to 20)
#    0.000    2.000    1.667    2.000    0.000    5.333 
#    3.000    0.000    0.000    0.000    0.000    0.000 
#    0.000    0.000    0.000    0.000    0.000    0.000 
#
# Total GULP energy -297373.658362 kJ/mol
# GULP energy per Si atom -12390.569098 kJ/mol
# Density = 1.934879 g / cm^3
# Si number density = 19.392933 Si / 1000 Ang^3
#
#
#
# Elastic Constant Matrix: (Units=GPa)
#
#
# Indices 1 2 3 4 5 6 
#
# 1 70.3428 29.1897 62.3131 0.0000 -9.9750 0.0000
# 2 29.1897 77.4773 57.7779 0.0000 -2.5681 0.0000
# 3 62.3131 57.7779 155.6616 0.0000 -8.1968 0.0000
# 4 0.0000 0.0000 0.0000 26.8218 0.0000 -4.9778
# 5 -9.9750 -2.5681 -8.1968 0.0000 36.1848 0.0000
# 6 0.0000 0.0000 0.0000 -4.9778 0.0000 26.3000
#
#
#
# Elastic Compliance Matrix: (Units=1/GPa)
#
#
# Indices 1 2 3 4 5 6 
#
# 1 0.023004 -0.002525 -0.008043 0.000000 0.004340 0.000000
# 2 -0.002525 0.018126 -0.005755 0.000000 -0.000713 0.000000
# 3 -0.008043 -0.005755 0.011782 0.000000 0.000043 0.000000
# 4 0.000000 0.000000 0.000000 0.038640 0.000000 0.007313
# 5 0.004340 -0.000713 0.000043 0.000000 0.028792 0.000000
# 6 0.000000 0.000000 0.000000 0.007313 0.000000 0.039407
#
#
# Mechanical properties :
#
#
# Convention : Reuss Voigt Hill
#
# Bulk Modulus (GPa) = 49.34119 66.89368 58.11743
# Shear Modulus (GPa) = 25.10626 28.14138 26.62382
#
# Velocity S-wave (km/s) = 3.60197 3.81348 3.70923
# Velocity P-wave (km/s) = 6.54194 7.34567 6.95543
#
# Compressibility (1/GPa) = 0.02026704
#
# Stress axis : x y z
#
# Youngs Moduli (GPa) = 43.47005 55.16859 84.87316
#
# Poissons Ratio (x) = 0.13930 0.68265
# Poissons Ratio (y) = 0.10976 0.48843
# Poissons Ratio (z) = 0.34964 0.31749
#
# Static dielectric constant tensor:
#      x y z
#    x 3.333070 0.000000 -0.079650 
#    y 0.000000 3.514660 0.000000 
#    z -0.079650 0.000000 3.767750 
# 
# 
# High freq. dielectric constant tensor:
#      x y z
#    x 1.732370 0.000000 -0.007930 
#    y 0.000000 1.763550 0.000000 
#    z -0.007930 0.000000 1.765160 
# 
# From -- ./inp_files/33438.got.cif
#   From: 2010.06.25/outbox.cif.g09.slc.cpg/sg10_17_cif.got.tgz:33438.got - 2010.06.27 22:07:45.
