data_PCOD8064797
_publ_section_title
;
Structure prediction by ZEFSAII (Michael W. Deem and Ramdas Pophale) SiO2 
 PCOD8064797
Probable space group: P 2/M
;
_chemical_formula_sum "Si O2"
_cell_formula_units_Z 28
_cell_length_a 15.942748
_cell_length_b 8.959981
_cell_length_c 20.179230
_cell_angle_alpha 90.000000
_cell_angle_beta 150.155537
_cell_angle_gamma 90.000000
_cell_volume 1434.486424
_symmetry_space_group_name_H-M "P 2/M"
_symmetry_group_IT_number 10
_symmetry_cell_setting 'monoclinic'
loop_
_space_group_symop_operation_xyz
x,y,z
-x,y,-z
-x,-y,-z
x,-y,z
loop_
_atom_site_type_symbol
_atom_site_label
_atom_site_fract_x
_atom_site_fract_y
_atom_site_fract_z
Si Si1 0.388789 0.824571 0.360261
Si Si2 0.446048 0.172734 0.791852
Si Si3 0.169230 0.827688 0.932254
Si Si4 0.860594 0.676391 0.351744
Si Si5 0.003381 0.823409 0.321814
Si Si6 0.038133 0.676265 0.100475
Si Si7 0.380557 0.823445 0.598910
O O1 0.500000 0.785762 0.500000
O O2 0.211184 0.744144 0.245905
O O3 0.486313 0.759824 0.362891
O O4 0.354443 0.000000 0.331172
O O5 0.323427 0.271255 0.752219
O O6 0.436657 0.229428 0.709789
O O7 0.390848 0.000000 0.758732
O O8 0.633896 0.197874 0.946999
O O9 0.069809 0.775334 0.799104
O O10 0.113139 0.730804 0.956502
O O11 0.132011 0.000000 0.923415
O O12 0.863741 0.500000 0.347672
O O13 0.894380 0.746475 0.303716
O O14 0.000000 0.733119 0.500000
O O15 0.194055 0.762328 0.455758
O O16 0.993046 0.000000 0.325518
O O17 0.050551 0.500000 0.112032
O O18 0.000000 0.732424 0.000000
O O19 0.378929 0.000000 0.591027
#
# Coordination Sequence:
#
# PCOD8064797 Si02
#       7
#     4   4   4   4   4   4   4
#     4  10  20  36  60  88 117 149 195 253 301 344
#     4  10  20  36  59  84 111 146 191 239 287 337
#     4  10  22  39  61  89 116 147 193 246 293 339
#     4  11  23  38  57  85 117 150 191 232 281 344
#     4  10  20  37  61  86 115 148 187 238 292 342
#     4  11  24  40  58  84 122 165 201 236 289 356
#     4   9  17  31  55  83 108 143 188 234 286 337
#
# _framework density 19.519179999999999
#
# number of rings (size 3 to 8) (size 9 to 14) (size 15 to 20)
#    0.000    1.857    1.429    2.571    0.000    7.143 
#    0.000    4.286    0.000    0.000    0.000    0.000 
#    0.000    0.000    0.000    0.000    0.000    0.000 
#
# Total GULP energy -347342.070869 kJ/mol
# GULP energy per Si atom -12405.073960 kJ/mol
# Density = 1.947475 g / cm^3
# Si number density = 19.519180 Si / 1000 Ang^3
#
#
#
# Elastic Constant Matrix: (Units=GPa)
#
#
# Indices 1 2 3 4 5 6 
#
# 1 103.6742 29.8342 18.7426 0.0000 3.2466 0.0000
# 2 29.8342 44.2268 24.5681 0.0000 -4.3049 0.0000
# 3 18.7426 24.5681 92.6177 0.0000 -3.7733 0.0000
# 4 0.0000 0.0000 0.0000 16.0389 0.0000 -4.7669
# 5 3.2466 -4.3049 -3.7733 0.0000 33.8659 0.0000
# 6 0.0000 0.0000 0.0000 -4.7669 0.0000 14.0847
#
#
#
# Elastic Compliance Matrix: (Units=1/GPa)
#
#
# Indices 1 2 3 4 5 6 
#
# 1 0.012144 -0.008204 -0.000373 0.000000 -0.002249 0.000000
# 2 -0.008204 0.032290 -0.006736 0.000000 0.004140 0.000000
# 3 -0.000373 -0.006736 0.012684 0.000000 0.000593 0.000000
# 4 0.000000 0.000000 0.000000 0.069321 0.000000 0.023461
# 5 -0.002249 0.004140 0.000593 0.000000 0.030336 0.000000
# 6 0.000000 0.000000 0.000000 0.023461 0.000000 0.078939
#
#
# Mechanical properties :
#
#
# Convention : Reuss Voigt Hill
#
# Bulk Modulus (GPa) = 37.74842 42.97872 40.36357
# Shear Modulus (GPa) = 18.17047 23.95617 21.06332
#
# Velocity S-wave (km/s) = 3.05438 3.50711 3.28854
# Velocity P-wave (km/s) = 5.64093 6.20212 5.92817
#
# Compressibility (1/GPa) = 0.02649118
#
# Stress axis : x y z
#
# Youngs Moduli (GPa) = 82.34338 30.96938 78.84175
#
# Poissons Ratio (x) = 0.25407 0.02941
# Poissons Ratio (y) = 0.67553 0.53112
# Poissons Ratio (z) = 0.03071 0.20862
#
# Static dielectric constant tensor:
#      x y z
#    x 3.677960 0.000000 -0.016020 
#    y 0.000000 3.281050 0.000000 
#    z -0.016020 0.000000 3.659770 
# 
# 
# High freq. dielectric constant tensor:
#      x y z
#    x 1.772780 0.000000 0.001870 
#    y 0.000000 1.732900 0.000000 
#    z 0.001870 0.000000 1.771450 
# 
# From -- ./inp_files/84807.got.cif
#   From: 2010.06.25/outbox.cif.g09.slc.cpg/sg10_43_cif.got.tgz:84807.got - 2010.06.27 22:07:45.
