data_PCOD8064228
_publ_section_title
;
Structure prediction by ZEFSAII (Michael W. Deem and Ramdas Pophale) SiO2 
 PCOD8064228
Probable space group: P 2/M
;
_chemical_formula_sum "Si O2"
_cell_formula_units_Z 32
_cell_length_a 24.263981
_cell_length_b 9.173683
_cell_length_c 14.079052
_cell_angle_alpha 90.000000
_cell_angle_beta 30.870289
_cell_angle_gamma 90.000000
_cell_volume 1607.970298
_symmetry_space_group_name_H-M "P 2/M"
_symmetry_group_IT_number 10
_symmetry_cell_setting 'monoclinic'
loop_
_space_group_symop_operation_xyz
x,y,z
-x,y,-z
-x,-y,-z
x,-y,z
loop_
_atom_site_type_symbol
_atom_site_label
_atom_site_fract_x
_atom_site_fract_y
_atom_site_fract_z
Si Si1 0.461683 0.169698 0.452990
Si Si2 0.721000 0.331963 0.757683
Si Si3 0.038317 0.330301 0.547011
Si Si4 0.103072 0.335436 0.780743
Si Si5 0.522707 0.329135 0.182834
Si Si6 0.603074 0.835444 0.780738
Si Si7 0.977294 0.829135 0.817165
Si Si8 0.779000 0.168038 0.242317
O O1 0.500000 0.217563 0.500000
O O2 0.530109 0.263748 0.277265
O O3 0.336170 0.207187 0.629984
O O4 0.484778 0.000000 0.399958
O O5 0.710687 0.500000 0.743702
O O6 0.836170 0.292812 0.629983
O O7 0.701589 0.239500 0.690560
O O8 0.634677 0.292267 0.966147
O O9 0.015219 0.500000 0.600044
O O10 0.000000 0.282433 0.500000
O O11 0.969890 0.236250 0.722737
O O12 0.135032 0.500000 0.705987
O O13 0.201592 0.260501 0.690555
O O14 0.076941 0.247786 0.723460
O O15 0.000000 0.330903 0.000000
O O16 0.499793 0.500000 0.220484
O O17 0.423063 0.252220 0.276530
O O18 0.635054 0.000000 0.705941
O O19 0.500000 0.830956 0.000000
O O20 0.000207 0.000000 0.779521
O O21 0.865324 0.792263 0.033853
O O22 0.789313 0.000000 0.256295
#
# Coordination Sequence:
#
# PCOD8064228 Si02
#       8
#     4   4   4   4   4   4   4   4
#     4  10  22  39  56  76 105 142 183 222 261 311
#     4   9  19  36  56  79 109 142 174 214 266 317
#     4  10  22  39  56  76 105 142 183 222 261 311
#     4   9  17  31  54  83 110 137 173 215 261 317
#     4  10  20  35  56  81 109 140 174 217 267 315
#     4   9  17  31  54  83 110 137 173 215 261 317
#     4  10  20  35  56  81 109 140 174 217 267 315
#     4   9  19  36  56  79 109 142 174 214 266 317
#
# _framework density 19.900863999999999
#
# number of rings (size 3 to 8) (size 9 to 14) (size 15 to 20)
#    0.000    2.500    0.000    1.500    0.000    7.500 
#    0.000    0.000    0.000    0.000    0.000    0.000 
#    0.000    0.000    0.000    0.000    0.000    0.000 
#
# Total GULP energy -396931.382395 kJ/mol
# GULP energy per Si atom -12404.105700 kJ/mol
# Density = 1.985557 g / cm^3
# Si number density = 19.900864 Si / 1000 Ang^3
#
#
#
# Elastic Constant Matrix: (Units=GPa)
#
#
# Indices 1 2 3 4 5 6 
#
# 1 123.0376 40.8745 20.4427 0.0000 3.3971 0.0000
# 2 40.8745 82.9576 18.7004 0.0000 5.8633 0.0000
# 3 20.4427 18.7004 42.5523 0.0000 -1.1370 0.0000
# 4 0.0000 0.0000 0.0000 22.8857 0.0000 6.3758
# 5 3.3971 5.8633 -1.1370 0.0000 32.8378 0.0000
# 6 0.0000 0.0000 0.0000 6.3758 0.0000 37.7686
#
#
#
# Elastic Compliance Matrix: (Units=1/GPa)
#
#
# Indices 1 2 3 4 5 6 
#
# 1 0.010044 -0.004253 -0.002966 0.000000 -0.000382 0.000000
# 2 -0.004253 0.015405 -0.004793 0.000000 -0.002477 0.000000
# 3 -0.002966 -0.004793 0.027088 0.000000 0.002101 0.000000
# 4 0.000000 0.000000 0.000000 0.045852 0.000000 -0.007740
# 5 -0.000382 -0.002477 0.002101 0.000000 0.031007 0.000000
# 6 0.000000 0.000000 0.000000 -0.007740 0.000000 0.027784
#
#
# Mechanical properties :
#
#
# Convention : Reuss Voigt Hill
#
# Bulk Modulus (GPa) = 35.07255 45.39807 40.23531
# Shear Modulus (GPa) = 26.21785 29.93372 28.07579
#
# Velocity S-wave (km/s) = 3.63357 3.88253 3.76011
# Velocity P-wave (km/s) = 5.93849 6.55442 6.25404
#
# Compressibility (1/GPa) = 0.02851233
#
# Stress axis : x y z
#
# Youngs Moduli (GPa) = 99.56245 64.91209 36.91651
#
# Poissons Ratio (x) = 0.27608 0.10951
# Poissons Ratio (y) = 0.42345 0.17695
# Poissons Ratio (z) = 0.29534 0.31113
#
# Static dielectric constant tensor:
#      x y z
#    x 3.640540 0.000000 0.023310 
#    y 0.000000 3.637200 0.000000 
#    z 0.023310 0.000000 3.509210 
# 
# 
# High freq. dielectric constant tensor:
#      x y z
#    x 1.773240 0.000000 0.004270 
#    y 0.000000 1.776210 0.000000 
#    z 0.004270 0.000000 1.773490 
# 
# From -- ./inp_files/71417.got.cif
#   From: 2010.06.25/outbox.cif.g09.slc.cpg/sg10_36_cif.got.tgz:71417.got - 2010.06.27 22:07:45.
