data_PCOD8064988
_publ_section_title
;
Structure prediction by ZEFSAII (Michael W. Deem and Ramdas Pophale) SiO2 
 PCOD8064988
Probable space group: P 2/M
;
_chemical_formula_sum "Si O2"
_cell_formula_units_Z 24
_cell_length_a 14.626135
_cell_length_b 13.762051
_cell_length_c 11.700349
_cell_angle_alpha 90.000000
_cell_angle_beta 29.147347
_cell_angle_gamma 90.000000
_cell_volume 1147.074388
_symmetry_space_group_name_H-M "P 2/M"
_symmetry_group_IT_number 10
_symmetry_cell_setting 'monoclinic'
loop_
_space_group_symop_operation_xyz
x,y,z
-x,y,-z
-x,-y,-z
x,-y,z
loop_
_atom_site_type_symbol
_atom_site_label
_atom_site_fract_x
_atom_site_fract_y
_atom_site_fract_z
Si Si1 0.047537 0.109546 0.130814
Si Si2 0.714929 0.738306 0.254140
Si Si3 0.420256 0.707406 0.971367
Si Si4 0.853425 0.614460 0.898838
Si Si5 0.810817 0.108807 0.771743
Si Si6 0.787501 0.723429 0.426959
O O1 0.164864 0.112873 0.118994
O O2 0.849554 0.163716 0.368227
O O3 0.007272 0.000000 0.134439
O O4 0.166927 0.164949 0.903748
O O5 0.500000 0.770127 0.500000
O O6 0.739534 0.657129 0.130368
O O7 0.787868 0.692808 0.293399
O O8 0.248718 0.644990 0.107449
O O9 0.581673 0.712118 0.701029
O O10 0.500000 0.657675 0.000000
O O11 0.350312 0.814722 0.084220
O O12 0.859065 0.500000 0.902756
O O13 0.064949 0.655862 0.666402
O O14 0.000000 0.139243 0.500000
O O15 0.750443 0.000000 0.799436
#
# Coordination Sequence:
#
# PCOD8064988 Si02
#       6
#     4   4   4   4   4   4
#     4  10  20  36  61  93 132 173 210 254 313 377
#     4  11  21  41  66  95 132 164 211 266 318 379
#     4  12  25  42  69  94 129 172 211 262 321 375
#     4  11  25  45  67  95 126 164 215 266 325 380
#     4  10  20  38  65  95 130 171 216 258 304 370
#     4  11  23  42  66  95 129 169 212 263 317 379
#
# _framework density 20.922792999999999
#
# number of rings (size 3 to 8) (size 9 to 14) (size 15 to 20)
#    0.000    1.167    5.000    3.000    0.000    5.333 
#    0.000    0.833    0.000    0.000    0.000    0.000 
#    0.000    0.000    0.000    0.000    0.000    0.000 
#
# Total GULP energy -297646.198076 kJ/mol
# GULP energy per Si atom -12401.924920 kJ/mol
# Density = 2.087517 g / cm^3
# Si number density = 20.922793 Si / 1000 Ang^3
#
#
#
# Elastic Constant Matrix: (Units=GPa)
#
#
# Indices 1 2 3 4 5 6 
#
# 1 122.0472 36.0418 16.2057 0.0000 -0.4138 0.0000
# 2 36.0418 137.7079 39.2329 0.0000 -4.2881 0.0000
# 3 16.2057 39.2329 98.0129 0.0000 -2.4663 0.0000
# 4 0.0000 0.0000 0.0000 12.7296 0.0000 0.2789
# 5 -0.4138 -4.2881 -2.4663 0.0000 32.9997 0.0000
# 6 0.0000 0.0000 0.0000 0.2789 0.0000 13.8567
#
#
#
# Elastic Compliance Matrix: (Units=1/GPa)
#
#
# Indices 1 2 3 4 5 6 
#
# 1 0.008914 -0.002165 -0.000613 0.000000 -0.000215 0.000000
# 2 -0.002165 0.008745 -0.003120 0.000000 0.000876 0.000000
# 3 -0.000613 -0.003120 0.011564 0.000000 0.000451 0.000000
# 4 0.000000 0.000000 0.000000 0.078592 0.000000 -0.001582
# 5 -0.000215 0.000876 0.000451 0.000000 0.030448 0.000000
# 6 0.000000 0.000000 0.000000 -0.001582 0.000000 0.072199
#
#
# Mechanical properties :
#
#
# Convention : Reuss Voigt Hill
#
# Bulk Modulus (GPa) = 57.38337 60.08096 58.73217
# Shear Modulus (GPa) = 21.92340 29.66968 25.79654
#
# Velocity S-wave (km/s) = 3.24052 3.76979 3.51513
# Velocity P-wave (km/s) = 6.44105 6.90843 6.67883
#
# Compressibility (1/GPa) = 0.01742665
#
# Stress axis : x y z
#
# Youngs Moduli (GPa) = 112.18894 114.35548 86.47239
#
# Poissons Ratio (x) = 0.24759 0.05297
# Poissons Ratio (y) = 0.24290 0.26982
# Poissons Ratio (z) = 0.06872 0.35682
#
# Static dielectric constant tensor:
#      x y z
#    x 3.972760 0.000000 0.004440 
#    y 0.000000 3.702030 0.000000 
#    z 0.004440 0.000000 3.716930 
# 
# 
# High freq. dielectric constant tensor:
#      x y z
#    x 1.835890 0.000000 0.001560 
#    y 0.000000 1.798370 0.000000 
#    z 0.001560 0.000000 1.819310 
# 
# From -- ./inp_files/51549.got.cif
#   From: 2010.06.25/outbox.cif.g09.slc.cpg/sg10_26_cif.got.tgz:51549.got - 2010.06.27 22:07:45.
