data_PCOD8064997
_publ_section_title
;
Structure prediction by ZEFSAII (Michael W. Deem and Ramdas Pophale) SiO2 
 PCOD8064997
Probable space group: P 2/M
;
_chemical_formula_sum "Si O2"
_cell_formula_units_Z 20
_cell_length_a 9.547454
_cell_length_b 16.534910
_cell_length_c 9.738758
_cell_angle_alpha 90.000000
_cell_angle_beta 136.662431
_cell_angle_gamma 90.000000
_cell_volume 1055.125398
_symmetry_space_group_name_H-M "P 2/M"
_symmetry_group_IT_number 10
_symmetry_cell_setting 'monoclinic'
loop_
_space_group_symop_operation_xyz
x,y,z
-x,y,-z
-x,-y,-z
x,-y,z
loop_
_atom_site_type_symbol
_atom_site_label
_atom_site_fract_x
_atom_site_fract_y
_atom_site_fract_z
Si Si1 0.627672 0.500000 0.949267
Si Si2 0.072535 0.090966 0.406860
Si Si3 0.185844 0.091332 0.036271
Si Si4 0.448206 0.800481 0.618240
Si Si5 0.422860 0.619244 0.602008
Si Si6 0.934715 0.500000 0.611125
O O1 0.576310 0.577387 0.818857
O O2 0.500000 0.500000 0.000000
O O3 0.867789 0.500000 0.151262
O O4 0.246204 0.147451 0.474002
O O5 0.000000 0.125768 0.500000
O O6 0.159161 0.000000 0.484462
O O7 0.880998 0.092187 0.168942
O O8 0.372536 0.152965 0.175581
O O9 0.251535 0.000000 0.127819
O O10 0.000000 0.120753 0.000000
O O11 0.500000 0.787115 0.500000
O O12 0.410379 0.710944 0.649978
O O13 0.500000 0.610761 0.500000
O O14 0.198729 0.579661 0.451803
O O15 0.000000 0.500000 0.500000
#
# Coordination Sequence:
#
# PCOD8064997 Si02
#       6
#     2   4   4   4   4   2
#     4  11  21  43  68  91 116 155 197 240 295 365
#     4  10  22  39  57  86 123 161 205 251 301 350
#     4  10  20  36  62  89 116 161 215 247 285 356
#     4  11  22  39  61  88 124 160 197 253 301 350
#     4  10  24  41  60  95 124 150 203 247 294 364
#     4  11  21  41  68  85 118 157 189 240 301 359
#
# _framework density 18.955093999999999
#
# number of rings (size 3 to 8) (size 9 to 14) (size 15 to 20)
#    0.000    1.600    4.000    1.800    0.000    5.600 
#    3.600    3.000    0.000    0.000    0.000    0.000 
#    0.000    0.000    0.000    0.000    0.000    0.000 
#
# Total GULP energy -247977.972978 kJ/mol
# GULP energy per Si atom -12398.898649 kJ/mol
# Density = 1.891195 g / cm^3
# Si number density = 18.955094 Si / 1000 Ang^3
#
#
#
# Elastic Constant Matrix: (Units=GPa)
#
#
# Indices 1 2 3 4 5 6 
#
# 1 69.0343 36.2320 32.3051 0.0000 4.5498 0.0000
# 2 36.2320 136.3870 48.0272 0.0000 23.6693 0.0000
# 3 32.3051 48.0272 122.1217 0.0000 13.4958 0.0000
# 4 0.0000 0.0000 0.0000 60.6408 0.0000 3.6384
# 5 4.5498 23.6693 13.4958 0.0000 41.2187 0.0000
# 6 0.0000 0.0000 0.0000 3.6384 0.0000 35.7692
#
#
#
# Elastic Compliance Matrix: (Units=1/GPa)
#
#
# Indices 1 2 3 4 5 6 
#
# 1 0.017992 -0.003808 -0.003407 0.000000 0.001317 0.000000
# 2 -0.003808 0.009979 -0.002418 0.000000 -0.004519 0.000000
# 3 -0.003407 -0.002418 0.010215 0.000000 -0.001580 0.000000
# 4 0.000000 0.000000 0.000000 0.016592 0.000000 -0.001688
# 5 0.001317 -0.004519 -0.001580 0.000000 0.027228 0.000000
# 6 0.000000 0.000000 0.000000 -0.001688 0.000000 0.028129
#
#
# Mechanical properties :
#
#
# Convention : Reuss Voigt Hill
#
# Bulk Modulus (GPa) = 52.85433 62.29684 57.57559
# Shear Modulus (GPa) = 36.84372 41.59098 39.21735
#
# Velocity S-wave (km/s) = 4.41357 4.68929 4.55352
# Velocity P-wave (km/s) = 7.34284 7.89026 7.62146
#
# Compressibility (1/GPa) = 0.01891992
#
# Stress axis : x y z
#
# Youngs Moduli (GPa) = 55.58024 100.20681 97.89158
#
# Poissons Ratio (x) = 0.38162 0.33354
# Poissons Ratio (y) = 0.21167 0.23669
# Poissons Ratio (z) = 0.18938 0.24228
#
# Static dielectric constant tensor:
#      x y z
#    x 3.445530 0.000000 -0.064580 
#    y 0.000000 3.688730 0.000000 
#    z -0.064580 0.000000 3.522590 
# 
# 
# High freq. dielectric constant tensor:
#      x y z
#    x 1.736180 0.000000 -0.006330 
#    y 0.000000 1.739600 0.000000 
#    z -0.006330 0.000000 1.742760 
# 
# From -- ./inp_files/19751.got.cif
#   From: 2010.06.25/outbox.cif.g09.slc.cpg/sg10_10_cif.got.tgz:19751.got - 2010.06.27 22:07:45.
