data_PCOD8064652
_publ_section_title
;
Structure prediction by ZEFSAII (Michael W. Deem and Ramdas Pophale) SiO2 
 PCOD8064652
Probable space group: P 2/M
;
_chemical_formula_sum "Si O2"
_cell_formula_units_Z 32
_cell_length_a 14.733373
_cell_length_b 8.978586
_cell_length_c 25.686515
_cell_angle_alpha 90.000000
_cell_angle_beta 29.818915
_cell_angle_gamma 90.000000
_cell_volume 1689.659517
_symmetry_space_group_name_H-M "P 2/M"
_symmetry_group_IT_number 10
_symmetry_cell_setting 'monoclinic'
loop_
_space_group_symop_operation_xyz
x,y,z
-x,y,-z
-x,-y,-z
x,-y,z
loop_
_atom_site_type_symbol
_atom_site_label
_atom_site_fract_x
_atom_site_fract_y
_atom_site_fract_z
Si Si1 0.297017 0.175579 0.605761
Si Si2 0.175753 0.175926 0.554427
Si Si3 0.508568 0.673219 0.782357
Si Si4 0.806962 0.324387 0.715988
Si Si5 0.459622 0.826647 0.078277
Si Si6 0.240278 0.827123 0.987288
Si Si7 0.163265 0.822498 0.783720
Si Si8 0.501660 0.324272 0.331849
O O1 0.500000 0.246423 0.500000
O O2 0.176836 0.218916 0.615151
O O3 0.198142 0.232958 0.707165
O O4 0.317945 0.000000 0.598737
O O5 0.359291 0.238708 0.438410
O O6 0.003608 0.249450 0.611823
O O7 0.170150 0.000000 0.548739
O O8 0.477625 0.500000 0.805967
O O9 0.685147 0.726589 0.727259
O O10 0.323990 0.749726 0.894745
O O11 0.543285 0.714686 0.705466
O O12 0.833502 0.500000 0.705143
O O13 0.711922 0.267308 0.815965
O O14 0.638812 0.790523 0.022408
O O15 0.405642 0.000000 0.107565
O O16 0.500000 0.774207 0.000000
O O17 0.237383 0.000000 0.976334
O O18 0.037570 0.769086 0.099709
O O19 0.298781 0.738003 0.754905
O O20 0.188056 0.000000 0.776390
O O21 0.491854 0.500000 0.347321
#
# Coordination Sequence:
#
# PCOD8064652 Si02
#       8
#     4   4   4   4   4   4   4   4
#     4   9  17  33  57  80 109 148 182 216 269 334
#     4  11  22  37  60  86 112 146 185 228 277 333
#     4   9  21  41  60  76 108 153 187 225 281 336
#     4  10  21  38  57  80 112 147 186 230 278 332
#     4   9  18  33  55  82 111 146 189 230 272 327
#     4   9  19  34  56  84 112 142 184 235 275 320
#     4  10  20  36  57  84 114 146 184 225 276 331
#     4  11  23  39  58  81 109 146 190 233 277 330
#
# _framework density 18.938727
#
# number of rings (size 3 to 8) (size 9 to 14) (size 15 to 20)
#    0.000    2.250    1.250    1.125    1.750    3.250 
#    0.000    6.875    0.000    0.000    0.000    0.000 
#    0.000    0.000    0.000    0.000    0.000    0.000 
#
# Total GULP energy -396864.169757 kJ/mol
# GULP energy per Si atom -12402.005305 kJ/mol
# Density = 1.889562 g / cm^3
# Si number density = 18.938727 Si / 1000 Ang^3
#
#
#
# Elastic Constant Matrix: (Units=GPa)
#
#
# Indices 1 2 3 4 5 6 
#
# 1 84.0509 33.8824 31.7959 0.0000 -3.9984 0.0000
# 2 33.8824 54.0544 30.4511 0.0000 -2.5253 0.0000
# 3 31.7959 30.4511 66.3155 0.0000 -19.1380 0.0000
# 4 0.0000 0.0000 0.0000 24.3908 0.0000 -2.0990
# 5 -3.9984 -2.5253 -19.1380 0.0000 34.3870 0.0000
# 6 0.0000 0.0000 0.0000 -2.0990 0.0000 26.5988
#
#
#
# Elastic Compliance Matrix: (Units=1/GPa)
#
#
# Indices 1 2 3 4 5 6 
#
# 1 0.016846 -0.007902 -0.004826 0.000000 -0.001307 0.000000
# 2 -0.007902 0.029538 -0.011215 0.000000 -0.004991 0.000000
# 3 -0.004826 -0.011215 0.026381 0.000000 0.013297 0.000000
# 4 0.000000 0.000000 0.000000 0.041279 0.000000 0.003258
# 5 -0.001307 -0.004991 0.013297 0.000000 0.035963 0.000000
# 6 0.000000 0.000000 0.000000 0.003258 0.000000 0.037853
#
#
# Mechanical properties :
#
#
# Convention : Reuss Voigt Hill
#
# Bulk Modulus (GPa) = 40.19527 44.07551 42.13539
# Shear Modulus (GPa) = 20.48853 24.29475 22.39164
#
# Velocity S-wave (km/s) = 3.29269 3.58552 3.44222
# Velocity P-wave (km/s) = 5.97710 6.36117 6.17212
#
# Compressibility (1/GPa) = 0.02487855
#
# Stress axis : x y z
#
# Youngs Moduli (GPa) = 59.35959 33.85497 37.90664
#
# Poissons Ratio (x) = 0.26752 0.18294
# Poissons Ratio (y) = 0.46906 0.42512
# Poissons Ratio (z) = 0.28647 0.37968
#
# Static dielectric constant tensor:
#      x y z
#    x 3.627640 0.000000 0.003400 
#    y 0.000000 3.303360 0.000000 
#    z 0.003400 0.000000 3.558560 
# 
# 
# High freq. dielectric constant tensor:
#      x y z
#    x 1.740860 0.000000 -0.001340 
#    y 0.000000 1.720880 0.000000 
#    z -0.001340 0.000000 1.740950 
# 
# From -- ./inp_files/66613.got.cif
#   From: 2010.06.25/outbox.cif.g09.slc.cpg/sg10_34_cif.got.tgz:66613.got - 2010.06.27 22:07:45.
