data_PCOD8064631
_publ_section_title
;
Structure prediction by ZEFSAII (Michael W. Deem and Ramdas Pophale) SiO2 
 PCOD8064631
Probable space group: P 2/M
;
_chemical_formula_sum "Si O2"
_cell_formula_units_Z 32
_cell_length_a 11.898141
_cell_length_b 8.879263
_cell_length_c 15.412669
_cell_angle_alpha 90.000000
_cell_angle_beta 88.434909
_cell_angle_gamma 90.000000
_cell_volume 1627.690524
_symmetry_space_group_name_H-M "P 2/M"
_symmetry_group_IT_number 10
_symmetry_cell_setting 'monoclinic'
loop_
_space_group_symop_operation_xyz
x,y,z
-x,y,-z
-x,-y,-z
x,-y,z
loop_
_atom_site_type_symbol
_atom_site_label
_atom_site_fract_x
_atom_site_fract_y
_atom_site_fract_z
Si Si1 0.624565 0.178221 0.506046
Si Si2 0.994431 0.322091 0.097457
Si Si3 0.784550 0.172791 0.853467
Si Si4 0.999592 0.676675 0.600214
Si Si5 0.776208 0.178800 0.344745
Si Si6 0.752790 0.678378 0.168088
Si Si7 0.628639 0.822915 0.013177
Si Si8 0.774646 0.173611 0.660159
O O1 0.500000 0.249190 0.500000
O O2 0.703365 0.239491 0.427294
O O3 0.676422 0.227535 0.597347
O O4 0.616686 0.000000 0.499240
O O5 0.002501 0.500000 0.096650
O O6 0.098212 0.260472 0.149999
O O7 0.878535 0.267305 0.142173
O O8 0.000000 0.256977 0.000000
O O9 0.729367 0.193311 0.759380
O O10 0.811978 0.000000 0.871994
O O11 0.699237 0.234435 0.928153
O O12 0.019188 0.500000 0.612044
O O13 0.882396 0.722533 0.644774
O O14 0.000000 0.725133 0.500000
O O15 0.097206 0.762756 0.648913
O O16 0.719309 0.245499 0.259551
O O17 0.776741 0.000000 0.339429
O O18 0.744430 0.500000 0.176213
O O19 0.667447 0.733809 0.096820
O O20 0.644502 0.000000 0.028430
O O21 0.500000 0.780692 0.000000
O O22 0.807647 0.000000 0.640277
#
# Coordination Sequence:
#
# PCOD8064631 Si02
#       8
#     4   4   4   4   4   4   4   4
#     4   9  19  36  59  85 112 148 193 237 282 334
#     4  10  20  36  57  81 111 149 187 228 282 345
#     4  10  21  35  57  87 115 146 186 238 288 335
#     4  11  22  36  57  85 119 155 189 232 286 344
#     4  11  22  37  61  89 117 151 191 238 287 340
#     4  11  23  39  60  86 118 154 191 235 287 347
#     4  10  22  40  60  85 116 152 195 242 287 334
#     4  10  20  36  58  85 115 148 190 237 285 341
#
# _framework density 19.659756999999999
#
# number of rings (size 3 to 8) (size 9 to 14) (size 15 to 20)
#    0.000    1.750    2.500    1.875    0.000    5.500 
#    0.000    3.750    0.000    4.875    0.000    0.000 
#    0.000    0.000    0.000    0.000    0.000    0.000 
#
# Total GULP energy -396918.777294 kJ/mol
# GULP energy per Si atom -12403.711790 kJ/mol
# Density = 1.961501 g / cm^3
# Si number density = 19.659757 Si / 1000 Ang^3
#
#
#
# Elastic Constant Matrix: (Units=GPa)
#
#
# Indices 1 2 3 4 5 6 
#
# 1 118.1411 24.9557 44.4830 0.0000 19.9671 0.0000
# 2 24.9557 43.9733 31.4329 0.0000 7.5436 0.0000
# 3 44.4830 31.4329 143.2063 0.0000 22.8914 0.0000
# 4 0.0000 0.0000 0.0000 24.7644 0.0000 -2.7102
# 5 19.9671 7.5436 22.8914 0.0000 20.3310 0.0000
# 6 0.0000 0.0000 0.0000 -2.7102 0.0000 9.4966
#
#
#
# Elastic Compliance Matrix: (Units=1/GPa)
#
#
# Indices 1 2 3 4 5 6 
#
# 1 0.011158 -0.004029 -0.001303 0.000000 -0.007995 0.000000
# 2 -0.004029 0.028708 -0.004853 0.000000 -0.001231 0.000000
# 3 -0.001303 -0.004853 0.009708 0.000000 -0.007850 0.000000
# 4 0.000000 0.000000 0.000000 0.041682 0.000000 0.011896
# 5 -0.007995 -0.001231 -0.007850 0.000000 0.066333 0.000000
# 6 0.000000 0.000000 0.000000 0.011896 0.000000 0.108696
#
#
# Mechanical properties :
#
#
# Convention : Reuss Voigt Hill
#
# Bulk Modulus (GPa) = 34.24363 56.34044 45.29203
# Shear Modulus (GPa) = 16.86974 24.54834 20.70904
#
# Velocity S-wave (km/s) = 2.93249 3.53747 3.24909
# Velocity P-wave (km/s) = 5.37791 6.73832 6.09618
#
# Compressibility (1/GPa) = 0.02920251
#
# Stress axis : x y z
#
# Youngs Moduli (GPa) = 89.62528 34.83398 103.01044
#
# Poissons Ratio (x) = 0.14034 0.13427
# Poissons Ratio (y) = 0.36108 0.49991
# Poissons Ratio (z) = 0.11682 0.16905
#
# Static dielectric constant tensor:
#      x y z
#    x 3.577840 0.000000 -0.012730 
#    y 0.000000 3.352520 0.000000 
#    z -0.012730 0.000000 3.852210 
# 
# 
# High freq. dielectric constant tensor:
#      x y z
#    x 1.758690 0.000000 0.003820 
#    y 0.000000 1.747440 0.000000 
#    z 0.003820 0.000000 1.785110 
# 
# From -- ./inp_files/63797.got.cif
#   From: 2010.06.25/outbox.cif.g09.slc.cpg/sg10_32_cif.got.tgz:63797.got - 2010.06.27 22:07:45.
