data_PCOD8064533
_publ_section_title
;
Structure prediction by ZEFSAII (Michael W. Deem and Ramdas Pophale) SiO2 
 PCOD8064533
Probable space group: P 2/M
;
_chemical_formula_sum "Si O2"
_cell_formula_units_Z 32
_cell_length_a 11.874965
_cell_length_b 9.281341
_cell_length_c 28.074670
_cell_angle_alpha 90.000000
_cell_angle_beta 30.576565
_cell_angle_gamma 90.000000
_cell_volume 1574.020348
_symmetry_space_group_name_H-M "P 2/M"
_symmetry_group_IT_number 10
_symmetry_cell_setting 'monoclinic'
loop_
_space_group_symop_operation_xyz
x,y,z
-x,y,-z
-x,-y,-z
x,-y,z
loop_
_atom_site_type_symbol
_atom_site_label
_atom_site_fract_x
_atom_site_fract_y
_atom_site_fract_z
Si Si1 0.591196 0.671127 0.270075
Si Si2 0.882899 0.667024 0.409608
Si Si3 0.128709 0.656731 0.696600
Si Si4 0.446314 0.160242 0.902078
Si Si5 0.033069 0.159710 0.112193
Si Si6 0.373277 0.331692 0.251117
Si Si7 0.704005 0.742287 0.897314
Si Si8 0.513015 0.172013 0.600859
O O1 0.574603 0.500000 0.284341
O O2 0.845944 0.718553 0.180970
O O3 0.493355 0.720205 0.255225
O O4 0.447347 0.754354 0.362282
O O5 0.823134 0.500000 0.441434
O O6 0.901637 0.699496 0.347025
O O7 0.697759 0.772165 0.497513
O O8 0.115518 0.710833 0.348710
O O9 0.247400 0.500000 0.657542
O O10 0.271964 0.779505 0.669971
O O11 0.888514 0.635920 0.808586
O O12 0.509198 0.266788 0.837380
O O13 0.609608 0.167011 0.887697
O O14 0.459930 0.000000 0.876219
O O15 0.196173 0.197139 0.009138
O O16 0.173156 0.154307 0.109934
O O17 0.927921 0.000000 0.144060
O O18 0.396950 0.500000 0.235389
O O19 0.500000 0.662680 0.000000
O O20 0.520724 0.000000 0.601992
#
# Coordination Sequence:
#
# PCOD8064533 Si02
#       8
#     4   4   4   4   4   4   4   4
#     4  11  24  42  64  88 118 160 209 256 307 360
#     4  10  22  43  66  89 122 159 201 252 306 364
#     4  11  22  39  65  95 128 163 200 244 299 361
#     4  10  21  37  61  92 127 166 203 247 303 364
#     4  10  21  38  60  90 128 167 204 245 300 362
#     4  10  23  43  64  88 119 160 208 257 305 359
#     4  10  20  35  61  97 132 163 199 240 297 359
#     4  12  26  42  63  92 125 157 199 252 309 371
#
# _framework density 20.330105
#
# number of rings (size 3 to 8) (size 9 to 14) (size 15 to 20)
#    0.000    1.500    2.500    2.250    0.000    7.250 
#    0.000    7.500    0.000    0.000    0.000    0.000 
#    0.000    0.000    0.000    0.000    0.000    0.000 
#
# Total GULP energy -396718.114843 kJ/mol
# GULP energy per Si atom -12397.441089 kJ/mol
# Density = 2.028383 g / cm^3
# Si number density = 20.330105 Si / 1000 Ang^3
#
#
#
# Elastic Constant Matrix: (Units=GPa)
#
#
# Indices 1 2 3 4 5 6 
#
# 1 123.0417 39.7970 54.0129 0.0000 11.5644 0.0000
# 2 39.7970 94.4447 49.5485 0.0000 9.5928 0.0000
# 3 54.0129 49.5485 136.4561 0.0000 18.8327 0.0000
# 4 0.0000 0.0000 0.0000 27.7739 0.0000 3.8408
# 5 11.5644 9.5928 18.8327 0.0000 21.6420 0.0000
# 6 0.0000 0.0000 0.0000 3.8408 0.0000 20.0555
#
#
#
# Elastic Compliance Matrix: (Units=1/GPa)
#
#
# Indices 1 2 3 4 5 6 
#
# 1 0.010446 -0.002691 -0.002900 0.000000 -0.001865 0.000000
# 2 -0.002691 0.013841 -0.003765 0.000000 -0.001421 0.000000
# 3 -0.002900 -0.003765 0.010682 0.000000 -0.006077 0.000000
# 4 0.000000 0.000000 0.000000 0.036984 0.000000 -0.007083
# 5 -0.001865 -0.001421 -0.006077 0.000000 0.053121 0.000000
# 6 0.000000 0.000000 0.000000 -0.007083 0.000000 0.051218
#
#
# Mechanical properties :
#
#
# Convention : Reuss Voigt Hill
#
# Bulk Modulus (GPa) = 61.50787 71.18436 66.34612
# Shear Modulus (GPa) = 24.94704 27.93324 26.44014
#
# Velocity S-wave (km/s) = 3.50680 3.71075 3.61021
# Velocity P-wave (km/s) = 6.83499 7.31094 7.07697
#
# Compressibility (1/GPa) = 0.01625808
#
# Stress axis : x y z
#
# Youngs Moduli (GPa) = 95.72909 72.24666 93.61436
#
# Poissons Ratio (x) = 0.19439 0.27152
# Poissons Ratio (y) = 0.25758 0.35243
# Poissons Ratio (z) = 0.27765 0.27199
#
# Static dielectric constant tensor:
#      x y z
#    x 3.820480 0.000000 0.042220 
#    y 0.000000 3.465600 0.000000 
#    z 0.042220 0.000000 3.827310 
# 
# 
# High freq. dielectric constant tensor:
#      x y z
#    x 1.793640 0.000000 0.007810 
#    y 0.000000 1.782410 0.000000 
#    z 0.007810 0.000000 1.806410 
# 
# From -- ./inp_files/95003.got.cif
#   From: 2010.06.25/outbox.cif.g09.slc.cpg/sg10_48_cif.got.tgz:95003.got - 2010.06.27 22:07:45.
