data_PCOD8064820
_publ_section_title
;
Structure prediction by ZEFSAII (Michael W. Deem and Ramdas Pophale) SiO2 
 PCOD8064820
Probable space group: P 2/M
;
_chemical_formula_sum "Si O2"
_cell_formula_units_Z 32
_cell_length_a 32.077355
_cell_length_b 8.540294
_cell_length_c 13.581204
_cell_angle_alpha 90.000000
_cell_angle_beta 24.648123
_cell_angle_gamma 90.000000
_cell_volume 1551.643164
_symmetry_space_group_name_H-M "P 2/M"
_symmetry_group_IT_number 10
_symmetry_cell_setting 'monoclinic'
loop_
_space_group_symop_operation_xyz
x,y,z
-x,y,-z
-x,-y,-z
x,-y,z
loop_
_atom_site_type_symbol
_atom_site_label
_atom_site_fract_x
_atom_site_fract_y
_atom_site_fract_z
Si Si1 0.778404 0.319499 0.294243
Si Si2 0.729859 0.180659 0.193519
Si Si3 0.896997 0.820144 0.671858
Si Si4 0.146001 0.320495 0.441948
Si Si5 0.484144 0.813489 0.424342
Si Si6 0.614659 0.181413 0.779636
Si Si7 0.348096 0.816592 0.081970
Si Si8 0.979515 0.181422 0.932453
O O1 0.806783 0.500000 0.247701
O O2 0.766340 0.285219 0.205133
O O3 0.676005 0.281126 0.569438
O O4 0.864450 0.212262 0.155447
O O5 0.622510 0.242254 0.387790
O O6 0.724067 0.000000 0.239885
O O7 0.806843 0.202955 0.940168
O O8 0.876680 0.711689 0.622717
O O9 0.000000 0.764857 0.500000
O O10 0.905521 0.000000 0.618475
O O11 0.176027 0.500000 0.391315
O O12 0.236938 0.215404 0.283975
O O13 0.047626 0.284609 0.715444
O O14 0.500000 0.745042 0.500000
O O15 0.488921 0.000000 0.418017
O O16 0.570768 0.743938 0.167698
O O17 0.635790 0.250894 0.843037
O O18 0.646545 0.000000 0.703582
O O19 0.500000 0.204681 0.000000
O O20 0.366885 0.000000 0.045944
O O21 0.004756 0.000000 0.860965
O O22 0.000000 0.231949 0.000000
#
# Coordination Sequence:
#
# PCOD8064820 Si02
#       8
#     4   4   4   4   4   4   4   4
#     4  12  25  39  59  89 125 158 190 238 300 361
#     4  10  20  37  62  88 117 156 202 248 291 343
#     4  10  21  38  62  89 116 152 198 244 290 346
#     4  12  25  39  59  88 123 157 189 235 296 359
#     4   9  17  32  58  89 115 146 195 250 295 336
#     4  10  21  39  63  88 116 156 207 254 291 338
#     4  10  20  36  59  85 115 153 199 247 292 344
#     4  11  24  43  66  88 113 151 200 248 291 343
#
# _framework density 20.623297999999998
#
# number of rings (size 3 to 8) (size 9 to 14) (size 15 to 20)
#    0.000    1.500    0.000    5.625    0.000   10.500 
#    0.000    1.875    0.000    1.500    0.000    0.000 
#    0.000    0.000    0.000    0.000    0.000    0.000 
#
# Total GULP energy -397009.063808 kJ/mol
# GULP energy per Si atom -12406.533244 kJ/mol
# Density = 2.057636 g / cm^3
# Si number density = 20.623298 Si / 1000 Ang^3
#
#
#
# Elastic Constant Matrix: (Units=GPa)
#
#
# Indices 1 2 3 4 5 6 
#
# 1 137.7622 20.1701 36.0060 0.0000 1.1230 0.0000
# 2 20.1701 38.1236 18.3607 0.0000 9.5302 0.0000
# 3 36.0060 18.3607 101.4239 0.0000 -1.0736 0.0000
# 4 0.0000 0.0000 0.0000 0.0039 0.0000 1.0596
# 5 1.1230 9.5302 -1.0736 0.0000 40.5827 0.0000
# 6 0.0000 0.0000 0.0000 1.0596 0.0000 8.7394
#
#
#
# Elastic Compliance Matrix: (Units=1/GPa)
#
#
# Indices 1 2 3 4 5 6 
#
# 1 0.008369 -0.003426 -0.002346 0.000000 0.000511 0.000000
# 2 -0.003426 0.032201 -0.004693 0.000000 -0.007591 0.000000
# 3 -0.002346 -0.004693 0.011558 0.000000 0.001473 0.000000
# 4 0.000000 0.000000 0.000000 -8.029956 0.000000 0.973617
# 5 0.000511 -0.007591 0.001473 0.000000 0.026449 0.000000
# 6 0.000000 0.000000 0.000000 0.973617 0.000000 -0.003625
#
#
# Mechanical properties :
#
#
# Convention : Reuss Voigt Hill
#
# Bulk Modulus (GPa) = 32.05334 47.37592 39.71463
# Shear Modulus (GPa) = -0.63102 23.38340 11.37619
#
# Velocity S-wave (km/s) = -0.55375 3.37090 2.35120
# Velocity P-wave (km/s) = 3.89451 6.17839 5.16429
#
# Compressibility (1/GPa) = 0.03119800
#
# Stress axis : x y z
#
# Youngs Moduli (GPa) = 119.48313 31.05469 86.52367
#
# Poissons Ratio (x) = 0.10640 0.20294
# Poissons Ratio (y) = 0.40936 0.40609
# Poissons Ratio (z) = 0.28025 0.14575
#
# Static dielectric constant tensor:
#      x y z
#    x 3.840520 0.000000 0.054750 
#    y 0.000000 3.428690 0.000000 
#    z 0.054750 0.000000 3.877750 
# 
# 
# High freq. dielectric constant tensor:
#      x y z
#    x 1.823780 0.000000 0.000870 
#    y 0.000000 1.776360 0.000000 
#    z 0.000870 0.000000 1.824550 
# 
# From -- ./inp_files/58189.got.cif
#   From: 2010.06.25/outbox.cif.g09.slc.cpg/sg10_30_cif.got.tgz:58189.got - 2010.06.27 22:07:45.
