data_PCOD8064943
_publ_section_title
;
Structure prediction by ZEFSAII (Michael W. Deem and Ramdas Pophale) SiO2 
 PCOD8064943
Probable space group: P 2/M
;
_chemical_formula_sum "Si O2"
_cell_formula_units_Z 32
_cell_length_a 23.755006
_cell_length_b 8.846484
_cell_length_c 14.238019
_cell_angle_alpha 90.000000
_cell_angle_beta 147.117502
_cell_angle_gamma 90.000000
_cell_volume 1624.462192
_symmetry_space_group_name_H-M "P 2/M"
_symmetry_group_IT_number 10
_symmetry_cell_setting 'monoclinic'
loop_
_space_group_symop_operation_xyz
x,y,z
-x,y,-z
-x,-y,-z
x,-y,z
loop_
_atom_site_type_symbol
_atom_site_label
_atom_site_fract_x
_atom_site_fract_y
_atom_site_fract_z
Si Si1 0.453275 0.321584 0.184462
Si Si2 0.399405 0.821280 0.302105
Si Si3 0.309540 0.324252 0.499514
Si Si4 0.777741 0.676762 0.824984
Si Si5 0.193833 0.178546 0.508661
Si Si6 0.903592 0.821108 0.307566
Si Si7 0.958100 0.820693 0.176678
Si Si8 0.713845 0.179420 0.166039
O O1 0.443714 0.500000 0.177395
O O2 0.399682 0.249936 0.199991
O O3 0.572344 0.269896 0.345948
O O4 0.394841 0.259640 0.010265
O O5 0.500000 0.765316 0.500000
O O6 0.297518 0.768675 0.212671
O O7 0.396517 0.000000 0.287090
O O8 0.303539 0.500000 0.516426
O O9 0.248585 0.286003 0.319207
O O10 0.258399 0.230662 0.510407
O O11 0.765991 0.500000 0.829591
O O12 0.894495 0.734305 0.006603
O O13 0.248228 0.238863 0.679558
O O14 0.076101 0.238253 0.337266
O O15 0.190925 0.000000 0.508636
O O16 0.908905 0.770128 0.207120
O O17 0.796865 0.766129 0.204477
O O18 0.000000 0.750082 0.500000
O O19 0.911524 0.000000 0.325719
O O20 0.950753 0.000000 0.150885
O O21 0.698496 0.000000 0.143776
#
# Coordination Sequence:
#
# PCOD8064943 Si02
#       8
#     4   4   4   4   4   4   4   4
#     4  11  23  40  61  86 119 159 197 240 292 351
#     4  11  22  37  62  93 121 152 190 239 297 354
#     4  10  24  43  60  79 112 160 205 242 292 352
#     4  11  23  40  61  86 119 159 197 240 292 351
#     4  10  22  39  61  87 118 154 197 252 304 346
#     4   9  15  30  58  85 115 150 181 222 285 354
#     4  10  20  36  60  91 120 152 194 242 297 353
#     4  10  20  36  60  91 120 152 194 242 297 353
#
# _framework density 19.698826
#
# number of rings (size 3 to 8) (size 9 to 14) (size 15 to 20)
#    0.000    1.750    2.500    1.875    0.000    5.500 
#    0.000    5.000    0.000    0.750    0.000    0.000 
#    0.000    0.000    0.000    0.000    0.000    0.000 
#
# Total GULP energy -396921.247898 kJ/mol
# GULP energy per Si atom -12403.788997 kJ/mol
# Density = 1.965399 g / cm^3
# Si number density = 19.698826 Si / 1000 Ang^3
#
#
#
# Elastic Constant Matrix: (Units=GPa)
#
#
# Indices 1 2 3 4 5 6 
#
# 1 86.9609 19.8678 32.3616 0.0000 -13.2462 0.0000
# 2 19.8678 38.3820 36.6865 0.0000 -4.2711 0.0000
# 3 32.3616 36.6865 148.6800 0.0000 -22.8549 0.0000
# 4 0.0000 0.0000 0.0000 27.8919 0.0000 0.1603
# 5 -13.2462 -4.2711 -22.8549 0.0000 15.7695 0.0000
# 6 0.0000 0.0000 0.0000 0.1603 0.0000 26.5376
#
#
#
# Elastic Compliance Matrix: (Units=1/GPa)
#
#
# Indices 1 2 3 4 5 6 
#
# 1 0.014553 -0.006388 0.000028 0.000000 0.010535 0.000000
# 2 -0.006388 0.037077 -0.009057 0.000000 -0.008450 0.000000
# 3 0.000028 -0.009057 0.011041 0.000000 0.013572 0.000000
# 4 0.000000 0.000000 0.000000 0.035854 0.000000 -0.000217
# 5 0.010535 -0.008450 0.013572 0.000000 0.089644 0.000000
# 6 0.000000 0.000000 0.000000 -0.000217 0.000000 0.037684
#
#
# Mechanical properties :
#
#
# Convention : Reuss Voigt Hill
#
# Bulk Modulus (GPa) = 31.40976 50.20608 40.80792
# Shear Modulus (GPa) = 18.70563 26.38027 22.54295
#
# Velocity S-wave (km/s) = 3.08487 3.66345 3.38654
# Velocity P-wave (km/s) = 5.35427 6.59065 6.00437
#
# Compressibility (1/GPa) = 0.03183724
#
# Stress axis : x y z
#
# Youngs Moduli (GPa) = 68.71400 26.97073 90.57192
#
# Poissons Ratio (x) = 0.17228 -0.00253
# Poissons Ratio (y) = 0.43891 0.82034
# Poissons Ratio (z) = -0.00192 0.24428
#
# Static dielectric constant tensor:
#      x y z
#    x 3.534540 0.000000 -0.031450 
#    y 0.000000 3.310490 0.000000 
#    z -0.031450 0.000000 3.925130 
# 
# 
# High freq. dielectric constant tensor:
#      x y z
#    x 1.763860 0.000000 -0.003020 
#    y 0.000000 1.746350 0.000000 
#    z -0.003020 0.000000 1.789500 
# 
# From -- ./inp_files/71671.got.cif
#   From: 2010.06.25/outbox.cif.g09.slc.cpg/sg10_36_cif.got.tgz:71671.got - 2010.06.27 22:07:45.
