data_PCOD8064362
_publ_section_title
;
Structure prediction by ZEFSAII (Michael W. Deem and Ramdas Pophale) SiO2 
 PCOD8064362
Probable space group: P 2/M
;
_chemical_formula_sum "Si O2"
_cell_formula_units_Z 32
_cell_length_a 11.943293
_cell_length_b 8.888188
_cell_length_c 28.940604
_cell_angle_alpha 90.000000
_cell_angle_beta 148.928567
_cell_angle_gamma 90.000000
_cell_volume 1585.565194
_symmetry_space_group_name_H-M "P 2/M"
_symmetry_group_IT_number 10
_symmetry_cell_setting 'monoclinic'
loop_
_space_group_symop_operation_xyz
x,y,z
-x,y,-z
-x,-y,-z
x,-y,z
loop_
_atom_site_type_symbol
_atom_site_label
_atom_site_fract_x
_atom_site_fract_y
_atom_site_fract_z
Si Si1 0.921002 0.323302 0.168650
Si Si2 0.715604 0.176633 0.179129
Si Si3 0.517093 0.824943 0.267548
Si Si4 0.258800 0.177136 0.978422
Si Si5 0.101010 0.823134 0.659485
Si Si6 0.632654 0.825149 0.684872
Si Si7 0.617499 0.820986 0.495038
Si Si8 0.092891 0.323550 0.083010
O O1 0.898131 0.500000 0.158972
O O2 0.888296 0.262961 0.208637
O O3 0.736701 0.250536 0.070800
O O4 0.155338 0.274396 0.233288
O O5 0.762814 0.227316 0.247736
O O6 0.749649 0.000000 0.183400
O O7 0.471994 0.227950 0.081382
O O8 0.756495 0.773574 0.334592
O O9 0.513823 0.797348 0.321445
O O10 0.339792 0.730354 0.176303
O O11 0.476799 0.000000 0.241337
O O12 0.047081 0.234235 0.929471
O O13 0.245398 0.000000 0.967854
O O14 0.860084 0.751188 0.576004
O O15 0.066966 0.000000 0.647087
O O16 0.509358 0.768513 0.595563
O O17 0.697896 0.000000 0.703460
O O18 0.500000 0.758531 0.500000
O O19 0.625770 0.000000 0.500519
O O20 0.076200 0.500000 0.087192
O O21 0.000000 0.282572 0.000000
#
# Coordination Sequence:
#
# PCOD8064362 Si02
#       8
#     4   4   4   4   4   4   4   4
#     4  12  24  37  56  82 116 154 193 240 294 350
#     4  10  21  37  58  82 112 150 193 241 293 349
#     4  10  20  35  57  84 115 152 197 245 289 341
#     4  11  22  37  58  84 113 150 196 242 290 345
#     4   9  18  34  57  87 117 147 190 242 293 344
#     4  10  20  35  58  86 115 153 197 241 292 347
#     4   9  17  31  56  88 119 151 190 241 296 346
#     4  11  23  37  55  81 116 158 200 241 287 343
#
# _framework density 20.182079000000002
#
# number of rings (size 3 to 8) (size 9 to 14) (size 15 to 20)
#    0.000    1.750    1.250    3.750    0.000    7.000 
#    0.000    3.125    0.000    4.125    0.000    1.750 
#    0.000    0.000    0.000    0.000    0.000    0.000 
#
# Total GULP energy -396853.907019 kJ/mol
# GULP energy per Si atom -12401.684594 kJ/mol
# Density = 2.013614 g / cm^3
# Si number density = 20.182079 Si / 1000 Ang^3
#
#
#
# Elastic Constant Matrix: (Units=GPa)
#
#
# Indices 1 2 3 4 5 6 
#
# 1 133.2016 26.4937 53.5339 0.0000 -0.3732 0.0000
# 2 26.4937 50.0832 25.4382 0.0000 -5.9322 0.0000
# 3 53.5339 25.4382 126.2058 0.0000 -4.4648 0.0000
# 4 0.0000 0.0000 0.0000 9.8602 0.0000 -5.9027
# 5 -0.3732 -5.9322 -4.4648 0.0000 37.4300 0.0000
# 6 0.0000 0.0000 0.0000 -5.9027 0.0000 6.6741
#
#
#
# Elastic Compliance Matrix: (Units=1/GPa)
#
#
# Indices 1 2 3 4 5 6 
#
# 1 0.009550 -0.003431 -0.003389 0.000000 -0.000853 0.000000
# 2 -0.003431 0.023818 -0.003227 0.000000 0.003356 0.000000
# 3 -0.003389 -0.003227 0.010035 0.000000 0.000652 0.000000
# 4 0.000000 0.000000 0.000000 0.215529 0.000000 0.190619
# 5 -0.000853 0.003356 0.000652 0.000000 0.027318 0.000000
# 6 0.000000 0.000000 0.000000 0.190619 0.000000 0.318420
#
#
# Mechanical properties :
#
#
# Convention : Reuss Voigt Hill
#
# Bulk Modulus (GPa) = 42.90347 57.82469 50.36408
# Shear Modulus (GPa) = 7.90473 24.39453 16.14963
#
# Velocity S-wave (km/s) = 1.98121 3.48044 2.83184
# Velocity P-wave (km/s) = 5.15150 6.69813 5.97507
#
# Compressibility (1/GPa) = 0.02330814
#
# Stress axis : x y z
#
# Youngs Moduli (GPa) = 104.71555 41.98460 99.65431
#
# Poissons Ratio (x) = 0.14406 0.33776
# Poissons Ratio (y) = 0.35930 0.32155
# Poissons Ratio (z) = 0.35492 0.13547
#
# Static dielectric constant tensor:
#      x y z
#    x 3.923270 0.000000 -0.017620 
#    y 0.000000 3.272310 0.000000 
#    z -0.017620 0.000000 3.810300 
# 
# 
# High freq. dielectric constant tensor:
#      x y z
#    x 1.804200 0.000000 -0.001240 
#    y 0.000000 1.748500 0.000000 
#    z -0.001240 0.000000 1.791150 
# 
# From -- ./inp_files/95046.got.cif
#   From: 2010.06.25/outbox.cif.g09.slc.cpg/sg10_48_cif.got.tgz:95046.got - 2010.06.27 22:07:45.
