data_PCOD8064411
_publ_section_title
;
Structure prediction by ZEFSAII (Michael W. Deem and Ramdas Pophale) SiO2 
 PCOD8064411
Probable space group: P 2/M
;
_chemical_formula_sum "Si O2"
_cell_formula_units_Z 28
_cell_length_a 13.851754
_cell_length_b 9.168849
_cell_length_c 18.839604
_cell_angle_alpha 90.000000
_cell_angle_beta 143.163158
_cell_angle_gamma 90.000000
_cell_volume 1434.525701
_symmetry_space_group_name_H-M "P 2/M"
_symmetry_group_IT_number 10
_symmetry_cell_setting 'monoclinic'
loop_
_space_group_symop_operation_xyz
x,y,z
-x,y,-z
-x,-y,-z
x,-y,z
loop_
_atom_site_type_symbol
_atom_site_label
_atom_site_fract_x
_atom_site_fract_y
_atom_site_fract_z
Si Si1 0.624744 0.672898 0.513364
Si Si2 0.175181 0.333654 0.081424
Si Si3 0.903316 0.329628 0.373998
Si Si4 0.574017 0.170072 0.193518
Si Si5 0.521928 0.169321 0.702811
Si Si6 0.019300 0.669885 0.289356
Si Si7 0.265334 0.332143 0.973170
O O1 0.500000 0.727482 0.500000
O O2 0.613047 0.500000 0.496204
O O3 0.587821 0.747197 0.417273
O O4 0.807800 0.722246 0.639934
O O5 0.204833 0.500000 0.123441
O O6 0.298173 0.231604 0.195948
O O7 0.191203 0.316927 0.007170
O O8 0.000000 0.278762 0.000000
O O9 0.861329 0.500000 0.356647
O O10 0.739689 0.241919 0.267275
O O11 0.011708 0.296249 0.368786
O O12 0.000000 0.273996 0.500000
O O13 0.551097 0.201261 0.263106
O O14 0.578183 0.000000 0.178620
O O15 0.429682 0.240965 0.063158
O O16 0.525540 0.000000 0.686194
O O17 0.004798 0.500000 0.265833
O O18 0.867460 0.739100 0.158101
O O19 0.305854 0.500000 0.978608
#
# Coordination Sequence:
#
# PCOD8064411 Si02
#       7
#     4   4   4   4   4   4   4
#     4  10  21  36  59  84 110 144 184 231 277 324
#     4   9  18  31  54  81 103 136 184 232 272 320
#     4  10  20  35  58  83 109 143 184 227 273 328
#     4  10  21  37  56  80 111 145 185 227 272 325
#     4  10  21  36  53  76 110 146 180 222 273 331
#     4   9  19  35  55  83 112 140 179 229 280 328
#     4   9  18  34  55  78 110 144 179 225 276 329
#
# _framework density 19.518644999999999
#
# number of rings (size 3 to 8) (size 9 to 14) (size 15 to 20)
#    0.000    2.429    0.000    1.714    2.000    4.286 
#    0.000    5.000    0.000    0.000    0.000    0.000 
#    0.000    0.000    0.000    0.000    0.000    0.000 
#
# Total GULP energy -347218.891390 kJ/mol
# GULP energy per Si atom -12400.674693 kJ/mol
# Density = 1.947422 g / cm^3
# Si number density = 19.518645 Si / 1000 Ang^3
#
#
#
# Elastic Constant Matrix: (Units=GPa)
#
#
# Indices 1 2 3 4 5 6 
#
# 1 70.1941 31.2388 55.0920 0.0000 22.1759 0.0000
# 2 31.2388 51.6502 40.0989 0.0000 6.3860 0.0000
# 3 55.0920 40.0989 154.9548 0.0000 10.8104 0.0000
# 4 0.0000 0.0000 0.0000 7.6003 0.0000 -4.9414
# 5 22.1759 6.3860 10.8104 0.0000 35.8234 0.0000
# 6 0.0000 0.0000 0.0000 -4.9414 0.0000 17.7071
#
#
#
# Elastic Compliance Matrix: (Units=1/GPa)
#
#
# Indices 1 2 3 4 5 6 
#
# 1 0.028213 -0.010419 -0.006380 0.000000 -0.013682 0.000000
# 2 -0.010419 0.028294 -0.003796 0.000000 0.002551 0.000000
# 3 -0.006380 -0.003796 0.009583 0.000000 0.001734 0.000000
# 4 0.000000 0.000000 0.000000 0.160737 0.000000 0.044856
# 5 -0.013682 0.002551 0.001734 0.000000 0.035406 0.000000
# 6 0.000000 0.000000 0.000000 0.044856 0.000000 0.068992
#
#
# Mechanical properties :
#
#
# Convention : Reuss Voigt Hill
#
# Bulk Modulus (GPa) = 40.15905 58.85094 49.50499
# Shear Modulus (GPa) = 13.13324 22.25079 17.69202
#
# Velocity S-wave (km/s) = 2.59676 3.38002 3.01394
# Velocity P-wave (km/s) = 5.44153 6.74161 6.12615
#
# Compressibility (1/GPa) = 0.02490099
#
# Stress axis : x y z
#
# Youngs Moduli (GPa) = 35.44506 35.34365 104.35111
#
# Poissons Ratio (x) = 0.36823 0.66576
# Poissons Ratio (y) = 0.36929 0.39607
# Poissons Ratio (z) = 0.22614 0.13415
#
# Static dielectric constant tensor:
#      x y z
#    x 3.528360 0.000000 0.077140 
#    y 0.000000 3.334130 0.000000 
#    z 0.077140 0.000000 3.763350 
# 
# 
# High freq. dielectric constant tensor:
#      x y z
#    x 1.758510 0.000000 0.006470 
#    y 0.000000 1.732940 0.000000 
#    z 0.006470 0.000000 1.773050 
# 
# From -- ./inp_files/63934.got.cif
#   From: 2010.06.25/outbox.cif.g09.slc.cpg/sg10_32_cif.got.tgz:63934.got - 2010.06.27 22:07:45.
