data_PCOD8064282
_publ_section_title
;
Structure prediction by ZEFSAII (Michael W. Deem and Ramdas Pophale) SiO2 
 PCOD8064282
Probable space group: P 2/M
;
_chemical_formula_sum "Si O2"
_cell_formula_units_Z 32
_cell_length_a 22.205186
_cell_length_b 8.446582
_cell_length_c 11.180814
_cell_angle_alpha 90.000000
_cell_angle_beta 130.474988
_cell_angle_gamma 90.000000
_cell_volume 1595.203918
_symmetry_space_group_name_H-M "P 2/M"
_symmetry_group_IT_number 10
_symmetry_cell_setting 'monoclinic'
loop_
_space_group_symop_operation_xyz
x,y,z
-x,y,-z
-x,-y,-z
x,-y,z
loop_
_atom_site_type_symbol
_atom_site_label
_atom_site_fract_x
_atom_site_fract_y
_atom_site_fract_z
Si Si1 0.361321 0.682556 0.305441
Si Si2 0.710322 0.816787 0.154612
Si Si3 0.212985 0.815970 0.996161
Si Si4 0.244266 0.681636 0.539396
Si Si5 0.096250 0.816743 0.222296
Si Si6 0.392155 0.816555 0.595473
Si Si7 0.560060 0.685957 0.842254
Si Si8 0.067053 0.314651 0.931063
O O1 0.370424 0.500000 0.354127
O O2 0.391396 0.789760 0.452464
O O3 0.415687 0.725349 0.262453
O O4 0.270002 0.718154 0.157910
O O5 0.766262 0.778488 0.114113
O O6 0.742811 0.713326 0.304583
O O7 0.712886 0.000000 0.193837
O O8 0.620217 0.769466 0.010505
O O9 0.123611 0.761038 0.903778
O O10 0.224352 0.000000 0.040032
O O11 0.220979 0.500000 0.490325
O O12 0.172961 0.789719 0.401304
O O13 0.322804 0.717813 0.566616
O O14 0.018757 0.764444 0.196010
O O15 0.089831 0.000000 0.179331
O O16 0.102334 0.717315 0.108074
O O17 0.474150 0.756795 0.757349
O O18 0.380633 0.000000 0.610222
O O19 0.561101 0.500000 0.868217
O O20 0.059581 0.500000 0.899422
#
# Coordination Sequence:
#
# PCOD8064282 Si02
#       8
#     4   4   4   4   4   4   4   4
#     4  10  20  35  56  84 118 151 186 232 285 339
#     4  10  22  41  62  84 112 148 191 237 283 333
#     4  10  20  36  59  86 116 151 190 231 279 335
#     4  12  25  42  61  82 112 149 191 236 285 337
#     4  11  22  39  61  87 120 153 187 229 282 336
#     4  12  24  37  56  83 114 149 191 236 285 340
#     4  10  21  38  59  84 114 149 189 234 285 337
#     4  11  21  36  60  91 123 152 187 228 276 334
#
# _framework density 20.060130999999998
#
# number of rings (size 3 to 8) (size 9 to 14) (size 15 to 20)
#    0.000    1.250    0.000    7.875    0.000    5.000 
#    0.000    3.125    0.000    3.750    0.000    0.000 
#    0.000    0.000    0.000    0.000    0.000    0.000 
#
# Total GULP energy -397047.359749 kJ/mol
# GULP energy per Si atom -12407.729992 kJ/mol
# Density = 2.001447 g / cm^3
# Si number density = 20.060131 Si / 1000 Ang^3
#
#
#
# Elastic Constant Matrix: (Units=GPa)
#
#
# Indices 1 2 3 4 5 6 
#
# 1 78.9064 22.1980 57.0913 0.0000 25.1132 0.0000
# 2 22.1980 73.6916 10.0472 0.0000 1.8388 0.0000
# 3 57.0913 10.0472 87.4775 0.0000 9.8874 0.0000
# 4 0.0000 0.0000 0.0000 35.1836 0.0000 2.2382
# 5 25.1132 1.8388 9.8874 0.0000 27.2799 0.0000
# 6 0.0000 0.0000 0.0000 2.2382 0.0000 32.4348
#
#
#
# Elastic Compliance Matrix: (Units=1/GPa)
#
#
# Indices 1 2 3 4 5 6 
#
# 1 0.039720 -0.008292 -0.021793 0.000000 -0.028107 0.000000
# 2 -0.008292 0.015521 0.003008 0.000000 0.005497 0.000000
# 3 -0.021793 0.003008 0.024050 0.000000 0.011143 0.000000
# 4 0.000000 0.000000 0.000000 0.028548 0.000000 -0.001970
# 5 -0.028107 0.005497 0.011143 0.000000 0.058122 0.000000
# 6 0.000000 0.000000 0.000000 -0.001970 0.000000 0.030967
#
#
# Mechanical properties :
#
#
# Convention : Reuss Voigt Hill
#
# Bulk Modulus (GPa) = 39.78545 46.52762 43.15653
# Shear Modulus (GPa) = 19.27071 29.02893 24.14982
#
# Velocity S-wave (km/s) = 3.10279 3.80820 3.47345
# Velocity P-wave (km/s) = 5.71949 6.52541 6.13570
#
# Compressibility (1/GPa) = 0.02513482
#
# Stress axis : x y z
#
# Youngs Moduli (GPa) = 25.17637 64.43048 41.58027
#
# Poissons Ratio (x) = 0.53426 0.90618
# Poissons Ratio (y) = 0.20876 -0.12506
# Poissons Ratio (z) = 0.54868 -0.19379
#
# Static dielectric constant tensor:
#      x y z
#    x 3.711600 0.000000 0.105860 
#    y 0.000000 3.701960 0.000000 
#    z 0.105860 0.000000 3.523040 
# 
# 
# High freq. dielectric constant tensor:
#      x y z
#    x 1.786030 0.000000 0.010320 
#    y 0.000000 1.798950 0.000000 
#    z 0.010320 0.000000 1.773200 
# 
# From -- ./inp_files/55317.got.cif
#   From: 2010.06.25/outbox.cif.g09.slc.cpg/sg10_28_cif.got.tgz:55317.got - 2010.06.27 22:07:45.
