data_PCOD8064399
_publ_section_title
;
Structure prediction by ZEFSAII (Michael W. Deem and Ramdas Pophale) SiO2 
 PCOD8064399
Probable space group: P 2/M
;
_chemical_formula_sum "Si O2"
_cell_formula_units_Z 28
_cell_length_a 14.147331
_cell_length_b 8.571756
_cell_length_c 12.924997
_cell_angle_alpha 90.000000
_cell_angle_beta 124.627852
_cell_angle_gamma 90.000000
_cell_volume 1289.736059
_symmetry_space_group_name_H-M "P 2/M"
_symmetry_group_IT_number 10
_symmetry_cell_setting 'monoclinic'
loop_
_space_group_symop_operation_xyz
x,y,z
-x,y,-z
-x,-y,-z
x,-y,z
loop_
_atom_site_type_symbol
_atom_site_label
_atom_site_fract_x
_atom_site_fract_y
_atom_site_fract_z
Si Si1 0.384446 0.318794 0.760277
Si Si2 0.263347 0.816116 0.490567
Si Si3 0.377740 0.815618 0.118251
Si Si4 0.016043 0.326906 0.321054
Si Si5 0.687850 0.823653 0.700559
Si Si6 0.085262 0.672403 0.138444
Si Si7 0.773688 0.818726 0.166677
O O1 0.376564 0.500000 0.728792
O O2 0.344678 0.221296 0.636102
O O3 0.514440 0.269212 0.867226
O O4 0.307729 0.282203 0.811168
O O5 0.137095 0.745233 0.433801
O O6 0.328167 0.749291 0.425513
O O7 0.247568 0.000000 0.466767
O O8 0.366531 0.746085 0.229536
O O9 0.399234 0.000000 0.136524
O O10 0.265064 0.781736 0.976470
O O11 0.004224 0.500000 0.363618
O O12 0.012968 0.339960 0.196964
O O13 0.904729 0.223384 0.278292
O O14 0.823761 0.810762 0.800356
O O15 0.644979 0.000000 0.670974
O O16 0.138868 0.500000 0.146893
O O17 0.000000 0.731664 0.000000
O O18 0.755648 0.000000 0.180533
#
# Coordination Sequence:
#
# PCOD8064399 Si02
#       7
#     4   4   4   4   4   4   4
#     4  12  26  42  61  85 116 155 200 249 297 346
#     4  10  21  40  63  88 120 157 198 239 288 349
#     4  10  22  41  63  89 120 154 195 242 293 348
#     4  10  20  35  57  87 122 155 192 240 291 345
#     4   9  19  35  58  86 115 150 191 237 285 340
#     4   9  17  29  48  78 117 156 189 228 283 343
#     4  11  23  40  63  89 118 155 198 242 292 350
#
# _framework density 21.709869000000001
#
# number of rings (size 3 to 8) (size 9 to 14) (size 15 to 20)
#    0.000    1.857    0.000    3.857    0.000    6.000 
#    0.000    5.714    0.000    0.000    0.000    0.000 
#    0.000    0.000    0.000    0.000    0.000    0.000 
#
# Total GULP energy -346907.749796 kJ/mol
# GULP energy per Si atom -12389.562493 kJ/mol
# Density = 2.166046 g / cm^3
# Si number density = 21.709869 Si / 1000 Ang^3
#
#
#
# Elastic Constant Matrix: (Units=GPa)
#
#
# Indices 1 2 3 4 5 6 
#
# 1 76.4936 12.7805 -0.4943 0.0000 -14.1072 0.0000
# 2 12.7805 56.8069 17.4784 0.0000 1.3939 0.0000
# 3 -0.4943 17.4784 72.0752 0.0000 -12.3290 0.0000
# 4 0.0000 0.0000 0.0000 19.4116 0.0000 2.3280
# 5 -14.1072 1.3939 -12.3290 0.0000 25.6651 0.0000
# 6 0.0000 0.0000 0.0000 2.3280 0.0000 28.3645
#
#
#
# Elastic Compliance Matrix: (Units=1/GPa)
#
#
# Indices 1 2 3 4 5 6 
#
# 1 0.015805 -0.004746 0.003039 0.000000 0.010405 0.000000
# 2 -0.004746 0.020748 -0.006214 0.000000 -0.006721 0.000000
# 3 0.003039 -0.006214 0.017155 0.000000 0.010249 0.000000
# 4 0.000000 0.000000 0.000000 0.052028 0.000000 -0.004270
# 5 0.010405 -0.006721 0.010249 0.000000 0.049971 0.000000
# 6 0.000000 0.000000 0.000000 -0.004270 0.000000 0.035606
#
#
# Mechanical properties :
#
#
# Convention : Reuss Voigt Hill
#
# Bulk Modulus (GPa) = 26.40846 29.43389 27.92118
# Shear Modulus (GPa) = 22.75050 26.39566 24.57308
#
# Velocity S-wave (km/s) = 3.24069 3.49067 3.36800
# Velocity P-wave (km/s) = 5.11795 5.46202 5.29278
#
# Compressibility (1/GPa) = 0.03786665
#
# Stress axis : x y z
#
# Youngs Moduli (GPa) = 63.27304 48.19747 58.29129
#
# Poissons Ratio (x) = 0.22875 -0.17716
# Poissons Ratio (y) = 0.30030 0.36220
# Poissons Ratio (z) = -0.19230 0.29948
#
# Static dielectric constant tensor:
#      x y z
#    x 3.873120 0.000000 -0.136460 
#    y 0.000000 3.813180 0.000000 
#    z -0.136460 0.000000 3.657790 
# 
# 
# High freq. dielectric constant tensor:
#      x y z
#    x 1.847340 0.000000 -0.007680 
#    y 0.000000 1.839610 0.000000 
#    z -0.007680 0.000000 1.860330 
# 
# From -- ./inp_files/50106.got.cif
#   From: 2010.06.25/outbox.cif.g09.slc.cpg/sg10_26_cif.got.tgz:50106.got - 2010.06.27 22:07:45.
