data_PCOD8064580
_publ_section_title
;
Structure prediction by ZEFSAII (Michael W. Deem and Ramdas Pophale) SiO2 
 PCOD8064580
Probable space group: P 2/M
;
_chemical_formula_sum "Si O2"
_cell_formula_units_Z 24
_cell_length_a 22.211396
_cell_length_b 7.781477
_cell_length_c 9.293554
_cell_angle_alpha 90.000000
_cell_angle_beta 51.125204
_cell_angle_gamma 90.000000
_cell_volume 1250.515585
_symmetry_space_group_name_H-M "P 2/M"
_symmetry_group_IT_number 10
_symmetry_cell_setting 'monoclinic'
loop_
_space_group_symop_operation_xyz
x,y,z
-x,y,-z
-x,-y,-z
x,-y,z
loop_
_atom_site_type_symbol
_atom_site_label
_atom_site_fract_x
_atom_site_fract_y
_atom_site_fract_z
Si Si1 0.312677 0.190820 0.360869
Si Si2 0.853241 0.296079 0.057011
Si Si3 1.000000 0.704818 0.337948
Si Si4 0.687323 0.809180 0.298899
Si Si5 0.146758 0.703921 0.616735
Si Si6 0.418935 0.500000 0.543380
Si Si7 0.418935 0.500000 0.199815
O O1 0.307587 0.211292 0.538620
O O2 0.226434 0.223476 0.429805
O O3 0.373054 0.331632 0.212722
O O4 0.340790 0.000000 0.272910
O O5 0.848915 0.500000 0.059475
O O6 0.773566 0.223476 0.109107
O O7 0.865763 0.231152 0.201355
O O8 0.923872 0.224554 0.856243
O O9 1.000000 0.500000 0.334783
O O10 0.000000 0.775774 0.500000
O O11 0.923872 0.775446 0.372140
O O12 0.626946 0.668368 0.331885
O O13 0.659210 0.000000 0.295279
O O14 0.151084 0.500000 0.606222
O O15 0.500000 0.500000 0.500000
O O16 0.430283 0.500000 0.354575
O O17 0.500000 0.500000 0.000000
#
# Coordination Sequence:
#
# PCOD8064580 Si02
#       7
#     4   4   4   4   4   2   2
#     4   9  17  31  53  78 102 130 167 210 251 292
#     4   9  15  27  48  71  94 126 170 212 245 284
#     4   9  17  27  42  69 102 135 167 202 249 297
#     4   9  17  31  53  78 102 130 167 210 251 292
#     4   9  15  27  48  71  94 126 170 212 245 284
#     4  10  20  36  56  79 104 131 163 202 251 304
#     4  10  20  36  56  79 104 131 163 202 251 304
#
# _framework density 19.192083
#
# number of rings (size 3 to 8) (size 9 to 14) (size 15 to 20)
#    0.000    2.833    1.667    0.500    0.000    2.667 
#    0.000    2.500    0.000    8.000    0.000    0.000 
#    0.000    0.000    0.000    0.000    0.000    0.000 
#
# Total GULP energy -297523.831269 kJ/mol
# GULP energy per Si atom -12396.826303 kJ/mol
# Density = 1.914840 g / cm^3
# Si number density = 19.192083 Si / 1000 Ang^3
#
#
#
# Elastic Constant Matrix: (Units=GPa)
#
#
# Indices 1 2 3 4 5 6 
#
# 1 132.9395 54.7382 61.9190 0.0000 -32.3517 0.0000
# 2 54.7382 103.4324 46.0847 0.0000 -24.5507 0.0000
# 3 61.9190 46.0847 110.8717 0.0000 -30.2575 0.0000
# 4 0.0000 0.0000 0.0000 6.7856 0.0000 -1.0319
# 5 -32.3517 -24.5507 -30.2575 0.0000 35.7502 0.0000
# 6 0.0000 0.0000 0.0000 -1.0319 0.0000 7.1492
#
#
#
# Elastic Compliance Matrix: (Units=1/GPa)
#
#
# Indices 1 2 3 4 5 6 
#
# 1 0.011990 -0.003378 -0.003855 0.000000 0.005269 0.000000
# 2 -0.003378 0.013600 -0.002668 0.000000 0.004025 0.000000
# 3 -0.003855 -0.002668 0.014082 0.000000 0.006598 0.000000
# 4 0.000000 0.000000 0.000000 0.150679 0.000000 0.021748
# 5 0.005269 0.004025 0.006598 0.000000 0.041088 0.000000
# 6 0.000000 0.000000 0.000000 0.021748 0.000000 0.143015
#
#
# Mechanical properties :
#
#
# Convention : Reuss Voigt Hill
#
# Bulk Modulus (GPa) = 50.32408 74.74751 62.53580
# Shear Modulus (GPa) = 12.47263 22.23711 17.35487
#
# Velocity S-wave (km/s) = 2.55205 3.40760 3.01037
# Velocity P-wave (km/s) = 5.91288 7.38336 6.68865
#
# Compressibility (1/GPa) = 0.01987120
#
# Stress axis : x y z
#
# Youngs Moduli (GPa) = 83.39962 73.53092 71.01403
#
# Poissons Ratio (x) = 0.24835 0.27373
# Poissons Ratio (y) = 0.28168 0.18948
# Poissons Ratio (z) = 0.32147 0.19620
#
# Static dielectric constant tensor:
#      x y z
#    x 3.426480 0.000000 -0.211080 
#    y 0.000000 3.479890 0.000000 
#    z -0.211080 0.000000 3.352080 
# 
# 
# High freq. dielectric constant tensor:
#      x y z
#    x 1.729090 0.000000 -0.027300 
#    y 0.000000 1.741320 0.000000 
#    z -0.027300 0.000000 1.719470 
# 
# From -- ./inp_files/33848.got.cif
#   From: 2010.06.25/outbox.cif.g09.slc.cpg/sg10_17_cif.got.tgz:33848.got - 2010.06.27 22:07:45.
