data_PCOD8064033
_publ_section_title
;
Structure prediction by ZEFSAII (Michael W. Deem and Ramdas Pophale) SiO2 
 PCOD8064033
Probable space group: P 2/M
;
_chemical_formula_sum "Si O2"
_cell_formula_units_Z 28
_cell_length_a 9.858073
_cell_length_b 8.967521
_cell_length_c 32.425754
_cell_angle_alpha 90.000000
_cell_angle_beta 148.235908
_cell_angle_gamma 90.000000
_cell_volume 1509.000611
_symmetry_space_group_name_H-M "P 2/M"
_symmetry_group_IT_number 10
_symmetry_cell_setting 'monoclinic'
loop_
_space_group_symop_operation_xyz
x,y,z
-x,y,-z
-x,-y,-z
x,-y,z
loop_
_atom_site_type_symbol
_atom_site_label
_atom_site_fract_x
_atom_site_fract_y
_atom_site_fract_z
Si Si1 0.853736 0.823615 0.771705
Si Si2 0.093582 0.323740 0.979885
Si Si3 0.333086 0.323410 0.195356
Si Si4 0.099563 0.322597 0.679173
Si Si5 0.299778 0.661889 0.484842
Si Si6 0.723794 0.678712 0.652934
Si Si7 0.437212 0.175396 0.937966
O O1 0.150366 0.774815 0.852328
O O2 0.693212 0.757777 0.768015
O O3 0.738999 0.756117 0.700679
O O4 0.823318 0.000000 0.763757
O O5 0.120972 0.500000 0.986303
O O6 0.892065 0.268400 0.893300
O O7 0.372576 0.254090 0.044708
O O8 0.000000 0.266638 0.000000
O O9 0.322875 0.500000 0.199568
O O10 0.603582 0.273006 0.244886
O O11 0.071058 0.500000 0.668984
O O12 0.948902 0.254201 0.599673
O O13 0.967005 0.269255 0.687582
O O14 0.500000 0.638761 0.500000
O O15 0.209533 0.500000 0.477875
O O16 0.455597 0.739447 0.562797
O O17 0.720709 0.500000 0.656815
O O18 0.478201 0.000000 0.945267
O O19 0.500000 0.233239 0.000000
#
# Coordination Sequence:
#
# PCOD8064033 Si02
#       7
#     4   4   4   4   4   4   4
#     4  11  23  37  52  73 104 139 176 216 252 297
#     4  10  22  36  54  82 110 131 162 212 264 309
#     4  10  20  35  53  76 105 138 170 206 258 309
#     4   8  15  29  53  81 107 132 166 213 257 303
#     4   7  11  24  48  79 106 129 163 207 253 301
#     4   9  17  31  56  83 104 131 169 213 259 305
#     4  10  21  39  57  72  97 139 182 211 246 299
#
# _framework density 18.555326999999998
#
# number of rings (size 3 to 8) (size 9 to 14) (size 15 to 20)
#    0.000    2.714    1.429    2.143    2.000    1.714 
#    0.000    1.429    0.000    9.000    0.000    0.000 
#    0.000    0.000    0.000    0.000    0.000    0.000 
#
# Total GULP energy -347008.929067 kJ/mol
# GULP energy per Si atom -12393.176038 kJ/mol
# Density = 1.851309 g / cm^3
# Si number density = 18.555327 Si / 1000 Ang^3
#
#
#
# Elastic Constant Matrix: (Units=GPa)
#
#
# Indices 1 2 3 4 5 6 
#
# 1 90.8134 18.8408 19.5666 0.0000 -14.7353 0.0000
# 2 18.8408 22.3066 14.7331 0.0000 -4.6995 0.0000
# 3 19.5666 14.7331 75.0674 0.0000 -19.7462 0.0000
# 4 0.0000 0.0000 0.0000 11.8631 0.0000 4.9045
# 5 -14.7353 -4.6995 -19.7462 0.0000 35.4675 0.0000
# 6 0.0000 0.0000 0.0000 4.9045 0.0000 4.1799
#
#
#
# Elastic Compliance Matrix: (Units=1/GPa)
#
#
# Indices 1 2 3 4 5 6 
#
# 1 0.013991 -0.010634 -0.000470 0.000000 0.004142 0.000000
# 2 -0.010634 0.059649 -0.009394 0.000000 -0.001745 0.000000
# 3 -0.000470 -0.009394 0.017467 0.000000 0.008284 0.000000
# 4 0.000000 0.000000 0.000000 0.163710 0.000000 -0.192090
# 5 0.004142 -0.001745 0.008284 0.000000 0.034297 0.000000
# 6 0.000000 0.000000 0.000000 -0.192090 0.000000 0.464632
#
#
# Mechanical properties :
#
#
# Convention : Reuss Voigt Hill
#
# Bulk Modulus (GPa) = 19.95613 32.71873 26.33743
# Shear Modulus (GPa) = 6.16184 19.30524 12.73354
#
# Velocity S-wave (km/s) = 1.82428 3.22905 2.62247
# Velocity P-wave (km/s) = 3.90072 5.61904 4.83680
#
# Compressibility (1/GPa) = 0.05010993
#
# Stress axis : x y z
#
# Youngs Moduli (GPa) = 71.47342 16.76478 57.25133
#
# Poissons Ratio (x) = 0.17828 0.02692
# Poissons Ratio (y) = 0.76006 0.53782
# Poissons Ratio (z) = 0.03361 0.15749
#
# Static dielectric constant tensor:
#      x y z
#    x 3.316560 0.000000 0.019910 
#    y 0.000000 2.969330 0.000000 
#    z 0.019910 0.000000 3.839900 
# 
# 
# High freq. dielectric constant tensor:
#      x y z
#    x 1.710220 0.000000 -0.003040 
#    y 0.000000 1.676080 0.000000 
#    z -0.003040 0.000000 1.737650 
# 
# From -- ./inp_files/94537.got.cif
#   From: 2010.06.25/outbox.cif.g09.slc.cpg/sg10_48_cif.got.tgz:94537.got - 2010.06.27 22:07:45.
