data_PCOD8064751
_publ_section_title
;
Structure prediction by ZEFSAII (Michael W. Deem and Ramdas Pophale) SiO2 
 PCOD8064751
Probable space group: P 2/M
;
_chemical_formula_sum "Si O2"
_cell_formula_units_Z 28
_cell_length_a 21.484394
_cell_length_b 8.688211
_cell_length_c 14.463704
_cell_angle_alpha 90.000000
_cell_angle_beta 149.417258
_cell_angle_gamma 90.000000
_cell_volume 1373.614422
_symmetry_space_group_name_H-M "P 2/M"
_symmetry_group_IT_number 10
_symmetry_cell_setting 'monoclinic'
loop_
_space_group_symop_operation_xyz
x,y,z
-x,y,-z
-x,-y,-z
x,-y,z
loop_
_atom_site_type_symbol
_atom_site_label
_atom_site_fract_x
_atom_site_fract_y
_atom_site_fract_z
Si Si1 0.952379 0.821202 0.837122
Si Si2 0.165013 0.319991 0.003198
Si Si3 0.146344 0.318000 0.601963
Si Si4 0.326254 0.818703 0.528298
Si Si5 0.614935 0.681369 0.586997
Si Si6 0.615473 0.681723 0.206276
Si Si7 0.886243 0.818934 0.247315
O O1 0.813962 0.762023 0.652123
O O2 0.029589 0.719127 0.865099
O O3 0.966294 0.000000 0.828090
O O4 0.000000 0.788506 0.000000
O O5 0.177398 0.500000 0.999146
O O6 0.191081 0.229496 0.941458
O O7 0.262751 0.263385 0.203987
O O8 0.124093 0.500000 0.569132
O O9 0.260200 0.265401 0.685113
O O10 0.172741 0.268375 0.740999
O O11 0.026844 0.231059 0.411900
O O12 0.394957 0.758812 0.525436
O O13 0.394234 0.754786 0.705019
O O14 0.332967 0.000000 0.537148
O O15 0.500000 0.736465 0.500000
O O16 0.614713 0.500000 0.572094
O O17 0.610699 0.500000 0.210940
O O18 0.500000 0.741963 0.000000
O O19 0.879053 0.000000 0.255050
#
# Coordination Sequence:
#
# PCOD8064751 Si02
#       7
#     4   4   4   4   4   4   4
#     4  10  20  36  58  86 122 155 186 234 297 353
#     4  11  22  36  58  87 116 152 199 242 283 343
#     4  10  20  38  62  87 115 149 196 245 288 345
#     4  11  23  39  62  90 120 154 192 242 296 348
#     4  10  23  42  61  82 114 156 198 240 286 341
#     4  10  23  42  63  86 116 156 198 243 293 345
#     4  11  22  36  58  86 121 156 187 236 300 354
#
# _framework density 20.384177999999999
#
# number of rings (size 3 to 8) (size 9 to 14) (size 15 to 20)
#    0.000    1.571    1.429    4.286    0.000    7.143 
#    0.000    5.714    0.000    0.000    0.000    0.000 
#    0.000    0.000    0.000    0.000    0.000    0.000 
#
# Total GULP energy -347358.739388 kJ/mol
# GULP energy per Si atom -12405.669264 kJ/mol
# Density = 2.033778 g / cm^3
# Si number density = 20.384178 Si / 1000 Ang^3
#
#
#
# Elastic Constant Matrix: (Units=GPa)
#
#
# Indices 1 2 3 4 5 6 
#
# 1 130.3820 21.5972 62.6099 0.0000 -16.2870 0.0000
# 2 21.5972 42.7720 25.4600 0.0000 -7.6238 0.0000
# 3 62.6099 25.4600 100.1298 0.0000 -17.1201 0.0000
# 4 0.0000 0.0000 0.0000 24.7800 0.0000 -6.2845
# 5 -16.2870 -7.6238 -17.1201 0.0000 33.8134 0.0000
# 6 0.0000 0.0000 0.0000 -6.2845 0.0000 21.8057
#
#
#
# Elastic Compliance Matrix: (Units=1/GPa)
#
#
# Indices 1 2 3 4 5 6 
#
# 1 0.011173 -0.001581 -0.006268 0.000000 0.001852 0.000000
# 2 -0.001581 0.028039 -0.005682 0.000000 0.002683 0.000000
# 3 -0.006268 -0.005682 0.016001 0.000000 0.003801 0.000000
# 4 0.000000 0.000000 0.000000 0.043537 0.000000 0.012548
# 5 0.001852 0.002683 0.003801 0.000000 0.032996 0.000000
# 6 0.000000 0.000000 0.000000 0.012548 0.000000 0.049476
#
#
# Mechanical properties :
#
#
# Convention : Reuss Voigt Hill
#
# Bulk Modulus (GPa) = 35.52249 54.73535 45.12892
# Shear Modulus (GPa) = 22.97102 26.98760 24.97931
#
# Velocity S-wave (km/s) = 3.36058 3.64256 3.50441
# Velocity P-wave (km/s) = 5.70284 6.67841 6.20981
#
# Compressibility (1/GPa) = 0.02815118
#
# Stress axis : x y z
#
# Youngs Moduli (GPa) = 89.50440 35.66520 62.49670
#
# Poissons Ratio (x) = 0.05637 0.39170
# Poissons Ratio (y) = 0.14147 0.35512
# Poissons Ratio (z) = 0.56098 0.20266
#
# Static dielectric constant tensor:
#      x y z
#    x 3.809150 0.000000 -0.058240 
#    y 0.000000 3.542910 0.000000 
#    z -0.058240 0.000000 3.799610 
# 
# 
# High freq. dielectric constant tensor:
#      x y z
#    x 1.807010 0.000000 -0.012220 
#    y 0.000000 1.792930 0.000000 
#    z -0.012220 0.000000 1.793550 
# 
# From -- ./inp_files/70267.got.cif
#   From: 2010.06.25/outbox.cif.g09.slc.cpg/sg10_36_cif.got.tgz:70267.got - 2010.06.27 22:07:45.
