data_PCOD8064677
_publ_section_title
;
Structure prediction by ZEFSAII (Michael W. Deem and Ramdas Pophale) SiO2 
 PCOD8064677
Probable space group: P 2/M
;
_chemical_formula_sum "Si O2"
_cell_formula_units_Z 28
_cell_length_a 9.515044
_cell_length_b 9.119630
_cell_length_c 25.700737
_cell_angle_alpha 90.000000
_cell_angle_beta 137.300298
_cell_angle_gamma 90.000000
_cell_volume 1512.387599
_symmetry_space_group_name_H-M "P 2/M"
_symmetry_group_IT_number 10
_symmetry_cell_setting 'monoclinic'
loop_
_space_group_symop_operation_xyz
x,y,z
-x,y,-z
-x,-y,-z
x,-y,z
loop_
_atom_site_type_symbol
_atom_site_label
_atom_site_fract_x
_atom_site_fract_y
_atom_site_fract_z
Si Si1 0.667520 0.332144 0.502750
Si Si2 0.139983 0.669376 0.643214
Si Si3 0.824674 0.671938 0.094651
Si Si4 0.246540 0.834898 0.215073
Si Si5 0.542544 0.169009 0.200979
Si Si6 0.638455 0.827323 0.387164
Si Si7 0.530439 0.673095 0.924544
O O1 0.500000 0.282293 0.500000
O O2 0.626836 0.500000 0.474344
O O3 0.648062 0.226370 0.448448
O O4 0.896538 0.315341 0.588977
O O5 0.207929 0.500000 0.658278
O O6 0.257488 0.745595 0.723061
O O7 0.191260 0.745962 0.602064
O O8 0.841959 0.500000 0.099444
O O9 0.675655 0.721241 0.100857
O O10 0.049939 0.733072 0.166180
O O11 0.729181 0.720740 0.013152
O O12 0.351624 0.814100 0.187963
O O13 0.409754 0.790368 0.303896
O O14 0.169897 0.000000 0.202190
O O15 0.461014 0.236891 0.125752
O O16 0.606134 0.000000 0.210908
O O17 0.685314 0.000000 0.396442
O O18 0.532175 0.500000 0.913295
#
# Coordination Sequence:
#
# PCOD8064677 Si02
#       7
#     4   4   4   4   4   4   4
#     4  10  22  38  55  79 109 139 175 218 262 309
#     4  10  20  36  58  80 104 138 177 216 260 310
#     4   9  19  35  55  77 103 138 178 217 258 309
#     4   9  20  36  52  76 108 137 171 215 261 310
#     4  10  21  36  54  79 108 138 174 216 262 311
#     4  10  21  37  56  79 108 141 175 214 262 313
#     4   9  19  36  54  76 106 138 175 217 261 310
#
# _framework density 18.513771999999999
#
# number of rings (size 3 to 8) (size 9 to 14) (size 15 to 20)
#    0.000    2.429    0.000    3.429    0.000    9.429 
#    0.000    8.571    0.000    0.000    0.000    0.000 
#    0.000    0.000    0.000    0.000    0.000    0.000 
#
# Total GULP energy -347238.800699 kJ/mol
# GULP energy per Si atom -12401.385739 kJ/mol
# Density = 1.847163 g / cm^3
# Si number density = 18.513772 Si / 1000 Ang^3
#
#
#
# Elastic Constant Matrix: (Units=GPa)
#
#
# Indices 1 2 3 4 5 6 
#
# 1 28.7562 8.6674 8.5446 0.0000 11.8554 0.0000
# 2 8.6674 57.4403 14.9501 0.0000 0.9326 0.0000
# 3 8.5446 14.9501 47.9653 0.0000 11.8094 0.0000
# 4 0.0000 0.0000 0.0000 30.0261 0.0000 -9.2549
# 5 11.8554 0.9326 11.8094 0.0000 29.4017 0.0000
# 6 0.0000 0.0000 0.0000 -9.2549 0.0000 -10.3829
#
#
#
# Elastic Compliance Matrix: (Units=1/GPa)
#
#
# Indices 1 2 3 4 5 6 
#
# 1 0.044039 -0.005886 -0.001870 0.000000 -0.016820 0.000000
# 2 -0.005886 0.019836 -0.006174 0.000000 0.004224 0.000000
# 3 -0.001870 -0.006174 0.025382 0.000000 -0.009245 0.000000
# 4 0.000000 0.000000 0.000000 0.026126 0.000000 -0.023288
# 5 -0.016820 0.004224 -0.009245 0.000000 0.044373 0.000000
# 6 0.000000 0.000000 0.000000 -0.023288 0.000000 -0.075554
#
#
# Mechanical properties :
#
#
# Convention : Reuss Voigt Hill
#
# Bulk Modulus (GPa) = 16.28700 22.05400 19.17050
# Shear Modulus (GPa) = 37.72833 16.60896 27.16865
#
# Velocity S-wave (km/s) = 4.51916 2.99844 3.83493
# Velocity P-wave (km/s) = 6.00389 4.89138 5.47596
#
# Compressibility (1/GPa) = 0.06139866
#
# Stress axis : x y z
#
# Youngs Moduli (GPa) = 22.70716 50.41390 39.39798
#
# Poissons Ratio (x) = 0.29671 0.07366
# Poissons Ratio (y) = 0.13364 0.24324
# Poissons Ratio (z) = 0.04245 0.31126
#
# Static dielectric constant tensor:
#      x y z
#    x 3.458780 0.000000 0.223260 
#    y 0.000000 3.412030 0.000000 
#    z 0.223260 0.000000 3.766940 
# 
# 
# High freq. dielectric constant tensor:
#      x y z
#    x 1.711900 0.000000 0.000250 
#    y 0.000000 1.722360 0.000000 
#    z 0.000250 0.000000 1.725950 
# 
# From -- ./inp_files/36890.got.cif
#   From: 2010.06.25/outbox.cif.g09.slc.cpg/sg10_19_cif.got.tgz:36890.got - 2010.06.27 22:07:45.
