data_PCOD8064395
_publ_section_title
;
Structure prediction by ZEFSAII (Michael W. Deem and Ramdas Pophale) SiO2 
 PCOD8064395
Probable space group: P 2/M
;
_chemical_formula_sum "Si O2"
_cell_formula_units_Z 18
_cell_length_a 10.897851
_cell_length_b 9.500467
_cell_length_c 17.257355
_cell_angle_alpha 90.000000
_cell_angle_beta 151.712827
_cell_angle_gamma 90.000000
_cell_volume 846.717602
_symmetry_space_group_name_H-M "P 2/M"
_symmetry_group_IT_number 10
_symmetry_cell_setting 'monoclinic'
loop_
_space_group_symop_operation_xyz
x,y,z
-x,y,-z
-x,-y,-z
x,-y,z
loop_
_atom_site_type_symbol
_atom_site_label
_atom_site_fract_x
_atom_site_fract_y
_atom_site_fract_z
Si Si1 0.000000 0.737945 0.000000
Si Si2 0.666088 0.163629 0.241205
Si Si3 0.146685 0.163541 0.396697
Si Si4 0.568291 0.658144 0.330387
Si Si5 0.894350 0.159244 0.104824
O O1 0.739976 0.645482 0.855987
O O2 0.988518 0.832207 0.916209
O O3 0.890526 0.186335 0.305003
O O4 0.717776 0.253982 0.347203
O O5 0.641197 0.000000 0.252956
O O6 0.397197 0.220846 0.054635
O O7 0.081662 0.225821 0.274659
O O8 0.376342 0.259938 0.558361
O O9 0.236678 0.000000 0.446314
O O10 0.680150 0.500000 0.395609
O O11 0.871730 0.000000 0.119687
#
# Coordination Sequence:
#
# PCOD8064395 Si02
#       5
#     2   4   4   4   4
#     4  10  22  40  56  74 105 148 191 228 271 320
#     4   9  18  35  59  85 113 144 177 217 270 328
#     4  10  20  35  57  87 116 140 174 223 276 325
#     4  11  23  38  56  78 109 148 187 227 270 320
#     4   9  18  34  59  86 111 142 180 223 268 322
#
# _framework density 21.258562000000001
#
# number of rings (size 3 to 8) (size 9 to 14) (size 15 to 20)
#    0.000    2.222    0.000    2.667    0.000    9.778 
#    0.000    8.889    0.000    6.667    0.000    0.000 
#    0.000    0.000    0.000    0.000    0.000    0.000 
#
# Total GULP energy -223106.027209 kJ/mol
# GULP energy per Si atom -12394.779289 kJ/mol
# Density = 2.121018 g / cm^3
# Si number density = 21.258562 Si / 1000 Ang^3
#
#
#
# Elastic Constant Matrix: (Units=GPa)
#
#
# Indices 1 2 3 4 5 6 
#
# 1 92.7067 25.8190 48.4969 0.0000 -18.6793 0.0000
# 2 25.8190 94.2136 47.9085 0.0000 -15.6982 0.0000
# 3 48.4969 47.9085 113.0340 0.0000 -37.2735 0.0000
# 4 0.0000 0.0000 0.0000 18.1872 0.0000 4.4013
# 5 -18.6793 -15.6982 -37.2735 0.0000 41.2550 0.0000
# 6 0.0000 0.0000 0.0000 4.4013 0.0000 1.2578
#
#
#
# Elastic Compliance Matrix: (Units=1/GPa)
#
#
# Indices 1 2 3 4 5 6 
#
# 1 0.014030 -0.001001 -0.005165 0.000000 0.001305 0.000000
# 2 -0.001001 0.013602 -0.005382 0.000000 -0.000140 0.000000
# 3 -0.005165 -0.005382 0.016946 0.000000 0.010924 0.000000
# 4 0.000000 0.000000 0.000000 0.358885 0.000000 -1.255799
# 5 0.001305 -0.000140 0.010924 0.000000 0.034647 0.000000
# 6 0.000000 0.000000 0.000000 -1.255799 0.000000 5.189288
#
#
# Mechanical properties :
#
#
# Convention : Reuss Voigt Hill
#
# Bulk Modulus (GPa) = 46.54824 60.48924 53.51874
# Shear Modulus (GPa) = 0.88376 23.98867 12.43621
#
# Velocity S-wave (km/s) = 0.64546 3.36285 2.42130
# Velocity P-wave (km/s) = 4.74334 6.60259 5.74863
#
# Compressibility (1/GPa) = 0.02148309
#
# Stress axis : x y z
#
# Youngs Moduli (GPa) = 71.27372 73.51948 59.01018
#
# Poissons Ratio (x) = 0.07360 0.30479
# Poissons Ratio (y) = 0.07135 0.31757
# Poissons Ratio (z) = 0.36813 0.39565
#
# Static dielectric constant tensor:
#      x y z
#    x 3.753140 0.000000 -0.241170 
#    y 0.000000 3.402840 0.000000 
#    z -0.241170 0.000000 4.202180 
# 
# 
# High freq. dielectric constant tensor:
#      x y z
#    x 1.828100 0.000000 -0.006290 
#    y 0.000000 1.788310 0.000000 
#    z -0.006290 0.000000 1.852560 
# 
# From -- ./inp_files/22469.got.cif
#   From: 2010.06.25/outbox.cif.g09.slc.cpg/sg10_12_cif.got.tgz:22469.got - 2010.06.27 22:07:45.
