data_PCOD8064429
_publ_section_title
;
Structure prediction by ZEFSAII (Michael W. Deem and Ramdas Pophale) SiO2 
 PCOD8064429
Probable space group: P 2/M
;
_chemical_formula_sum "Si O2"
_cell_formula_units_Z 32
_cell_length_a 20.168809
_cell_length_b 9.090934
_cell_length_c 26.708204
_cell_angle_alpha 90.000000
_cell_angle_beta 160.897052
_cell_angle_gamma 90.000000
_cell_volume 1602.636461
_symmetry_space_group_name_H-M "P 2/M"
_symmetry_group_IT_number 10
_symmetry_cell_setting 'monoclinic'
loop_
_space_group_symop_operation_xyz
x,y,z
-x,y,-z
-x,-y,-z
x,-y,z
loop_
_atom_site_type_symbol
_atom_site_label
_atom_site_fract_x
_atom_site_fract_y
_atom_site_fract_z
Si Si1 0.932242 0.328543 0.345509
Si Si2 0.535133 0.171484 0.632090
Si Si3 0.199724 0.828039 0.849385
Si Si4 0.066755 0.828318 0.145147
Si Si5 0.372347 0.668219 0.697739
Si Si6 0.632975 0.171725 0.203145
Si Si7 0.313613 0.670520 0.164050
Si Si8 0.108766 0.825554 0.286713
O O1 0.881758 0.500000 0.307631
O O2 0.169754 0.297559 0.521839
O O3 0.857264 0.256887 0.241059
O O4 0.818929 0.258657 0.311932
O O5 0.711808 0.202770 0.718626
O O6 0.563622 0.259249 0.703207
O O7 0.328183 0.231466 0.460214
O O8 0.520714 0.000000 0.635231
O O9 0.061300 0.768988 0.796101
O O10 0.161560 0.000000 0.812851
O O11 0.432062 0.795221 0.027911
O O12 0.059083 0.764246 0.196045
O O13 0.012656 0.000000 0.104666
O O14 0.905819 0.744088 0.996256
O O15 0.368825 0.500000 0.714464
O O16 0.396664 0.777027 0.761368
O O17 0.563134 0.699014 0.798675
O O18 0.684085 0.000000 0.239600
O O19 0.284320 0.500000 0.154387
O O20 0.110740 0.000000 0.285076
#
# Coordination Sequence:
#
# PCOD8064429 Si02
#       8
#     4   4   4   4   4   4   4   4
#     4  11  23  39  59  82 111 148 187 227 273 327
#     4  10  20  35  58  85 111 144 187 231 275 327
#     4  10  21  37  57  83 114 145 182 229 277 328
#     4  10  20  36  58  84 113 145 185 231 277 328
#     4  10  23  41  58  80 111 147 188 231 274 325
#     4  11  23  38  59  87 115 144 181 227 278 330
#     4  11  23  38  56  80 113 150 186 227 276 329
#     4   9  18  35  59  84 110 143 184 231 280 326
#
# _framework density 19.967098
#
# number of rings (size 3 to 8) (size 9 to 14) (size 15 to 20)
#    0.000    1.750    0.000    4.125    0.000   10.500 
#    0.000    1.250    0.000    1.500    0.000    0.000 
#    0.000    0.000    0.000    0.000    0.000    0.000 
#
# Total GULP energy -396988.016203 kJ/mol
# GULP energy per Si atom -12405.875506 kJ/mol
# Density = 1.992165 g / cm^3
# Si number density = 19.967098 Si / 1000 Ang^3
#
#
#
# Elastic Constant Matrix: (Units=GPa)
#
#
# Indices 1 2 3 4 5 6 
#
# 1 70.2303 29.9518 1.3484 0.0000 -6.2077 0.0000
# 2 29.9518 67.0712 34.9958 0.0000 -1.4284 0.0000
# 3 1.3484 34.9958 75.0400 0.0000 -1.9411 0.0000
# 4 0.0000 0.0000 0.0000 10.1442 0.0000 1.6240
# 5 -6.2077 -1.4284 -1.9411 0.0000 39.7276 0.0000
# 6 0.0000 0.0000 0.0000 1.6240 0.0000 17.3829
#
#
#
# Elastic Compliance Matrix: (Units=1/GPa)
#
#
# Indices 1 2 3 4 5 6 
#
# 1 0.019086 -0.010998 0.004859 0.000000 0.002824 0.000000
# 2 -0.010998 0.026045 -0.011984 0.000000 -0.001368 0.000000
# 3 0.004859 -0.011984 0.018860 0.000000 0.001250 0.000000
# 4 0.000000 0.000000 0.000000 0.100075 0.000000 -0.009350
# 5 0.002824 -0.001368 0.001250 0.000000 0.025625 0.000000
# 6 0.000000 0.000000 0.000000 -0.009350 0.000000 0.058401
#
#
# Mechanical properties :
#
#
# Convention : Reuss Voigt Hill
#
# Bulk Modulus (GPa) = 36.04313 38.32594 37.18453
# Shear Modulus (GPa) = 17.03078 23.18731 20.10904
#
# Velocity S-wave (km/s) = 2.92369 3.41145 3.17694
# Velocity P-wave (km/s) = 5.43026 5.89521 5.66750
#
# Compressibility (1/GPa) = 0.02774454
#
# Stress axis : x y z
#
# Youngs Moduli (GPa) = 52.39497 38.39529 53.02179
#
# Poissons Ratio (x) = 0.42229 -0.25765
# Poissons Ratio (y) = 0.57626 0.63542
# Poissons Ratio (z) = -0.25460 0.46013
#
# Static dielectric constant tensor:
#      x y z
#    x 3.784800 0.000000 0.052950 
#    y 0.000000 3.505330 0.000000 
#    z 0.052950 0.000000 3.782990 
# 
# 
# High freq. dielectric constant tensor:
#      x y z
#    x 1.793550 0.000000 0.001730 
#    y 0.000000 1.762460 0.000000 
#    z 0.001730 0.000000 1.793950 
# 
# From -- ./inp_files/93740.got.cif
#   From: 2010.06.25/outbox.cif.g09.slc.cpg/sg10_47_cif.got.tgz:93740.got - 2010.06.27 22:07:45.
