data_PCOD8064420
_publ_section_title
;
Structure prediction by ZEFSAII (Michael W. Deem and Ramdas Pophale) SiO2 
 PCOD8064420
Probable space group: P 2/M
;
_chemical_formula_sum "Si O2"
_cell_formula_units_Z 24
_cell_length_a 14.672679
_cell_length_b 8.990872
_cell_length_c 14.958920
_cell_angle_alpha 90.000000
_cell_angle_beta 139.792252
_cell_angle_gamma 90.000000
_cell_volume 1273.939300
_symmetry_space_group_name_H-M "P 2/M"
_symmetry_group_IT_number 10
_symmetry_cell_setting 'monoclinic'
loop_
_space_group_symop_operation_xyz
x,y,z
-x,y,-z
-x,-y,-z
x,-y,z
loop_
_atom_site_type_symbol
_atom_site_label
_atom_site_fract_x
_atom_site_fract_y
_atom_site_fract_z
Si Si1 0.154680 0.175877 0.584429
Si Si2 0.156742 0.324080 0.398466
Si Si3 0.148364 0.326079 0.895000
Si Si4 0.849812 0.173752 0.920886
Si Si5 0.663727 0.828318 0.613860
Si Si6 0.336155 0.672908 0.868509
O O1 0.192683 0.249185 0.519066
O O2 0.271469 0.228249 0.741928
O O3 0.000000 0.229514 0.500000
O O4 0.161463 0.000000 0.579452
O O5 0.158510 0.500000 0.412475
O O6 0.275231 0.276011 0.417231
O O7 0.004752 0.266839 0.250340
O O8 0.142530 0.500000 0.908241
O O9 0.262368 0.282947 0.905937
O O10 0.197023 0.249576 0.022532
O O11 0.733198 0.213360 0.760236
O O12 0.862029 0.000000 0.948749
O O13 0.000000 0.237544 0.000000
O O14 0.500000 0.793741 0.500000
O O15 0.693669 0.000000 0.611563
O O16 0.310557 0.500000 0.826636
O O17 0.500000 0.711380 0.000000
#
# Coordination Sequence:
#
# PCOD8064420 Si02
#       6
#     4   4   4   4   4   4
#     4  11  23  38  61  90 119 156 201 248 295 351
#     4  11  22  37  61  88 116 153 197 245 293 350
#     4  10  21  36  58  87 115 149 192 240 289 343
#     4  10  20  35  58  84 110 147 191 234 281 342
#     4  10  22  40  59  84 120 154 189 239 296 349
#     4  10  22  41  62  87 122 158 194 243 301 355
#
# _framework density 18.839203000000001
#
# number of rings (size 3 to 8) (size 9 to 14) (size 15 to 20)
#    0.000    1.667    3.333    1.000    0.000    5.000 
#    0.000    3.333    0.000    0.000    0.000    0.000 
#    0.000    0.000    0.000    0.000    0.000    0.000 
#
# Total GULP energy -297751.222178 kJ/mol
# GULP energy per Si atom -12406.300924 kJ/mol
# Density = 1.879632 g / cm^3
# Si number density = 18.839203 Si / 1000 Ang^3
#
#
#
# Elastic Constant Matrix: (Units=GPa)
#
#
# Indices 1 2 3 4 5 6 
#
# 1 137.4758 48.6562 79.3857 0.0000 -8.8622 0.0000
# 2 48.6562 60.1404 48.9350 0.0000 -8.7249 0.0000
# 3 79.3857 48.9350 141.3165 0.0000 -2.9070 0.0000
# 4 0.0000 0.0000 0.0000 29.2936 0.0000 -11.6260
# 5 -8.8622 -8.7249 -2.9070 0.0000 37.9352 0.0000
# 6 0.0000 0.0000 0.0000 -11.6260 0.0000 29.1753
#
#
#
# Elastic Compliance Matrix: (Units=1/GPa)
#
#
# Indices 1 2 3 4 5 6 
#
# 1 0.012168 -0.005757 -0.004818 0.000000 0.001149 0.000000
# 2 -0.005757 0.026750 -0.005939 0.000000 0.004352 0.000000
# 3 -0.004818 -0.005939 0.011807 0.000000 -0.001587 0.000000
# 4 0.000000 0.000000 0.000000 0.040550 0.000000 0.016159
# 5 0.001149 0.004352 -0.001587 0.000000 0.027509 0.000000
# 6 0.000000 0.000000 0.000000 0.016159 0.000000 0.040715
#
#
# Mechanical properties :
#
#
# Convention : Reuss Voigt Hill
#
# Bulk Modulus (GPa) = 56.51204 76.98739 66.74972
# Shear Modulus (GPa) = 25.19838 30.07788 27.63813
#
# Velocity S-wave (km/s) = 3.66122 4.00003 3.83437
# Velocity P-wave (km/s) = 6.92350 7.89227 7.42370
#
# Compressibility (1/GPa) = 0.01769534
#
# Stress axis : x y z
#
# Youngs Moduli (GPa) = 82.18257 37.38385 84.69592
#
# Poissons Ratio (x) = 0.21523 0.40809
# Poissons Ratio (y) = 0.47314 0.50302
# Poissons Ratio (z) = 0.39598 0.22203
#
# Static dielectric constant tensor:
#      x y z
#    x 3.443850 0.000000 0.022640 
#    y 0.000000 3.358250 0.000000 
#    z 0.022640 0.000000 3.450640 
# 
# 
# High freq. dielectric constant tensor:
#      x y z
#    x 1.739170 0.000000 -0.006290 
#    y 0.000000 1.727350 0.000000 
#    z -0.006290 0.000000 1.738190 
# 
# From -- ./inp_files/66321.got.cif
#   From: 2010.06.25/outbox.cif.g09.slc.cpg/sg10_34_cif.got.tgz:66321.got - 2010.06.27 22:07:45.
