data_PCOD8064402
_publ_section_title
;
Structure prediction by ZEFSAII (Michael W. Deem and Ramdas Pophale) SiO2 
 PCOD8064402
Probable space group: P 2/M
;
_chemical_formula_sum "Si O2"
_cell_formula_units_Z 28
_cell_length_a 9.822332
_cell_length_b 14.210579
_cell_length_c 21.459691
_cell_angle_alpha 90.000000
_cell_angle_beta 28.813166
_cell_angle_gamma 90.000000
_cell_volume 1443.631542
_symmetry_space_group_name_H-M "P 2/M"
_symmetry_group_IT_number 10
_symmetry_cell_setting 'monoclinic'
loop_
_space_group_symop_operation_xyz
x,y,z
-x,y,-z
-x,-y,-z
x,-y,z
loop_
_atom_site_type_symbol
_atom_site_label
_atom_site_fract_x
_atom_site_fract_y
_atom_site_fract_z
Si Si1 0.257978 0.109396 0.277004
Si Si2 0.303018 0.266324 0.356558
Si Si3 0.140413 0.103858 0.010345
Si Si4 0.816011 0.895074 0.351273
Si Si5 0.820716 0.236149 0.231467
Si Si6 0.316681 0.608554 0.884662
Si Si7 0.261728 0.608371 0.048569
O O1 0.245201 0.166913 0.346228
O O2 0.998270 0.137596 0.337310
O O3 0.255878 0.000000 0.297201
O O4 0.536126 0.135101 0.126089
O O5 0.497542 0.250423 0.339535
O O6 0.453679 0.336795 0.248151
O O7 0.000000 0.307953 0.500000
O O8 0.985646 0.178952 0.113597
O O9 0.118137 0.000000 0.049767
O O10 0.000000 0.102839 0.000000
O O11 0.500000 0.899437 0.500000
O O12 0.845166 0.818982 0.285830
O O13 0.912548 0.000000 0.290201
O O14 0.970454 0.336925 0.177834
O O15 0.329815 0.500000 0.858607
O O16 0.386112 0.622150 0.929408
O O17 0.000000 0.648396 0.000000
O O18 0.187622 0.500000 0.091235
O O19 0.500000 0.646056 0.000000
#
# Coordination Sequence:
#
# PCOD8064402 Si02
#       7
#     4   4   4   4   4   4   4
#     4  10  22  39  59  84 123 164 203 252 300 354
#     4  12  25  38  60  94 126 160 205 248 298 362
#     4  10  20  35  57  88 121 152 198 255 302 349
#     4  10  23  42  59  81 120 167 209 246 295 361
#     4  12  23  36  63  89 118 161 200 252 302 361
#     4  10  21  42  68  90 120 157 197 250 306 360
#     4  10  23  41  64  93 119 153 199 248 305 367
#
# _framework density 19.395530000000001
#
# number of rings (size 3 to 8) (size 9 to 14) (size 15 to 20)
#    0.000    1.429    2.857    2.143    4.000    1.143 
#    0.000    2.143    0.000    0.429    0.000    0.000 
#    0.000    0.000    0.000    0.000    0.000    0.000 
#
# Total GULP energy -347275.310679 kJ/mol
# GULP energy per Si atom -12402.689667 kJ/mol
# Density = 1.935139 g / cm^3
# Si number density = 19.395530 Si / 1000 Ang^3
#
#
#
# Elastic Constant Matrix: (Units=GPa)
#
#
# Indices 1 2 3 4 5 6 
#
# 1 104.5750 31.4636 44.1469 0.0000 -23.4136 0.0000
# 2 31.4636 75.3527 46.8166 0.0000 -0.2463 0.0000
# 3 44.1469 46.8166 113.8664 0.0000 -19.6365 0.0000
# 4 0.0000 0.0000 0.0000 20.2538 0.0000 -0.1954
# 5 -23.4136 -0.2463 -19.6365 0.0000 35.5131 0.0000
# 6 0.0000 0.0000 0.0000 -0.1954 0.0000 32.2453
#
#
#
# Elastic Compliance Matrix: (Units=1/GPa)
#
#
# Indices 1 2 3 4 5 6 
#
# 1 0.013467 -0.004265 -0.002147 0.000000 0.007662 0.000000
# 2 -0.004265 0.019802 -0.007682 0.000000 -0.006922 0.000000
# 3 -0.002147 -0.007682 0.013839 0.000000 0.006184 0.000000
# 4 0.000000 0.000000 0.000000 0.049376 0.000000 0.000299
# 5 0.007662 -0.006922 0.006184 0.000000 0.036582 0.000000
# 6 0.000000 0.000000 0.000000 0.000299 0.000000 0.031014
#
#
# Mechanical properties :
#
#
# Convention : Reuss Voigt Hill
#
# Bulk Modulus (GPa) = 52.84758 59.84981 56.34870
# Shear Modulus (GPa) = 25.17957 29.02692 27.10325
#
# Velocity S-wave (km/s) = 3.60698 3.87276 3.74223
# Velocity P-wave (km/s) = 6.68233 7.13598 6.91288
#
# Compressibility (1/GPa) = 0.01892234
#
# Stress axis : x y z
#
# Youngs Moduli (GPa) = 74.25356 50.50081 72.25813
#
# Poissons Ratio (x) = 0.21536 0.15511
# Poissons Ratio (y) = 0.31666 0.55507
# Poissons Ratio (z) = 0.15939 0.38794
#
# Static dielectric constant tensor:
#      x y z
#    x 3.211000 0.000000 -0.336160 
#    y 0.000000 3.714430 0.000000 
#    z -0.336160 0.000000 3.468650 
# 
# 
# High freq. dielectric constant tensor:
#      x y z
#    x 1.764120 0.000000 -0.012600 
#    y 0.000000 1.759230 0.000000 
#    z -0.012600 0.000000 1.743810 
# 
# From -- ./inp_files/35236.got.cif
#   From: 2010.06.25/outbox.cif.g09.slc.cpg/sg10_18_cif.got.tgz:35236.got - 2010.06.27 22:07:45.
