data_PCOD8064118
_publ_section_title
;
Structure prediction by ZEFSAII (Michael W. Deem and Ramdas Pophale) SiO2 
 PCOD8064118
Probable space group: P 2/M
;
_chemical_formula_sum "Si O2"
_cell_formula_units_Z 28
_cell_length_a 9.411264
_cell_length_b 8.920819
_cell_length_c 26.228333
_cell_angle_alpha 90.000000
_cell_angle_beta 139.587328
_cell_angle_gamma 90.000000
_cell_volume 1427.550779
_symmetry_space_group_name_H-M "P 2/M"
_symmetry_group_IT_number 10
_symmetry_cell_setting 'monoclinic'
loop_
_space_group_symop_operation_xyz
x,y,z
-x,y,-z
-x,-y,-z
x,-y,z
loop_
_atom_site_type_symbol
_atom_site_label
_atom_site_fract_x
_atom_site_fract_y
_atom_site_fract_z
Si Si1 0.379400 0.168342 0.020082
Si Si2 0.153693 0.827188 0.685483
Si Si3 0.391168 0.174806 0.232491
Si Si4 0.278591 0.322983 0.414129
Si Si5 0.197936 0.670969 0.276814
Si Si6 0.724435 0.671054 0.179798
Si Si7 0.957753 0.324130 0.929397
O O1 0.504857 0.279962 0.091863
O O2 0.365726 0.000000 0.039141
O O3 0.500000 0.163653 0.000000
O O4 0.139185 0.236844 0.945947
O O5 0.347235 0.793820 0.697805
O O6 0.245048 0.780776 0.765021
O O7 0.930251 0.738918 0.611467
O O8 0.090805 0.000000 0.669428
O O9 0.308611 0.224476 0.265242
O O10 0.275992 0.265360 0.154742
O O11 0.340331 0.000000 0.210758
O O12 0.500000 0.259750 0.500000
O O13 0.265448 0.500000 0.414564
O O14 0.271226 0.272979 0.353001
O O15 0.273803 0.500000 0.288359
O O16 0.934710 0.683826 0.200055
O O17 0.697007 0.500000 0.191457
O O18 0.973519 0.500000 0.923050
O O19 0.000000 0.285273 0.000000
#
# Coordination Sequence:
#
# PCOD8064118 Si02
#       7
#     4   4   4   4   4   4   4
#     4  11  23  36  52  76 105 139 180 227 279 329
#     4  10  21  36  56  82 110 143 180 217 264 321
#     4  11  23  37  54  79 112 147 184 226 271 324
#     4   9  19  38  63  89 114 141 178 222 267 320
#     4   9  19  35  57  83 110 143 181 223 272 323
#     4  10  20  35  55  78 104 138 183 230 273 322
#     4  11  24  39  56  78 105 143 189 234 281 328
#
# _framework density 19.614011999999999
#
# number of rings (size 3 to 8) (size 9 to 14) (size 15 to 20)
#    0.000    1.857    0.000    4.714    0.000   12.286 
#    0.000    0.714    0.000    4.286    0.000    0.000 
#    0.000    0.000    0.000    0.000    0.000    0.000 
#
# Total GULP energy -347234.970397 kJ/mol
# GULP energy per Si atom -12401.248943 kJ/mol
# Density = 1.956937 g / cm^3
# Si number density = 19.614012 Si / 1000 Ang^3
#
#
#
# Elastic Constant Matrix: (Units=GPa)
#
#
# Indices 1 2 3 4 5 6 
#
# 1 87.8005 45.4269 24.9556 0.0000 14.3177 0.0000
# 2 45.4269 72.7979 29.5960 0.0000 9.3396 0.0000
# 3 24.9556 29.5960 98.0518 0.0000 17.5486 0.0000
# 4 0.0000 0.0000 0.0000 24.7426 0.0000 3.8572
# 5 14.3177 9.3396 17.5486 0.0000 26.0164 0.0000
# 6 0.0000 0.0000 0.0000 3.8572 0.0000 28.9876
#
#
#
# Elastic Compliance Matrix: (Units=1/GPa)
#
#
# Indices 1 2 3 4 5 6 
#
# 1 0.017696 -0.010131 -0.000403 0.000000 -0.005830 0.000000
# 2 -0.010131 0.021635 -0.004048 0.000000 0.000539 0.000000
# 3 -0.000403 -0.004048 0.012764 0.000000 -0.006935 0.000000
# 4 0.000000 0.000000 0.000000 0.041272 0.000000 -0.005492
# 5 -0.005830 0.000539 -0.006935 0.000000 0.046130 0.000000
# 6 0.000000 0.000000 0.000000 -0.005492 0.000000 0.035228
#
#
# Mechanical properties :
#
#
# Convention : Reuss Voigt Hill
#
# Bulk Modulus (GPa) = 43.60755 50.95637 47.28196
# Shear Modulus (GPa) = 23.63678 26.52742 25.08210
#
# Velocity S-wave (km/s) = 3.47522 3.68159 3.57989
# Velocity P-wave (km/s) = 6.19548 6.64139 6.42231
#
# Compressibility (1/GPa) = 0.02293181
#
# Stress axis : x y z
#
# Youngs Moduli (GPa) = 56.50875 46.22070 78.34362
#
# Poissons Ratio (x) = 0.46827 0.03153
# Poissons Ratio (y) = 0.57250 0.31717
# Poissons Ratio (z) = 0.02274 0.18712
#
# Static dielectric constant tensor:
#      x y z
#    x 3.599070 0.000000 0.217060 
#    y 0.000000 3.606820 0.000000 
#    z 0.217060 0.000000 3.713190 
# 
# 
# High freq. dielectric constant tensor:
#      x y z
#    x 1.764230 0.000000 0.016180 
#    y 0.000000 1.771490 0.000000 
#    z 0.016180 0.000000 1.750220 
# 
# From -- ./inp_files/36976.got.cif
#   From: 2010.06.25/outbox.cif.g09.slc.cpg/sg10_19_cif.got.tgz:36976.got - 2010.06.27 22:07:45.
