data_PCOD8064541
_publ_section_title
;
Structure prediction by ZEFSAII (Michael W. Deem and Ramdas Pophale) SiO2 
 PCOD8064541
Probable space group: P 2/M
;
_chemical_formula_sum "Si O2"
_cell_formula_units_Z 28
_cell_length_a 15.320783
_cell_length_b 11.735695
_cell_length_c 8.810534
_cell_angle_alpha 90.000000
_cell_angle_beta 116.313992
_cell_angle_gamma 90.000000
_cell_volume 1419.983488
_symmetry_space_group_name_H-M "P 2/M"
_symmetry_group_IT_number 10
_symmetry_cell_setting 'monoclinic'
loop_
_space_group_symop_operation_xyz
x,y,z
-x,y,-z
-x,-y,-z
x,-y,z
loop_
_atom_site_type_symbol
_atom_site_label
_atom_site_fract_x
_atom_site_fract_y
_atom_site_fract_z
Si Si1 0.219738 0.696952 0.002115
Si Si2 0.850923 0.369087 0.725600
Si Si3 0.541986 0.872213 0.184038
Si Si4 0.424379 0.500000 0.713721
Si Si5 0.357944 0.500000 0.000167
Si Si6 0.960711 0.366146 0.305401
Si Si7 0.644603 0.870283 0.755160
Si Si8 0.339431 0.275365 0.528455
O O1 0.137274 0.704708 0.808135
O O2 0.164640 0.651823 0.109125
O O3 0.304202 0.611922 0.017218
O O4 0.270200 0.819307 0.071149
O O5 0.832281 0.500000 0.670973
O O6 0.775625 0.297894 0.564674
O O7 0.959331 0.334332 0.760014
O O8 0.459820 0.870193 0.247569
O O9 0.636866 0.802642 0.307918
O O10 0.576713 0.000000 0.173059
O O11 0.500000 0.813322 0.000000
O O12 0.536979 0.500000 0.842345
O O13 0.400388 0.391603 0.590251
O O14 0.360984 0.500000 0.819480
O O15 0.934275 0.500000 0.281620
O O16 0.000000 0.329339 0.500000
O O17 0.629673 0.791315 0.598412
O O18 0.674095 0.000000 0.734321
#
# Coordination Sequence:
#
# PCOD8064541 Si02
#       8
#     4   4   4   2   2   4   4   4
#     4  11  21  38  63  84 119 160 198 241 303 364
#     4  10  20  36  53  85 120 152 198 242 291 362
#     4  10  22  39  59  83 113 157 211 255 293 341
#     4  11  26  37  54  91 131 159 197 243 305 368
#     4  11  24  37  56  90 127 165 194 238 305 370
#     4  10  21  34  58  89 120 156 196 244 296 361
#     4  10  23  41  62  87 114 156 211 255 294 347
#     4  11  22  37  60  82 121 160 192 246 296 354
#
# _framework density 19.718537999999999
#
# number of rings (size 3 to 8) (size 9 to 14) (size 15 to 20)
#    0.000    1.571    2.143    2.143    6.000    3.429 
#    0.000    2.857    0.000    8.143    0.000    0.000 
#    0.000    0.000    0.000    0.000    0.000    0.000 
#
# Total GULP energy -347234.482340 kJ/mol
# GULP energy per Si atom -12401.231512 kJ/mol
# Density = 1.967366 g / cm^3
# Si number density = 19.718538 Si / 1000 Ang^3
#
#
#
# Elastic Constant Matrix: (Units=GPa)
#
#
# Indices 1 2 3 4 5 6 
#
# 1 63.0054 24.1913 18.6353 0.0000 0.9569 0.0000
# 2 24.1913 105.0244 50.1220 0.0000 4.9125 0.0000
# 3 18.6353 50.1220 128.0278 0.0000 17.8333 0.0000
# 4 0.0000 0.0000 0.0000 32.1139 0.0000 -2.3402
# 5 0.9569 4.9125 17.8333 0.0000 32.7710 0.0000
# 6 0.0000 0.0000 0.0000 -2.3402 0.0000 6.9033
#
#
#
# Elastic Compliance Matrix: (Units=1/GPa)
#
#
# Indices 1 2 3 4 5 6 
#
# 1 0.017575 -0.003460 -0.001303 0.000000 0.000715 0.000000
# 2 -0.003460 0.012410 -0.004447 0.000000 0.000661 0.000000
# 3 -0.001303 -0.004447 0.010434 0.000000 -0.004973 0.000000
# 4 0.000000 0.000000 0.000000 0.031928 0.000000 0.010823
# 5 0.000715 0.000661 -0.004973 0.000000 0.033101 0.000000
# 6 0.000000 0.000000 0.000000 0.010823 0.000000 0.148527
#
#
# Mechanical properties :
#
#
# Convention : Reuss Voigt Hill
#
# Bulk Modulus (GPa) = 45.45607 53.55054 49.50331
# Shear Modulus (GPa) = 17.87459 27.89826 22.88643
#
# Velocity S-wave (km/s) = 3.01406 3.76550 3.41054
# Velocity P-wave (km/s) = 5.93424 6.79130 6.37718
#
# Compressibility (1/GPa) = 0.02199926
#
# Stress axis : x y z
#
# Youngs Moduli (GPa) = 56.90037 80.58167 95.83924
#
# Poissons Ratio (x) = 0.27878 0.12490
# Poissons Ratio (y) = 0.19685 0.42618
# Poissons Ratio (z) = 0.07415 0.35833
#
# Static dielectric constant tensor:
#      x y z
#    x 3.544020 0.000000 0.000480 
#    y 0.000000 3.627620 0.000000 
#    z 0.000480 0.000000 3.812280 
# 
# 
# High freq. dielectric constant tensor:
#      x y z
#    x 1.761180 0.000000 0.001140 
#    y 0.000000 1.747480 0.000000 
#    z 0.001140 0.000000 1.786110 
# 
# From -- ./inp_files/28706.got.cif
#   From: 2010.06.25/outbox.cif.g09.slc.cpg/sg10_15_cif.got.tgz:28706.got - 2010.06.27 22:07:45.
