data_PCOD8064318
_publ_section_title
;
Structure prediction by ZEFSAII (Michael W. Deem and Ramdas Pophale) SiO2 
 PCOD8064318
Probable space group: P 2/M
;
_chemical_formula_sum "Si O2"
_cell_formula_units_Z 32
_cell_length_a 12.280379
_cell_length_b 8.780032
_cell_length_c 32.617466
_cell_angle_alpha 90.000000
_cell_angle_beta 150.859583
_cell_angle_gamma 90.000000
_cell_volume 1712.552557
_symmetry_space_group_name_H-M "P 2/M"
_symmetry_group_IT_number 10
_symmetry_cell_setting 'monoclinic'
loop_
_space_group_symop_operation_xyz
x,y,z
-x,y,-z
-x,-y,-z
x,-y,z
loop_
_atom_site_type_symbol
_atom_site_label
_atom_site_fract_x
_atom_site_fract_y
_atom_site_fract_z
Si Si1 0.172855 0.329267 0.520009
Si Si2 0.687681 0.678687 0.222068
Si Si3 0.308870 0.171643 0.989427
Si Si4 0.807130 0.178295 0.177255
Si Si5 0.830718 0.178593 0.352523
Si Si6 0.228977 0.174246 0.056267
Si Si7 0.493220 0.820860 0.313350
Si Si8 0.034787 0.677740 0.179628
O O1 0.221639 0.500000 0.520056
O O2 0.401677 0.254856 0.611409
O O3 0.000000 0.332625 0.500000
O O4 0.069705 0.227375 0.449814
O O5 0.712122 0.500000 0.224535
O O6 0.810169 0.759052 0.224316
O O7 0.804985 0.730262 0.302185
O O8 0.427453 0.722525 0.138585
O O9 0.187075 0.289182 0.919627
O O10 0.276325 0.000000 0.961607
O O11 0.570208 0.212723 0.077526
O O12 0.201510 0.186391 0.998748
O O13 0.999538 0.260268 0.214176
O O14 0.855656 0.000000 0.195286
O O15 0.630149 0.224048 0.317507
O O16 0.831582 0.000000 0.343805
O O17 0.278209 0.000000 0.085784
O O18 0.000000 0.236002 0.000000
O O19 0.241488 0.761559 0.225733
O O20 0.496068 0.000000 0.320764
O O21 0.083607 0.500000 0.197178
#
# Coordination Sequence:
#
# PCOD8064318 Si02
#       8
#     4   4   4   4   4   4   4   4
#     4   9  17  32  54  81 113 142 172 219 275 321
#     4  11  22  35  54  81 110 139 178 227 276 318
#     4   9  19  35  54  76 102 140 186 226 267 322
#     4  10  21  40  60  76 101 142 189 228 269 324
#     4  10  20  35  57  82 110 147 187 219 257 323
#     4   9  19  35  53  73 104 146 184 220 266 323
#     4  10  21  36  55  80 111 147 184 219 263 323
#     4  12  24  35  53  81 112 141 177 230 281 320
#
# _framework density 18.685556999999999
#
# number of rings (size 3 to 8) (size 9 to 14) (size 15 to 20)
#    0.000    2.000    0.000    4.875    1.750    7.250 
#    0.000    0.000    0.000    0.750    0.000    5.250 
#    0.000    0.000    0.000    0.000    0.000    0.000 
#
# Total GULP energy -396905.515191 kJ/mol
# GULP energy per Si atom -12403.297350 kJ/mol
# Density = 1.864303 g / cm^3
# Si number density = 18.685557 Si / 1000 Ang^3
#
#
#
# Elastic Constant Matrix: (Units=GPa)
#
#
# Indices 1 2 3 4 5 6 
#
# 1 50.8929 23.4924 24.0428 0.0000 -2.8280 0.0000
# 2 23.4924 74.5966 19.9995 0.0000 -2.2605 0.0000
# 3 24.0428 19.9995 64.0977 0.0000 -15.7904 0.0000
# 4 0.0000 0.0000 0.0000 28.2455 0.0000 -4.3220
# 5 -2.8280 -2.2605 -15.7904 0.0000 18.8869 0.0000
# 6 0.0000 0.0000 0.0000 -4.3220 0.0000 25.4763
#
#
#
# Elastic Compliance Matrix: (Units=1/GPa)
#
#
# Indices 1 2 3 4 5 6 
#
# 1 0.026508 -0.006030 -0.009145 0.000000 -0.004398 0.000000
# 2 -0.006030 0.016103 -0.003161 0.000000 -0.001619 0.000000
# 3 -0.009145 -0.003161 0.024668 0.000000 0.018876 0.000000
# 4 0.000000 0.000000 0.000000 0.036347 0.000000 0.006166
# 5 -0.004398 -0.001619 0.018876 0.000000 0.067876 0.000000
# 6 0.000000 0.000000 0.000000 0.006166 0.000000 0.040298
#
#
# Mechanical properties :
#
#
# Convention : Reuss Voigt Hill
#
# Bulk Modulus (GPa) = 32.67284 36.07297 34.37290
# Shear Modulus (GPa) = 19.32921 22.65856 20.99388
#
# Velocity S-wave (km/s) = 3.21977 3.48605 3.35555
# Velocity P-wave (km/s) = 5.59876 5.96243 5.78346
#
# Compressibility (1/GPa) = 0.03060647
#
# Stress axis : x y z
#
# Youngs Moduli (GPa) = 37.72377 62.10081 40.53817
#
# Poissons Ratio (x) = 0.37444 0.37074
# Poissons Ratio (y) = 0.22746 0.12816
# Poissons Ratio (z) = 0.34500 0.19633
#
# Static dielectric constant tensor:
#      x y z
#    x 3.413640 0.000000 -0.042370 
#    y 0.000000 3.454550 0.000000 
#    z -0.042370 0.000000 3.349870 
# 
# 
# High freq. dielectric constant tensor:
#      x y z
#    x 1.715180 0.000000 -0.007860 
#    y 0.000000 1.732170 0.000000 
#    z -0.007860 0.000000 1.713370 
# 
# From -- ./inp_files/55302.got.cif
#   From: 2010.06.25/outbox.cif.g09.slc.cpg/sg10_28_cif.got.tgz:55302.got - 2010.06.27 22:07:45.
