data_PCOD8064843
_publ_section_title
;
Structure prediction by ZEFSAII (Michael W. Deem and Ramdas Pophale) SiO2 
 PCOD8064843
Probable space group: P 2/M
;
_chemical_formula_sum "Si O2"
_cell_formula_units_Z 28
_cell_length_a 14.039192
_cell_length_b 8.976976
_cell_length_c 19.144858
_cell_angle_alpha 90.000000
_cell_angle_beta 144.451682
_cell_angle_gamma 90.000000
_cell_volume 1402.785801
_symmetry_space_group_name_H-M "P 2/M"
_symmetry_group_IT_number 10
_symmetry_cell_setting 'monoclinic'
loop_
_space_group_symop_operation_xyz
x,y,z
-x,y,-z
-x,-y,-z
x,-y,z
loop_
_atom_site_type_symbol
_atom_site_label
_atom_site_fract_x
_atom_site_fract_y
_atom_site_fract_z
Si Si1 0.885369 0.671357 0.495422
Si Si2 0.719978 0.823526 0.948546
Si Si3 0.332643 0.331916 0.940773
Si Si4 0.972494 0.176001 0.289095
Si Si5 0.481254 0.671986 0.701101
Si Si6 0.925878 0.824653 0.801079
Si Si7 0.430439 0.824457 0.382545
O O1 0.924381 0.500000 0.537519
O O2 0.692760 0.691887 0.362831
O O3 0.000000 0.724271 0.500000
O O4 0.919842 0.775373 0.581578
O O5 0.644106 0.758348 0.973904
O O6 0.624552 0.759875 0.825679
O O7 0.699776 0.000000 0.938015
O O8 0.912957 0.777946 0.058490
O O9 0.276678 0.500000 0.925053
O O10 0.500000 0.331977 0.000000
O O11 0.203998 0.253774 0.812376
O O12 0.059029 0.232471 0.269587
O O13 0.947723 0.000000 0.274931
O O14 0.530561 0.500000 0.727205
O O15 0.466004 0.736917 0.613788
O O16 0.757912 0.765205 0.734851
O O17 0.911101 0.000000 0.788891
O O18 0.500000 0.784327 0.500000
O O19 0.446418 0.000000 0.377390
#
# Coordination Sequence:
#
# PCOD8064843 Si02
#       7
#     4   4   4   4   4   4   4
#     4  10  23  41  58  77 110 156 195 234 296 363
#     4  10  21  38  59  84 118 155 198 246 290 342
#     4  10  21  36  57  83 116 157 194 233 289 352
#     4  10  20  36  59  87 114 143 191 246 288 336
#     4  11  24  40  58  85 120 154 194 245 299 356
#     4   8  17  35  58  85 116 150 186 233 292 348
#     4  10  20  37  63  89 115 152 196 240 292 353
#
# _framework density 19.960281999999999
#
# number of rings (size 3 to 8) (size 9 to 14) (size 15 to 20)
#    0.000    2.143    0.000    3.429    2.000    4.571 
#    0.000    7.143    0.000    0.000    0.000    0.000 
#    0.000    0.000    0.000    0.000    0.000    0.000 
#
# Total GULP energy -347194.158798 kJ/mol
# GULP energy per Si atom -12399.791386 kJ/mol
# Density = 1.991485 g / cm^3
# Si number density = 19.960282 Si / 1000 Ang^3
#
#
#
# Elastic Constant Matrix: (Units=GPa)
#
#
# Indices 1 2 3 4 5 6 
#
# 1 92.6614 37.8452 44.5215 0.0000 10.4375 0.0000
# 2 37.8452 91.3137 44.5815 0.0000 -1.1783 0.0000
# 3 44.5215 44.5815 104.5197 0.0000 -1.7625 0.0000
# 4 0.0000 0.0000 0.0000 27.2495 0.0000 -1.6314
# 5 10.4375 -1.1783 -1.7625 0.0000 32.0746 0.0000
# 6 0.0000 0.0000 0.0000 -1.6314 0.0000 27.9532
#
#
#
# Elastic Compliance Matrix: (Units=1/GPa)
#
#
# Indices 1 2 3 4 5 6 
#
# 1 0.015433 -0.004057 -0.004935 0.000000 -0.005442 0.000000
# 2 -0.004057 0.014899 -0.004600 0.000000 0.001615 0.000000
# 3 -0.004935 -0.004600 0.013669 0.000000 0.002188 0.000000
# 4 0.000000 0.000000 0.000000 0.036827 0.000000 0.002149
# 5 -0.005442 0.001615 0.002188 0.000000 0.033128 0.000000
# 6 0.000000 0.000000 0.000000 0.002149 0.000000 0.035900
#
#
# Mechanical properties :
#
#
# Convention : Reuss Voigt Hill
#
# Bulk Modulus (GPa) = 59.46327 60.26568 59.86448
# Shear Modulus (GPa) = 27.37550 28.22524 27.80037
#
# Velocity S-wave (km/s) = 3.70739 3.76449 3.73605
# Velocity P-wave (km/s) = 6.94131 7.01096 6.97622
#
# Compressibility (1/GPa) = 0.01681710
#
# Stress axis : x y z
#
# Youngs Moduli (GPa) = 64.79481 67.11753 73.16008
#
# Poissons Ratio (x) = 0.27230 0.36107
# Poissons Ratio (y) = 0.26288 0.33651
# Poissons Ratio (z) = 0.31978 0.30872
#
# Static dielectric constant tensor:
#      x y z
#    x 3.663130 0.000000 0.187830 
#    y 0.000000 3.584790 0.000000 
#    z 0.187830 0.000000 3.806880 
# 
# 
# High freq. dielectric constant tensor:
#      x y z
#    x 1.775610 0.000000 0.007920 
#    y 0.000000 1.770140 0.000000 
#    z 0.007920 0.000000 1.786910 
# 
# From -- ./inp_files/84966.got.cif
#   From: 2010.06.25/outbox.cif.g09.slc.cpg/sg10_43_cif.got.tgz:84966.got - 2010.06.27 22:07:45.
