data_PCOD8064567
_publ_section_title
;
Structure prediction by ZEFSAII (Michael W. Deem and Ramdas Pophale) SiO2 
 PCOD8064567
Probable space group: P 2/M
;
_chemical_formula_sum "Si O2"
_cell_formula_units_Z 24
_cell_length_a 10.360553
_cell_length_b 14.245238
_cell_length_c 14.211250
_cell_angle_alpha 90.000000
_cell_angle_beta 34.764464
_cell_angle_gamma 90.000000
_cell_volume 1195.956299
_symmetry_space_group_name_H-M "P 2/M"
_symmetry_group_IT_number 10
_symmetry_cell_setting 'monoclinic'
loop_
_space_group_symop_operation_xyz
x,y,z
-x,y,-z
-x,-y,-z
x,-y,z
loop_
_atom_site_type_symbol
_atom_site_label
_atom_site_fract_x
_atom_site_fract_y
_atom_site_fract_z
Si Si1 0.875682 0.397160 0.418079
Si Si2 0.394408 0.240441 0.863355
Si Si3 0.877895 0.224573 0.657730
Si Si4 0.742607 0.104791 0.903669
Si Si5 0.430927 0.702760 0.642396
Si Si6 0.963442 0.393796 0.882925
O O1 0.891649 0.500000 0.455702
O O2 0.613253 0.379097 0.550876
O O3 0.973776 0.319076 0.427853
O O4 0.029616 0.394782 0.233251
O O5 0.621970 0.251536 0.787246
O O6 0.440391 0.222452 0.724052
O O7 0.260505 0.153355 0.991333
O O8 0.259093 0.337608 0.952640
O O9 0.903013 0.165489 0.738810
O O10 0.000000 0.166041 0.500000
O O11 0.841499 0.000000 0.857420
O O12 0.500000 0.098942 0.000000
O O13 0.500000 0.750714 0.500000
O O14 0.183636 0.657424 0.792246
O O15 0.948423 0.500000 0.931527
#
# Coordination Sequence:
#
# PCOD8064567 Si02
#       6
#     4   4   4   4   4   4
#     4  10  20  36  55  82 121 161 192 231 283 338
#     4  11  21  36  60  85 115 149 191 243 290 340
#     4  11  21  37  58  87 121 148 188 234 291 354
#     4   9  20  39  63  88 114 144 184 238 300 354
#     4  10  21  37  56  80 114 161 200 238 269 324
#     4  10  21  36  56  82 114 158 207 240 271 327
#
# _framework density 20.067622
#
# number of rings (size 3 to 8) (size 9 to 14) (size 15 to 20)
#    0.000    1.833    3.333    1.000    0.000    5.333 
#    0.000    1.667    0.000    2.500    0.000    0.000 
#    0.000    0.000    0.000    0.000    0.000    0.000 
#
# Total GULP energy -297455.522352 kJ/mol
# GULP energy per Si atom -12393.980098 kJ/mol
# Density = 2.002195 g / cm^3
# Si number density = 20.067622 Si / 1000 Ang^3
#
#
#
# Elastic Constant Matrix: (Units=GPa)
#
#
# Indices 1 2 3 4 5 6 
#
# 1 75.6692 39.3731 36.2468 0.0000 16.5555 0.0000
# 2 39.3731 106.6744 46.6426 0.0000 21.9991 0.0000
# 3 36.2468 46.6426 103.9286 0.0000 19.1676 0.0000
# 4 0.0000 0.0000 0.0000 8.2882 0.0000 1.1749
# 5 16.5555 21.9991 19.1676 0.0000 47.6572 0.0000
# 6 0.0000 0.0000 0.0000 1.1749 0.0000 14.6504
#
#
#
# Elastic Compliance Matrix: (Units=1/GPa)
#
#
# Indices 1 2 3 4 5 6 
#
# 1 0.017899 -0.004407 -0.003773 0.000000 -0.002666 0.000000
# 2 -0.004407 0.013329 -0.003880 0.000000 -0.003061 0.000000
# 3 -0.003773 -0.003880 0.013077 0.000000 -0.002158 0.000000
# 4 0.000000 0.000000 0.000000 0.122040 0.000000 -0.009787
# 5 -0.002666 -0.003061 -0.002158 0.000000 0.024190 0.000000
# 6 0.000000 0.000000 0.000000 -0.009787 0.000000 0.069042
#
#
# Mechanical properties :
#
#
# Convention : Reuss Voigt Hill
#
# Bulk Modulus (GPa) = 49.54272 58.97747 54.26010
# Shear Modulus (GPa) = 17.21601 25.05315 21.13458
#
# Velocity S-wave (km/s) = 2.93217 3.53715 3.24878
# Velocity P-wave (km/s) = 6.01706 6.79228 6.41639
#
# Compressibility (1/GPa) = 0.02018460
#
# Stress axis : x y z
#
# Youngs Moduli (GPa) = 55.86844 75.02522 76.46805
#
# Poissons Ratio (x) = 0.33063 0.28852
# Poissons Ratio (y) = 0.24621 0.29672
# Poissons Ratio (z) = 0.21080 0.29112
#
# Static dielectric constant tensor:
#      x y z
#    x 3.632900 0.000000 0.265530 
#    y 0.000000 3.514780 0.000000 
#    z 0.265530 0.000000 3.907230 
# 
# 
# High freq. dielectric constant tensor:
#      x y z
#    x 1.778580 0.000000 0.015150 
#    y 0.000000 1.741870 0.000000 
#    z 0.015150 0.000000 1.799970 
# 
# From -- ./inp_files/51682.got.cif
#   From: 2010.06.25/outbox.cif.g09.slc.cpg/sg10_26_cif.got.tgz:51682.got - 2010.06.27 22:07:45.
