data_PCOD8064100
_publ_section_title
;
Structure prediction by ZEFSAII (Michael W. Deem and Ramdas Pophale) SiO2 
 PCOD8064100
Probable space group: P 2/M
;
_chemical_formula_sum "Si O2"
_cell_formula_units_Z 24
_cell_length_a 16.781811
_cell_length_b 9.023919
_cell_length_c 25.425944
_cell_angle_alpha 90.000000
_cell_angle_beta 160.686977
_cell_angle_gamma 90.000000
_cell_volume 1273.453973
_symmetry_space_group_name_H-M "P 2/M"
_symmetry_group_IT_number 10
_symmetry_cell_setting 'monoclinic'
loop_
_space_group_symop_operation_xyz
x,y,z
-x,y,-z
-x,-y,-z
x,-y,z
loop_
_atom_site_type_symbol
_atom_site_label
_atom_site_fract_x
_atom_site_fract_y
_atom_site_fract_z
Si Si1 0.914687 0.667469 0.093327
Si Si2 0.051869 0.672588 0.591168
Si Si3 0.071358 0.668100 0.783119
Si Si4 0.463501 0.825017 0.082968
Si Si5 0.287377 0.326752 0.527029
Si Si6 0.819088 0.676502 0.843095
O O1 0.834442 0.500000 0.028455
O O2 0.053443 0.669075 0.236274
O O3 0.087131 0.731757 0.155395
O O4 0.670837 0.765495 0.947574
O O5 0.122838 0.500000 0.635755
O O6 0.266941 0.764367 0.750935
O O7 0.000000 0.728738 0.500000
O O8 0.814934 0.703835 0.478524
O O9 0.139705 0.500000 0.809193
O O10 0.890843 0.741466 0.628358
O O11 0.318513 0.763856 0.941298
O O12 0.466761 0.000000 0.084443
O O13 0.306552 0.500000 0.527009
O O14 0.553324 0.255518 0.687781
O O15 0.807394 0.500000 0.838421
O O16 0.000000 0.738528 0.000000
#
# Coordination Sequence:
#
# PCOD8064100 Si02
#       6
#     4   4   4   4   4   4
#     4   8  16  31  53  78 103 135 169 209 263 312
#     4  10  21  35  55  79 107 139 173 213 259 313
#     4   8  16  32  53  78 106 135 171 214 261 312
#     4  10  20  35  55  76 103 140 180 216 258 306
#     4   9  18  31  50  81 110 134 169 216 265 310
#     4   9  17  28  50  82 111 133 166 218 263 308
#
# _framework density 18.846381999999998
#
# number of rings (size 3 to 8) (size 9 to 14) (size 15 to 20)
#    1.000    2.000    0.000    1.000    2.333    1.667 
#    0.000    7.500    0.000    3.500    0.000    0.000 
#    0.000    0.000    0.000    0.000    0.000    0.000 
#
# Total GULP energy -297375.812101 kJ/mol
# GULP energy per Si atom -12390.658838 kJ/mol
# Density = 1.880349 g / cm^3
# Si number density = 18.846382 Si / 1000 Ang^3
#
#
#
# Elastic Constant Matrix: (Units=GPa)
#
#
# Indices 1 2 3 4 5 6 
#
# 1 73.5598 9.8400 26.4183 0.0000 0.3885 0.0000
# 2 9.8400 53.5009 28.0248 0.0000 6.0371 0.0000
# 3 26.4183 28.0248 120.7758 0.0000 1.3260 0.0000
# 4 0.0000 0.0000 0.0000 5.0334 0.0000 0.6538
# 5 0.3885 6.0371 1.3260 0.0000 33.4198 0.0000
# 6 0.0000 0.0000 0.0000 0.6538 0.0000 7.2373
#
#
#
# Elastic Compliance Matrix: (Units=1/GPa)
#
#
# Indices 1 2 3 4 5 6 
#
# 1 0.014818 -0.001189 -0.002967 0.000000 0.000160 0.000000
# 2 -0.001189 0.021827 -0.004764 0.000000 -0.003740 0.000000
# 3 -0.002967 -0.004764 0.010029 0.000000 0.000497 0.000000
# 4 0.000000 0.000000 0.000000 0.201030 0.000000 -0.018161
# 5 0.000160 -0.003740 0.000497 0.000000 0.030576 0.000000
# 6 0.000000 0.000000 0.000000 -0.018161 0.000000 0.139813
#
#
# Mechanical properties :
#
#
# Convention : Reuss Voigt Hill
#
# Bulk Modulus (GPa) = 34.68093 41.82253 38.25173
# Shear Modulus (GPa) = 11.22219 21.37500 16.29859
#
# Velocity S-wave (km/s) = 2.44284 3.37140 2.94396
# Velocity P-wave (km/s) = 5.13795 6.11511 5.64770
#
# Compressibility (1/GPa) = 0.02883429
#
# Stress axis : x y z
#
# Youngs Moduli (GPa) = 67.48442 45.81415 99.71365
#
# Poissons Ratio (x) = 0.05449 0.29586
# Poissons Ratio (y) = 0.08026 0.47500
# Poissons Ratio (z) = 0.20023 0.21824
#
# Static dielectric constant tensor:
#      x y z
#    x 3.477170 0.000000 -0.023590 
#    y 0.000000 2.890530 0.000000 
#    z -0.023590 0.000000 3.477250 
# 
# 
# High freq. dielectric constant tensor:
#      x y z
#    x 1.733780 0.000000 -0.001990 
#    y 0.000000 1.674850 0.000000 
#    z -0.001990 0.000000 1.724660 
# 
# From -- ./inp_files/93386.got.cif
#   From: 2010.06.25/outbox.cif.g09.slc.cpg/sg10_47_cif.got.tgz:93386.got - 2010.06.27 22:07:45.
