data_PCOD8064339
_publ_section_title
;
Structure prediction by ZEFSAII (Michael W. Deem and Ramdas Pophale) SiO2 
 PCOD8064339
Probable space group: P 2/M
;
_chemical_formula_sum "Si O2"
_cell_formula_units_Z 32
_cell_length_a 14.547858
_cell_length_b 9.124872
_cell_length_c 12.593747
_cell_angle_alpha 90.000000
_cell_angle_beta 81.224178
_cell_angle_gamma 90.000000
_cell_volume 1652.214589
_symmetry_space_group_name_H-M "P 2/M"
_symmetry_group_IT_number 10
_symmetry_cell_setting 'monoclinic'
loop_
_space_group_symop_operation_xyz
x,y,z
-x,y,-z
-x,-y,-z
x,-y,z
loop_
_atom_site_type_symbol
_atom_site_label
_atom_site_fract_x
_atom_site_fract_y
_atom_site_fract_z
Si Si1 0.565251 0.670652 0.694934
Si Si2 0.351961 0.835747 0.132573
Si Si3 0.101112 0.328197 0.023074
Si Si4 0.142004 0.164086 0.222934
Si Si5 0.620765 0.827192 0.314314
Si Si6 0.712396 0.667477 0.488669
Si Si7 0.719923 0.172518 0.079016
Si Si8 0.100560 0.335993 0.432615
O O1 0.543537 0.500000 0.708339
O O2 0.580723 0.731687 0.811389
O O3 0.478224 0.749744 0.655954
O O4 0.653647 0.703132 0.604979
O O5 0.252832 0.833824 0.206866
O O6 0.394413 0.000000 0.126221
O O7 0.341486 0.778914 0.012821
O O8 0.119411 0.500000 0.014112
O O9 0.104027 0.275769 0.143074
O O10 0.180012 0.250511 0.938356
O O11 0.000000 0.284131 0.000000
O O12 0.103907 0.214920 0.341857
O O13 0.105720 0.000000 0.205458
O O14 0.686384 0.774672 0.397699
O O15 0.666254 0.781756 0.194320
O O16 0.606780 0.000000 0.324844
O O17 0.694260 0.500000 0.456349
O O18 0.820762 0.696458 0.493321
O O19 0.739322 0.000000 0.067580
O O20 0.117583 0.500000 0.383403
O O21 0.000000 0.323276 0.500000
#
# Coordination Sequence:
#
# PCOD8064339 Si02
#       8
#     4   4   4   4   4   4   4   4
#     4  11  22  37  60  87 115 151 196 243 293 349
#     4   9  18  35  59  83 110 147 189 234 286 345
#     4  10  21  36  58  86 114 150 195 238 286 348
#     4  10  20  35  57  83 114 150 189 238 290 343
#     4  11  24  40  59  84 118 157 196 242 295 353
#     4  10  22  40  59  83 118 155 195 245 293 345
#     4   9  21  40  58  83 118 154 192 240 296 345
#     4  10  21  38  60  86 117 154 194 241 296 348
#
# _framework density 19.367944999999999
#
# number of rings (size 3 to 8) (size 9 to 14) (size 15 to 20)
#    0.000    2.000    1.250    2.625    0.000    8.750 
#    0.000    6.250    0.000    0.000    0.000    0.000 
#    0.000    0.000    0.000    0.000    0.000    0.000 
#
# Total GULP energy -396882.274954 kJ/mol
# GULP energy per Si atom -12402.571092 kJ/mol
# Density = 1.932386 g / cm^3
# Si number density = 19.367945 Si / 1000 Ang^3
#
#
#
# Elastic Constant Matrix: (Units=GPa)
#
#
# Indices 1 2 3 4 5 6 
#
# 1 108.6129 46.6730 40.3939 0.0000 11.4700 0.0000
# 2 46.6730 69.8466 38.8433 0.0000 1.5859 0.0000
# 3 40.3939 38.8433 89.1427 0.0000 2.4931 0.0000
# 4 0.0000 0.0000 0.0000 34.1331 0.0000 6.6275
# 5 11.4700 1.5859 2.4931 0.0000 22.2780 0.0000
# 6 0.0000 0.0000 0.0000 6.6275 0.0000 23.4429
#
#
#
# Elastic Compliance Matrix: (Units=1/GPa)
#
#
# Indices 1 2 3 4 5 6 
#
# 1 0.014332 -0.007812 -0.002909 0.000000 -0.006497 0.000000
# 2 -0.007812 0.023158 -0.006638 0.000000 0.003116 0.000000
# 3 -0.002909 -0.006638 0.015422 0.000000 0.000244 0.000000
# 4 0.000000 0.000000 0.000000 0.030999 0.000000 -0.008764
# 5 -0.006497 0.003116 0.000244 0.000000 0.047983 0.000000
# 6 0.000000 0.000000 0.000000 -0.008764 0.000000 0.045134
#
#
# Mechanical properties :
#
#
# Convention : Reuss Voigt Hill
#
# Bulk Modulus (GPa) = 54.96264 57.71362 56.33813
# Shear Modulus (GPa) = 22.95583 25.41695 24.18639
#
# Velocity S-wave (km/s) = 3.44648 3.62653 3.53765
# Velocity P-wave (km/s) = 6.65412 6.88468 6.77038
#
# Compressibility (1/GPa) = 0.01819418
#
# Stress axis : x y z
#
# Youngs Moduli (GPa) = 69.77532 43.18167 64.84349
#
# Poissons Ratio (x) = 0.33732 0.18861
# Poissons Ratio (y) = 0.54506 0.43045
# Poissons Ratio (z) = 0.20295 0.28665
#
# Static dielectric constant tensor:
#      x y z
#    x 3.488040 0.000000 0.048750 
#    y 0.000000 3.597100 0.000000 
#    z 0.048750 0.000000 3.483020 
# 
# 
# High freq. dielectric constant tensor:
#      x y z
#    x 1.752410 0.000000 0.005050 
#    y 0.000000 1.757490 0.000000 
#    z 0.005050 0.000000 1.753170 
# 
# From -- ./inp_files/49827.got.cif
#   From: 2010.06.25/outbox.cif.g09.slc.cpg/sg10_25_cif.got.tgz:49827.got - 2010.06.27 22:07:45.
