data_PCOD8064944
_publ_section_title
;
Structure prediction by ZEFSAII (Michael W. Deem and Ramdas Pophale) SiO2 
 PCOD8064944
Probable space group: P 2/M
;
_chemical_formula_sum "Si O2"
_cell_formula_units_Z 32
_cell_length_a 8.786880
_cell_length_b 14.170608
_cell_length_c 12.552194
_cell_angle_alpha 90.000000
_cell_angle_beta 91.900095
_cell_angle_gamma 90.000000
_cell_volume 1562.082492
_symmetry_space_group_name_H-M "P 2/M"
_symmetry_group_IT_number 10
_symmetry_cell_setting 'monoclinic'
loop_
_space_group_symop_operation_xyz
x,y,z
-x,y,-z
-x,-y,-z
x,-y,z
loop_
_atom_site_type_symbol
_atom_site_label
_atom_site_fract_x
_atom_site_fract_y
_atom_site_fract_z
Si Si1 0.185903 0.894268 0.273068
Si Si2 0.303206 0.718657 0.600920
Si Si3 0.323085 0.710187 0.975422
Si Si4 0.347198 0.716653 0.360382
Si Si5 0.833251 0.610153 0.217984
Si Si6 0.825852 0.106738 0.975065
Si Si7 0.819833 0.389899 0.826948
Si Si8 0.899847 0.893083 0.394717
O O1 0.293164 0.823170 0.338888
O O2 0.211641 0.880549 0.149419
O O3 0.007648 0.876279 0.294543
O O4 0.229946 0.000000 0.311463
O O5 0.297991 0.686665 0.477917
O O6 0.472579 0.713972 0.650737
O O7 0.195709 0.647358 0.663386
O O8 0.245007 0.825408 0.614836
O O9 0.283593 0.660016 0.864407
O O10 0.500000 0.696204 0.000000
O O11 0.282058 0.821139 0.963643
O O12 0.226839 0.665468 0.068799
O O13 0.275360 0.642692 0.277222
O O14 0.800037 0.500000 0.214033
O O15 0.004674 0.633970 0.188970
O O16 0.790535 0.000000 0.012932
O O17 0.000000 0.132793 0.000000
O O18 0.791146 0.500000 0.845148
O O19 0.000000 0.868442 0.500000
O O20 0.838002 0.000000 0.397550
#
# Coordination Sequence:
#
# PCOD8064944 Si02
#       8
#     4   4   4   4   4   4   4   4
#     4  10  20  37  62  88 124 167 210 259 308 369
#     4  11  25  39  63  91 131 170 206 261 320 376
#     4  12  25  41  67  98 132 165 203 256 319 378
#     4  11  23  41  60  94 129 167 208 256 324 381
#     4  11  26  45  67  95 123 163 216 263 312 375
#     4  10  22  40  63  93 128 169 210 253 308 371
#     4  11  24  44  69  92 120 161 212 266 316 373
#     4  10  20  36  60  91 121 160 212 258 302 362
#
# _framework density 20.485474
#
# number of rings (size 3 to 8) (size 9 to 14) (size 15 to 20)
#    0.000    1.250    2.500    3.000    1.750    4.750 
#    0.000    3.750    0.000    0.000    0.000    0.000 
#    0.000    0.000    0.000    0.000    0.000    0.000 
#
# Total GULP energy -396967.209060 kJ/mol
# GULP energy per Si atom -12405.225283 kJ/mol
# Density = 2.043885 g / cm^3
# Si number density = 20.485474 Si / 1000 Ang^3
#
#
#
# Elastic Constant Matrix: (Units=GPa)
#
#
# Indices 1 2 3 4 5 6 
#
# 1 81.2627 46.8819 24.4802 0.0000 0.3708 0.0000
# 2 46.8819 103.2476 38.8865 0.0000 -7.1104 0.0000
# 3 24.4802 38.8865 76.7393 0.0000 -1.8532 0.0000
# 4 0.0000 0.0000 0.0000 28.8985 0.0000 4.3868
# 5 0.3708 -7.1104 -1.8532 0.0000 34.1376 0.0000
# 6 0.0000 0.0000 0.0000 4.3868 0.0000 14.8652
#
#
#
# Elastic Compliance Matrix: (Units=1/GPa)
#
#
# Indices 1 2 3 4 5 6 
#
# 1 0.016990 -0.007142 -0.001843 0.000000 -0.001772 0.000000
# 2 -0.007142 0.015135 -0.005320 0.000000 0.002941 0.000000
# 3 -0.001843 -0.005320 0.016310 0.000000 -0.000203 0.000000
# 4 0.000000 0.000000 0.000000 0.036227 0.000000 -0.010691
# 5 -0.001772 0.002941 -0.000203 0.000000 0.029914 0.000000
# 6 0.000000 0.000000 0.000000 -0.010691 0.000000 0.070426
#
#
# Mechanical properties :
#
#
# Convention : Reuss Voigt Hill
#
# Bulk Modulus (GPa) = 50.44528 53.52743 51.98635
# Shear Modulus (GPa) = 22.70453 25.64699 24.17576
#
# Velocity S-wave (km/s) = 3.33276 3.54214 3.43905
# Velocity P-wave (km/s) = 6.28395 6.55097 6.41885
#
# Compressibility (1/GPa) = 0.01982346
#
# Stress axis : x y z
#
# Youngs Moduli (GPa) = 58.85916 66.07289 61.31205
#
# Poissons Ratio (x) = 0.47192 0.11302
# Poissons Ratio (y) = 0.42039 0.32617
# Poissons Ratio (z) = 0.10850 0.35150
#
# Static dielectric constant tensor:
#      x y z
#    x 3.644700 0.000000 -0.096550 
#    y 0.000000 3.843480 0.000000 
#    z -0.096550 0.000000 3.834910 
# 
# 
# High freq. dielectric constant tensor:
#      x y z
#    x 1.794960 0.000000 -0.002980 
#    y 0.000000 1.809450 0.000000 
#    z -0.002980 0.000000 1.810410 
# 
# From -- ./inp_files/42957.got.cif
#   From: 2010.06.25/outbox.cif.g09.slc.cpg/sg10_22_cif.got.tgz:42957.got - 2010.06.27 22:07:45.
