data_PCOD8064025
_publ_section_title
;
Structure prediction by ZEFSAII (Michael W. Deem and Ramdas Pophale) SiO2 
 PCOD8064025
Probable space group: P 2/M
;
_chemical_formula_sum "Si O2"
_cell_formula_units_Z 32
_cell_length_a 25.332940
_cell_length_b 8.637553
_cell_length_c 24.107450
_cell_angle_alpha 90.000000
_cell_angle_beta 17.920429
_cell_angle_gamma 90.000000
_cell_volume 1623.115007
_symmetry_space_group_name_H-M "P 2/M"
_symmetry_group_IT_number 10
_symmetry_cell_setting 'monoclinic'
loop_
_space_group_symop_operation_xyz
x,y,z
-x,y,-z
-x,-y,-z
x,-y,z
loop_
_atom_site_type_symbol
_atom_site_label
_atom_site_fract_x
_atom_site_fract_y
_atom_site_fract_z
Si Si1 0.688644 0.815967 0.929132
Si Si2 0.999747 0.816216 0.309572
Si Si3 0.311629 0.184033 0.306121
Si Si4 0.694274 0.818598 0.424386
Si Si5 0.306469 0.181445 0.812382
Si Si6 0.806372 0.184226 0.693642
Si Si7 0.808415 0.183272 0.191461
Si Si8 0.999684 0.680916 0.812153
O O1 0.715511 0.751284 0.839907
O O2 0.831592 0.749044 0.828102
O O3 0.703798 0.000000 0.912603
O O4 0.500153 0.763672 0.138452
O O5 0.831273 0.749048 0.509090
O O6 0.999422 0.765677 0.246976
O O7 0.999765 0.000000 0.311965
O O8 0.284692 0.248696 0.270691
O O9 0.296493 0.000000 0.319886
O O10 0.500508 0.784395 0.638613
O O11 0.709683 0.761189 0.345271
O O12 0.828731 0.726182 0.326809
O O13 0.737745 0.000000 0.385738
O O14 0.289997 0.239353 0.765227
O O15 0.263230 0.000000 0.860344
O O16 0.172642 0.273493 0.983412
O O17 0.000000 0.244569 0.500000
O O18 0.799972 0.000000 0.700050
O O19 0.817277 0.000000 0.182432
O O20 0.000000 0.253676 0.000000
O O21 0.999573 0.500000 0.802041
#
# Coordination Sequence:
#
# PCOD8064025 Si02
#       8
#     4   4   4   4   4   4   4   4
#     4   9  16  26  44  72 104 135 167 210 268 329
#     4  10  20  35  53  73 100 136 186 234 269 312
#     4   9  16  26  44  72 104 135 167 210 268 329
#     4  10  20  37  63  91 116 145 184 229 277 331
#     4  10  20  37  63  91 116 145 184 229 277 331
#     4   9  13  21  39  68 107 140 158 194 266 337
#     4   9  15  29  59  93 121 142 171 222 279 334
#     4  12  26  41  56  77 112 154 195 236 283 332
#
# _framework density 19.715176
#
# number of rings (size 3 to 8) (size 9 to 14) (size 15 to 20)
#    0.000    2.250    2.500    1.875    0.000    4.500 
#    0.000    3.750    0.000    1.500    0.000    1.750 
#    0.000    2.000    0.000    0.000    0.000    0.000 
#
# Total GULP energy -396684.157001 kJ/mol
# GULP energy per Si atom -12396.379906 kJ/mol
# Density = 1.967030 g / cm^3
# Si number density = 19.715176 Si / 1000 Ang^3
#
#
#
# Elastic Constant Matrix: (Units=GPa)
#
#
# Indices 1 2 3 4 5 6 
#
# 1 87.9468 -3.0854 88.6227 0.0000 56.0548 0.0000
# 2 -3.0854 7.3764 7.6535 0.0000 -5.3485 0.0000
# 3 88.6227 7.6535 129.5104 0.0000 -53.7477 0.0000
# 4 0.0000 0.0000 0.0000 8.2691 0.0000 -3.7988
# 5 56.0548 -5.3485 -53.7477 0.0000 -53.1547 0.0000
# 6 0.0000 0.0000 0.0000 -3.7988 0.0000 -4.7287
#
#
#
# Elastic Compliance Matrix: (Units=1/GPa)
#
#
# Indices 1 2 3 4 5 6 
#
# 1 0.008051 0.012670 -0.002299 0.000000 0.009540 0.000000
# 2 0.012670 0.163069 -0.013786 0.000000 0.010893 0.000000
# 3 -0.002299 -0.013786 0.006818 0.000000 -0.007931 0.000000
# 4 0.000000 0.000000 0.000000 0.088333 0.000000 -0.070961
# 5 0.009540 0.010893 -0.007931 0.000000 -0.001829 0.000000
# 6 0.000000 0.000000 0.000000 -0.070961 0.000000 -0.154468
#
#
# Mechanical properties :
#
#
# Convention : Reuss Voigt Hill
#
# Bulk Modulus (GPa) = 5.84427 45.69057 25.76742
# Shear Modulus (GPa) = 28.76216 -1.14668 13.80774
#
# Velocity S-wave (km/s) = 3.82368 -0.76347 2.64930
# Velocity P-wave (km/s) = 4.73971 4.73798 4.73884
#
# Compressibility (1/GPa) = 0.17110791
#
# Stress axis : x y z
#
# Youngs Moduli (GPa) = 124.20740 6.13238 146.67558
#
# Poissons Ratio (x) = -0.07770 0.33719
# Poissons Ratio (y) = -1.57371 2.02207
# Poissons Ratio (z) = 0.28554 0.08454
#
# Static dielectric constant tensor:
#      x y z
#    x 3.713050 0.000000 -0.038650 
#    y 0.000000 2.913750 0.000000 
#    z -0.038650 0.000000 3.850240 
# 
# 
# High freq. dielectric constant tensor:
#      x y z
#    x 1.773380 0.000000 -0.003700 
#    y 0.000000 1.695650 0.000000 
#    z -0.003700 0.000000 1.786640 
# 
# From -- ./inp_files/90625.got.cif
#   From: 2010.06.25/outbox.cif.g09.slc.cpg/sg10_46_cif.got.tgz:90625.got - 2010.06.27 22:07:45.
