data_PCOD8064117
_publ_section_title
;
Structure prediction by ZEFSAII (Michael W. Deem and Ramdas Pophale) SiO2 
 PCOD8064117
Probable space group: P 2/M
;
_chemical_formula_sum "Si O2"
_cell_formula_units_Z 28
_cell_length_a 17.078539
_cell_length_b 8.849365
_cell_length_c 18.216607
_cell_angle_alpha 90.000000
_cell_angle_beta 31.225030
_cell_angle_gamma 90.000000
_cell_volume 1427.236141
_symmetry_space_group_name_H-M "P 2/M"
_symmetry_group_IT_number 10
_symmetry_cell_setting 'monoclinic'
loop_
_space_group_symop_operation_xyz
x,y,z
-x,y,-z
-x,-y,-z
x,-y,z
loop_
_atom_site_type_symbol
_atom_site_label
_atom_site_fract_x
_atom_site_fract_y
_atom_site_fract_z
Si Si1 0.669462 0.324453 0.213548
Si Si2 0.466289 0.830347 0.112498
Si Si3 0.125266 0.822845 0.056421
Si Si4 0.159197 0.677353 0.336742
Si Si5 0.587200 0.168719 0.506293
Si Si6 0.159470 0.323469 0.774607
Si Si7 0.227323 0.322943 0.114879
O O1 0.676498 0.500000 0.187072
O O2 0.714831 0.222094 0.107704
O O3 0.498248 0.277611 0.368563
O O4 0.776606 0.285114 0.196584
O O5 0.301385 0.759309 0.261799
O O6 0.470886 0.000000 0.141648
O O7 0.500000 0.834434 0.000000
O O8 0.600810 0.730391 0.038587
O O9 0.095148 0.000000 0.078758
O O10 0.118160 0.763656 0.145627
O O11 0.009803 0.735479 0.095823
O O12 0.180352 0.500000 0.332736
O O13 0.164117 0.717127 0.246339
O O14 0.000000 0.732660 0.500000
O O15 0.500000 0.166390 0.500000
O O16 0.751512 0.237945 0.361429
O O17 0.601821 0.000000 0.527077
O O18 0.168589 0.500000 0.751865
O O19 0.219632 0.500000 0.106032
#
# Coordination Sequence:
#
# PCOD8064117 Si02
#       7
#     4   4   4   4   4   4   4
#     4  10  20  35  55  78 104 138 182 227 272 327
#     4   9  17  31  53  80 108 137 170 207 250 304
#     4  12  24  36  52  76 108 142 180 228 277 323
#     4   9  18  34  58  86 111 137 173 215 258 310
#     4   9  17  31  52  77 103 131 168 217 269 317
#     4  10  20  35  55  78 105 140 183 227 273 326
#     4  10  20  36  56  77 106 142 178 216 264 321
#
# _framework density 19.618337
#
# number of rings (size 3 to 8) (size 9 to 14) (size 15 to 20)
#    0.000    2.143    0.000    3.857    0.000    7.714 
#    0.000    1.429    0.000    1.714    0.000    0.000 
#    0.000    0.000    0.000    0.000    0.000    0.000 
#
# Total GULP energy -347175.169161 kJ/mol
# GULP energy per Si atom -12399.113184 kJ/mol
# Density = 1.957368 g / cm^3
# Si number density = 19.618337 Si / 1000 Ang^3
#
#
#
# Elastic Constant Matrix: (Units=GPa)
#
#
# Indices 1 2 3 4 5 6 
#
# 1 42.4910 30.4470 18.9992 0.0000 7.3222 0.0000
# 2 30.4470 77.4523 22.8014 0.0000 0.3650 0.0000
# 3 18.9992 22.8014 109.0522 0.0000 2.1424 0.0000
# 4 0.0000 0.0000 0.0000 33.7394 0.0000 -1.8730
# 5 7.3222 0.3650 2.1424 0.0000 15.7027 0.0000
# 6 0.0000 0.0000 0.0000 -1.8730 0.0000 24.7849
#
#
#
# Elastic Compliance Matrix: (Units=1/GPa)
#
#
# Indices 1 2 3 4 5 6 
#
# 1 0.037839 -0.013802 -0.003375 0.000000 -0.016863 0.000000
# 2 -0.013802 0.018792 -0.001647 0.000000 0.006224 0.000000
# 3 -0.003375 -0.001647 0.010098 0.000000 0.000235 0.000000
# 4 0.000000 0.000000 0.000000 0.029764 0.000000 0.002249
# 5 -0.016863 0.006224 0.000235 0.000000 0.071370 0.000000
# 6 0.000000 0.000000 0.000000 0.002249 0.000000 0.040517
#
#
# Mechanical properties :
#
#
# Convention : Reuss Voigt Hill
#
# Bulk Modulus (GPa) = 34.38651 41.49894 37.94272
# Shear Modulus (GPa) = 19.55254 25.29527 22.42391
#
# Velocity S-wave (km/s) = 3.16040 3.59467 3.38451
# Velocity P-wave (km/s) = 5.55727 6.19903 5.88690
#
# Compressibility (1/GPa) = 0.02908117
#
# Stress axis : x y z
#
# Youngs Moduli (GPa) = 26.42775 53.21359 99.03226
#
# Poissons Ratio (x) = 0.73443 0.33427
# Poissons Ratio (y) = 0.36475 0.16310
# Poissons Ratio (z) = 0.08920 0.08764
#
# Static dielectric constant tensor:
#      x y z
#    x 3.317080 0.000000 -0.040720 
#    y 0.000000 3.635730 0.000000 
#    z -0.040720 0.000000 3.693310 
# 
# 
# High freq. dielectric constant tensor:
#      x y z
#    x 1.731220 0.000000 -0.002570 
#    y 0.000000 1.774220 0.000000 
#    z -0.002570 0.000000 1.765720 
# 
# From -- ./inp_files/85611.got.cif
#   From: 2010.06.25/outbox.cif.g09.slc.cpg/sg10_43_cif.got.tgz:85611.got - 2010.06.27 22:07:45.
