data_PCOD8064600
_publ_section_title
;
Structure prediction by ZEFSAII (Michael W. Deem and Ramdas Pophale) SiO2 
 PCOD8064600
Probable space group: P 2/M
;
_chemical_formula_sum "Si O2"
_cell_formula_units_Z 26
_cell_length_a 11.619528
_cell_length_b 14.069938
_cell_length_c 8.832021
_cell_angle_alpha 90.000000
_cell_angle_beta 64.155840
_cell_angle_gamma 90.000000
_cell_volume 1299.496446
_symmetry_space_group_name_H-M "P 2/M"
_symmetry_group_IT_number 10
_symmetry_cell_setting 'monoclinic'
loop_
_space_group_symop_operation_xyz
x,y,z
-x,y,-z
-x,-y,-z
x,-y,z
loop_
_atom_site_type_symbol
_atom_site_label
_atom_site_fract_x
_atom_site_fract_y
_atom_site_fract_z
Si Si1 0.634209 0.106441 0.841439
Si Si2 0.219190 0.637810 0.659963
Si Si3 0.861822 0.603063 0.612074
Si Si4 0.000000 0.690763 0.000000
Si Si5 0.579028 0.393402 0.221218
Si Si6 0.402107 0.769304 0.430423
Si Si7 0.227546 0.733581 0.078516
O O1 0.621145 0.153227 0.684200
O O2 0.728889 0.161539 0.900360
O O3 0.687766 0.000000 0.788394
O O4 0.500000 0.104659 0.000000
O O5 0.204427 0.584635 0.510605
O O6 0.334063 0.586806 0.682080
O O7 0.267229 0.746035 0.593185
O O8 0.086824 0.630829 0.832417
O O9 0.869560 0.500000 0.690506
O O10 0.792357 0.679126 0.753790
O O11 0.000000 0.646725 0.500000
O O12 0.102267 0.748473 0.044287
O O13 0.543334 0.500000 0.177539
O O14 0.453598 0.331431 0.331521
O O15 0.661462 0.328280 0.061178
O O16 0.500000 0.810629 0.500000
#
# Coordination Sequence:
#
# PCOD8064600 Si02
#       7
#     4   4   4   2   4   4   4
#     4  11  23  42  66  92 121 154 198 256 318 372
#     4  10  20  36  56  82 121 163 200 243 286 347
#     4  11  21  33  53  85 120 160 205 243 285 347
#     4  10  22  38  62  84 118 168 198 244 298 358
#     4  10  21  36  56  87 126 167 203 240 293 353
#     4  10  21  38  62  90 122 156 199 247 301 360
#     4  11  21  40  61  88 123 161 202 253 301 359
#
# _framework density 20.007750000000001
#
# number of rings (size 3 to 8) (size 9 to 14) (size 15 to 20)
#    0.000    1.538    4.615    0.923    0.000    3.692 
#    0.000    3.462    0.000    4.154    0.000    0.000 
#    0.000    0.000    0.000    0.000    0.000    0.000 
#
# Total GULP energy -322095.493507 kJ/mol
# GULP energy per Si atom -12388.288212 kJ/mol
# Density = 1.996221 g / cm^3
# Si number density = 20.007750 Si / 1000 Ang^3
#
#
#
# Elastic Constant Matrix: (Units=GPa)
#
#
# Indices 1 2 3 4 5 6 
#
# 1 77.3406 45.6531 27.6311 0.0000 10.4374 0.0000
# 2 45.6531 134.7863 44.1980 0.0000 10.5855 0.0000
# 3 27.6311 44.1980 100.7730 0.0000 3.4406 0.0000
# 4 0.0000 0.0000 0.0000 15.7853 0.0000 -4.2077
# 5 10.4374 10.5855 3.4406 0.0000 35.9346 0.0000
# 6 0.0000 0.0000 0.0000 -4.2077 0.0000 9.0814
#
#
#
# Elastic Compliance Matrix: (Units=1/GPa)
#
#
# Indices 1 2 3 4 5 6 
#
# 1 0.017041 -0.004690 -0.002502 0.000000 -0.003329 0.000000
# 2 -0.004690 0.010133 -0.003113 0.000000 -0.001324 0.000000
# 3 -0.002502 -0.003113 0.011957 0.000000 0.000499 0.000000
# 4 0.000000 0.000000 0.000000 0.072276 0.000000 0.033487
# 5 -0.003329 -0.001324 0.000499 0.000000 0.029138 0.000000
# 6 0.000000 0.000000 0.000000 0.033487 0.000000 0.125631
#
#
# Mechanical properties :
#
#
# Convention : Reuss Voigt Hill
#
# Bulk Modulus (GPa) = 53.99087 60.87380 57.43233
# Shear Modulus (GPa) = 17.06721 25.18811 21.12766
#
# Velocity S-wave (km/s) = 2.92384 3.55197 3.25310
# Velocity P-wave (km/s) = 6.20016 6.87846 6.54810
#
# Compressibility (1/GPa) = 0.01852165
#
# Stress axis : x y z
#
# Youngs Moduli (GPa) = 58.68044 98.69226 83.62959
#
# Poissons Ratio (x) = 0.46289 0.20923
# Poissons Ratio (y) = 0.27523 0.26032
# Poissons Ratio (z) = 0.14681 0.30721
#
# Static dielectric constant tensor:
#      x y z
#    x 3.819660 0.000000 0.033970 
#    y 0.000000 3.440140 0.000000 
#    z 0.033970 0.000000 3.903350 
# 
# 
# High freq. dielectric constant tensor:
#      x y z
#    x 1.788380 0.000000 0.005820 
#    y 0.000000 1.737560 0.000000 
#    z 0.005820 0.000000 1.796570 
# 
# From -- ./inp_files/24800.got.cif
#   From: 2010.06.25/outbox.cif.g09.slc.cpg/sg10_13_cif.got.tgz:24800.got - 2010.06.27 22:07:45.
