data_PCOD8064714
_publ_section_title
;
Structure prediction by ZEFSAII (Michael W. Deem and Ramdas Pophale) SiO2 
 PCOD8064714
Probable space group: P 2/M
;
_chemical_formula_sum "Si O2"
_cell_formula_units_Z 32
_cell_length_a 14.239125
_cell_length_b 8.629819
_cell_length_c 24.386820
_cell_angle_alpha 90.000000
_cell_angle_beta 30.988835
_cell_angle_gamma 90.000000
_cell_volume 1542.902990
_symmetry_space_group_name_H-M "P 2/M"
_symmetry_group_IT_number 10
_symmetry_cell_setting 'monoclinic'
loop_
_space_group_symop_operation_xyz
x,y,z
-x,y,-z
-x,-y,-z
x,-y,z
loop_
_atom_site_type_symbol
_atom_site_label
_atom_site_fract_x
_atom_site_fract_y
_atom_site_fract_z
Si Si1 0.642057 0.680312 0.559105
Si Si2 0.056590 0.183712 0.661456
Si Si3 0.964270 0.817859 0.828068
Si Si4 0.349858 0.677087 0.951690
Si Si5 0.325917 0.321110 0.842801
Si Si6 0.741361 0.818254 0.736987
Si Si7 0.752244 0.183412 0.224298
Si Si8 0.706152 0.822414 0.634649
O O1 0.600302 0.500000 0.575930
O O2 0.754529 0.735977 0.450125
O O3 0.452517 0.772689 0.655655
O O4 0.760995 0.718185 0.554732
O O5 0.006349 0.248219 0.746676
O O6 0.898116 0.237056 0.699438
O O7 0.082976 0.000000 0.647062
O O8 0.111643 0.751899 0.797348
O O9 0.977781 0.000000 0.818696
O O10 0.760240 0.772638 0.947895
O O11 0.345413 0.500000 0.972153
O O12 0.249630 0.699689 0.942542
O O13 0.558750 0.728776 0.844745
O O14 0.386113 0.500000 0.803224
O O15 0.189377 0.267380 0.862512
O O16 0.493856 0.203863 0.753059
O O17 0.807981 0.779649 0.640966
O O18 0.699982 0.000000 0.762886
O O19 0.770229 0.000000 0.208418
O O20 0.743747 0.000000 0.599610
#
# Coordination Sequence:
#
# PCOD8064714 Si02
#       8
#     4   4   4   4   4   4   4   4
#     4  11  22  36  56  83 113 145 176 219 276 331
#     4  10  22  41  59  78 106 144 189 232 267 314
#     4  10  23  40  58  79 106 143 190 232 268 315
#     4  10  21  36  57  83 115 147 176 219 275 327
#     4   9  17  31  52  81 112 143 175 213 268 330
#     4   9  19  36  60  84 109 143 183 224 268 317
#     4  10  20  36  58  83 109 142 181 226 272 319
#     4   9  16  30  54  83 110 139 176 219 265 321
#
# _framework density 20.740124999999999
#
# number of rings (size 3 to 8) (size 9 to 14) (size 15 to 20)
#    0.000    2.250    0.000    4.125    0.000    6.000 
#    0.000   10.000    0.000    0.000    0.000    0.000 
#    0.000    0.000    0.000    0.000    0.000    0.000 
#
# Total GULP energy -396676.190788 kJ/mol
# GULP energy per Si atom -12396.130962 kJ/mol
# Density = 2.069292 g / cm^3
# Si number density = 20.740125 Si / 1000 Ang^3
#
#
#
# Elastic Constant Matrix: (Units=GPa)
#
#
# Indices 1 2 3 4 5 6 
#
# 1 71.1058 14.6006 2.1488 0.0000 8.0568 0.0000
# 2 14.6006 36.1210 8.2869 0.0000 4.9186 0.0000
# 3 2.1488 8.2869 69.9448 0.0000 19.2979 0.0000
# 4 0.0000 0.0000 0.0000 14.3087 0.0000 5.3777
# 5 8.0568 4.9186 19.2979 0.0000 29.8364 0.0000
# 6 0.0000 0.0000 0.0000 5.3777 0.0000 13.6870
#
#
#
# Elastic Compliance Matrix: (Units=1/GPa)
#
#
# Indices 1 2 3 4 5 6 
#
# 1 0.015747 -0.006119 0.001383 0.000000 -0.004138 0.000000
# 2 -0.006119 0.031067 -0.003086 0.000000 -0.001473 0.000000
# 3 0.001383 -0.003086 0.017750 0.000000 -0.011345 0.000000
# 4 0.000000 0.000000 0.000000 0.081996 0.000000 -0.032217
# 5 -0.004138 -0.001473 -0.011345 0.000000 0.042214 0.000000
# 6 0.000000 0.000000 0.000000 -0.032217 0.000000 0.085720
#
#
# Mechanical properties :
#
#
# Convention : Reuss Voigt Hill
#
# Bulk Modulus (GPa) = 20.44187 25.24935 22.84561
# Shear Modulus (GPa) = 16.31606 21.70876 19.01241
#
# Velocity S-wave (km/s) = 2.80784 3.23879 3.03098
# Velocity P-wave (km/s) = 4.51548 5.11732 4.82579
#
# Compressibility (1/GPa) = 0.04891919
#
# Stress axis : x y z
#
# Youngs Moduli (GPa) = 63.50385 32.18876 56.33679
#
# Poissons Ratio (x) = 0.19696 -0.07791
# Poissons Ratio (y) = 0.38858 0.17388
# Poissons Ratio (z) = -0.08782 0.09935
#
# Static dielectric constant tensor:
#      x y z
#    x 4.182640 0.000000 0.316420 
#    y 0.000000 3.572080 0.000000 
#    z 0.316420 0.000000 3.568660 
# 
# 
# High freq. dielectric constant tensor:
#      x y z
#    x 1.811240 0.000000 0.013500 
#    y 0.000000 1.803280 0.000000 
#    z 0.013500 0.000000 1.801490 
# 
# From -- ./inp_files/89548.got.cif
#   From: 2010.06.25/outbox.cif.g09.slc.cpg/sg10_45_cif.got.tgz:89548.got - 2010.06.27 22:07:45.
