data_PCOD8064406
_publ_section_title
;
Structure prediction by ZEFSAII (Michael W. Deem and Ramdas Pophale) SiO2 
 PCOD8064406
Probable space group: P 2/M
;
_chemical_formula_sum "Si O2"
_cell_formula_units_Z 24
_cell_length_a 10.941921
_cell_length_b 13.737632
_cell_length_c 13.767044
_cell_angle_alpha 90.000000
_cell_angle_beta 146.902096
_cell_angle_gamma 90.000000
_cell_volume 1130.044426
_symmetry_space_group_name_H-M "P 2/M"
_symmetry_group_IT_number 10
_symmetry_cell_setting 'monoclinic'
loop_
_space_group_symop_operation_xyz
x,y,z
-x,y,-z
-x,-y,-z
x,-y,z
loop_
_atom_site_type_symbol
_atom_site_label
_atom_site_fract_x
_atom_site_fract_y
_atom_site_fract_z
Si Si1 0.235116 0.609287 0.707607
Si Si2 0.903584 0.887090 0.041378
Si Si3 0.955520 0.608170 0.216052
Si Si4 0.474262 0.238232 0.733838
Si Si5 0.728941 0.784626 0.591955
Si Si6 0.770936 0.607147 0.887581
O O1 0.350674 0.500000 0.775087
O O2 0.196801 0.638644 0.793995
O O3 0.362239 0.701739 0.746404
O O4 0.000000 0.600346 0.500000
O O5 0.087856 0.859043 0.243982
O O6 0.847208 0.000000 0.013923
O O7 0.670434 0.830467 0.905884
O O8 0.000000 0.861192 0.000000
O O9 0.055660 0.500000 0.298694
O O10 0.167393 0.676528 0.336755
O O11 0.781982 0.608744 0.011652
O O12 0.309751 0.183789 0.548014
O O13 0.576040 0.319976 0.727050
O O14 0.500000 0.792787 0.500000
O O15 0.727739 0.500000 0.815449
O O16 0.000000 0.651024 0.000000
#
# Coordination Sequence:
#
# PCOD8064406 Si02
#       6
#     4   4   4   4   4   4
#     4  10  21  38  61  94 134 177 224 264 300 365
#     4  11  25  46  68  95 128 158 208 279 340 397
#     4  10  21  38  59  92 135 178 219 255 301 370
#     4  12  22  38  66  92 127 170 212 262 321 379
#     4  12  23  38  66  97 129 166 212 262 326 392
#     4  10  20  35  57  89 133 172 207 255 312 377
#
# _framework density 21.238102999999999
#
# number of rings (size 3 to 8) (size 9 to 14) (size 15 to 20)
#    0.000    1.167    5.000    2.000    0.000    2.667 
#    0.000    2.500    0.000    2.500    0.000    0.000 
#    0.000    0.000    0.000    0.000    0.000    0.000 
#
# Total GULP energy -297415.000122 kJ/mol
# GULP energy per Si atom -12392.291672 kJ/mol
# Density = 2.118976 g / cm^3
# Si number density = 21.238103 Si / 1000 Ang^3
#
#
#
# Elastic Constant Matrix: (Units=GPa)
#
#
# Indices 1 2 3 4 5 6 
#
# 1 100.3550 41.2531 26.0135 0.0000 -8.6155 0.0000
# 2 41.2531 102.3589 33.6224 0.0000 14.3937 0.0000
# 3 26.0135 33.6224 92.6762 0.0000 -2.5480 0.0000
# 4 0.0000 0.0000 0.0000 14.6109 0.0000 7.2331
# 5 -8.6155 14.3937 -2.5480 0.0000 30.3392 0.0000
# 6 0.0000 0.0000 0.0000 7.2331 0.0000 26.8036
#
#
#
# Elastic Compliance Matrix: (Units=1/GPa)
#
#
# Indices 1 2 3 4 5 6 
#
# 1 0.013258 -0.005762 -0.001456 0.000000 0.006376 0.000000
# 2 -0.005762 0.014639 -0.003939 0.000000 -0.008912 0.000000
# 3 -0.001456 -0.003939 0.012697 0.000000 0.002522 0.000000
# 4 0.000000 0.000000 0.000000 0.078995 0.000000 -0.021317
# 5 0.006376 -0.008912 0.002522 0.000000 0.039211 0.000000
# 6 0.000000 0.000000 0.000000 -0.021317 0.000000 0.043061
#
#
# Mechanical properties :
#
#
# Convention : Reuss Voigt Hill
#
# Bulk Modulus (GPa) = 54.70006 55.24090 54.97048
# Shear Modulus (GPa) = 21.71395 27.31746 24.51570
#
# Velocity S-wave (km/s) = 3.20098 3.59032 3.40122
# Velocity P-wave (km/s) = 6.28277 6.57677 6.43145
#
# Compressibility (1/GPa) = 0.01828151
#
# Stress axis : x y z
#
# Youngs Moduli (GPa) = 75.42713 68.31282 78.75813
#
# Poissons Ratio (x) = 0.39359 0.11465
# Poissons Ratio (y) = 0.43458 0.31019
# Poissons Ratio (z) = 0.10981 0.26905
#
# Static dielectric constant tensor:
#      x y z
#    x 3.330090 0.000000 0.176080 
#    y 0.000000 3.743780 0.000000 
#    z 0.176080 0.000000 3.767850 
# 
# 
# High freq. dielectric constant tensor:
#      x y z
#    x 1.824040 0.000000 -0.005760 
#    y 0.000000 1.809790 0.000000 
#    z -0.005760 0.000000 1.843890 
# 
# From -- ./inp_files/65172.got.cif
#   From: 2010.06.25/outbox.cif.g09.slc.cpg/sg10_33_cif.got.tgz:65172.got - 2010.06.27 22:07:45.
