data_PCOD8064488
_publ_section_title
;
Structure prediction by ZEFSAII (Michael W. Deem and Ramdas Pophale) SiO2 
 PCOD8064488
Probable space group: P 2/M
;
_chemical_formula_sum "Si O2"
_cell_formula_units_Z 24
_cell_length_a 10.869726
_cell_length_b 9.345115
_cell_length_c 12.263964
_cell_angle_alpha 90.000000
_cell_angle_beta 101.002099
_cell_angle_gamma 90.000000
_cell_volume 1222.862416
_symmetry_space_group_name_H-M "P 2/M"
_symmetry_group_IT_number 10
_symmetry_cell_setting 'monoclinic'
loop_
_space_group_symop_operation_xyz
x,y,z
-x,y,-z
-x,-y,-z
x,-y,z
loop_
_atom_site_type_symbol
_atom_site_label
_atom_site_fract_x
_atom_site_fract_y
_atom_site_fract_z
Si Si1 0.643853 0.169519 0.548770
Si Si2 0.287571 0.662658 0.224838
Si Si3 0.765664 0.168069 0.190850
Si Si4 0.869932 0.831865 0.432693
Si Si5 0.467218 0.660662 0.876076
Si Si6 0.853321 0.840393 0.971534
O O1 0.500000 0.217890 0.500000
O O2 0.694869 0.248027 0.663459
O O3 0.741542 0.218914 0.470898
O O4 0.647792 0.000000 0.569197
O O5 0.246574 0.500000 0.244919
O O6 0.414779 0.664385 0.180596
O O7 0.182382 0.736068 0.132553
O O8 0.862859 0.209110 0.303390
O O9 0.635306 0.241728 0.199156
O O10 0.743707 0.000000 0.185776
O O11 0.810725 0.224304 0.080864
O O12 0.000000 0.762065 0.500000
O O13 0.878480 0.000000 0.451290
O O14 0.414776 0.500000 0.881812
O O15 0.500000 0.725932 0.000000
O O16 0.795824 0.000000 0.943460
O O17 0.000000 0.853311 0.000000
#
# Coordination Sequence:
#
# PCOD8064488 Si02
#       6
#     4   4   4   4   4   4
#     4  10  21  38  61  87 116 151 196 246 291 340
#     4  11  23  38  59  85 116 154 193 234 286 348
#     4  10  20  35  59  88 113 143 189 237 282 340
#     4   9  19  35  58  85 114 149 187 235 292 343
#     4  10  20  36  55  79 114 151 184 223 282 343
#     4  10  22  37  57  87 118 149 189 238 290 343
#
# _framework density 19.626083999999999
#
# number of rings (size 3 to 8) (size 9 to 14) (size 15 to 20)
#    0.000    2.000    1.667    1.500    2.333    3.667 
#    0.000    0.833    0.000    1.000    0.000    0.000 
#    0.000    0.000    0.000    0.000    0.000    0.000 
#
# Total GULP energy -297534.617135 kJ/mol
# GULP energy per Si atom -12397.275714 kJ/mol
# Density = 1.958141 g / cm^3
# Si number density = 19.626084 Si / 1000 Ang^3
#
#
#
# Elastic Constant Matrix: (Units=GPa)
#
#
# Indices 1 2 3 4 5 6 
#
# 1 85.9527 18.2090 34.8450 0.0000 12.2725 0.0000
# 2 18.2090 48.8966 45.0620 0.0000 7.7582 0.0000
# 3 34.8450 45.0620 132.8731 0.0000 11.5052 0.0000
# 4 0.0000 0.0000 0.0000 -0.7648 0.0000 -10.9006
# 5 12.2725 7.7582 11.5052 0.0000 33.7326 0.0000
# 6 0.0000 0.0000 0.0000 -10.9006 0.0000 29.0174
#
#
#
# Elastic Compliance Matrix: (Units=1/GPa)
#
#
# Indices 1 2 3 4 5 6 
#
# 1 0.013633 -0.002180 -0.002525 0.000000 -0.003598 0.000000
# 2 -0.002180 0.030505 -0.009516 0.000000 -0.002977 0.000000
# 3 -0.002525 -0.009516 0.011485 0.000000 -0.000810 0.000000
# 4 0.000000 0.000000 0.000000 -0.205777 0.000000 -0.077301
# 5 -0.003598 -0.002977 -0.000810 0.000000 0.031915 0.000000
# 6 0.000000 0.000000 0.000000 -0.077301 0.000000 0.005423
#
#
# Mechanical properties :
#
#
# Convention : Reuss Voigt Hill
#
# Bulk Modulus (GPa) = 36.78706 51.55049 44.16877
# Shear Modulus (GPa) = -66.38930 23.70414 -21.34258
#
# Velocity S-wave (km/s) = -5.82241 3.47909 -3.30124
# Velocity P-wave (km/s) = 5.13965 6.51630 2.83250
#
# Compressibility (1/GPa) = 0.02718347
#
# Stress axis : x y z
#
# Youngs Moduli (GPa) = 73.35054 32.78141 87.06725
#
# Poissons Ratio (x) = 0.07145 0.21980
# Poissons Ratio (y) = 0.15987 0.82853
# Poissons Ratio (z) = 0.18517 0.31195
#
# Static dielectric constant tensor:
#      x y z
#    x 3.350820 0.000000 0.496790 
#    y 0.000000 3.575560 0.000000 
#    z 0.496790 0.000000 2.909910 
# 
# 
# High freq. dielectric constant tensor:
#      x y z
#    x 1.765810 0.000000 -0.000300 
#    y 0.000000 1.738510 0.000000 
#    z -0.000300 0.000000 1.776950 
# 
# From -- ./inp_files/45281.got.cif
#   From: 2010.06.25/outbox.cif.g09.slc.cpg/sg10_23_cif.got.tgz:45281.got - 2010.06.27 22:07:45.
