data_PCOD8064421
_publ_section_title
;
Structure prediction by ZEFSAII (Michael W. Deem and Ramdas Pophale) SiO2 
 PCOD8064421
Probable space group: P 2/M
;
_chemical_formula_sum "Si O2"
_cell_formula_units_Z 24
_cell_length_a 14.627489
_cell_length_b 9.313141
_cell_length_c 9.727786
_cell_angle_alpha 90.000000
_cell_angle_beta 70.608371
_cell_angle_gamma 90.000000
_cell_volume 1250.018759
_symmetry_space_group_name_H-M "P 2/M"
_symmetry_group_IT_number 10
_symmetry_cell_setting 'monoclinic'
loop_
_space_group_symop_operation_xyz
x,y,z
-x,y,-z
-x,-y,-z
x,-y,z
loop_
_atom_site_type_symbol
_atom_site_label
_atom_site_fract_x
_atom_site_fract_y
_atom_site_fract_z
Si Si1 0.723310 0.334011 0.099752
Si Si2 0.903733 0.167713 0.136162
Si Si3 0.611405 0.831241 0.925806
Si Si4 0.706563 0.162741 0.595661
Si Si5 0.921687 0.165138 0.437411
Si Si6 0.394289 0.336654 0.575987
O O1 0.748042 0.500000 0.055851
O O2 0.819050 0.256646 0.106285
O O3 0.635781 0.321962 0.251447
O O4 0.684252 0.256616 0.984299
O O5 0.919846 0.229418 0.283231
O O6 0.873541 0.000000 0.155479
O O7 0.000000 0.191631 0.000000
O O8 0.642596 0.789363 0.756632
O O9 0.625074 0.000000 0.949089
O O10 0.500000 0.783862 0.000000
O O11 0.820253 0.183150 0.567659
O O12 0.684294 0.256073 0.474570
O O13 0.682554 0.000000 0.568361
O O14 0.000000 0.240885 0.500000
O O15 0.951508 0.000000 0.403815
O O16 0.500000 0.266592 0.500000
O O17 0.395845 0.500000 0.524446
#
# Coordination Sequence:
#
# PCOD8064421 Si02
#       6
#     4   4   4   4   4   4
#     4  11  23  38  58  84 118 156 192 236 287 343
#     4  10  21  37  61  87 112 148 190 236 290 344
#     4  10  22  38  57  85 118 151 193 241 285 336
#     4  10  20  35  58  84 111 144 185 237 285 331
#     4   9  18  33  55  84 111 138 179 230 282 336
#     4  10  21  37  57  81 112 151 191 231 279 340
#
# _framework density 19.199711000000001
#
# number of rings (size 3 to 8) (size 9 to 14) (size 15 to 20)
#    0.000    2.000    1.667    1.500    2.333    2.333 
#    0.000    0.000    0.000    1.000    0.000    0.000 
#    0.000    0.000    0.000    0.000    0.000    0.000 
#
# Total GULP energy -297607.639162 kJ/mol
# GULP energy per Si atom -12400.318298 kJ/mol
# Density = 1.915601 g / cm^3
# Si number density = 19.199711 Si / 1000 Ang^3
#
#
#
# Elastic Constant Matrix: (Units=GPa)
#
#
# Indices 1 2 3 4 5 6 
#
# 1 91.0219 29.7359 26.7562 0.0000 8.1925 0.0000
# 2 29.7359 54.9188 23.7135 0.0000 9.8571 0.0000
# 3 26.7562 23.7135 83.5688 0.0000 -3.2620 0.0000
# 4 0.0000 0.0000 0.0000 14.6692 0.0000 -0.1328
# 5 8.1925 9.8571 -3.2620 0.0000 39.1845 0.0000
# 6 0.0000 0.0000 0.0000 -0.1328 0.0000 27.9829
#
#
#
# Elastic Compliance Matrix: (Units=1/GPa)
#
#
# Indices 1 2 3 4 5 6 
#
# 1 0.013931 -0.006037 -0.002811 0.000000 -0.001628 0.000000
# 2 -0.006037 0.024734 -0.005296 0.000000 -0.005401 0.000000
# 3 -0.002811 -0.005296 0.014491 0.000000 0.003126 0.000000
# 4 0.000000 0.000000 0.000000 0.068173 0.000000 0.000324
# 5 -0.001628 -0.005401 0.003126 0.000000 0.027479 0.000000
# 6 0.000000 0.000000 0.000000 0.000324 0.000000 0.035738
#
#
# Mechanical properties :
#
#
# Convention : Reuss Voigt Hill
#
# Bulk Modulus (GPa) = 40.21323 43.32450 41.76887
# Shear Modulus (GPa) = 22.61166 26.32090 24.46628
#
# Velocity S-wave (km/s) = 3.43550 3.70658 3.57361
# Velocity P-wave (km/s) = 6.06028 6.39785 6.23136
#
# Compressibility (1/GPa) = 0.02486744
#
# Stress axis : x y z
#
# Youngs Moduli (GPa) = 71.77988 40.43040 69.00812
#
# Poissons Ratio (x) = 0.24409 0.19397
# Poissons Ratio (y) = 0.43336 0.36549
# Poissons Ratio (z) = 0.20176 0.21413
#
# Static dielectric constant tensor:
#      x y z
#    x 3.564560 0.000000 -0.052280 
#    y 0.000000 3.339880 0.000000 
#    z -0.052280 0.000000 3.638660 
# 
# 
# High freq. dielectric constant tensor:
#      x y z
#    x 1.756820 0.000000 -0.005080 
#    y 0.000000 1.719810 0.000000 
#    z -0.005080 0.000000 1.756840 
# 
# From -- ./inp_files/27010.got.cif
#   From: 2010.06.25/outbox.cif.g09.slc.cpg/sg10_14_cif.got.tgz:27010.got - 2010.06.27 22:07:45.
