data_PCOD8064013
_publ_section_title
;
Structure prediction by ZEFSAII (Michael W. Deem and Ramdas Pophale) SiO2 
 PCOD8064013
Probable space group: P 2/M
;
_chemical_formula_sum "Si O2"
_cell_formula_units_Z 32
_cell_length_a 11.666616
_cell_length_b 9.046039
_cell_length_c 23.696199
_cell_angle_alpha 90.000000
_cell_angle_beta 44.243054
_cell_angle_gamma 90.000000
_cell_volume 1744.829608
_symmetry_space_group_name_H-M "P 2/M"
_symmetry_group_IT_number 10
_symmetry_cell_setting 'monoclinic'
loop_
_space_group_symop_operation_xyz
x,y,z
-x,y,-z
-x,-y,-z
x,-y,z
loop_
_atom_site_type_symbol
_atom_site_label
_atom_site_fract_x
_atom_site_fract_y
_atom_site_fract_z
Si Si1 0.161062 0.824684 0.684189
Si Si2 0.597565 0.172565 0.224708
Si Si3 0.795345 0.171679 0.838258
Si Si4 0.259205 0.668377 0.030839
Si Si5 0.498055 0.169963 0.136301
Si Si6 0.456918 0.674895 0.643884
Si Si7 0.071155 0.668652 0.914906
Si Si8 0.653437 0.837500 0.487036
O O1 0.286509 0.741560 0.681104
O O2 0.195391 0.785187 0.606019
O O3 0.978055 0.767816 0.762064
O O4 0.182451 0.000000 0.686207
O O5 0.499212 0.209056 0.202080
O O6 0.510424 0.264543 0.304979
O O7 0.786105 0.220506 0.152613
O O8 0.592368 0.000000 0.241518
O O9 0.708933 0.250593 0.921435
O O10 0.683971 0.203616 0.822746
O O11 0.802747 0.000000 0.850248
O O12 0.312508 0.500000 0.019574
O O13 0.068022 0.683765 0.083252
O O14 0.366334 0.734030 0.942833
O O15 0.546763 0.000000 0.109334
O O16 0.442450 0.500000 0.649493
O O17 0.613959 0.721948 0.550600
O O18 0.137413 0.500000 0.894877
O O19 0.000000 0.718648 0.000000
O O20 0.500000 0.849240 0.500000
O O21 0.688598 0.000000 0.501055
#
# Coordination Sequence:
#
# PCOD8064013 Si02
#       8
#     4   4   4   4   4   4   4   4
#     4   9  18  34  56  80 106 136 167 206 254 303
#     4  11  22  35  53  75 101 135 177 215 253 303
#     4  10  21  37  55  75 101 132 171 215 257 299
#     4  11  22  35  53  76 102 133 171 212 258 307
#     4  10  22  38  54  72  97 134 176 218 257 297
#     4  11  21  32  51  80 111 138 166 203 253 307
#     4  10  20  35  52  73 103 134 164 207 258 304
#     4   8  15  30  52  78 107 135 165 202 249 302
#
# _framework density 18.3399
#
# number of rings (size 3 to 8) (size 9 to 14) (size 15 to 20)
#    0.000    2.000    1.250    3.750    0.000    8.500 
#    0.000    0.000    0.000    0.750    0.000    5.250 
#    0.000    0.000    0.000    0.000    0.000    0.000 
#
# Total GULP energy -396834.632910 kJ/mol
# GULP energy per Si atom -12401.082278 kJ/mol
# Density = 1.829816 g / cm^3
# Si number density = 18.339900 Si / 1000 Ang^3
#
#
#
# Elastic Constant Matrix: (Units=GPa)
#
#
# Indices 1 2 3 4 5 6 
#
# 1 73.4500 39.1208 35.9610 0.0000 17.3252 0.0000
# 2 39.1208 88.6421 50.5417 0.0000 14.5227 0.0000
# 3 35.9610 50.5417 106.7961 0.0000 22.9141 0.0000
# 4 0.0000 0.0000 0.0000 19.1247 0.0000 3.2225
# 5 17.3252 14.5227 22.9141 0.0000 22.5141 0.0000
# 6 0.0000 0.0000 0.0000 3.2225 0.0000 15.2056
#
#
#
# Elastic Compliance Matrix: (Units=1/GPa)
#
#
# Indices 1 2 3 4 5 6 
#
# 1 0.020088 -0.006311 -0.001707 0.000000 -0.009650 0.000000
# 2 -0.006311 0.017619 -0.006162 0.000000 -0.000237 0.000000
# 3 -0.001707 -0.006162 0.014994 0.000000 -0.009972 0.000000
# 4 0.000000 0.000000 0.000000 0.054225 0.000000 -0.011492
# 5 -0.009650 -0.000237 -0.009972 0.000000 0.062145 0.000000
# 6 0.000000 0.000000 0.000000 -0.011492 0.000000 0.068201
#
#
# Mechanical properties :
#
#
# Convention : Reuss Voigt Hill
#
# Bulk Modulus (GPa) = 41.08369 57.79280 49.43825
# Shear Modulus (GPa) = 18.26511 20.91988 19.59250
#
# Velocity S-wave (km/s) = 3.15925 3.38105 3.27203
# Velocity P-wave (km/s) = 5.97977 6.84270 6.42574
#
# Compressibility (1/GPa) = 0.02434056
#
# Stress axis : x y z
#
# Youngs Moduli (GPa) = 49.78070 56.75647 66.69177
#
# Poissons Ratio (x) = 0.35821 0.11383
# Poissons Ratio (y) = 0.31418 0.41098
# Poissons Ratio (z) = 0.08497 0.34975
#
# Static dielectric constant tensor:
#      x y z
#    x 3.275700 0.000000 0.074370 
#    y 0.000000 3.344110 0.000000 
#    z 0.074370 0.000000 3.706660 
# 
# 
# High freq. dielectric constant tensor:
#      x y z
#    x 1.687330 0.000000 0.011530 
#    y 0.000000 1.709220 0.000000 
#    z 0.011530 0.000000 1.714520 
# 
# From -- ./inp_files/83574.got.cif
#   From: 2010.06.25/outbox.cif.g09.slc.cpg/sg10_42_cif.got.tgz:83574.got - 2010.06.27 22:07:45.
