data_PCOD8064290
_publ_section_title
;
Structure prediction by ZEFSAII (Michael W. Deem and Ramdas Pophale) SiO2 
 PCOD8064290
Probable space group: P 2/M
;
_chemical_formula_sum "Si O2"
_cell_formula_units_Z 28
_cell_length_a 10.072454
_cell_length_b 13.831054
_cell_length_c 21.939075
_cell_angle_alpha 90.000000
_cell_angle_beta 153.889453
_cell_angle_gamma 90.000000
_cell_volume 1345.131253
_symmetry_space_group_name_H-M "P 2/M"
_symmetry_group_IT_number 10
_symmetry_cell_setting 'monoclinic'
loop_
_space_group_symop_operation_xyz
x,y,z
-x,y,-z
-x,-y,-z
x,-y,z
loop_
_atom_site_type_symbol
_atom_site_label
_atom_site_fract_x
_atom_site_fract_y
_atom_site_fract_z
Si Si1 0.426008 0.392177 0.905572
Si Si2 0.421114 0.889001 0.336701
Si Si3 0.026956 0.191905 0.372221
Si Si4 0.823105 0.112315 0.161627
Si Si5 0.311362 0.763905 0.657979
Si Si6 0.651991 0.389701 0.871000
Si Si7 0.809970 0.393403 0.595671
O O1 0.566208 0.500000 0.967699
O O2 0.572563 0.343984 0.905060
O O3 0.065428 0.395634 0.752766
O O4 0.500000 0.336496 0.000000
O O5 0.669795 0.870326 0.492252
O O6 0.481896 0.825006 0.302383
O O7 0.087620 0.863353 0.223026
O O8 0.439911 0.000000 0.324683
O O9 0.112202 0.305955 0.418069
O O10 0.883038 0.175194 0.246726
O O11 0.774374 0.168105 0.319132
O O12 0.830372 0.000000 0.183374
O O13 0.500000 0.140459 0.000000
O O14 0.488645 0.668695 0.750634
O O15 0.000000 0.729992 0.500000
O O16 0.532169 0.500000 0.819985
O O17 0.000000 0.383451 0.000000
O O18 0.500000 0.367026 0.500000
O O19 0.793787 0.500000 0.556688
#
# Coordination Sequence:
#
# PCOD8064290 Si02
#       7
#     4   4   4   4   4   4   4
#     4   9  18  36  58  82 113 154 202 243 288 348
#     4  10  22  42  65  88 120 157 198 250 304 367
#     4  11  21  38  63  90 119 160 201 248 302 360
#     4  10  22  40  63  93 122 151 194 251 311 364
#     4  10  23  40  60  89 120 157 205 250 299 359
#     4  10  21  41  62  85 123 166 205 247 296 355
#     4  10  20  35  56  86 125 160 195 243 296 348
#
# _framework density 20.815812000000001
#
# number of rings (size 3 to 8) (size 9 to 14) (size 15 to 20)
#    0.000    2.000    1.429    1.714    0.000    6.286 
#    7.714    2.143    0.000    3.000    0.000    0.000 
#    0.000    0.000    0.000    0.000    0.000    0.000 
#
# Total GULP energy -347065.779875 kJ/mol
# GULP energy per Si atom -12395.206424 kJ/mol
# Density = 2.076843 g / cm^3
# Si number density = 20.815812 Si / 1000 Ang^3
#
#
#
# Elastic Constant Matrix: (Units=GPa)
#
#
# Indices 1 2 3 4 5 6 
#
# 1 150.6849 59.5635 79.4400 0.0000 -3.4112 0.0000
# 2 59.5635 90.5495 40.3129 0.0000 -5.0133 0.0000
# 3 79.4400 40.3129 120.7935 0.0000 8.6834 0.0000
# 4 0.0000 0.0000 0.0000 31.7258 0.0000 19.1852
# 5 -3.4112 -5.0133 8.6834 0.0000 31.2704 0.0000
# 6 0.0000 0.0000 0.0000 19.1852 0.0000 58.2532
#
#
#
# Elastic Compliance Matrix: (Units=1/GPa)
#
#
# Indices 1 2 3 4 5 6 
#
# 1 0.012023 -0.004918 -0.006432 0.000000 0.002309 0.000000
# 2 -0.004918 0.015335 -0.002063 0.000000 0.002495 0.000000
# 3 -0.006432 -0.002063 0.013542 0.000000 -0.004793 0.000000
# 4 0.000000 0.000000 0.000000 0.039359 0.000000 -0.012963
# 5 0.002309 0.002495 -0.004793 0.000000 0.033962 0.000000
# 6 0.000000 0.000000 0.000000 -0.012963 0.000000 0.021436
#
#
# Mechanical properties :
#
#
# Convention : Reuss Voigt Hill
#
# Bulk Modulus (GPa) = 71.04958 80.07341 75.56149
# Shear Modulus (GPa) = 29.90901 36.43065 33.16983
#
# Velocity S-wave (km/s) = 3.79468 4.18801 3.99619
# Velocity P-wave (km/s) = 7.30795 7.87001 7.59418
#
# Compressibility (1/GPa) = 0.01407468
#
# Stress axis : x y z
#
# Youngs Moduli (GPa) = 83.17091 65.20970 73.84585
#
# Poissons Ratio (x) = 0.32068 0.47498
# Poissons Ratio (y) = 0.40900 0.15235
# Poissons Ratio (z) = 0.53496 0.13454
#
# Static dielectric constant tensor:
#      x y z
#    x 3.864300 0.000000 0.065040 
#    y 0.000000 3.819580 0.000000 
#    z 0.065040 0.000000 3.763190 
# 
# 
# High freq. dielectric constant tensor:
#      x y z
#    x 1.815980 0.000000 0.011820 
#    y 0.000000 1.811190 0.000000 
#    z 0.011820 0.000000 1.812670 
# 
# From -- ./inp_files/82949.got.cif
#   From: 2010.06.25/outbox.cif.g09.slc.cpg/sg10_42_cif.got.tgz:82949.got - 2010.06.27 22:07:45.
