data_PCOD8064385
_publ_section_title
;
Structure prediction by ZEFSAII (Michael W. Deem and Ramdas Pophale) SiO2 
 PCOD8064385
Probable space group: P 2/M
;
_chemical_formula_sum "Si O2"
_cell_formula_units_Z 32
_cell_length_a 19.920540
_cell_length_b 9.212195
_cell_length_c 25.698733
_cell_angle_alpha 90.000000
_cell_angle_beta 159.122719
_cell_angle_gamma 90.000000
_cell_volume 1680.637617
_symmetry_space_group_name_H-M "P 2/M"
_symmetry_group_IT_number 10
_symmetry_cell_setting 'monoclinic'
loop_
_space_group_symop_operation_xyz
x,y,z
-x,y,-z
-x,-y,-z
x,-y,z
loop_
_atom_site_type_symbol
_atom_site_label
_atom_site_fract_x
_atom_site_fract_y
_atom_site_fract_z
Si Si1 0.716856 0.170196 0.662855
Si Si2 0.116242 0.669778 0.682450
Si Si3 0.812667 0.671560 0.835208
Si Si4 0.627734 0.829595 0.209833
Si Si5 0.682362 0.334156 0.352253
Si Si6 0.864062 0.167419 0.659077
Si Si7 0.557257 0.332369 0.373548
Si Si8 0.761031 0.832883 0.127248
O O1 0.500000 0.216814 0.500000
O O2 0.811792 0.255163 0.778534
O O3 0.828183 0.219915 0.691887
O O4 0.735538 0.000000 0.687313
O O5 0.161221 0.500000 0.712089
O O6 0.199455 0.747357 0.691930
O O7 0.211551 0.732962 0.803003
O O8 0.895076 0.702112 0.523176
O O9 0.809487 0.500000 0.825117
O O10 0.635558 0.726128 0.740995
O O11 0.000000 0.723269 0.000000
O O12 0.608825 0.773526 0.254880
O O13 0.669069 0.000000 0.240406
O O14 0.437216 0.791995 0.041502
O O15 0.667954 0.500000 0.322016
O O16 0.549331 0.307702 0.305821
O O17 0.735042 0.250582 0.525232
O O18 0.080724 0.196923 0.801669
O O19 0.808470 0.000000 0.613956
O O20 0.587241 0.500000 0.408654
O O21 0.765679 0.000000 0.149185
#
# Coordination Sequence:
#
# PCOD8064385 Si02
#       8
#     4   4   4   4   4   4   4   4
#     4  10  20  35  57  86 115 146 188 234 279 330
#     4  11  22  38  61  86 112 147 191 234 281 336
#     4  10  22  38  57  85 119 153 189 230 280 336
#     4  11  24  39  56  83 117 150 187 231 283 339
#     4  10  22  39  58  83 113 147 189 236 282 333
#     4  10  20  36  59  84 113 147 188 235 281 331
#     4  10  20  37  59  82 113 149 188 233 280 332
#     4  10  22  39  58  83 115 149 187 234 283 335
#
# _framework density 19.040393000000002
#
# number of rings (size 3 to 8) (size 9 to 14) (size 15 to 20)
#    0.000    1.750    2.500    1.500    0.000    7.500 
#    0.000    0.000    0.000    0.000    0.000    0.000 
#    0.000    0.000    0.000    0.000    0.000    0.000 
#
# Total GULP energy -396969.198879 kJ/mol
# GULP energy per Si atom -12405.287465 kJ/mol
# Density = 1.899706 g / cm^3
# Si number density = 19.040393 Si / 1000 Ang^3
#
#
#
# Elastic Constant Matrix: (Units=GPa)
#
#
# Indices 1 2 3 4 5 6 
#
# 1 107.7143 35.0092 16.0922 0.0000 -8.1743 0.0000
# 2 35.0092 60.8593 30.8456 0.0000 -11.8093 0.0000
# 3 16.0922 30.8456 59.9790 0.0000 -13.6317 0.0000
# 4 0.0000 0.0000 0.0000 28.8676 0.0000 -8.9628
# 5 -8.1743 -11.8093 -13.6317 0.0000 35.0491 0.0000
# 6 0.0000 0.0000 0.0000 -8.9628 0.0000 35.0468
#
#
#
# Elastic Compliance Matrix: (Units=1/GPa)
#
#
# Indices 1 2 3 4 5 6 
#
# 1 0.011438 -0.006731 0.000531 0.000000 0.000606 0.000000
# 2 -0.006731 0.026547 -0.011157 0.000000 0.003036 0.000000
# 3 0.000531 -0.011157 0.023521 0.000000 0.005513 0.000000
# 4 0.000000 0.000000 0.000000 0.037629 0.000000 0.009623
# 5 0.000606 0.003036 0.005513 0.000000 0.031840 0.000000
# 6 0.000000 0.000000 0.000000 0.009623 0.000000 0.030994
#
#
# Mechanical properties :
#
#
# Convention : Reuss Voigt Hill
#
# Bulk Modulus (GPa) = 37.32526 43.60519 40.46522
# Shear Modulus (GPa) = 24.31749 29.56640 26.94195
#
# Velocity S-wave (km/s) = 3.57760 3.94487 3.76571
# Velocity P-wave (km/s) = 6.05900 6.61063 6.34081
#
# Compressibility (1/GPa) = 0.02679151
#
# Stress axis : x y z
#
# Youngs Moduli (GPa) = 87.42561 37.66903 42.51599
#
# Poissons Ratio (x) = 0.25356 -0.02256
# Poissons Ratio (y) = 0.58847 0.47433
# Poissons Ratio (z) = -0.04638 0.42026
#
# Static dielectric constant tensor:
#      x y z
#    x 3.696400 0.000000 0.130540 
#    y 0.000000 3.431270 0.000000 
#    z 0.130540 0.000000 3.430560 
# 
# 
# High freq. dielectric constant tensor:
#      x y z
#    x 1.756720 0.000000 0.004400 
#    y 0.000000 1.737030 0.000000 
#    z 0.004400 0.000000 1.736640 
# 
# From -- ./inp_files/86749.got.cif
#   From: 2010.06.25/outbox.cif.g09.slc.cpg/sg10_44_cif.got.tgz:86749.got - 2010.06.27 22:07:45.
