data_PCOD8064264
_publ_section_title
;
Structure prediction by ZEFSAII (Michael W. Deem and Ramdas Pophale) SiO2 
 PCOD8064264
Probable space group: P 2/M
;
_chemical_formula_sum "Si O2"
_cell_formula_units_Z 26
_cell_length_a 11.772133
_cell_length_b 9.800626
_cell_length_c 26.323194
_cell_angle_alpha 90.000000
_cell_angle_beta 26.564619
_cell_angle_gamma 90.000000
_cell_volume 1358.175860
_symmetry_space_group_name_H-M "P 2/M"
_symmetry_group_IT_number 10
_symmetry_cell_setting 'monoclinic'
loop_
_space_group_symop_operation_xyz
x,y,z
-x,y,-z
-x,-y,-z
x,-y,z
loop_
_atom_site_type_symbol
_atom_site_label
_atom_site_fract_x
_atom_site_fract_y
_atom_site_fract_z
Si Si1 0.813719 0.158125 0.276765
Si Si2 0.000000 0.749980 0.500000
Si Si3 0.488743 0.658122 0.867248
Si Si4 0.920780 0.841875 0.723234
Si Si5 0.042265 0.658122 0.867248
Si Si6 0.503118 0.654204 0.748441
Si Si7 0.751567 0.845794 0.500000
O O1 0.991077 0.249999 0.169641
O O2 0.528311 0.220498 0.386482
O O3 0.904792 0.175776 0.297604
O O4 0.828581 0.000000 0.253452
O O5 0.775868 0.657416 0.612066
O O6 0.887942 0.842556 0.499999
O O7 0.575595 0.500000 0.835478
O O8 0.669642 0.750001 0.830358
O O9 0.510965 0.720493 0.801277
O O10 0.202404 0.675779 1.000000
O O11 0.074241 0.779503 0.613517
O O12 0.842393 0.000000 0.746547
O O13 0.082491 0.500000 0.835479
O O14 0.283926 0.720493 0.801277
O O15 0.416437 0.500000 0.791781
O O16 0.708239 0.000000 0.500001
#
# Coordination Sequence:
#
# PCOD8064264 Si02
#       7
#     4   2   4   4   4   4   4
#     4  10  21  38  59  82 112 150 189 229 276 331
#     4  12  18  32  60  86 108 140 182 232 282 336
#     4  10  21  38  59  82 112 150 189 229 276 331
#     4  10  21  38  59  82 112 150 189 229 276 331
#     4  10  21  38  59  82 112 150 189 229 276 331
#     4  10  20  35  56  83 114 146 181 225 283 342
#     4  10  20  35  56  83 114 146 181 225 283 342
#
# _framework density 19.143324
#
# number of rings (size 3 to 8) (size 9 to 14) (size 15 to 20)
#    0.000    1.846    3.077    1.385    0.000    5.538 
#    0.000    4.615    0.000    3.692    0.000    0.000 
#    0.000    0.000    0.000    0.000    0.000    0.000 
#
# Total GULP energy -322391.824558 kJ/mol
# GULP energy per Si atom -12399.685560 kJ/mol
# Density = 1.909975 g / cm^3
# Si number density = 19.143324 Si / 1000 Ang^3
#
#
#
# Elastic Constant Matrix: (Units=GPa)
#
#
# Indices 1 2 3 4 5 6 
#
# 1 122.2804 39.1146 53.2101 0.0000 0.1596 0.0000
# 2 39.1146 58.9717 39.1161 0.0000 -0.0001 0.0000
# 3 53.2101 39.1161 122.2638 0.0000 -0.1590 0.0000
# 4 0.0000 0.0000 0.0000 27.2701 0.0000 0.0000
# 5 0.1596 -0.0001 -0.1590 0.0000 31.2515 0.0000
# 6 0.0000 0.0000 0.0000 0.0000 0.0000 27.2674
#
#
#
# Elastic Compliance Matrix: (Units=1/GPa)
#
#
# Indices 1 2 3 4 5 6 
#
# 1 0.011285 -0.005366 -0.003194 0.000000 -0.000074 0.000000
# 2 -0.005366 0.024077 -0.005368 0.000000 0.000000 0.000000
# 3 -0.003194 -0.005368 0.011287 0.000000 0.000074 0.000000
# 4 0.000000 0.000000 0.000000 0.036670 0.000000 0.000000
# 5 -0.000074 0.000000 0.000074 0.000000 0.031999 0.000000
# 6 0.000000 0.000000 0.000000 0.000000 0.000000 0.036674
#
#
# Mechanical properties :
#
#
# Convention : Reuss Voigt Hill
#
# Bulk Modulus (GPa) = 53.21435 62.93305 58.07370
# Shear Modulus (GPa) = 26.86566 28.62946 27.74756
#
# Velocity S-wave (km/s) = 3.75026 3.87141 3.81131
# Velocity P-wave (km/s) = 6.82721 7.27528 7.05480
#
# Compressibility (1/GPa) = 0.01879192
#
# Stress axis : x y z
#
# Youngs Moduli (GPa) = 88.61709 41.53387 88.59997
#
# Poissons Ratio (x) = 0.22286 0.28303
# Poissons Ratio (y) = 0.47551 0.47558
# Poissons Ratio (z) = 0.28309 0.22294
#
# Static dielectric constant tensor:
#      x y z
#    x 3.522600 0.000000 0.000010 
#    y 0.000000 3.200640 0.000000 
#    z 0.000010 0.000000 3.522350 
# 
# 
# High freq. dielectric constant tensor:
#      x y z
#    x 1.752930 0.000000 0.000000 
#    y 0.000000 1.714240 0.000000 
#    z 0.000000 0.000000 1.752910 
# 
# From -- ./inp_files/92613.got.cif
#   From: 2010.06.25/outbox.cif.g09.slc.cpg/sg10_47_cif.got.tgz:92613.got - 2010.06.27 22:07:45.
