data_PCOD8064809
_publ_section_title
;
Structure prediction by ZEFSAII (Michael W. Deem and Ramdas Pophale) SiO2 
 PCOD8064809
Probable space group: P 2/M
;
_chemical_formula_sum "Si O2"
_cell_formula_units_Z 28
_cell_length_a 9.968993
_cell_length_b 9.284097
_cell_length_c 26.006885
_cell_angle_alpha 90.000000
_cell_angle_beta 38.274047
_cell_angle_gamma 90.000000
_cell_volume 1490.963356
_symmetry_space_group_name_H-M "P 2/M"
_symmetry_group_IT_number 10
_symmetry_cell_setting 'monoclinic'
loop_
_space_group_symop_operation_xyz
x,y,z
-x,y,-z
-x,-y,-z
x,-y,z
loop_
_atom_site_type_symbol
_atom_site_label
_atom_site_fract_x
_atom_site_fract_y
_atom_site_fract_z
Si Si1 0.756589 0.330333 0.070972
Si Si2 0.956031 0.831951 0.758256
Si Si3 0.596502 0.165494 0.322748
Si Si4 0.470714 0.162312 0.771836
Si Si5 0.444530 0.330591 0.074190
Si Si6 0.037555 0.834295 0.361174
Si Si7 0.183550 0.329848 0.485290
O O1 0.761486 0.500000 0.076371
O O2 0.620432 0.270567 0.159125
O O3 0.643841 0.285789 0.051280
O O4 0.000000 0.266940 0.000000
O O5 0.773079 0.746694 0.843375
O O6 0.963011 0.780862 0.697297
O O7 0.185135 0.793796 0.713918
O O8 0.899830 0.000000 0.779050
O O9 0.642759 0.190847 0.248536
O O10 0.412609 0.270977 0.398030
O O11 0.526879 0.000000 0.353792
O O12 0.724912 0.188667 0.686923
O O13 0.429010 0.000000 0.804155
O O14 0.401841 0.500000 0.089527
O O15 0.500000 0.279803 0.000000
O O16 0.869948 0.737795 0.443272
O O17 0.962706 0.000000 0.387604
O O18 0.198892 0.500000 0.486607
O O19 0.000000 0.283493 0.500000
#
# Coordination Sequence:
#
# PCOD8064809 Si02
#       7
#     4   4   4   4   4   4   4
#     4  10  22  38  57  84 116 150 188 231 280 333
#     4  10  22  40  60  85 114 147 189 233 281 335
#     4  10  22  39  59  84 115 149 187 232 283 335
#     4  10  20  36  59  85 111 147 192 233 277 331
#     4  10  22  39  58  82 115 153 188 227 281 339
#     4  10  20  37  61  83 111 150 188 230 281 335
#     4  11  23  37  57  87 117 147 189 235 279 329
#
# _framework density 18.779805
#
# number of rings (size 3 to 8) (size 9 to 14) (size 15 to 20)
#    0.000    1.857    2.857    0.429    2.000    4.000 
#    0.000    2.857    0.000    0.000    0.000    0.000 
#    0.000    0.000    0.000    0.000    0.000    0.000 
#
# Total GULP energy -347322.485544 kJ/mol
# GULP energy per Si atom -12404.374484 kJ/mol
# Density = 1.873706 g / cm^3
# Si number density = 18.779805 Si / 1000 Ang^3
#
#
#
# Elastic Constant Matrix: (Units=GPa)
#
#
# Indices 1 2 3 4 5 6 
#
# 1 107.2745 34.8946 57.7251 0.0000 3.0723 0.0000
# 2 34.8946 48.3549 53.9161 0.0000 1.8820 0.0000
# 3 57.7251 53.9161 119.7951 0.0000 9.7838 0.0000
# 4 0.0000 0.0000 0.0000 40.1626 0.0000 1.5833
# 5 3.0723 1.8820 9.7838 0.0000 28.6683 0.0000
# 6 0.0000 0.0000 0.0000 1.5833 0.0000 28.1727
#
#
#
# Elastic Compliance Matrix: (Units=1/GPa)
#
#
# Indices 1 2 3 4 5 6 
#
# 1 0.013133 -0.004825 -0.004185 0.000000 0.000337 0.000000
# 2 -0.004825 0.043682 -0.017635 0.000000 0.003668 0.000000
# 3 -0.004185 -0.017635 0.018691 0.000000 -0.004773 0.000000
# 4 0.000000 0.000000 0.000000 0.024954 0.000000 -0.001402
# 5 0.000337 0.003668 -0.004773 0.000000 0.036233 0.000000
# 6 0.000000 0.000000 0.000000 -0.001402 0.000000 0.035574
#
#
# Mechanical properties :
#
#
# Convention : Reuss Voigt Hill
#
# Bulk Modulus (GPa) = 45.00834 63.16622 54.08728
# Shear Modulus (GPa) = 21.46273 27.99331 24.72802
#
# Velocity S-wave (km/s) = 3.38429 3.86503 3.63262
# Velocity P-wave (km/s) = 6.26814 7.32299 6.81600
#
# Compressibility (1/GPa) = 0.02221810
#
# Stress axis : x y z
#
# Youngs Moduli (GPa) = 76.14178 22.89262 53.50292
#
# Poissons Ratio (x) = 0.11045 0.22389
# Poissons Ratio (y) = 0.36737 0.94350
# Poissons Ratio (z) = 0.31862 0.40370
#
# Static dielectric constant tensor:
#      x y z
#    x 3.726730 0.000000 -0.011650 
#    y 0.000000 3.342480 0.000000 
#    z -0.011650 0.000000 3.318020 
# 
# 
# High freq. dielectric constant tensor:
#      x y z
#    x 1.743320 0.000000 0.003720 
#    y 0.000000 1.721510 0.000000 
#    z 0.003720 0.000000 1.729740 
# 
# From -- ./inp_files/91933.got.cif
#   From: 2010.06.25/outbox.cif.g09.slc.cpg/sg10_46_cif.got.tgz:91933.got - 2010.06.27 22:07:45.
