data_PCOD8064830
_publ_section_title
;
Structure prediction by ZEFSAII (Michael W. Deem and Ramdas Pophale) SiO2 
 PCOD8064830
Probable space group: P 2/M
;
_chemical_formula_sum "Si O2"
_cell_formula_units_Z 28
_cell_length_a 28.110870
_cell_length_b 8.701386
_cell_length_c 8.174671
_cell_angle_alpha 90.000000
_cell_angle_beta 43.663692
_cell_angle_gamma 90.000000
_cell_volume 1380.539913
_symmetry_space_group_name_H-M "P 2/M"
_symmetry_group_IT_number 10
_symmetry_cell_setting 'monoclinic'
loop_
_space_group_symop_operation_xyz
x,y,z
-x,y,-z
-x,-y,-z
x,-y,z
loop_
_atom_site_type_symbol
_atom_site_label
_atom_site_fract_x
_atom_site_fract_y
_atom_site_fract_z
Si Si1 0.931447 0.170711 0.567423
Si Si2 0.345520 0.679947 0.559676
Si Si3 0.348998 0.177042 0.196544
Si Si4 0.191949 0.824707 0.611522
Si Si5 0.070367 0.675365 0.746158
Si Si6 0.812172 0.324502 0.047517
Si Si7 0.579493 0.680771 0.298627
O O1 0.941066 0.308469 0.416975
O O2 0.862048 0.204218 0.838330
O O3 0.000000 0.176699 0.500000
O O4 0.923680 0.000000 0.509633
O O5 0.358566 0.500000 0.503491
O O6 0.367414 0.755626 0.331342
O O7 0.387664 0.744420 0.612394
O O8 0.266437 0.716574 0.800854
O O9 0.268674 0.200773 0.352430
O O10 0.369815 0.000000 0.151577
O O11 0.389345 0.253050 0.946246
O O12 0.135196 0.786048 0.617603
O O13 0.183373 0.000000 0.695017
O O14 0.177052 0.700265 0.787575
O O15 0.085367 0.500000 0.759171
O O16 0.000000 0.737623 0.000000
O O17 0.830113 0.500000 0.956919
O O18 0.500000 0.727186 0.500000
O O19 0.591510 0.500000 0.261754
#
# Coordination Sequence:
#
# PCOD8064830 Si02
#       7
#     4   4   4   4   4   4   4
#     4  11  24  39  56  80 113 153 192 237 293 353
#     4   9  20  39  62  89 120 160 204 249 303 361
#     4  10  22  39  61  91 124 161 201 250 308 364
#     4  10  21  38  59  85 115 151 192 238 298 360
#     4  11  24  39  57  82 112 149 193 243 293 346
#     4  10  20  36  59  86 113 147 193 245 295 348
#     4  10  22  40  63  91 124 163 207 254 303 363
#
# _framework density 20.28192
#
# number of rings (size 3 to 8) (size 9 to 14) (size 15 to 20)
#    0.000    1.857    0.000    3.000    2.000    8.286 
#    0.000    2.857    0.000    0.000    0.000    0.000 
#    0.000    0.000    0.000    0.000    0.000    0.000 
#
# Total GULP energy -347073.212414 kJ/mol
# GULP energy per Si atom -12395.471872 kJ/mol
# Density = 2.023576 g / cm^3
# Si number density = 20.281920 Si / 1000 Ang^3
#
#
#
# Elastic Constant Matrix: (Units=GPa)
#
#
# Indices 1 2 3 4 5 6 
#
# 1 131.3941 49.6652 72.1038 0.0000 2.7467 0.0000
# 2 49.6652 60.3401 50.1957 0.0000 -7.4849 0.0000
# 3 72.1038 50.1957 141.7745 0.0000 4.0493 0.0000
# 4 0.0000 0.0000 0.0000 33.4072 0.0000 1.7836
# 5 2.7467 -7.4849 4.0493 0.0000 23.3687 0.0000
# 6 0.0000 0.0000 0.0000 1.7836 0.0000 26.1807
#
#
#
# Elastic Compliance Matrix: (Units=1/GPa)
#
#
# Indices 1 2 3 4 5 6 
#
# 1 0.012579 -0.007841 -0.003525 0.000000 -0.003379 0.000000
# 2 -0.007841 0.030431 -0.007127 0.000000 0.011904 0.000000
# 3 -0.003525 -0.007127 0.011480 0.000000 -0.003858 0.000000
# 4 0.000000 0.000000 0.000000 0.030043 0.000000 -0.002047
# 5 -0.003379 0.011904 -0.003858 0.000000 0.047670 0.000000
# 6 0.000000 0.000000 0.000000 -0.002047 0.000000 0.038335
#
#
# Mechanical properties :
#
#
# Convention : Reuss Voigt Hill
#
# Bulk Modulus (GPa) = 57.12481 75.27089 66.19785
# Shear Modulus (GPa) = 23.43460 27.36092 25.39776
#
# Velocity S-wave (km/s) = 3.40287 3.67690 3.54253
# Velocity P-wave (km/s) = 6.60802 7.43095 7.03153
#
# Compressibility (1/GPa) = 0.01750553
#
# Stress axis : x y z
#
# Youngs Moduli (GPa) = 79.49473 32.86077 87.11041
#
# Poissons Ratio (x) = 0.25765 0.30708
# Poissons Ratio (y) = 0.62329 0.62081
# Poissons Ratio (z) = 0.28023 0.23419
#
# Static dielectric constant tensor:
#      x y z
#    x 3.797920 0.000000 -0.099570 
#    y 0.000000 3.619120 0.000000 
#    z -0.099570 0.000000 3.603370 
# 
# 
# High freq. dielectric constant tensor:
#      x y z
#    x 1.796690 0.000000 -0.001700 
#    y 0.000000 1.792790 0.000000 
#    z -0.001700 0.000000 1.793670 
# 
# From -- ./inp_files/37110.got.cif
#   From: 2010.06.25/outbox.cif.g09.slc.cpg/sg10_19_cif.got.tgz:37110.got - 2010.06.27 22:07:45.
