data_PCOD8064082
_publ_section_title
;
Structure prediction by ZEFSAII (Michael W. Deem and Ramdas Pophale) SiO2 
 PCOD8064082
Probable space group: P 2/M
;
_chemical_formula_sum "Si O2"
_cell_formula_units_Z 32
_cell_length_a 12.071833
_cell_length_b 9.101041
_cell_length_c 29.133992
_cell_angle_alpha 90.000000
_cell_angle_beta 148.885257
_cell_angle_gamma 90.000000
_cell_volume 1654.046946
_symmetry_space_group_name_H-M "P 2/M"
_symmetry_group_IT_number 10
_symmetry_cell_setting 'monoclinic'
loop_
_space_group_symop_operation_xyz
x,y,z
-x,y,-z
-x,-y,-z
x,-y,z
loop_
_atom_site_type_symbol
_atom_site_label
_atom_site_fract_x
_atom_site_fract_y
_atom_site_fract_z
Si Si1 0.380552 0.833150 0.549232
Si Si2 0.040767 0.332039 0.373988
Si Si3 0.198283 0.326784 0.330194
Si Si4 0.590454 0.330593 0.254160
Si Si5 0.627120 0.326109 0.974589
Si Si6 0.193139 0.326492 0.866048
Si Si7 0.242843 0.827887 0.072694
Si Si8 0.236849 0.832337 0.597486
O O1 0.154945 0.768812 0.452091
O O2 0.572397 0.744553 0.594708
O O3 0.389587 0.821808 0.607326
O O4 0.397443 0.000000 0.538592
O O5 0.108345 0.500000 0.407144
O O6 0.108048 0.280786 0.347477
O O7 0.785663 0.312392 0.287695
O O8 0.226692 0.500000 0.335854
O O9 0.031192 0.264801 0.233022
O O10 0.523146 0.500000 0.235417
O O11 0.389679 0.240210 0.164433
O O12 0.659422 0.272314 0.328177
O O13 0.629253 0.500000 0.965440
O O14 0.390960 0.268903 0.905244
O O15 0.707166 0.242625 0.958491
O O16 0.784917 0.283591 0.072760
O O17 0.199922 0.500000 0.863426
O O18 0.288408 0.000000 0.085992
O O19 0.000000 0.792884 0.000000
O O20 0.000000 0.776306 0.500000
O O21 0.223728 0.000000 0.611177
#
# Coordination Sequence:
#
# PCOD8064082 Si02
#       8
#     4   4   4   4   4   4   4   4
#     4  11  23  37  55  80 112 152 194 234 279 337
#     4  10  21  37  58  84 114 147 186 236 289 339
#     4  10  20  35  54  80 117 153 186 228 288 345
#     4  11  23  39  65  93 113 144 197 250 289 339
#     4   9  17  35  63  88 111 144 192 240 284 340
#     4   8  16  33  59  87 114 146 183 235 295 344
#     4  11  25  42  58  82 121 161 192 233 292 352
#     4  10  21  40  61  82 116 158 192 233 292 347
#
# _framework density 19.346488000000001
#
# number of rings (size 3 to 8) (size 9 to 14) (size 15 to 20)
#    0.000    2.000    1.250    3.000    0.000    7.750 
#    0.000    6.250    0.000    0.000    0.000    0.000 
#    0.000    0.000    0.000    0.000    0.000    0.000 
#
# Total GULP energy -396867.735497 kJ/mol
# GULP energy per Si atom -12402.116734 kJ/mol
# Density = 1.930245 g / cm^3
# Si number density = 19.346488 Si / 1000 Ang^3
#
#
#
# Elastic Constant Matrix: (Units=GPa)
#
#
# Indices 1 2 3 4 5 6 
#
# 1 85.1045 51.6778 45.5716 0.0000 -8.0657 0.0000
# 2 51.6778 76.2314 52.6171 0.0000 -3.2003 0.0000
# 3 45.5716 52.6171 117.2492 0.0000 -5.6341 0.0000
# 4 0.0000 0.0000 0.0000 25.4218 0.0000 0.7250
# 5 -8.0657 -3.2003 -5.6341 0.0000 27.5104 0.0000
# 6 0.0000 0.0000 0.0000 0.7250 0.0000 10.0107
#
#
#
# Elastic Compliance Matrix: (Units=1/GPa)
#
#
# Indices 1 2 3 4 5 6 
#
# 1 0.020939 -0.012372 -0.002384 0.000000 0.004212 0.000000
# 2 -0.012372 0.026321 -0.007100 0.000000 -0.002020 0.000000
# 3 -0.002384 -0.007100 0.012693 0.000000 0.001075 0.000000
# 4 0.000000 0.000000 0.000000 0.039418 0.000000 -0.002855
# 5 0.004212 -0.002020 0.001075 0.000000 0.037570 0.000000
# 6 0.000000 0.000000 0.000000 -0.002855 0.000000 0.100099
#
#
# Mechanical properties :
#
#
# Convention : Reuss Voigt Hill
#
# Bulk Modulus (GPa) = 61.57395 64.25759 62.91577
# Shear Modulus (GPa) = 17.47234 21.16981 19.32107
#
# Velocity S-wave (km/s) = 3.00847 3.31153 3.16363
# Velocity P-wave (km/s) = 6.63053 6.92155 6.77760
#
# Compressibility (1/GPa) = 0.01624064
#
# Stress axis : x y z
#
# Youngs Moduli (GPa) = 47.75849 37.99200 78.78182
#
# Poissons Ratio (x) = 0.47005 0.18779
# Poissons Ratio (y) = 0.59089 0.55937
# Poissons Ratio (z) = 0.11384 0.26975
#
# Static dielectric constant tensor:
#      x y z
#    x 3.518910 0.000000 -0.035950 
#    y 0.000000 3.386590 0.000000 
#    z -0.035950 0.000000 3.784300 
# 
# 
# High freq. dielectric constant tensor:
#      x y z
#    x 1.759610 0.000000 -0.004270 
#    y 0.000000 1.737380 0.000000 
#    z -0.004270 0.000000 1.759150 
# 
# From -- ./inp_files/95085.got.cif
#   From: 2010.06.25/outbox.cif.g09.slc.cpg/sg10_48_cif.got.tgz:95085.got - 2010.06.27 22:07:45.
