data_PCOD8064745
_publ_section_title
;
Structure prediction by ZEFSAII (Michael W. Deem and Ramdas Pophale) SiO2 
 PCOD8064745
Probable space group: P 2/M
;
_chemical_formula_sum "Si O2"
_cell_formula_units_Z 32
_cell_length_a 11.532564
_cell_length_b 12.972864
_cell_length_c 11.593655
_cell_angle_alpha 90.000000
_cell_angle_beta 102.706596
_cell_angle_gamma 90.000000
_cell_volume 1692.051173
_symmetry_space_group_name_H-M "P 2/M"
_symmetry_group_IT_number 10
_symmetry_cell_setting 'monoclinic'
loop_
_space_group_symop_operation_xyz
x,y,z
-x,y,-z
-x,-y,-z
x,-y,z
loop_
_atom_site_type_symbol
_atom_site_label
_atom_site_fract_x
_atom_site_fract_y
_atom_site_fract_z
Si Si1 0.716938 0.381833 0.403576
Si Si2 0.844111 0.738854 0.229465
Si Si3 0.691777 0.113841 0.051474
Si Si4 0.976486 0.619816 0.866090
Si Si5 0.959159 0.119163 0.622142
Si Si6 0.517101 0.266100 0.627764
Si Si7 0.213066 0.290938 0.346867
Si Si8 0.477165 0.111419 0.177350
O O1 0.736132 0.500000 0.370281
O O2 0.766920 0.303664 0.318412
O O3 0.574882 0.362534 0.387360
O O4 0.787824 0.363166 0.539117
O O5 0.770455 0.792488 0.112266
O O6 0.908437 0.640775 0.187141
O O7 0.936479 0.826751 0.284873
O O8 0.579918 0.103000 0.108230
O O9 0.755110 0.000000 0.062159
O O10 0.645315 0.144648 0.913342
O O11 0.951681 0.500000 0.870569
O O12 0.864128 0.668911 0.776663
O O13 0.000000 0.665863 0.000000
O O14 0.834995 0.178618 0.621760
O O15 0.000000 0.127195 0.500000
O O16 0.943639 0.000000 0.656408
O O17 0.500000 0.211829 0.500000
O O18 0.654538 0.293126 0.675614
O O19 0.477687 0.188460 0.716761
O O20 0.456552 0.000000 0.231137
#
# Coordination Sequence:
#
# PCOD8064745 Si02
#       8
#     4   4   4   4   4   4   4   4
#     4  11  22  38  60  88 113 146 197 244 286 340
#     4  11  20  36  61  85 114 149 187 241 285 333
#     4   9  18  33  58  83 109 147 188 227 278 341
#     4  10  23  40  58  83 112 151 197 237 285 340
#     4  10  20  36  58  85 116 147 186 235 287 340
#     4  10  22  37  56  85 118 152 186 233 291 344
#     4  10  22  39  60  82 116 156 189 234 294 335
#     4   9  18  34  55  82 113 148 186 224 275 341
#
# _framework density 18.911959
#
# number of rings (size 3 to 8) (size 9 to 14) (size 15 to 20)
#    0.000    2.000    2.500    1.875    1.750    3.500 
#    0.000    3.750    0.000    2.625    0.000    0.000 
#    0.000    0.000    0.000    0.000    0.000    0.000 
#
# Total GULP energy -396507.990544 kJ/mol
# GULP energy per Si atom -12390.874704 kJ/mol
# Density = 1.886891 g / cm^3
# Si number density = 18.911959 Si / 1000 Ang^3
#
#
#
# Elastic Constant Matrix: (Units=GPa)
#
#
# Indices 1 2 3 4 5 6 
#
# 1 89.9056 28.6542 29.2573 0.0000 11.8369 0.0000
# 2 28.6542 98.5997 41.9501 0.0000 10.5180 0.0000
# 3 29.2573 41.9501 106.1771 0.0000 11.2378 0.0000
# 4 0.0000 0.0000 0.0000 18.4454 0.0000 10.5490
# 5 11.8369 10.5180 11.2378 0.0000 27.2624 0.0000
# 6 0.0000 0.0000 0.0000 10.5490 0.0000 -3.2295
#
#
#
# Elastic Compliance Matrix: (Units=1/GPa)
#
#
# Indices 1 2 3 4 5 6 
#
# 1 0.013140 -0.002455 -0.002245 0.000000 -0.003833 0.000000
# 2 -0.002455 0.012864 -0.004176 0.000000 -0.002176 0.000000
# 3 -0.002245 -0.004176 0.011934 0.000000 -0.002333 0.000000
# 4 0.000000 0.000000 0.000000 0.018903 0.000000 0.061744
# 5 -0.003833 -0.002176 -0.002333 0.000000 0.040146 0.000000
# 6 0.000000 0.000000 0.000000 0.061744 0.000000 -0.107961
#
#
# Mechanical properties :
#
#
# Convention : Reuss Voigt Hill
#
# Bulk Modulus (GPa) = 49.53784 54.93395 52.23589
# Shear Modulus (GPa) = 370.19847 21.48369 195.84108
#
# Velocity S-wave (km/s) = 14.00619 3.37409 10.18719
# Velocity P-wave (km/s) = 16.96512 6.65504 12.88613
#
# Compressibility (1/GPa) = 0.02018659
#
# Stress axis : x y z
#
# Youngs Moduli (GPa) = 76.10106 77.73546 83.79571
#
# Poissons Ratio (x) = 0.19081 0.18816
# Poissons Ratio (y) = 0.18680 0.34992
# Poissons Ratio (z) = 0.17088 0.32462
#
# Static dielectric constant tensor:
#      x y z
#    x 3.474720 0.000000 0.170940 
#    y 0.000000 3.405460 0.000000 
#    z 0.170940 0.000000 3.823610 
# 
# 
# High freq. dielectric constant tensor:
#      x y z
#    x 1.729110 0.000000 0.006720 
#    y 0.000000 1.725010 0.000000 
#    z 0.006720 0.000000 1.744910 
# 
# From -- ./inp_files/47021.got.cif
#   From: 2010.06.25/outbox.cif.g09.slc.cpg/sg10_24_cif.got.tgz:47021.got - 2010.06.27 22:07:45.
