data_PCOD8064712
_publ_section_title
;
Structure prediction by ZEFSAII (Michael W. Deem and Ramdas Pophale) SiO2 
 PCOD8064712
Probable space group: P 2/M
;
_chemical_formula_sum "Si O2"
_cell_formula_units_Z 24
_cell_length_a 21.444754
_cell_length_b 7.623513
_cell_length_c 10.284369
_cell_angle_alpha 90.000000
_cell_angle_beta 46.640117
_cell_angle_gamma 90.000000
_cell_volume 1222.422887
_symmetry_space_group_name_H-M "P 2/M"
_symmetry_group_IT_number 10
_symmetry_cell_setting 'monoclinic'
loop_
_space_group_symop_operation_xyz
x,y,z
-x,y,-z
-x,-y,-z
x,-y,z
loop_
_atom_site_type_symbol
_atom_site_label
_atom_site_fract_x
_atom_site_fract_y
_atom_site_fract_z
Si Si1 0.908045 0.500000 0.795255
Si Si2 0.333121 0.801558 0.994708
Si Si3 0.106564 0.500000 0.489456
Si Si4 0.314394 0.202974 0.540966
Si Si5 0.766915 0.791665 0.615682
Si Si6 0.788397 0.793142 0.057411
Si Si7 0.497134 0.696931 0.361069
O O1 0.883644 0.500000 0.679240
O O2 0.008882 0.500000 0.674324
O O3 0.872752 0.677316 0.913030
O O4 0.283623 0.722907 0.940920
O O5 0.435495 0.787394 0.832900
O O6 0.304601 0.000000 0.041247
O O7 0.300421 0.723257 0.178277
O O8 0.147212 0.678580 0.488798
O O9 0.274233 0.260243 0.462503
O O10 0.246581 0.250318 0.749512
O O11 0.403353 0.303310 0.433606
O O12 0.338427 0.000000 0.510330
O O13 0.788408 0.000000 0.591138
O O14 0.810467 0.000000 0.011065
O O15 0.500000 0.788994 0.500000
O O16 0.530454 0.500000 0.329647
#
# Coordination Sequence:
#
# PCOD8064712 Si02
#       7
#     2   4   2   4   4   4   4
#     4  11  24  39  67  96 120 149 202 251 302 370
#     4  10  20  36  58  82 118 162 198 245 293 342
#     4  11  24  41  65  94 121 158 190 253 313 357
#     4  10  22  40  61  86 122 165 203 246 297 354
#     4  10  23  42  63  89 123 162 201 243 303 366
#     4  10  21  38  63  91 120 159 200 247 300 352
#     4  11  23  33  53  89 123 157 204 255 292 338
#
# _framework density 19.633141999999999
#
# number of rings (size 3 to 8) (size 9 to 14) (size 15 to 20)
#    0.000    1.667    3.333    0.500    4.667    2.000 
#    0.000    6.667    0.000    3.000    0.000    0.000 
#    0.000    0.000    0.000    0.000    0.000    0.000 
#
# Total GULP energy -297573.432249 kJ/mol
# GULP energy per Si atom -12398.893010 kJ/mol
# Density = 1.958846 g / cm^3
# Si number density = 19.633142 Si / 1000 Ang^3
#
#
#
# Elastic Constant Matrix: (Units=GPa)
#
#
# Indices 1 2 3 4 5 6 
#
# 1 134.5230 45.0411 84.9505 0.0000 3.6160 0.0000
# 2 45.0411 74.0051 46.8676 0.0000 -7.3795 0.0000
# 3 84.9505 46.8676 155.0125 0.0000 2.4266 0.0000
# 4 0.0000 0.0000 0.0000 26.5785 0.0000 -7.0609
# 5 3.6160 -7.3795 2.4266 0.0000 40.3984 0.0000
# 6 0.0000 0.0000 0.0000 -7.0609 0.0000 25.2028
#
#
#
# Elastic Compliance Matrix: (Units=1/GPa)
#
#
# Indices 1 2 3 4 5 6 
#
# 1 0.012332 -0.004198 -0.005465 0.000000 -0.001542 0.000000
# 2 -0.004198 0.018610 -0.003388 0.000000 0.003979 0.000000
# 3 -0.005465 -0.003388 0.010482 0.000000 -0.000759 0.000000
# 4 0.000000 0.000000 0.000000 0.040650 0.000000 0.011389
# 5 -0.001542 0.003979 -0.000759 0.000000 0.025664 0.000000
# 6 0.000000 0.000000 0.000000 0.011389 0.000000 0.042869
#
#
# Mechanical properties :
#
#
# Convention : Reuss Voigt Hill
#
# Bulk Modulus (GPa) = 65.26669 79.69544 72.48106
# Shear Modulus (GPa) = 27.50027 30.88137 29.19082
#
# Velocity S-wave (km/s) = 3.74666 3.97031 3.86011
# Velocity P-wave (km/s) = 7.21332 7.85482 7.54089
#
# Compressibility (1/GPa) = 0.01532175
#
# Stress axis : x y z
#
# Youngs Moduli (GPa) = 81.09198 53.73347 95.40082
#
# Poissons Ratio (x) = 0.22560 0.52132
# Poissons Ratio (y) = 0.34046 0.32324
# Poissons Ratio (z) = 0.44313 0.18206
#
# Static dielectric constant tensor:
#      x y z
#    x 3.414620 0.000000 0.225030 
#    y 0.000000 3.494210 0.000000 
#    z 0.225030 0.000000 3.675360 
# 
# 
# High freq. dielectric constant tensor:
#      x y z
#    x 1.747150 0.000000 0.008250 
#    y 0.000000 1.768440 0.000000 
#    z 0.008250 0.000000 1.770420 
# 
# From -- ./inp_files/33821.got.cif
#   From: 2010.06.25/outbox.cif.g09.slc.cpg/sg10_17_cif.got.tgz:33821.got - 2010.06.27 22:07:45.
