data_PCOD8064882
_publ_section_title
;
Structure prediction by ZEFSAII (Michael W. Deem and Ramdas Pophale) SiO2 
 PCOD8064882
Probable space group: P 2/M
;
_chemical_formula_sum "Si O2"
_cell_formula_units_Z 26
_cell_length_a 10.071337
_cell_length_b 7.524083
_cell_length_c 22.828298
_cell_angle_alpha 90.000000
_cell_angle_beta 139.109840
_cell_angle_gamma 90.000000
_cell_volume 1132.393933
_symmetry_space_group_name_H-M "P 2/M"
_symmetry_group_IT_number 10
_symmetry_cell_setting 'monoclinic'
loop_
_space_group_symop_operation_xyz
x,y,z
-x,y,-z
-x,-y,-z
x,-y,z
loop_
_atom_site_type_symbol
_atom_site_label
_atom_site_fract_x
_atom_site_fract_y
_atom_site_fract_z
Si Si1 0.727998 0.000000 0.547548
Si Si2 0.613055 0.706474 0.278240
Si Si3 0.721257 0.289025 0.747767
Si Si4 0.964952 0.293692 0.051637
Si Si5 0.486578 0.298162 0.110380
Si Si6 0.126735 0.000000 0.278745
Si Si7 0.676666 0.000000 0.106887
Si Si8 0.952051 0.708784 0.552273
O O1 0.500000 0.000000 0.500000
O O2 0.770823 0.173616 0.520522
O O3 0.885582 0.000000 0.654927
O O4 0.639703 0.500000 0.296661
O O5 0.493323 0.772432 0.295881
O O6 0.476182 0.748450 0.175849
O O7 0.840812 0.779863 0.347492
O O8 0.734408 0.500000 0.739214
O O9 0.893604 0.219126 0.850334
O O10 0.750110 0.178306 0.698105
O O11 0.018590 0.500000 0.062656
O O12 0.731378 0.261501 0.991907
O O13 0.000000 0.201281 0.000000
O O14 0.556233 0.500000 0.123900
O O15 0.654320 0.178076 0.136929
O O16 0.914144 0.000000 0.171574
O O17 0.500000 0.000000 0.000000
O O18 0.900751 0.500000 0.546060
O O19 0.000000 0.743903 0.500000
#
# Coordination Sequence:
#
# PCOD8064882 Si02
#       8
#     2   4   4   4   4   2   2   4
#     4  12  29  48  68  99 139 181 217 260 329 400
#     4   9  18  36  65  97 122 156 206 262 324 375
#     4  10  21  38  62  92 128 165 208 263 320 379
#     4   9  15  30  55  87 122 155 198 258 318 370
#     4  10  20  36  60  84 116 158 201 255 313 365
#     4  12  28  43  59  89 129 176 218 251 311 388
#     4  12  26  41  55  82 120 163 217 255 294 374
#     4  10  23  45  75 104 129 164 218 276 327 385
#
# _framework density 22.960208999999999
#
# number of rings (size 3 to 8) (size 9 to 14) (size 15 to 20)
#    0.000    1.846    1.538    2.077    2.154    3.077 
#    0.000    0.769    0.000    0.000    0.000    0.000 
#    0.000    0.000    0.000    0.000    0.000    0.000 
#
# Total GULP energy -322158.510466 kJ/mol
# GULP energy per Si atom -12390.711941 kJ/mol
# Density = 2.290795 g / cm^3
# Si number density = 22.960209 Si / 1000 Ang^3
#
#
#
# Elastic Constant Matrix: (Units=GPa)
#
#
# Indices 1 2 3 4 5 6 
#
# 1 130.5454 66.9073 23.7401 0.0000 5.3853 0.0000
# 2 66.9073 113.1543 20.2684 0.0000 -4.7906 0.0000
# 3 23.7401 20.2684 62.6633 0.0000 7.2320 0.0000
# 4 0.0000 0.0000 0.0000 16.2998 0.0000 -1.3704
# 5 5.3853 -4.7906 7.2320 0.0000 31.5040 0.0000
# 6 0.0000 0.0000 0.0000 -1.3704 0.0000 36.7973
#
#
#
# Elastic Compliance Matrix: (Units=1/GPa)
#
#
# Indices 1 2 3 4 5 6 
#
# 1 0.011468 -0.006540 -0.001940 0.000000 -0.002510 0.000000
# 2 -0.006540 0.013259 -0.002232 0.000000 0.003646 0.000000
# 3 -0.001940 -0.002232 0.017890 0.000000 -0.004115 0.000000
# 4 0.000000 0.000000 0.000000 0.061543 0.000000 0.002292
# 5 -0.002510 0.003646 -0.004115 0.000000 0.033670 0.000000
# 6 0.000000 0.000000 0.000000 0.002292 0.000000 0.027261
#
#
# Mechanical properties :
#
#
# Convention : Reuss Voigt Hill
#
# Bulk Modulus (GPa) = 47.18315 58.68829 52.93572
# Shear Modulus (GPa) = 25.82930 29.95003 27.88967
#
# Velocity S-wave (km/s) = 3.35768 3.61561 3.48903
# Velocity P-wave (km/s) = 5.96880 6.56099 6.27189
#
# Compressibility (1/GPa) = 0.02119401
#
# Stress axis : x y z
#
# Youngs Moduli (GPa) = 87.19693 75.42271 55.89748
#
# Poissons Ratio (x) = 0.49326 0.10843
# Poissons Ratio (y) = 0.57026 0.12474
# Poissons Ratio (z) = 0.16915 0.16832
#
# Static dielectric constant tensor:
#      x y z
#    x 4.095080 0.000000 0.145350 
#    y 0.000000 3.738160 0.000000 
#    z 0.145350 0.000000 4.419330 
# 
# 
# High freq. dielectric constant tensor:
#      x y z
#    x 1.898380 0.000000 0.006440 
#    y 0.000000 1.894540 0.000000 
#    z 0.006440 0.000000 1.905790 
# 
# From -- ./inp_files/82271.got.cif
#   From: 2010.06.25/outbox.cif.g09.slc.cpg/sg10_42_cif.got.tgz:82271.got - 2010.06.27 22:07:45.
