data_PCOD8064564
_publ_section_title
;
Structure prediction by ZEFSAII (Michael W. Deem and Ramdas Pophale) SiO2 
 PCOD8064564
Probable space group: P 2/M
;
_chemical_formula_sum "Si O2"
_cell_formula_units_Z 32
_cell_length_a 11.913526
_cell_length_b 8.879630
_cell_length_c 28.883746
_cell_angle_alpha 90.000000
_cell_angle_beta 30.623371
_cell_angle_gamma 90.000000
_cell_volume 1556.471689
_symmetry_space_group_name_H-M "P 2/M"
_symmetry_group_IT_number 10
_symmetry_cell_setting 'monoclinic'
loop_
_space_group_symop_operation_xyz
x,y,z
-x,y,-z
-x,-y,-z
x,-y,z
loop_
_atom_site_type_symbol
_atom_site_label
_atom_site_fract_x
_atom_site_fract_y
_atom_site_fract_z
Si Si1 0.903391 0.674814 0.581229
Si Si2 0.718579 0.826929 0.324146
Si Si3 0.369758 0.178686 0.001764
Si Si4 0.547774 0.321212 0.216148
Si Si5 0.869960 0.175239 0.170182
Si Si6 0.298502 0.330335 0.508590
Si Si7 0.975406 0.327594 0.308101
Si Si8 0.421204 0.178023 0.168327
O O1 0.864346 0.500000 0.585018
O O2 0.667451 0.743385 0.680180
O O3 0.000000 0.751365 0.500000
O O4 0.072129 0.702647 0.562611
O O5 0.725650 0.794385 0.267162
O O6 0.478033 0.787883 0.428349
O O7 0.908694 0.729334 0.281066
O O8 0.771107 0.000000 0.316413
O O9 0.117140 0.233332 0.091978
O O10 0.380159 0.000000 0.000577
O O11 0.500000 0.246431 0.000000
O O12 0.481957 0.236697 0.914784
O O13 0.539412 0.500000 0.214893
O O14 0.766600 0.270428 0.165240
O O15 0.558859 0.252650 0.160880
O O16 0.869270 0.000000 0.156522
O O17 0.383937 0.500000 0.467916
O O18 0.243514 0.311001 0.582383
O O19 0.054990 0.500000 0.277857
O O20 0.168124 0.227734 0.261267
O O21 0.439687 0.000000 0.166523
#
# Coordination Sequence:
#
# PCOD8064564 Si02
#       8
#     4   4   4   4   4   4   4   4
#     4   9  17  32  55  79 108 153 203 241 279 343
#     4  11  23  37  57  87 120 154 197 254 307 349
#     4   9  19  39  66  91 117 156 201 242 295 364
#     4  11  22  39  61  87 122 160 200 245 297 359
#     4  10  22  41  62  87 120 155 199 249 298 355
#     4  10  20  36  55  80 115 158 203 240 290 361
#     4  11  22  38  59  84 119 161 201 243 296 363
#     4  11  22  38  64  92 119 155 200 253 304 352
#
# _framework density 20.559321000000001
#
# number of rings (size 3 to 8) (size 9 to 14) (size 15 to 20)
#    0.000    1.750    1.250    3.375    0.000    7.000 
#    0.000    3.750    0.000    5.250    0.000    0.000 
#    0.000    0.000    0.000    0.000    0.000    0.000 
#
# Total GULP energy -396904.387456 kJ/mol
# GULP energy per Si atom -12403.262108 kJ/mol
# Density = 2.051253 g / cm^3
# Si number density = 20.559321 Si / 1000 Ang^3
#
#
#
# Elastic Constant Matrix: (Units=GPa)
#
#
# Indices 1 2 3 4 5 6 
#
# 1 140.0891 44.7307 57.4522 0.0000 7.9276 0.0000
# 2 44.7307 63.3034 35.7117 0.0000 7.6432 0.0000
# 3 57.4522 35.7117 96.8694 0.0000 2.7475 0.0000
# 4 0.0000 0.0000 0.0000 19.5265 0.0000 -2.5098
# 5 7.9276 7.6432 2.7475 0.0000 33.2523 0.0000
# 6 0.0000 0.0000 0.0000 -2.5098 0.0000 33.3346
#
#
#
# Elastic Compliance Matrix: (Units=1/GPa)
#
#
# Indices 1 2 3 4 5 6 
#
# 1 0.010566 -0.004825 -0.004458 0.000000 -0.001042 0.000000
# 2 -0.004825 0.022690 -0.005400 0.000000 -0.003619 0.000000
# 3 -0.004458 -0.005400 0.014928 0.000000 0.001071 0.000000
# 4 0.000000 0.000000 0.000000 0.051713 0.000000 0.003894
# 5 -0.001042 -0.003619 0.001071 0.000000 0.031065 0.000000
# 6 0.000000 0.000000 0.000000 0.003894 0.000000 0.030292
#
#
# Mechanical properties :
#
#
# Convention : Reuss Voigt Hill
#
# Bulk Modulus (GPa) = 53.14586 64.00569 58.57578
# Shear Modulus (GPa) = 25.39431 28.04716 26.72074
#
# Velocity S-wave (km/s) = 3.51831 3.69752 3.60903
# Velocity P-wave (km/s) = 6.51236 7.03055 6.77641
#
# Compressibility (1/GPa) = 0.01881614
#
# Stress axis : x y z
#
# Youngs Moduli (GPa) = 94.63893 44.07209 66.98868
#
# Poissons Ratio (x) = 0.21267 0.29866
# Poissons Ratio (y) = 0.45668 0.36176
# Poissons Ratio (z) = 0.42194 0.23800
#
# Static dielectric constant tensor:
#      x y z
#    x 3.828490 0.000000 0.101810 
#    y 0.000000 3.429310 0.000000 
#    z 0.101810 0.000000 3.789510 
# 
# 
# High freq. dielectric constant tensor:
#      x y z
#    x 1.818950 0.000000 0.002690 
#    y 0.000000 1.774920 0.000000 
#    z 0.002690 0.000000 1.804070 
# 
# From -- ./inp_files/94939.got.cif
#   From: 2010.06.25/outbox.cif.g09.slc.cpg/sg10_48_cif.got.tgz:94939.got - 2010.06.27 22:07:45.
