data_PCOD8064762
_publ_section_title
;
Structure prediction by ZEFSAII (Michael W. Deem and Ramdas Pophale) SiO2 
 PCOD8064762
Probable space group: P 2/M
;
_chemical_formula_sum "Si O2"
_cell_formula_units_Z 16
_cell_length_a 11.963201
_cell_length_b 11.430939
_cell_length_c 7.504485
_cell_angle_alpha 90.000000
_cell_angle_beta 138.784481
_cell_angle_gamma 90.000000
_cell_volume 676.184557
_symmetry_space_group_name_H-M "P 2/M"
_symmetry_group_IT_number 10
_symmetry_cell_setting 'monoclinic'
loop_
_space_group_symop_operation_xyz
x,y,z
-x,y,-z
-x,-y,-z
x,-y,z
loop_
_atom_site_type_symbol
_atom_site_label
_atom_site_fract_x
_atom_site_fract_y
_atom_site_fract_z
Si Si1 0.515697 0.500000 0.307376
Si Si2 0.617595 0.749300 0.920663
Si Si3 0.088924 0.500000 0.295379
Si Si4 0.021992 0.747497 0.726559
Si Si5 0.297802 0.137561 0.598993
O O1 0.500000 0.500000 0.500000
O O2 0.421359 0.611938 0.112665
O O3 0.710009 0.500000 0.482458
O O4 0.449815 0.819318 0.648852
O O5 0.779728 0.768390 0.982177
O O6 0.667217 0.795808 0.174506
O O7 0.026062 0.612023 0.327416
O O8 0.000000 0.500000 0.000000
O O9 0.000000 0.794537 0.500000
O O10 0.890026 0.821455 0.693108
O O11 0.305216 0.000000 0.633213
#
# Coordination Sequence:
#
# PCOD8064762 Si02
#       5
#     2   4   2   4   4
#     4  12  24  39  60  89 119 159 201 244 306 366
#     4  10  20  36  58  88 122 150 196 243 300 348
#     4  12  23  40  60  87 123 159 195 252 304 368
#     4  10  21  37  59  91 123 156 197 244 303 358
#     4  10  21  37  61  90 120 160 199 241 293 350
#
# _framework density 23.662178999999998
#
# number of rings (size 3 to 8) (size 9 to 14) (size 15 to 20)
#    0.000    1.500    2.500    4.125    0.000   10.500 
#    0.000    0.000    0.000    3.750    0.000    0.000 
#    0.000    0.000    0.000    0.000    0.000    0.000 
#
# Total GULP energy -198247.086637 kJ/mol
# GULP energy per Si atom -12390.442915 kJ/mol
# Density = 2.360832 g / cm^3
# Si number density = 23.662179 Si / 1000 Ang^3
#
#
#
# Elastic Constant Matrix: (Units=GPa)
#
#
# Indices 1 2 3 4 5 6 
#
# 1 111.7389 48.2019 68.5617 0.0000 76.4980 0.0000
# 2 48.2019 200.5200 59.9065 0.0000 41.1744 0.0000
# 3 68.5617 59.9065 105.7441 0.0000 76.9905 0.0000
# 4 0.0000 0.0000 0.0000 7.5945 0.0000 15.5622
# 5 76.4980 41.1744 76.9905 0.0000 73.7073 0.0000
# 6 0.0000 0.0000 0.0000 15.5622 0.0000 10.2701
#
#
#
# Elastic Compliance Matrix: (Units=1/GPa)
#
#
# Indices 1 2 3 4 5 6 
#
# 1 0.038109 -0.002989 0.019065 0.000000 -0.057797 0.000000
# 2 -0.002989 0.006250 -0.005509 0.000000 0.005365 0.000000
# 3 0.019065 -0.005509 0.051704 0.000000 -0.070717 0.000000
# 4 0.000000 0.000000 0.000000 -0.062552 0.000000 0.094784
# 5 -0.057797 0.005365 -0.070717 0.000000 0.144422 0.000000
# 6 0.000000 0.000000 0.000000 0.094784 0.000000 -0.046255
#
#
# Mechanical properties :
#
#
# Convention : Reuss Voigt Hill
#
# Bulk Modulus (GPa) = 8.53257 85.70478 47.11868
# Shear Modulus (GPa) = 33.42026 34.40324 33.91175
#
# Velocity S-wave (km/s) = 3.76226 3.81718 3.78982
# Velocity P-wave (km/s) = 4.74200 7.46503 6.25353
#
# Compressibility (1/GPa) = 0.11719792
#
# Stress axis : x y z
#
# Youngs Moduli (GPa) = 26.24044 160.00854 19.34078
#
# Poissons Ratio (x) = 0.47823 -0.36874
# Poissons Ratio (y) = 0.07843 0.10655
# Poissons Ratio (z) = -0.50028 0.88149
#
# Static dielectric constant tensor:
#      x y z
#    x 5.146790 0.000000 1.552540 
#    y 0.000000 3.987130 0.000000 
#    z 1.552540 0.000000 5.075680 
# 
# 
# High freq. dielectric constant tensor:
#      x y z
#    x 1.936480 0.000000 0.056340 
#    y 0.000000 1.927370 0.000000 
#    z 0.056340 0.000000 1.933660 
# 
# From -- ./inp_files/17212.got.cif
#   From: 2010.06.25/outbox.cif.g09.slc.cpg/sg10_9_cif.got.tgz:17212.got - 2010.06.27 22:07:45.
