data_PCOD8064931
_publ_section_title
;
Structure prediction by ZEFSAII (Michael W. Deem and Ramdas Pophale) SiO2 
 PCOD8064931
Probable space group: P 2/M
;
_chemical_formula_sum "Si O2"
_cell_formula_units_Z 28
_cell_length_a 21.722432
_cell_length_b 12.658695
_cell_length_c 11.572146
_cell_angle_alpha 90.000000
_cell_angle_beta 26.526234
_cell_angle_gamma 90.000000
_cell_volume 1421.141519
_symmetry_space_group_name_H-M "P 2/M"
_symmetry_group_IT_number 10
_symmetry_cell_setting 'monoclinic'
loop_
_space_group_symop_operation_xyz
x,y,z
-x,y,-z
-x,-y,-z
x,-y,z
loop_
_atom_site_type_symbol
_atom_site_label
_atom_site_fract_x
_atom_site_fract_y
_atom_site_fract_z
Si Si1 0.427460 0.119133 0.245243
Si Si2 0.334955 0.247044 0.054796
Si Si3 0.152913 0.882846 0.199288
Si Si4 0.628906 0.617691 0.223485
Si Si5 0.156228 0.625991 0.527396
Si Si6 0.153784 0.763034 0.746703
Si Si7 0.860654 0.706825 0.969214
O O1 0.267719 0.155085 0.508104
O O2 0.430895 0.000000 0.289237
O O3 0.500000 0.121112 0.000000
O O4 0.513255 0.199463 0.180617
O O5 0.240191 0.153926 0.163898
O O6 0.276847 0.304484 0.266747
O O7 0.337978 0.336885 0.955529
O O8 0.163742 0.810712 0.067615
O O9 0.000000 0.884687 0.500000
O O10 0.202677 0.000000 0.079827
O O11 0.500000 0.678468 0.500000
O O12 0.582301 0.500000 0.275707
O O13 0.760980 0.617839 0.085365
O O14 0.180357 0.500000 0.475222
O O15 0.152881 0.657737 0.668182
O O16 0.014580 0.660929 0.703291
O O17 0.187987 0.731164 0.819652
O O18 0.000000 0.815280 0.000000
#
# Coordination Sequence:
#
# PCOD8064931 Si02
#       7
#     4   4   4   4   4   4   4
#     4  11  23  41  65  89 120 161 200 245 308 369
#     4  11  21  39  60  90 123 157 200 258 299 366
#     4  10  20  36  60  89 121 159 198 244 303 359
#     4  10  21  36  57  84 118 161 203 250 306 360
#     4  11  22  38  61  90 123 163 209 254 308 364
#     4  10  23  42  62  91 127 160 203 257 304 363
#     4  10  21  38  60  88 123 160 201 254 303 363
#
# _framework density 19.702470999999999
#
# number of rings (size 3 to 8) (size 9 to 14) (size 15 to 20)
#    0.000    1.571    2.857    2.143    0.000    4.000 
#    0.000    6.429    0.000    4.714    0.000    0.000 
#    0.000    0.000    0.000    0.000    0.000    0.000 
#
# Total GULP energy -347120.173242 kJ/mol
# GULP energy per Si atom -12397.149044 kJ/mol
# Density = 1.965763 g / cm^3
# Si number density = 19.702471 Si / 1000 Ang^3
#
#
#
# Elastic Constant Matrix: (Units=GPa)
#
#
# Indices 1 2 3 4 5 6 
#
# 1 98.9925 37.7417 31.8732 0.0000 1.4514 0.0000
# 2 37.7417 108.0616 42.2183 0.0000 -9.0702 0.0000
# 3 31.8732 42.2183 113.2138 0.0000 -9.7817 0.0000
# 4 0.0000 0.0000 0.0000 20.9769 0.0000 -7.6903
# 5 1.4514 -9.0702 -9.7817 0.0000 33.4079 0.0000
# 6 0.0000 0.0000 0.0000 -7.6903 0.0000 14.7945
#
#
#
# Elastic Compliance Matrix: (Units=1/GPa)
#
#
# Indices 1 2 3 4 5 6 
#
# 1 0.012231 -0.003553 -0.002306 0.000000 -0.002171 0.000000
# 2 -0.003553 0.011971 -0.003252 0.000000 0.002452 0.000000
# 3 -0.002306 -0.003252 0.010903 0.000000 0.002410 0.000000
# 4 0.000000 0.000000 0.000000 0.058895 0.000000 0.030614
# 5 -0.002171 0.002452 0.002410 0.000000 0.031399 0.000000
# 6 0.000000 0.000000 0.000000 0.030614 0.000000 0.083506
#
#
# Mechanical properties :
#
#
# Convention : Reuss Voigt Hill
#
# Bulk Modulus (GPa) = 59.23151 60.43714 59.83433
# Shear Modulus (GPa) = 21.48194 27.73151 24.60673
#
# Velocity S-wave (km/s) = 3.30558 3.75576 3.53783
# Velocity P-wave (km/s) = 6.68561 7.03911 6.86464
#
# Compressibility (1/GPa) = 0.01688291
#
# Stress axis : x y z
#
# Youngs Moduli (GPa) = 81.76148 83.53327 91.71850
#
# Poissons Ratio (x) = 0.29680 0.21150
# Poissons Ratio (y) = 0.29050 0.29827
# Poissons Ratio (z) = 0.18854 0.27165
#
# Static dielectric constant tensor:
#      x y z
#    x 5.327180 0.000000 -1.366210 
#    y 0.000000 3.640450 0.000000 
#    z -1.366210 0.000000 4.709860 
# 
# 
# High freq. dielectric constant tensor:
#      x y z
#    x 1.773330 0.000000 -0.001410 
#    y 0.000000 1.760440 0.000000 
#    z -0.001410 0.000000 1.777290 
# 
# From -- ./inp_files/55787.got.cif
#   From: 2010.06.25/outbox.cif.g09.slc.cpg/sg10_28_cif.got.tgz:55787.got - 2010.06.27 22:07:45.
