data_PCOD8064419
_publ_section_title
;
Structure prediction by ZEFSAII (Michael W. Deem and Ramdas Pophale) SiO2 
 PCOD8064419
Probable space group: P 2/M
;
_chemical_formula_sum "Si O2"
_cell_formula_units_Z 28
_cell_length_a 27.069164
_cell_length_b 9.666084
_cell_length_c 8.441895
_cell_angle_alpha 90.000000
_cell_angle_beta 39.966498
_cell_angle_gamma 90.000000
_cell_volume 1418.828934
_symmetry_space_group_name_H-M "P 2/M"
_symmetry_group_IT_number 10
_symmetry_cell_setting 'monoclinic'
loop_
_space_group_symop_operation_xyz
x,y,z
-x,y,-z
-x,-y,-z
x,-y,z
loop_
_atom_site_type_symbol
_atom_site_label
_atom_site_fract_x
_atom_site_fract_y
_atom_site_fract_z
Si Si1 0.721452 0.649561 0.270091
Si Si2 0.231470 0.840606 0.115708
Si Si3 0.168165 0.746504 0.752051
Si Si4 0.313884 0.150232 0.226313
Si Si5 0.898155 0.660691 0.410018
Si Si6 0.416105 0.657328 0.168061
Si Si7 0.018968 0.842139 0.271667
O O1 0.725570 0.500000 0.171259
O O2 0.784486 0.639933 0.255635
O O3 0.636165 0.670175 0.548137
O O4 0.735360 0.782588 0.128717
O O5 0.299444 0.829167 0.075752
O O6 0.161460 0.742385 0.334210
O O7 0.203859 0.000000 0.162164
O O8 0.231406 0.846454 0.517626
O O9 0.122536 0.667578 0.724628
O O10 0.109663 0.830416 0.009594
O O11 0.376407 0.262172 0.121920
O O12 0.349644 0.000000 0.172535
O O13 0.902552 0.500000 0.450166
O O14 0.978574 0.736411 0.248963
O O15 0.424382 0.500000 0.089539
O O16 0.500000 0.720077 0.000000
O O17 0.000000 0.800534 0.500000
O O18 0.992100 0.000000 0.306227
#
# Coordination Sequence:
#
# PCOD8064419 Si02
#       7
#     4   4   4   4   4   4   4
#     4  10  20  35  58  84 110 142 180 222 268 319
#     4  10  21  37  56  81 113 144 180 224 271 325
#     4  10  21  36  57  81 109 141 183 228 273 324
#     4   9  19  35  56  81 107 142 185 226 268 317
#     4  11  23  38  58  81 107 141 183 231 277 323
#     4   9  19  36  57  83 114 146 181 221 266 319
#     4  11  24  39  55  78 110 147 184 225 275 327
#
# _framework density 19.734584999999999
#
# number of rings (size 3 to 8) (size 9 to 14) (size 15 to 20)
#    0.000    2.000    0.000    3.000    0.000   12.571 
#    0.000    0.714    0.000    4.286    0.000    0.000 
#    0.000    0.000    0.000    0.000    0.000    0.000 
#
# Total GULP energy -347113.191689 kJ/mol
# GULP energy per Si atom -12396.899703 kJ/mol
# Density = 1.968967 g / cm^3
# Si number density = 19.734585 Si / 1000 Ang^3
#
#
#
# Elastic Constant Matrix: (Units=GPa)
#
#
# Indices 1 2 3 4 5 6 
#
# 1 98.9386 50.8535 55.9411 0.0000 -8.8467 0.0000
# 2 50.8535 131.4793 40.1023 0.0000 -3.6696 0.0000
# 3 55.9411 40.1023 87.7224 0.0000 -6.2839 0.0000
# 4 0.0000 0.0000 0.0000 17.8859 0.0000 1.6437
# 5 -8.8467 -3.6696 -6.2839 0.0000 30.7223 0.0000
# 6 0.0000 0.0000 0.0000 1.6437 0.0000 27.6988
#
#
#
# Elastic Compliance Matrix: (Units=1/GPa)
#
#
# Indices 1 2 3 4 5 6 
#
# 1 0.017575 -0.003908 -0.009227 0.000000 0.002707 0.000000
# 2 -0.003908 0.009709 -0.001973 0.000000 -0.000369 0.000000
# 3 -0.009227 -0.001973 0.018246 0.000000 0.000839 0.000000
# 4 0.000000 0.000000 0.000000 0.056217 0.000000 -0.003336
# 5 0.002707 -0.000369 0.000839 0.000000 0.033457 0.000000
# 6 0.000000 0.000000 0.000000 -0.003336 0.000000 0.036301
#
#
# Mechanical properties :
#
#
# Convention : Reuss Voigt Hill
#
# Bulk Modulus (GPa) = 65.30042 67.99270 66.64656
# Shear Modulus (GPa) = 24.17513 26.67761 25.42637
#
# Velocity S-wave (km/s) = 3.50382 3.68070 3.59335
# Velocity P-wave (km/s) = 7.03776 7.25202 7.14569
#
# Compressibility (1/GPa) = 0.01531384
#
# Stress axis : x y z
#
# Youngs Moduli (GPa) = 56.89848 103.00156 54.80658
#
# Poissons Ratio (x) = 0.40250 0.50573
# Poissons Ratio (y) = 0.22234 0.10812
# Poissons Ratio (z) = 0.52503 0.20320
#
# Static dielectric constant tensor:
#      x y z
#    x 3.563450 0.000000 -0.020350 
#    y 0.000000 3.544410 0.000000 
#    z -0.020350 0.000000 3.480200 
# 
# 
# High freq. dielectric constant tensor:
#      x y z
#    x 1.764230 0.000000 0.001440 
#    y 0.000000 1.772710 0.000000 
#    z 0.001440 0.000000 1.757290 
# 
# From -- ./inp_files/31518.got.cif
#   From: 2010.06.25/outbox.cif.g09.slc.cpg/sg10_16_cif.got.tgz:31518.got - 2010.06.27 22:07:45.
