data_PCOD8064022
_publ_section_title
;
Structure prediction by ZEFSAII (Michael W. Deem and Ramdas Pophale) SiO2 
 PCOD8064022
Probable space group: P 2/M
;
_chemical_formula_sum "Si O2"
_cell_formula_units_Z 26
_cell_length_a 15.599588
_cell_length_b 19.068679
_cell_length_c 14.905633
_cell_angle_alpha 90.000000
_cell_angle_beta 161.151267
_cell_angle_gamma 90.000000
_cell_volume 1432.457690
_symmetry_space_group_name_H-M "P 2/M"
_symmetry_group_IT_number 10
_symmetry_cell_setting 'monoclinic'
loop_
_space_group_symop_operation_xyz
x,y,z
-x,y,-z
-x,-y,-z
x,-y,z
loop_
_atom_site_type_symbol
_atom_site_label
_atom_site_fract_x
_atom_site_fract_y
_atom_site_fract_z
Si Si1 0.240750 0.000000 0.305105
Si Si2 0.755566 0.000000 0.193776
Si Si3 0.301981 0.794015 0.052978
Si Si4 0.244224 0.848532 0.807646
Si Si5 0.075321 0.420367 0.178132
Si Si6 0.224384 0.851189 0.375293
Si Si7 0.402082 0.662385 0.253965
Si Si8 0.500000 0.237736 0.500000
O O1 0.500000 0.000000 0.500000
O O2 0.215965 0.066665 0.345696
O O3 0.000000 0.000000 0.000000
O O4 0.763725 0.925635 0.149878
O O5 0.000000 0.000000 0.500000
O O6 0.500000 0.000000 0.000000
O O7 0.555810 0.841349 0.329597
O O8 0.384386 0.712780 0.150367
O O9 0.239329 0.795140 0.885251
O O10 0.055402 0.821176 0.867812
O O11 0.000000 0.835035 0.500000
O O12 0.500000 0.838183 0.000000
O O13 0.156669 0.500000 0.280733
O O14 0.308280 0.369722 0.442034
O O15 0.000000 0.411723 0.000000
O O16 0.810207 0.399543 0.969201
O O17 0.300543 0.809893 0.360040
O O18 0.326542 0.712644 0.263076
#
# Coordination Sequence:
#
# PCOD8064022 Si02
#       8
#     2   2   4   4   4   4   4   2
#     4  12  24  40  54  74 104 152 206 242 283 311
#     4   8  16  30  52  78  96 131 167 206 269 343
#     4  11  24  38  56  86 109 141 188 235 281 340
#     4  10  20  37  59  80 110 141 176 228 293 351
#     4  11  21  35  53  80 110 148 189 220 261 316
#     4  11  24  37  55  75 107 146 195 240 275 324
#     4  11  21  34  55  77 112 144 185 221 266 320
#     4  10  20  35  53  72 104 152 186 216 282 308
#
# _framework density 18.150624000000001
#
# number of rings (size 3 to 8) (size 9 to 14) (size 15 to 20)
#    0.000    1.385    2.308    4.154    2.154    2.462 
#    0.000    1.538    0.000    0.000    0.000    0.000 
#    0.000   12.308    0.000    0.000    0.000    0.000 
#
# Total GULP energy -322224.827002 kJ/mol
# GULP energy per Si atom -12393.262577 kJ/mol
# Density = 1.810931 g / cm^3
# Si number density = 18.150624 Si / 1000 Ang^3
#
#
#
# Elastic Constant Matrix: (Units=GPa)
#
#
# Indices 1 2 3 4 5 6 
#
# 1 73.8122 42.0002 31.5139 0.0000 -11.3678 0.0000
# 2 42.0002 114.5357 45.2070 0.0000 -8.3528 0.0000
# 3 31.5139 45.2070 129.6940 0.0000 2.8820 0.0000
# 4 0.0000 0.0000 0.0000 30.0279 0.0000 -3.1835
# 5 -11.3678 -8.3528 2.8820 0.0000 29.3455 0.0000
# 6 0.0000 0.0000 0.0000 -3.1835 0.0000 17.4830
#
#
#
# Elastic Compliance Matrix: (Units=1/GPa)
#
#
# Indices 1 2 3 4 5 6 
#
# 1 0.018698 -0.005302 -0.002829 0.000000 0.006012 0.000000
# 2 -0.005302 0.011943 -0.002911 0.000000 0.001632 0.000000
# 3 -0.002829 -0.002911 0.009476 0.000000 -0.002855 0.000000
# 4 0.000000 0.000000 0.000000 0.033958 0.000000 0.006183
# 5 0.006012 0.001632 -0.002855 0.000000 0.037151 0.000000
# 6 0.000000 0.000000 0.000000 0.006183 0.000000 0.058324
#
#
# Mechanical properties :
#
#
# Convention : Reuss Voigt Hill
#
# Bulk Modulus (GPa) = 55.45071 61.72045 58.58558
# Shear Modulus (GPa) = 25.29790 28.65933 26.97861
#
# Velocity S-wave (km/s) = 3.73738 3.97794 3.85953
# Velocity P-wave (km/s) = 7.01717 7.42813 7.22557
#
# Compressibility (1/GPa) = 0.01803404
#
# Stress axis : x y z
#
# Youngs Moduli (GPa) = 53.48050 83.73163 105.52987
#
# Poissons Ratio (x) = 0.44391 0.29855
# Poissons Ratio (y) = 0.28353 0.30719
# Poissons Ratio (z) = 0.15130 0.24374
#
# Static dielectric constant tensor:
#      x y z
#    x 3.029060 0.000000 0.025150 
#    y 0.000000 3.558330 0.000000 
#    z 0.025150 0.000000 3.473540 
# 
# 
# High freq. dielectric constant tensor:
#      x y z
#    x 1.661690 0.000000 0.009340 
#    y 0.000000 1.702400 0.000000 
#    z 0.009340 0.000000 1.725890 
# 
# From -- ./inp_files/67840.got.cif
#   From: 2010.06.25/outbox.cif.g09.slc.cpg/sg10_34_cif.got.tgz:67840.got - 2010.06.27 22:07:45.
