data_PCOD8064766
_publ_section_title
;
Structure prediction by ZEFSAII (Michael W. Deem and Ramdas Pophale) SiO2 
 PCOD8064766
Probable space group: P 2/M
;
_chemical_formula_sum "Si O2"
_cell_formula_units_Z 26
_cell_length_a 11.654776
_cell_length_b 7.805656
_cell_length_c 23.429026
_cell_angle_alpha 90.000000
_cell_angle_beta 36.157715
_cell_angle_gamma 90.000000
_cell_volume 1257.554791
_symmetry_space_group_name_H-M "P 2/M"
_symmetry_group_IT_number 10
_symmetry_cell_setting 'monoclinic'
loop_
_space_group_symop_operation_xyz
x,y,z
-x,y,-z
-x,-y,-z
x,-y,z
loop_
_atom_site_type_symbol
_atom_site_label
_atom_site_fract_x
_atom_site_fract_y
_atom_site_fract_z
Si Si1 0.956541 0.500000 0.744452
Si Si2 0.940933 0.809915 0.095331
Si Si3 0.368578 0.806018 0.911016
Si Si4 0.331449 0.500000 0.519799
Si Si5 0.917867 0.189325 0.232070
Si Si6 0.464944 0.690063 0.755886
Si Si7 0.516967 0.500000 0.924663
Si Si8 0.531289 0.192723 0.607823
O O1 0.735515 0.500000 0.811897
O O2 0.114400 0.500000 0.631198
O O3 0.977099 0.328136 0.772200
O O4 0.014900 0.803941 0.131040
O O5 0.769064 0.674199 0.156896
O O6 0.854221 0.000000 0.117020
O O7 0.142478 0.776830 0.979492
O O8 0.507109 0.779141 0.800065
O O9 0.414269 0.670881 0.942169
O O10 0.395064 0.000000 0.923602
O O11 0.500000 0.500000 0.500000
O O12 0.340879 0.329792 0.477478
O O13 0.689983 0.232420 0.319511
O O14 0.946912 0.000000 0.247461
O O15 0.552788 0.500000 0.721290
O O16 0.560267 0.791178 0.664645
O O17 0.500000 0.500000 0.000000
O O18 0.592366 0.000000 0.565378
#
# Coordination Sequence:
#
# PCOD8064766 Si02
#       8
#     2   4   4   2   4   4   2   4
#     4  12  24  38  59  82 117 155 205 256 288 339
#     4   9  19  32  53  88 124 156 193 239 297 360
#     4  11  23  41  61  84 118 159 205 254 296 347
#     4  12  22  37  59  90 122 158 192 243 307 356
#     4   9  18  33  54  83 118 157 191 232 294 357
#     4  11  20  33  60  92 125 156 191 241 305 367
#     4  12  28  45  61  87 115 162 216 250 287 339
#     4  10  20  36  58  90 127 157 185 230 300 376
#
# _framework density 20.675045000000001
#
# number of rings (size 3 to 8) (size 9 to 14) (size 15 to 20)
#    0.000    1.538    3.077    3.692    4.308    3.692 
#    0.000    0.000    0.000    1.846    0.000    2.154 
#    0.000    0.000    0.000    0.000    0.000    0.000 
#
# Total GULP energy -322303.754012 kJ/mol
# GULP energy per Si atom -12396.298231 kJ/mol
# Density = 2.062799 g / cm^3
# Si number density = 20.675045 Si / 1000 Ang^3
#
#
#
# Elastic Constant Matrix: (Units=GPa)
#
#
# Indices 1 2 3 4 5 6 
#
# 1 34.7810 18.3915 -0.2637 0.0000 9.4225 0.0000
# 2 18.3915 127.7546 15.3183 0.0000 8.7807 0.0000
# 3 -0.2637 15.3183 77.5240 0.0000 10.2232 0.0000
# 4 0.0000 0.0000 0.0000 24.9197 0.0000 0.6414
# 5 9.4225 8.7807 10.2232 0.0000 30.4183 0.0000
# 6 0.0000 0.0000 0.0000 0.6414 0.0000 5.2683
#
#
#
# Elastic Compliance Matrix: (Units=1/GPa)
#
#
# Indices 1 2 3 4 5 6 
#
# 1 0.033829 -0.004462 0.002311 0.000000 -0.009968 0.000000
# 2 -0.004462 0.008708 -0.001660 0.000000 -0.000574 0.000000
# 3 0.002311 -0.001660 0.013882 0.000000 -0.004902 0.000000
# 4 0.000000 0.000000 0.000000 0.040255 0.000000 -0.004901
# 5 -0.009968 -0.000574 -0.004902 0.000000 0.037776 0.000000
# 6 0.000000 0.000000 0.000000 -0.004901 0.000000 0.190412
#
#
# Mechanical properties :
#
#
# Convention : Reuss Voigt Hill
#
# Bulk Modulus (GPa) = 20.49330 34.10577 27.29953
# Shear Modulus (GPa) = 14.33695 25.89548 20.11621
#
# Velocity S-wave (km/s) = 2.63619 3.54291 3.12263
# Velocity P-wave (km/s) = 4.38173 5.76786 5.12190
#
# Compressibility (1/GPa) = 0.04879644
#
# Stress axis : x y z
#
# Youngs Moduli (GPa) = 29.56075 114.83229 72.03783
#
# Poissons Ratio (x) = 0.51238 -0.16649
# Poissons Ratio (y) = 0.13190 0.11960
# Poissons Ratio (z) = -0.06832 0.19065
#
# Static dielectric constant tensor:
#      x y z
#    x 3.363510 0.000000 0.276350 
#    y 0.000000 3.806280 0.000000 
#    z 0.276350 0.000000 3.770700 
# 
# 
# High freq. dielectric constant tensor:
#      x y z
#    x 1.763560 0.000000 0.034210 
#    y 0.000000 1.823190 0.000000 
#    z 0.034210 0.000000 1.801700 
# 
# From -- ./inp_files/83519.got.cif
#   From: 2010.06.25/outbox.cif.g09.slc.cpg/sg10_42_cif.got.tgz:83519.got - 2010.06.27 22:07:45.
