data_PCOD8064382
_publ_section_title
;
Structure prediction by ZEFSAII (Michael W. Deem and Ramdas Pophale) SiO2 
 PCOD8064382
Probable space group: P 2/M
;
_chemical_formula_sum "Si O2"
_cell_formula_units_Z 16
_cell_length_a 9.871000
_cell_length_b 11.536320
_cell_length_c 7.396432
_cell_angle_alpha 90.000000
_cell_angle_beta 127.299760
_cell_angle_gamma 90.000000
_cell_volume 670.004634
_symmetry_space_group_name_H-M "P 2/M"
_symmetry_group_IT_number 10
_symmetry_cell_setting 'monoclinic'
loop_
_space_group_symop_operation_xyz
x,y,z
-x,y,-z
-x,-y,-z
x,-y,z
loop_
_atom_site_type_symbol
_atom_site_label
_atom_site_fract_x
_atom_site_fract_y
_atom_site_fract_z
Si Si1 0.262650 0.000000 0.600328
Si Si2 0.813844 0.250650 0.003954
Si Si3 0.866975 0.364068 0.661227
Si Si4 0.447854 0.768134 0.667573
Si Si5 0.092439 0.000000 0.850172
O O1 0.385308 0.891867 0.680042
O O2 0.180225 0.000000 0.728820
O O3 0.112703 0.000000 0.330791
O O4 0.833095 0.325527 0.838624
O O5 0.619573 0.265289 0.919186
O O6 0.850577 0.114709 0.994404
O O7 0.955272 0.301844 0.259591
O O8 0.889872 0.500000 0.660859
O O9 0.703175 0.323567 0.413110
O O10 0.500000 0.772490 0.500000
#
# Coordination Sequence:
#
# PCOD8064382 Si02
#       5
#     2   4   4   4   2
#     4  11  22  40  57  84 120 152 191 230 292 341
#     4  10  20  35  57  86 112 151 187 231 285 336
#     4  10  21  37  58  86 120 150 189 238 281 333
#     4  10  21  36  59  88 118 147 185 239 288 337
#     4  11  23  37  61  82 116 161 185 232 284 353
#
# _framework density 23.880433
#
# number of rings (size 3 to 8) (size 9 to 14) (size 15 to 20)
#    0.000    1.750    2.500    2.625    0.000   12.500 
#    0.000    0.000    0.000    4.500    0.000   17.500 
#    0.000    0.000    0.000    0.000    0.000    0.000 
#
# Total GULP energy -198295.078296 kJ/mol
# GULP energy per Si atom -12393.442393 kJ/mol
# Density = 2.382608 g / cm^3
# Si number density = 23.880433 Si / 1000 Ang^3
#
#
#
# Elastic Constant Matrix: (Units=GPa)
#
#
# Indices 1 2 3 4 5 6 
#
# 1 116.8065 50.4275 61.6329 0.0000 71.0459 0.0000
# 2 50.4275 197.5867 48.3218 0.0000 47.3085 0.0000
# 3 61.6329 48.3218 96.3791 0.0000 71.2592 0.0000
# 4 0.0000 0.0000 0.0000 7.2305 0.0000 1.8155
# 5 71.0459 47.3085 71.2592 0.0000 68.7769 0.0000
# 6 0.0000 0.0000 0.0000 1.8155 0.0000 21.5225
#
#
#
# Elastic Compliance Matrix: (Units=1/GPa)
#
#
# Indices 1 2 3 4 5 6 
#
# 1 0.026993 -0.000195 0.014332 0.000000 -0.042600 0.000000
# 2 -0.000195 0.006061 0.000083 0.000000 -0.004054 0.000000
# 3 0.014332 0.000083 0.051965 0.000000 -0.068703 0.000000
# 4 0.000000 0.000000 0.000000 0.141295 0.000000 -0.011919
# 5 -0.042600 -0.004054 -0.068703 0.000000 0.132517 0.000000
# 6 0.000000 0.000000 0.000000 -0.011919 0.000000 0.047468
#
#
# Mechanical properties :
#
#
# Convention : Reuss Voigt Hill
#
# Bulk Modulus (GPa) = 8.81351 81.28184 45.04767
# Shear Modulus (GPa) = 12.02853 36.19868 24.11361
#
# Velocity S-wave (km/s) = 2.24676 3.89759 3.18113
# Velocity P-wave (km/s) = 3.22944 7.37332 5.69188
#
# Compressibility (1/GPa) = 0.11346220
#
# Stress axis : x y z
#
# Youngs Moduli (GPa) = 37.04606 164.98578 19.24360
#
# Poissons Ratio (x) = 0.03210 -0.27581
# Poissons Ratio (y) = 0.00721 -0.00160
# Poissons Ratio (z) = -0.53096 -0.01374
#
# Static dielectric constant tensor:
#      x y z
#    x 4.879860 0.000000 1.201330 
#    y 0.000000 4.120660 0.000000 
#    z 1.201330 0.000000 4.979950 
# 
# 
# High freq. dielectric constant tensor:
#      x y z
#    x 1.950800 0.000000 0.043140 
#    y 0.000000 1.935720 0.000000 
#    z 0.043140 0.000000 1.941340 
# 
# From -- ./inp_files/23724.got.cif
#   From: 2010.06.25/outbox.cif.g09.slc.cpg/sg10_12_cif.got.tgz:23724.got - 2010.06.27 22:07:45.
