data_PCOD8064401
_publ_section_title
;
Structure prediction by ZEFSAII (Michael W. Deem and Ramdas Pophale) SiO2 
 PCOD8064401
Probable space group: P 2/M
;
_chemical_formula_sum "Si O2"
_cell_formula_units_Z 24
_cell_length_a 17.268975
_cell_length_b 11.125749
_cell_length_c 12.348440
_cell_angle_alpha 90.000000
_cell_angle_beta 147.044172
_cell_angle_gamma 90.000000
_cell_volume 1290.626771
_symmetry_space_group_name_H-M "P 2/M"
_symmetry_group_IT_number 10
_symmetry_cell_setting 'monoclinic'
loop_
_space_group_symop_operation_xyz
x,y,z
-x,y,-z
-x,-y,-z
x,-y,z
loop_
_atom_site_type_symbol
_atom_site_label
_atom_site_fract_x
_atom_site_fract_y
_atom_site_fract_z
Si Si1 0.832949 0.867668 0.826064
Si Si2 0.341818 0.500000 0.672785
Si Si3 0.650815 0.138626 0.211233
Si Si4 0.846931 0.728507 0.278725
Si Si5 0.327520 0.500000 0.913305
Si Si6 0.775207 0.252143 0.548720
Si Si7 0.928179 0.141462 0.162754
O O1 0.757512 0.772586 0.656863
O O2 0.768771 0.000000 0.727024
O O3 0.814791 0.834943 0.931944
O O4 0.000000 0.870337 0.000000
O O5 0.311652 0.500000 0.764966
O O6 0.267413 0.387680 0.527922
O O7 0.511351 0.500000 0.854210
O O8 0.777572 0.202914 0.297676
O O9 0.669830 0.162157 0.361059
O O10 0.654220 0.000000 0.185516
O O11 0.500000 0.196611 0.000000
O O12 0.751832 0.615792 0.131406
O O13 0.854474 0.820304 0.187553
O O14 0.000000 0.683733 0.500000
O O15 0.934874 0.224309 0.697103
O O16 0.971452 0.000000 0.217832
#
# Coordination Sequence:
#
# PCOD8064401 Si02
#       7
#     4   2   4   4   2   4   4
#     4   8  16  32  55  82 114 149 185 233 291 341
#     4  11  22  38  58  77 109 157 201 234 275 332
#     4  11  22  34  53  83 116 150 187 232 287 344
#     4  12  22  35  58  85 117 149 192 236 291 338
#     4  11  23  40  55  77 114 157 193 234 284 341
#     4  11  19  34  57  82 112 150 197 233 279 337
#     4  10  20  35  57  88 121 148 180 237 301 344
#
# _framework density 18.595616
#
# number of rings (size 3 to 8) (size 9 to 14) (size 15 to 20)
#    0.000    1.500    3.333    4.250    0.000    1.333 
#    0.000    4.583    0.000    5.000    0.000   11.667 
#    0.000    0.000    0.000    0.000    0.000    0.000 
#
# Total GULP energy -297542.291458 kJ/mol
# GULP energy per Si atom -12397.595477 kJ/mol
# Density = 1.855329 g / cm^3
# Si number density = 18.595616 Si / 1000 Ang^3
#
#
#
# Elastic Constant Matrix: (Units=GPa)
#
#
# Indices 1 2 3 4 5 6 
#
# 1 61.4351 36.0593 48.1409 0.0000 -8.2213 0.0000
# 2 36.0593 117.9346 59.6212 0.0000 -1.5472 0.0000
# 3 48.1409 59.6212 116.9536 0.0000 -12.3919 0.0000
# 4 0.0000 0.0000 0.0000 5.4460 0.0000 -5.7419
# 5 -8.2213 -1.5472 -12.3919 0.0000 34.4571 0.0000
# 6 0.0000 0.0000 0.0000 -5.7419 0.0000 19.3582
#
#
#
# Elastic Compliance Matrix: (Units=1/GPa)
#
#
# Indices 1 2 3 4 5 6 
#
# 1 0.025204 -0.003473 -0.008300 0.000000 0.002873 0.000000
# 2 -0.003473 0.011992 -0.004901 0.000000 -0.002053 0.000000
# 3 -0.008300 -0.004901 0.014796 0.000000 0.003121 0.000000
# 4 0.000000 0.000000 0.000000 0.267175 0.000000 0.079248
# 5 0.002873 -0.002053 0.003121 0.000000 0.030737 0.000000
# 6 0.000000 0.000000 0.000000 0.079248 0.000000 0.075164
#
#
# Mechanical properties :
#
#
# Convention : Reuss Voigt Hill
#
# Bulk Modulus (GPa) = 53.63597 64.88512 59.26054
# Shear Modulus (GPa) = 10.76125 22.01905 16.39015
#
# Velocity S-wave (km/s) = 2.40822 3.44481 2.97206
# Velocity P-wave (km/s) = 6.05299 7.12676 6.61171
#
# Compressibility (1/GPa) = 0.01864421
#
# Stress axis : x y z
#
# Youngs Moduli (GPa) = 39.67658 83.38879 67.58507
#
# Poissons Ratio (x) = 0.28958 0.56094
# Poissons Ratio (y) = 0.13778 0.33127
# Poissons Ratio (z) = 0.32931 0.40873
#
# Static dielectric constant tensor:
#      x y z
#    x 3.407470 0.000000 -0.255320 
#    y 0.000000 3.421910 0.000000 
#    z -0.255320 0.000000 3.648200 
# 
# 
# High freq. dielectric constant tensor:
#      x y z
#    x 1.699050 0.000000 -0.015390 
#    y 0.000000 1.721130 0.000000 
#    z -0.015390 0.000000 1.722170 
# 
# From -- ./inp_files/36219.got.cif
#   From: 2010.06.25/outbox.cif.g09.slc.cpg/sg10_19_cif.got.tgz:36219.got - 2010.06.27 22:07:45.
