data_PCOD8064554
_publ_section_title
;
Structure prediction by ZEFSAII (Michael W. Deem and Ramdas Pophale) SiO2 
 PCOD8064554
Probable space group: P 2/M
;
_chemical_formula_sum "Si O2"
_cell_formula_units_Z 32
_cell_length_a 25.811315
_cell_length_b 9.547165
_cell_length_c 20.701959
_cell_angle_alpha 90.000000
_cell_angle_beta 159.198628
_cell_angle_gamma 90.000000
_cell_volume 1811.684493
_symmetry_space_group_name_H-M "P 2/M"
_symmetry_group_IT_number 10
_symmetry_cell_setting 'monoclinic'
loop_
_space_group_symop_operation_xyz
x,y,z
-x,y,-z
-x,-y,-z
x,-y,z
loop_
_atom_site_type_symbol
_atom_site_label
_atom_site_fract_x
_atom_site_fract_y
_atom_site_fract_z
Si Si1 0.361250 0.337353 0.797022
Si Si2 0.664503 0.837599 0.844469
Si Si3 0.947688 0.838876 0.254582
Si Si4 0.951213 0.661902 0.513146
Si Si5 0.743939 0.163045 0.442747
Si Si6 0.838541 0.660113 0.799251
Si Si7 0.648593 0.659375 0.702130
Si Si8 0.656809 0.164380 0.485021
O O1 0.375211 0.500000 0.794136
O O2 0.220150 0.309186 0.676876
O O3 0.352374 0.249415 0.720675
O O4 0.500000 0.286714 0.000000
O O5 0.696962 0.751585 0.818289
O O6 0.511698 0.795108 0.699312
O O7 0.666048 0.000000 0.827527
O O8 0.795719 0.799084 0.044792
O O9 0.953369 0.747230 0.325120
O O10 0.084057 0.804942 0.366328
O O11 0.951816 0.000000 0.280308
O O12 0.989675 0.500000 0.567804
O O13 0.000000 0.714877 0.500000
O O14 0.699378 0.211460 0.462474
O O15 0.708496 0.000000 0.390860
O O16 0.837969 0.500000 0.773200
O O17 0.768775 0.671021 0.787867
O O18 0.757731 0.754523 0.652854
O O19 0.000000 0.717508 0.000000
O O20 0.500000 0.721581 0.500000
O O21 0.624785 0.500000 0.698047
O O22 0.684193 0.000000 0.526876
#
# Coordination Sequence:
#
# PCOD8064554 Si02
#       8
#     4   4   4   4   4   4   4   4
#     4   9  18  33  52  75 102 132 167 205 248 298
#     4  10  21  35  53  77 104 135 171 211 255 303
#     4   9  19  35  52  73 102 135 170 206 249 300
#     4   9  18  33  52  75 103 132 165 206 249 296
#     4   9  19  35  52  72 102 136 169 207 250 298
#     4  10  22  38  54  76 104 133 169 213 258 305
#     4  10  20  36  55  75 102 134 169 211 257 304
#     4  10  21  36  53  76 105 135 170 212 255 302
#
# _framework density 17.663118999999998
#
# number of rings (size 3 to 8) (size 9 to 14) (size 15 to 20)
#    0.000    2.500    1.250    0.000    1.750    3.500 
#    0.000    0.000    0.000    0.000    0.000    0.000 
#    0.000    0.000    0.000    0.000    0.000    0.000 
#
# Total GULP energy -396863.059927 kJ/mol
# GULP energy per Si atom -12401.970623 kJ/mol
# Density = 1.762292 g / cm^3
# Si number density = 17.663119 Si / 1000 Ang^3
#
#
#
# Elastic Constant Matrix: (Units=GPa)
#
#
# Indices 1 2 3 4 5 6 
#
# 1 123.3716 54.0179 67.3503 0.0000 -15.3682 0.0000
# 2 54.0179 60.0531 61.6780 0.0000 -16.0364 0.0000
# 3 67.3503 61.6780 156.6202 0.0000 -9.3823 0.0000
# 4 0.0000 0.0000 0.0000 33.8483 0.0000 -11.1932
# 5 -15.3682 -16.0364 -9.3823 0.0000 24.0355 0.0000
# 6 0.0000 0.0000 0.0000 -11.1932 0.0000 38.2052
#
#
#
# Elastic Compliance Matrix: (Units=1/GPa)
#
#
# Indices 1 2 3 4 5 6 
#
# 1 0.013681 -0.010064 -0.001841 0.000000 0.001314 0.000000
# 2 -0.010064 0.041562 -0.011022 0.000000 0.016993 0.000000
# 3 -0.001841 -0.011022 0.011269 0.000000 -0.004132 0.000000
# 4 0.000000 0.000000 0.000000 0.032713 0.000000 0.009584
# 5 0.001314 0.016993 -0.004132 0.000000 0.052170 0.000000
# 6 0.000000 0.000000 0.000000 0.009584 0.000000 0.028982
#
#
# Mechanical properties :
#
#
# Convention : Reuss Voigt Hill
#
# Bulk Modulus (GPa) = 48.40558 78.45971 63.43264
# Shear Modulus (GPa) = 21.44830 29.68437 25.56633
#
# Velocity S-wave (km/s) = 3.48846 4.10394 3.80865
# Velocity P-wave (km/s) = 6.60985 8.18370 7.43852
#
# Compressibility (1/GPa) = 0.02065878
#
# Stress axis : x y z
#
# Youngs Moduli (GPa) = 73.09426 24.06016 88.73545
#
# Poissons Ratio (x) = 0.24215 0.16336
# Poissons Ratio (y) = 0.73565 0.97802
# Poissons Ratio (z) = 0.13457 0.26518
#
# Static dielectric constant tensor:
#      x y z
#    x 3.319140 0.000000 0.105550 
#    y 0.000000 3.262960 0.000000 
#    z 0.105550 0.000000 3.321870 
# 
# 
# High freq. dielectric constant tensor:
#      x y z
#    x 1.686200 0.000000 0.005510 
#    y 0.000000 1.679150 0.000000 
#    z 0.005510 0.000000 1.688540 
# 
# From -- ./inp_files/80317.got.cif
#   From: 2010.06.25/outbox.cif.g09.slc.cpg/sg10_41_cif.got.tgz:80317.got - 2010.06.27 22:07:45.
