data_PCOD8064150
_publ_section_title
;
Structure prediction by ZEFSAII (Michael W. Deem and Ramdas Pophale) SiO2 
 PCOD8064150
Probable space group: P 2/M
;
_chemical_formula_sum "Si O2"
_cell_formula_units_Z 28
_cell_length_a 15.135433
_cell_length_b 8.881804
_cell_length_c 18.530554
_cell_angle_alpha 90.000000
_cell_angle_beta 141.540345
_cell_angle_gamma 90.000000
_cell_volume 1549.349056
_symmetry_space_group_name_H-M "P 2/M"
_symmetry_group_IT_number 10
_symmetry_cell_setting 'monoclinic'
loop_
_space_group_symop_operation_xyz
x,y,z
-x,y,-z
-x,-y,-z
x,-y,z
loop_
_atom_site_type_symbol
_atom_site_label
_atom_site_fract_x
_atom_site_fract_y
_atom_site_fract_z
Si Si1 0.906779 0.325156 0.753793
Si Si2 0.679723 0.678182 0.348300
Si Si3 0.097855 0.176908 0.403088
Si Si4 0.112044 0.334148 0.635530
Si Si5 0.409005 0.175741 0.228977
Si Si6 0.911226 0.823586 0.013137
Si Si7 0.605946 0.326287 0.630865
O O1 0.924074 0.500000 0.745109
O O2 0.899450 0.228900 0.677080
O O3 0.765853 0.294135 0.709391
O O4 0.039052 0.270012 0.885833
O O5 0.684272 0.500000 0.361708
O O6 0.771356 0.748201 0.471620
O O7 0.742322 0.723187 0.309243
O O8 0.519527 0.738190 0.248297
O O9 0.945029 0.221270 0.339919
O O10 0.116525 0.000000 0.419477
O O11 0.132951 0.500000 0.683802
O O12 0.000000 0.346042 0.500000
O O13 0.432791 0.223725 0.326396
O O14 0.437753 0.000000 0.240776
O O15 0.252077 0.219485 0.103082
O O16 0.933429 0.000000 0.042148
O O17 0.000000 0.772460 0.000000
O O18 0.500000 0.277898 0.500000
O O19 0.582859 0.500000 0.637567
#
# Coordination Sequence:
#
# PCOD8064150 Si02
#       7
#     4   4   4   4   4   4   4
#     4  11  22  35  55  79 106 143 185 225 265 318
#     4  10  20  35  55  80 113 146 178 220 267 320
#     4  11  21  33  54  83 114 144 177 220 269 322
#     4   8  16  32  53  77 108 145 178 213 263 320
#     4  11  22  35  55  79 105 141 180 223 271 321
#     4  10  21  39  57  75 105 142 182 228 275 319
#     4  10  21  35  51  74 106 141 174 216 267 318
#
# _framework density 18.072106000000002
#
# number of rings (size 3 to 8) (size 9 to 14) (size 15 to 20)
#    0.000    1.857    1.429    4.286    0.000    6.571 
#    0.000    0.000    0.000    0.857    0.000    6.000 
#    0.000    0.000    0.000    0.000    0.000    0.000 
#
# Total GULP energy -347256.241039 kJ/mol
# GULP energy per Si atom -12402.008609 kJ/mol
# Density = 1.803097 g / cm^3
# Si number density = 18.072106 Si / 1000 Ang^3
#
#
#
# Elastic Constant Matrix: (Units=GPa)
#
#
# Indices 1 2 3 4 5 6 
#
# 1 73.9420 33.8841 13.7838 0.0000 29.8103 0.0000
# 2 33.8841 81.0311 25.6037 0.0000 13.2844 0.0000
# 3 13.7838 25.6037 64.7557 0.0000 19.8747 0.0000
# 4 0.0000 0.0000 0.0000 25.3254 0.0000 -7.3890
# 5 29.8103 13.2844 19.8747 0.0000 22.1691 0.0000
# 6 0.0000 0.0000 0.0000 -7.3890 0.0000 15.8750
#
#
#
# Elastic Compliance Matrix: (Units=1/GPa)
#
#
# Indices 1 2 3 4 5 6 
#
# 1 0.040625 -0.011643 0.014597 0.000000 -0.060737 0.000000
# 2 -0.011643 0.017814 -0.008407 0.000000 0.012518 0.000000
# 3 0.014597 -0.008407 0.027782 0.000000 -0.039498 0.000000
# 4 0.000000 0.000000 0.000000 0.045691 0.000000 0.021267
# 5 -0.060737 0.012518 -0.039498 0.000000 0.154688 0.000000
# 6 0.000000 0.000000 0.000000 0.021267 0.000000 0.072890
#
#
# Mechanical properties :
#
#
# Convention : Reuss Voigt Hill
#
# Bulk Modulus (GPa) = 13.27743 40.69687 26.98715
# Shear Modulus (GPa) = 12.64221 22.43773 17.53997
#
# Velocity S-wave (km/s) = 2.64776 3.52741 3.11875
# Velocity P-wave (km/s) = 4.08783 6.25765 5.28529
#
# Compressibility (1/GPa) = 0.07531578
#
# Stress axis : x y z
#
# Youngs Moduli (GPa) = 24.61538 56.13669 35.99439
#
# Poissons Ratio (x) = 0.65359 -0.52543
# Poissons Ratio (y) = 0.28659 0.30261
# Poissons Ratio (z) = -0.35932 0.47195
#
# Static dielectric constant tensor:
#      x y z
#    x 3.760350 0.000000 0.225850 
#    y 0.000000 3.347710 0.000000 
#    z 0.225850 0.000000 3.158760 
# 
# 
# High freq. dielectric constant tensor:
#      x y z
#    x 1.708420 0.000000 0.009380 
#    y 0.000000 1.705580 0.000000 
#    z 0.009380 0.000000 1.674440 
# 
# From -- ./inp_files/63380.got.cif
#   From: 2010.06.25/outbox.cif.g09.slc.cpg/sg10_32_cif.got.tgz:63380.got - 2010.06.27 22:07:45.
