data_PCOD8064955
_publ_section_title
;
Structure prediction by ZEFSAII (Michael W. Deem and Ramdas Pophale) SiO2 
 PCOD8064955
Probable space group: P 2/M
;
_chemical_formula_sum "Si O2"
_cell_formula_units_Z 28
_cell_length_a 30.552904
_cell_length_b 9.110060
_cell_length_c 10.094877
_cell_angle_alpha 90.000000
_cell_angle_beta 146.983840
_cell_angle_gamma 90.000000
_cell_volume 1530.989069
_symmetry_space_group_name_H-M "P 2/M"
_symmetry_group_IT_number 10
_symmetry_cell_setting 'monoclinic'
loop_
_space_group_symop_operation_xyz
x,y,z
-x,y,-z
-x,-y,-z
x,-y,z
loop_
_atom_site_type_symbol
_atom_site_label
_atom_site_fract_x
_atom_site_fract_y
_atom_site_fract_z
Si Si1 0.667204 0.832013 0.674678
Si Si2 0.255933 0.829520 0.409051
Si Si3 0.084807 0.173424 0.554197
Si Si4 0.507496 0.170907 0.670145
Si Si5 0.907711 0.826868 0.127423
Si Si6 0.235673 0.673006 0.857387
Si Si7 0.335168 0.326705 0.853818
O O1 0.686535 0.805220 0.570573
O O2 0.574264 0.793778 0.460304
O O3 0.685582 0.000000 0.762395
O O4 0.722558 0.728695 0.903370
O O5 0.287479 0.731460 0.607233
O O6 0.254828 0.000000 0.448421
O O7 0.166170 0.769960 0.148537
O O8 0.099437 0.231972 0.740738
O O9 0.147264 0.256172 0.617408
O O10 0.993521 0.216819 0.280662
O O11 0.098542 0.000000 0.576367
O O12 0.500000 0.225658 0.500000
O O13 0.530000 0.000000 0.731672
O O14 0.576146 0.259680 0.919542
O O15 0.901830 0.000000 0.125179
O O16 0.226561 0.500000 0.840913
O O17 0.288305 0.723705 0.866237
O O18 0.342506 0.500000 0.862630
#
# Coordination Sequence:
#
# PCOD8064955 Si02
#       7
#     4   4   4   4   4   4   4
#     4  10  20  36  61  87 109 138 182 234 280 325
#     4  10  20  37  59  83 112 145 183 227 277 328
#     4   9  16  31  57  85 111 139 181 232 277 322
#     4  10  20  36  61  88 109 137 184 234 280 326
#     4   8  15  30  56  86 111 139 177 229 281 323
#     4  11  22  35  53  81 113 148 188 225 269 328
#     4  11  25  40  54  77 115 156 187 221 274 332
#
# _framework density 18.288829
#
# number of rings (size 3 to 8) (size 9 to 14) (size 15 to 20)
#    0.000    2.143    2.857    1.714    0.000    3.714 
#    0.000    5.714    0.000    4.286    0.000    0.000 
#    0.000    0.000    0.000    0.000    0.000    0.000 
#
# Total GULP energy -347218.313894 kJ/mol
# GULP energy per Si atom -12400.654068 kJ/mol
# Density = 1.824720 g / cm^3
# Si number density = 18.288829 Si / 1000 Ang^3
#
#
#
# Elastic Constant Matrix: (Units=GPa)
#
#
# Indices 1 2 3 4 5 6 
#
# 1 76.2189 33.9804 40.7385 0.0000 25.5725 0.0000
# 2 33.9804 48.3910 34.5319 0.0000 10.0745 0.0000
# 3 40.7385 34.5319 123.7236 0.0000 19.8654 0.0000
# 4 0.0000 0.0000 0.0000 14.7487 0.0000 -3.8003
# 5 25.5725 10.0745 19.8654 0.0000 32.1008 0.0000
# 6 0.0000 0.0000 0.0000 -3.8003 0.0000 24.1528
#
#
#
# Elastic Compliance Matrix: (Units=1/GPa)
#
#
# Indices 1 2 3 4 5 6 
#
# 1 0.024907 -0.012850 -0.002305 0.000000 -0.014382 0.000000
# 2 -0.012850 0.032916 -0.005486 0.000000 0.003302 0.000000
# 3 -0.002305 -0.005486 0.010883 0.000000 -0.003177 0.000000
# 4 0.000000 0.000000 0.000000 0.070668 0.000000 0.011119
# 5 -0.014382 0.003302 -0.003177 0.000000 0.043539 0.000000
# 6 0.000000 0.000000 0.000000 0.011119 0.000000 0.043153
#
#
# Mechanical properties :
#
#
# Convention : Reuss Voigt Hill
#
# Bulk Modulus (GPa) = 36.46656 51.87059 44.16857
# Shear Modulus (GPa) = 18.08396 23.47262 20.77829
#
# Velocity S-wave (km/s) = 3.14793 3.58640 3.37429
# Velocity P-wave (km/s) = 5.76152 6.75079 6.27568
#
# Compressibility (1/GPa) = 0.02742238
#
# Stress axis : x y z
#
# Youngs Moduli (GPa) = 40.14994 30.38034 91.88836
#
# Poissons Ratio (x) = 0.39040 0.21182
# Poissons Ratio (y) = 0.51594 0.50409
# Poissons Ratio (z) = 0.09255 0.16666
#
# Static dielectric constant tensor:
#      x y z
#    x 3.515660 0.000000 0.299500 
#    y 0.000000 3.131190 0.000000 
#    z 0.299500 0.000000 3.526830 
# 
# 
# High freq. dielectric constant tensor:
#      x y z
#    x 1.710400 0.000000 0.021210 
#    y 0.000000 1.687560 0.000000 
#    z 0.021210 0.000000 1.708930 
# 
# From -- ./inp_files/36684.got.cif
#   From: 2010.06.25/outbox.cif.g09.slc.cpg/sg10_19_cif.got.tgz:36684.got - 2010.06.27 22:07:45.
