data_PCOD8064989
_publ_section_title
;
Structure prediction by ZEFSAII (Michael W. Deem and Ramdas Pophale) SiO2 
 PCOD8064989
Probable space group: P 2/M
;
_chemical_formula_sum "Si O2"
_cell_formula_units_Z 24
_cell_length_a 10.993926
_cell_length_b 13.919135
_cell_length_c 13.063561
_cell_angle_alpha 90.000000
_cell_angle_beta 34.536586
_cell_angle_gamma 90.000000
_cell_volume 1133.333912
_symmetry_space_group_name_H-M "P 2/M"
_symmetry_group_IT_number 10
_symmetry_cell_setting 'monoclinic'
loop_
_space_group_symop_operation_xyz
x,y,z
-x,y,-z
-x,-y,-z
x,-y,z
loop_
_atom_site_type_symbol
_atom_site_label
_atom_site_fract_x
_atom_site_fract_y
_atom_site_fract_z
Si Si1 0.095193 0.780379 0.128283
Si Si2 0.434924 0.110365 0.759286
Si Si3 0.671821 0.276089 0.302101
Si Si4 0.331388 0.607573 0.904465
Si Si5 0.810373 0.397893 0.550670
Si Si6 0.880799 0.191299 0.475231
O O1 0.899247 0.750031 0.192429
O O2 0.030615 0.838865 0.276165
O O3 0.255140 0.854228 0.962693
O O4 0.216963 0.678733 0.065203
O O5 0.425835 0.173519 0.663596
O O6 0.676058 0.123841 0.635587
O O7 0.392951 0.000000 0.761785
O O8 0.500000 0.322245 0.500000
O O9 0.699184 0.349571 0.188904
O O10 0.231565 0.500000 0.977751
O O11 0.579601 0.603787 0.766118
O O12 0.827429 0.500000 0.476179
O O13 0.818407 0.300082 0.479644
O O14 0.000000 0.395029 0.500000
O O15 0.000000 0.191197 0.500000
#
# Coordination Sequence:
#
# PCOD8064989 Si02
#       6
#     4   4   4   4   4   4
#     4  11  23  41  63  91 129 162 206 262 307 367
#     4  11  24  43  65  94 123 159 209 257 318 376
#     4  11  21  40  64  93 129 164 207 254 308 374
#     4  10  20  36  61  96 133 168 206 249 308 372
#     4   9  17  34  60  88 123 163 204 246 292 358
#     4  11  23  43  66  89 125 168 208 257 314 366
#
# _framework density 21.176462000000001
#
# number of rings (size 3 to 8) (size 9 to 14) (size 15 to 20)
#    0.000    1.500    5.000    2.000    0.000    5.667 
#    0.000    0.833    0.000    5.000    0.000    0.000 
#    0.000    0.000    0.000    0.000    0.000    0.000 
#
# Total GULP energy -297331.657155 kJ/mol
# GULP energy per Si atom -12388.819048 kJ/mol
# Density = 2.112826 g / cm^3
# Si number density = 21.176462 Si / 1000 Ang^3
#
#
#
# Elastic Constant Matrix: (Units=GPa)
#
#
# Indices 1 2 3 4 5 6 
#
# 1 76.0305 3.3468 36.9737 0.0000 -15.6787 0.0000
# 2 3.3468 105.7677 5.3928 0.0000 -15.3613 0.0000
# 3 36.9737 5.3928 113.5298 0.0000 -10.2796 0.0000
# 4 0.0000 0.0000 0.0000 11.5683 0.0000 -2.6951
# 5 -15.6787 -15.3613 -10.2796 0.0000 29.4020 0.0000
# 6 0.0000 0.0000 0.0000 -2.6951 0.0000 16.2219
#
#
#
# Elastic Compliance Matrix: (Units=1/GPa)
#
#
# Indices 1 2 3 4 5 6 
#
# 1 0.017121 0.000850 -0.004905 0.000000 0.007859 0.000000
# 2 0.000850 0.010273 -0.000245 0.000000 0.005735 0.000000
# 3 -0.004905 -0.000245 0.010501 0.000000 0.000928 0.000000
# 4 0.000000 0.000000 0.000000 0.089924 0.000000 0.014940
# 5 0.007859 0.005735 0.000928 0.000000 0.041523 0.000000
# 6 0.000000 0.000000 0.000000 0.014940 0.000000 0.064127
#
#
# Mechanical properties :
#
#
# Convention : Reuss Voigt Hill
#
# Bulk Modulus (GPa) = 34.13594 42.97273 38.55433
# Shear Modulus (GPa) = 19.85428 28.07940 23.96684
#
# Velocity S-wave (km/s) = 3.06529 3.64534 3.36783
# Velocity P-wave (km/s) = 5.35563 6.16885 5.77657
#
# Compressibility (1/GPa) = 0.02929464
#
# Stress axis : x y z
#
# Youngs Moduli (GPa) = 58.40782 97.34083 95.22676
#
# Poissons Ratio (x) = -0.08271 0.46705
# Poissons Ratio (y) = -0.04963 0.02338
# Poissons Ratio (z) = 0.28647 0.02389
#
# Static dielectric constant tensor:
#      x y z
#    x 3.569520 0.000000 -0.276530 
#    y 0.000000 4.077100 0.000000 
#    z -0.276530 0.000000 4.074980 
# 
# 
# High freq. dielectric constant tensor:
#      x y z
#    x 1.810580 0.000000 -0.024830 
#    y 0.000000 1.825380 0.000000 
#    z -0.024830 0.000000 1.840870 
# 
# From -- ./inp_files/51530.got.cif
#   From: 2010.06.25/outbox.cif.g09.slc.cpg/sg10_26_cif.got.tgz:51530.got - 2010.06.27 22:07:45.
