data_PCOD8064826
_publ_section_title
;
Structure prediction by ZEFSAII (Michael W. Deem and Ramdas Pophale) SiO2 
 PCOD8064826
Probable space group: P 2/M
;
_chemical_formula_sum "Si O2"
_cell_formula_units_Z 32
_cell_length_a 30.879161
_cell_length_b 8.883717
_cell_length_c 12.094420
_cell_angle_alpha 90.000000
_cell_angle_beta 28.790726
_cell_angle_gamma 90.000000
_cell_volume 1597.873509
_symmetry_space_group_name_H-M "P 2/M"
_symmetry_group_IT_number 10
_symmetry_cell_setting 'monoclinic'
loop_
_space_group_symop_operation_xyz
x,y,z
-x,y,-z
-x,-y,-z
x,-y,z
loop_
_atom_site_type_symbol
_atom_site_label
_atom_site_fract_x
_atom_site_fract_y
_atom_site_fract_z
Si Si1 0.495520 0.675990 0.674455
Si Si2 0.111848 0.175195 0.565302
Si Si3 0.197895 0.667846 0.179152
Si Si4 0.233945 0.821520 0.496299
Si Si5 0.088990 0.825051 0.993188
Si Si6 0.376352 0.175116 0.758140
Si Si7 0.076626 0.668815 0.251400
Si Si8 0.569769 0.323582 0.936740
O O1 0.480912 0.500000 0.682884
O O2 0.595713 0.727709 0.413450
O O3 0.432067 0.777327 0.740796
O O4 0.477205 0.715382 0.842219
O O5 0.120673 0.276865 0.435987
O O6 0.187264 0.225439 0.485085
O O7 0.010214 0.205304 0.836656
O O8 0.123233 0.000000 0.509788
O O9 0.230027 0.500000 0.141935
O O10 0.166264 0.664899 0.123767
O O11 0.275019 0.790793 0.016706
O O12 0.332917 0.753209 0.289097
O O13 0.242632 0.000000 0.483764
O O14 0.167240 0.756692 0.740291
O O15 0.098246 0.760913 0.094547
O O16 0.106978 0.000000 0.962592
O O17 0.390026 0.000000 0.703216
O O18 0.045484 0.500000 0.287897
O O19 0.000000 0.744782 0.500000
O O20 0.586111 0.500000 0.885340
O O21 0.500000 0.263558 0.000000
#
# Coordination Sequence:
#
# PCOD8064826 Si02
#       8
#     4   4   4   4   4   4   4   4
#     4  10  20  38  62  85 114 149 188 233 290 345
#     4  10  20  36  59  85 118 155 191 235 287 341
#     4  11  22  36  56  82 116 153 194 237 284 337
#     4  10  22  39  59  87 118 150 191 237 286 341
#     4  10  21  37  59  86 118 155 193 235 285 342
#     4  11  22  36  57  87 119 148 188 237 288 342
#     4  10  21  38  56  78 111 151 191 234 280 330
#     4  10  23  42  62  84 113 150 192 238 289 344
#
# _framework density 20.026617000000002
#
# number of rings (size 3 to 8) (size 9 to 14) (size 15 to 20)
#    0.000    1.750    1.250    3.750    0.000    8.000 
#    0.000    3.750    0.000    2.250    0.000    0.000 
#    0.000    0.000    0.000    0.000    0.000    0.000 
#
# Total GULP energy -396723.928559 kJ/mol
# GULP energy per Si atom -12397.622767 kJ/mol
# Density = 1.998104 g / cm^3
# Si number density = 20.026617 Si / 1000 Ang^3
#
#
#
# Elastic Constant Matrix: (Units=GPa)
#
#
# Indices 1 2 3 4 5 6 
#
# 1 112.2295 36.2303 54.9369 0.0000 7.0265 0.0000
# 2 36.2303 65.7861 41.1983 0.0000 -0.7374 0.0000
# 3 54.9369 41.1983 112.5700 0.0000 10.5159 0.0000
# 4 0.0000 0.0000 0.0000 29.7484 0.0000 -1.1438
# 5 7.0265 -0.7374 10.5159 0.0000 26.3969 0.0000
# 6 0.0000 0.0000 0.0000 -1.1438 0.0000 23.7998
#
#
#
# Elastic Compliance Matrix: (Units=1/GPa)
#
#
# Indices 1 2 3 4 5 6 
#
# 1 0.012525 -0.004135 -0.004442 0.000000 -0.001680 0.000000
# 2 -0.004135 0.021413 -0.006209 0.000000 0.004172 0.000000
# 3 -0.004442 -0.006209 0.013741 0.000000 -0.004465 0.000000
# 4 0.000000 0.000000 0.000000 0.033677 0.000000 0.001619
# 5 -0.001680 0.004172 -0.004465 0.000000 0.040226 0.000000
# 6 0.000000 0.000000 0.000000 0.001619 0.000000 0.042095
#
#
# Mechanical properties :
#
#
# Convention : Reuss Voigt Hill
#
# Bulk Modulus (GPa) = 55.22684 61.70184 58.46434
# Shear Modulus (GPa) = 25.08998 26.53702 25.81350
#
# Velocity S-wave (km/s) = 3.54338 3.64412 3.59410
# Velocity P-wave (km/s) = 6.66163 6.97015 6.81763
#
# Compressibility (1/GPa) = 0.01810714
#
# Stress axis : x y z
#
# Youngs Moduli (GPa) = 79.84192 46.70127 72.77706
#
# Poissons Ratio (x) = 0.19309 0.32330
# Poissons Ratio (y) = 0.33012 0.45184
# Poissons Ratio (z) = 0.35468 0.28995
#
# Static dielectric constant tensor:
#      x y z
#    x 3.602590 0.000000 0.027650 
#    y 0.000000 3.538090 0.000000 
#    z 0.027650 0.000000 4.002670 
# 
# 
# High freq. dielectric constant tensor:
#      x y z
#    x 1.777170 0.000000 0.001100 
#    y 0.000000 1.773700 0.000000 
#    z 0.001100 0.000000 1.792890 
# 
# From -- ./inp_files/58128.got.cif
#   From: 2010.06.25/outbox.cif.g09.slc.cpg/sg10_30_cif.got.tgz:58128.got - 2010.06.27 22:07:45.
