data_PCOD8064471
_publ_section_title
;
Structure prediction by ZEFSAII (Michael W. Deem and Ramdas Pophale) SiO2 
 PCOD8064471
Probable space group: P 2/M
;
_chemical_formula_sum "Si O2"
_cell_formula_units_Z 18
_cell_length_a 8.902752
_cell_length_b 11.152857
_cell_length_c 16.345214
_cell_angle_alpha 90.000000
_cell_angle_beta 39.253470
_cell_angle_gamma 90.000000
_cell_volume 1026.915485
_symmetry_space_group_name_H-M "P 2/M"
_symmetry_group_IT_number 10
_symmetry_cell_setting 'monoclinic'
loop_
_space_group_symop_operation_xyz
x,y,z
-x,y,-z
-x,-y,-z
x,-y,z
loop_
_atom_site_type_symbol
_atom_site_label
_atom_site_fract_x
_atom_site_fract_y
_atom_site_fract_z
Si Si1 0.500000 0.802339 0.000000
Si Si2 0.248424 0.000000 0.796276
Si Si3 0.312216 0.000000 0.960492
Si Si4 0.403607 0.225041 0.628871
Si Si5 0.853731 0.636553 0.488186
Si Si6 0.054731 0.361917 0.227581
O O1 0.562870 0.883470 0.052476
O O2 0.280109 0.717314 0.111148
O O3 0.351456 0.113930 0.707722
O O4 0.342123 0.000000 0.850002
O O5 0.966522 0.000000 0.903447
O O6 0.500000 0.181553 0.500000
O O7 0.604050 0.299830 0.588591
O O8 0.175273 0.310217 0.720722
O O9 0.793451 0.500000 0.534203
O O10 0.000000 0.696957 0.500000
O O11 0.015255 0.647837 0.340450
O O12 0.093759 0.500000 0.183798
#
# Coordination Sequence:
#
# PCOD8064471 Si02
#       6
#     2   2   2   4   4   4
#     4  11  21  40  58  82 109 147 192 230 270 327
#     4  11  21  40  56  82 107 150 192 227 275 322
#     4  10  24  38  59  75 110 154 187 232 276 317
#     4  10  20  36  59  83 115 145 182 224 275 335
#     4   9  19  35  56  84 114 143 178 227 283 330
#     4  10  20  35  59  84 112 147 182 224 276 334
#
# _framework density 17.528219
#
# number of rings (size 3 to 8) (size 9 to 14) (size 15 to 20)
#    0.000    2.000    2.222    1.333    3.111    2.667 
#    0.000    0.556    0.000    1.333    0.000    0.000 
#    0.000    0.000    0.000    0.000    0.000    0.000 
#
# Total GULP energy -223183.362098 kJ/mol
# GULP energy per Si atom -12399.075672 kJ/mol
# Density = 1.748832 g / cm^3
# Si number density = 17.528219 Si / 1000 Ang^3
#
#
#
# Elastic Constant Matrix: (Units=GPa)
#
#
# Indices 1 2 3 4 5 6 
#
# 1 152.9126 75.4612 70.4512 0.0000 -10.5800 0.0000
# 2 75.4612 136.8991 80.5427 0.0000 -0.2770 0.0000
# 3 70.4512 80.5427 115.8889 0.0000 -17.2262 0.0000
# 4 0.0000 0.0000 0.0000 36.8357 0.0000 -1.0940
# 5 -10.5800 -0.2770 -17.2262 0.0000 19.3883 0.0000
# 6 0.0000 0.0000 0.0000 -1.0940 0.0000 32.6098
#
#
#
# Elastic Compliance Matrix: (Units=1/GPa)
#
#
# Indices 1 2 3 4 5 6 
#
# 1 0.009962 -0.003636 -0.003143 0.000000 0.002591 0.000000
# 2 -0.003636 0.015065 -0.009819 0.000000 -0.010493 0.000000
# 3 -0.003143 -0.009819 0.019689 0.000000 0.015637 0.000000
# 4 0.000000 0.000000 0.000000 0.027175 0.000000 0.000912
# 5 0.002591 -0.010493 0.015637 0.000000 0.066735 0.000000
# 6 0.000000 0.000000 0.000000 0.000912 0.000000 0.030696
#
#
# Mechanical properties :
#
#
# Convention : Reuss Voigt Hill
#
# Bulk Modulus (GPa) = 86.82720 95.40119 91.11419
# Shear Modulus (GPa) = 24.22966 29.71647 26.97307
#
# Velocity S-wave (km/s) = 3.72199 4.12193 3.92706
# Velocity P-wave (km/s) = 8.25313 8.78630 8.52389
#
# Compressibility (1/GPa) = 0.01151713
#
# Stress axis : x y z
#
# Youngs Moduli (GPa) = 100.38312 66.37958 50.79057
#
# Poissons Ratio (x) = 0.24139 0.15966
# Poissons Ratio (y) = 0.36504 0.49872
# Poissons Ratio (z) = 0.31555 0.65179
#
# Static dielectric constant tensor:
#      x y z
#    x 3.478550 0.000000 -0.054100 
#    y 0.000000 3.562500 0.000000 
#    z -0.054100 0.000000 3.245840 
# 
# 
# High freq. dielectric constant tensor:
#      x y z
#    x 1.687940 0.000000 -0.010420 
#    y 0.000000 1.684160 0.000000 
#    z -0.010420 0.000000 1.678680 
# 
# From -- ./inp_files/17803.got.cif
#   From: 2010.06.25/outbox.cif.g09.slc.cpg/sg10_9_cif.got.tgz:17803.got - 2010.06.27 22:07:45.
