data_PCOD8064058
_publ_section_title
;
Structure prediction by ZEFSAII (Michael W. Deem and Ramdas Pophale) SiO2 
 PCOD8064058
Probable space group: P 2/M
;
_chemical_formula_sum "Si O2"
_cell_formula_units_Z 28
_cell_length_a 20.441642
_cell_length_b 7.609897
_cell_length_c 15.547768
_cell_angle_alpha 90.000000
_cell_angle_beta 40.955309
_cell_angle_gamma 90.000000
_cell_volume 1585.314853
_symmetry_space_group_name_H-M "P 2/M"
_symmetry_group_IT_number 10
_symmetry_cell_setting 'monoclinic'
loop_
_space_group_symop_operation_xyz
x,y,z
-x,y,-z
-x,-y,-z
x,-y,z
loop_
_atom_site_type_symbol
_atom_site_label
_atom_site_fract_x
_atom_site_fract_y
_atom_site_fract_z
Si Si1 0.613269 0.699748 0.703239
Si Si2 0.257180 0.706398 0.581049
Si Si3 0.612146 0.794555 0.886608
Si Si4 0.609061 0.704229 0.389279
Si Si5 0.258968 0.710147 0.899130
Si Si6 0.115987 0.000000 0.986877
Si Si7 0.883064 0.000000 0.216749
Si Si8 0.609642 0.703053 0.073048
O O1 0.600220 0.500000 0.688145
O O2 0.691404 0.779432 0.557523
O O3 0.661702 0.714691 0.751045
O O4 0.502145 0.790592 0.810664
O O5 0.226180 0.500000 0.607989
O O6 0.337545 0.743845 0.574700
O O7 0.160399 0.823352 0.696486
O O8 0.616581 0.000000 0.872024
O O9 0.500000 0.719560 0.000000
O O10 0.661350 0.737245 0.928324
O O11 0.500000 0.794675 0.500000
O O12 0.595628 0.500000 0.385058
O O13 0.672446 0.777478 0.247119
O O14 0.235474 0.500000 0.920946
O O15 0.157832 0.822224 0.990091
O O16 0.315127 0.774683 0.929776
O O17 0.139727 0.000000 0.861927
O O18 0.999313 0.000000 0.120969
O O19 0.595388 0.500000 0.104261
#
# Coordination Sequence:
#
# PCOD8064058 Si02
#       8
#     4   4   4   4   4   2   2   4
#     4   9  17  30  49  73 105 143 176 207 246 297
#     4  10  20  35  54  77 103 136 173 210 257 307
#     4   9  17  27  41  69 107 144 177 208 240 284
#     4   9  16  29  49  74 107 139 166 198 240 296
#     4  10  20  35  54  77 103 136 173 210 257 307
#     4  11  24  40  56  75 100 131 173 224 269 311
#     4  11  24  40  56  75 100 131 173 224 269 311
#     4   9  17  30  49  73 105 143 176 207 246 297
#
# _framework density 17.662105
#
# number of rings (size 3 to 8) (size 9 to 14) (size 15 to 20)
#    0.000    2.429    1.429    1.286    2.000    5.714 
#    0.000    4.286    0.000    0.000    0.000    2.000 
#    0.000    4.571    0.000    0.000    0.000    0.000 
#
# Total GULP energy -346985.702513 kJ/mol
# GULP energy per Si atom -12392.346518 kJ/mol
# Density = 1.762191 g / cm^3
# Si number density = 17.662105 Si / 1000 Ang^3
#
#
#
# Elastic Constant Matrix: (Units=GPa)
#
#
# Indices 1 2 3 4 5 6 
#
# 1 98.9712 36.0109 76.1225 0.0000 16.0191 0.0000
# 2 36.0109 62.3466 37.5357 0.0000 -4.7577 0.0000
# 3 76.1225 37.5357 109.5462 0.0000 10.6891 0.0000
# 4 0.0000 0.0000 0.0000 21.6632 0.0000 -2.5881
# 5 16.0191 -4.7577 10.6891 0.0000 33.5035 0.0000
# 6 0.0000 0.0000 0.0000 -2.5881 0.0000 16.0920
#
#
#
# Elastic Compliance Matrix: (Units=1/GPa)
#
#
# Indices 1 2 3 4 5 6 
#
# 1 0.024584 -0.006318 -0.014124 0.000000 -0.008146 0.000000
# 2 -0.006318 0.022765 -0.004149 0.000000 0.007578 0.000000
# 3 -0.014124 -0.004149 0.020398 0.000000 -0.000344 0.000000
# 4 0.000000 0.000000 0.000000 0.047066 0.000000 0.007570
# 5 -0.008146 0.007578 -0.000344 0.000000 0.034928 0.000000
# 6 0.000000 0.000000 0.000000 0.007570 0.000000 0.063360
#
#
# Mechanical properties :
#
#
# Convention : Reuss Voigt Hill
#
# Bulk Modulus (GPa) = 53.86385 63.35581 58.60983
# Shear Modulus (GPa) = 18.62389 22.33139 20.47764
#
# Velocity S-wave (km/s) = 3.25076 3.55965 3.40871
# Velocity P-wave (km/s) = 6.68229 7.26937 6.98200
#
# Compressibility (1/GPa) = 0.01856533
#
# Stress axis : x y z
#
# Youngs Moduli (GPa) = 40.67638 43.92705 49.02377
#
# Poissons Ratio (x) = 0.27754 0.69239
# Poissons Ratio (y) = 0.25700 0.20341
# Poissons Ratio (z) = 0.57450 0.18227
#
# Static dielectric constant tensor:
#      x y z
#    x 3.332280 0.000000 0.268490 
#    y 0.000000 3.142170 0.000000 
#    z 0.268490 0.000000 3.215310 
# 
# 
# High freq. dielectric constant tensor:
#      x y z
#    x 1.669200 0.000000 0.033020 
#    y 0.000000 1.681220 0.000000 
#    z 0.033020 0.000000 1.655730 
# 
# From -- ./inp_files/28184.got.cif
#   From: 2010.06.25/outbox.cif.g09.slc.cpg/sg10_15_cif.got.tgz:28184.got - 2010.06.27 22:07:45.
