data_PCOD8064273
_publ_section_title
;
Structure prediction by ZEFSAII (Michael W. Deem and Ramdas Pophale) SiO2 
 PCOD8064273
Probable space group: P 2/M
;
_chemical_formula_sum "Si O2"
_cell_formula_units_Z 28
_cell_length_a 15.149043
_cell_length_b 8.526372
_cell_length_c 19.379165
_cell_angle_alpha 90.000000
_cell_angle_beta 143.906720
_cell_angle_gamma 90.000000
_cell_volume 1474.601694
_symmetry_space_group_name_H-M "P 2/M"
_symmetry_group_IT_number 10
_symmetry_cell_setting 'monoclinic'
loop_
_space_group_symop_operation_xyz
x,y,z
-x,y,-z
-x,-y,-z
x,-y,z
loop_
_atom_site_type_symbol
_atom_site_label
_atom_site_fract_x
_atom_site_fract_y
_atom_site_fract_z
Si Si1 0.844890 0.817729 0.868809
Si Si2 0.889566 0.681024 0.750859
Si Si3 0.192912 0.817658 0.889550
Si Si4 0.495880 0.182802 0.161510
Si Si5 0.458631 0.680962 0.283394
Si Si6 0.654020 0.676258 0.138107
Si Si7 0.613336 0.182752 0.511772
O O1 0.847510 0.788448 0.789185
O O2 0.717584 0.717881 0.825942
O O3 0.813399 0.000000 0.863293
O O4 0.000000 0.762345 0.000000
O O5 0.878871 0.500000 0.765215
O O6 0.768475 0.721653 0.615490
O O7 0.055284 0.716022 0.829218
O O8 0.224891 0.771038 0.830498
O O9 0.151820 0.000000 0.867468
O O10 0.334602 0.776706 0.026936
O O11 0.520096 0.278592 0.246740
O O12 0.629110 0.234278 0.194397
O O13 0.509899 0.000000 0.186051
O O14 0.487542 0.500000 0.318073
O O15 0.543250 0.785240 0.393084
O O16 0.712368 0.500000 0.188721
O O17 0.500000 0.672167 0.000000
O O18 0.500000 0.239897 0.500000
O O19 0.648246 0.000000 0.541358
#
# Coordination Sequence:
#
# PCOD8064273 Si02
#       7
#     4   4   4   4   4   4   4
#     4  11  23  38  55  78 111 149 185 223 274 335
#     4  12  24  37  57  83 112 144 185 235 282 328
#     4  10  20  35  56  83 116 153 190 227 275 336
#     4  10  20  35  56  83 116 153 190 227 275 336
#     4  12  24  37  57  83 112 144 185 235 282 328
#     4   9  17  31  53  82 115 148 185 231 280 329
#     4  11  23  41  63  80 104 145 192 234 278 333
#
# _framework density 18.988178999999999
#
# number of rings (size 3 to 8) (size 9 to 14) (size 15 to 20)
#    0.000    1.286    1.429    5.571    0.000    8.571 
#    0.000    0.000    0.000    0.857    0.000    6.000 
#    0.000    0.000    0.000    0.000    0.000    0.000 
#
# Total GULP energy -347376.125292 kJ/mol
# GULP energy per Si atom -12406.290189 kJ/mol
# Density = 1.894496 g / cm^3
# Si number density = 18.988179 Si / 1000 Ang^3
#
#
#
# Elastic Constant Matrix: (Units=GPa)
#
#
# Indices 1 2 3 4 5 6 
#
# 1 86.5218 16.5112 12.2735 0.0000 -25.3615 0.0000
# 2 16.5112 73.9705 19.0226 0.0000 1.1027 0.0000
# 3 12.2735 19.0226 60.9137 0.0000 -14.8525 0.0000
# 4 0.0000 0.0000 0.0000 26.0240 0.0000 0.6259
# 5 -25.3615 1.1027 -14.8525 0.0000 19.8040 0.0000
# 6 0.0000 0.0000 0.0000 0.6259 0.0000 32.9155
#
#
#
# Elastic Compliance Matrix: (Units=1/GPa)
#
#
# Indices 1 2 3 4 5 6 
#
# 1 0.021418 -0.006690 0.005571 0.000000 0.031979 0.000000
# 2 -0.006690 0.017243 -0.007783 0.000000 -0.015365 0.000000
# 3 0.005571 -0.007783 0.023950 0.000000 0.025530 0.000000
# 4 0.000000 0.000000 0.000000 0.038444 0.000000 -0.000731
# 5 0.031979 -0.015365 0.025530 0.000000 0.111451 0.000000
# 6 0.000000 0.000000 0.000000 -0.000731 0.000000 0.030395
#
#
# Mechanical properties :
#
#
# Convention : Reuss Voigt Hill
#
# Bulk Modulus (GPa) = 22.31831 35.22449 28.77140
# Shear Modulus (GPa) = 18.13964 27.32196 22.73080
#
# Velocity S-wave (km/s) = 3.09417 3.79739 3.46367
# Velocity P-wave (km/s) = 4.95424 6.14963 5.58401
#
# Compressibility (1/GPa) = 0.04480627
#
# Stress axis : x y z
#
# Youngs Moduli (GPa) = 46.68949 57.99503 41.75441
#
# Poissons Ratio (x) = 0.38800 -0.23263
# Poissons Ratio (y) = 0.31236 0.32498
# Poissons Ratio (z) = -0.26012 0.45138
#
# Static dielectric constant tensor:
#      x y z
#    x 3.600520 0.000000 -0.029370 
#    y 0.000000 3.533880 0.000000 
#    z -0.029370 0.000000 3.322200 
# 
# 
# High freq. dielectric constant tensor:
#      x y z
#    x 1.739640 0.000000 -0.008450 
#    y 0.000000 1.751850 0.000000 
#    z -0.008450 0.000000 1.713510 
# 
# From -- ./inp_files/77810.got.cif
#   From: 2010.06.25/outbox.cif.g09.slc.cpg/sg10_39_cif.got.tgz:77810.got - 2010.06.27 22:07:45.
