data_PCOD8064259
_publ_section_title
;
Structure prediction by ZEFSAII (Michael W. Deem and Ramdas Pophale) SiO2 
 PCOD8064259
Probable space group: P 2/M
;
_chemical_formula_sum "Si O2"
_cell_formula_units_Z 32
_cell_length_a 20.225475
_cell_length_b 12.649222
_cell_length_c 9.133552
_cell_angle_alpha 90.000000
_cell_angle_beta 135.857686
_cell_angle_gamma 90.000000
_cell_volume 1627.375602
_symmetry_space_group_name_H-M "P 2/M"
_symmetry_group_IT_number 10
_symmetry_cell_setting 'monoclinic'
loop_
_space_group_symop_operation_xyz
x,y,z
-x,y,-z
-x,-y,-z
x,-y,z
loop_
_atom_site_type_symbol
_atom_site_label
_atom_site_fract_x
_atom_site_fract_y
_atom_site_fract_z
Si Si1 0.215414 0.376159 0.150549
Si Si2 0.396899 0.257951 0.344101
Si Si3 0.211372 0.211020 0.376750
Si Si4 0.812559 0.878748 0.362705
Si Si5 0.059784 0.880237 0.961945
Si Si6 0.611183 0.117722 0.936791
Si Si7 0.403477 0.121000 0.628227
Si Si8 0.086851 0.750635 0.729999
O O1 0.204808 0.500000 0.150033
O O2 0.322387 0.345229 0.278224
O O3 0.191395 0.326721 0.273275
O O4 0.146065 0.338429 0.909445
O O5 0.500000 0.314619 0.500000
O O6 0.365409 0.209981 0.140035
O O7 0.405687 0.156451 0.463013
O O8 0.156541 0.188035 0.443051
O O9 0.323561 0.192031 0.580558
O O10 0.170645 0.131706 0.185478
O O11 0.847539 0.821398 0.271474
O O12 0.851051 0.000000 0.430825
O O13 0.697923 0.880955 0.187684
O O14 0.038187 0.826888 0.772341
O O15 0.028894 0.000000 0.893188
O O16 0.000000 0.826709 0.000000
O O17 0.510701 0.139656 0.861092
O O18 0.604091 0.000000 0.853170
O O19 0.372114 0.000000 0.593111
O O20 0.000000 0.698849 0.500000
#
# Coordination Sequence:
#
# PCOD8064259 Si02
#       8
#     4   4   4   4   4   4   4   4
#     4  10  22  41  60  79 105 143 196 248 286 325
#     4   9  16  30  53  82 110 144 182 232 283 333
#     4  10  21  35  53  78 110 151 193 235 275 328
#     4  11  21  34  55  86 123 154 181 218 275 343
#     4  10  20  35  56  82 115 152 187 221 269 339
#     4   9  17  28  47  80 120 154 182 217 269 338
#     4   9  16  27  47  77 114 155 190 218 264 333
#     4  11  23  38  59  85 115 146 183 233 287 337
#
# _framework density 19.663561000000001
#
# number of rings (size 3 to 8) (size 9 to 14) (size 15 to 20)
#    0.000    2.125    1.250    2.625    0.000    4.500 
#    0.000    2.500    0.000   12.750    0.000    2.625 
#    0.000    0.000    0.000    0.000    0.000    0.000 
#
# Total GULP energy -396486.379508 kJ/mol
# GULP energy per Si atom -12390.199360 kJ/mol
# Density = 1.961881 g / cm^3
# Si number density = 19.663561 Si / 1000 Ang^3
#
#
#
# Elastic Constant Matrix: (Units=GPa)
#
#
# Indices 1 2 3 4 5 6 
#
# 1 81.1128 41.2622 37.5933 0.0000 -13.3640 0.0000
# 2 41.2622 118.8298 40.5542 0.0000 -12.9349 0.0000
# 3 37.5933 40.5542 82.6654 0.0000 -2.5216 0.0000
# 4 0.0000 0.0000 0.0000 17.0208 0.0000 -3.4613
# 5 -13.3640 -12.9349 -2.5216 0.0000 34.9789 0.0000
# 6 0.0000 0.0000 0.0000 -3.4613 0.0000 17.6291
#
#
#
# Elastic Compliance Matrix: (Units=1/GPa)
#
#
# Indices 1 2 3 4 5 6 
#
# 1 0.017841 -0.003516 -0.006234 0.000000 0.005067 0.000000
# 2 -0.003516 0.011218 -0.003827 0.000000 0.002529 0.000000
# 3 -0.006234 -0.003827 0.016730 0.000000 -0.002591 0.000000
# 4 0.000000 0.000000 0.000000 0.061195 0.000000 0.012015
# 5 0.005067 0.002529 -0.002591 0.000000 0.031273 0.000000
# 6 0.000000 0.000000 0.000000 0.012015 0.000000 0.059083
#
#
# Mechanical properties :
#
#
# Convention : Reuss Voigt Hill
#
# Bulk Modulus (GPa) = 53.66262 57.93637 55.79949
# Shear Modulus (GPa) = 21.67253 24.80565 23.23909
#
# Velocity S-wave (km/s) = 3.32349 3.55562 3.44151
# Velocity P-wave (km/s) = 6.48669 6.81061 6.65062
#
# Compressibility (1/GPa) = 0.01863495
#
# Stress axis : x y z
#
# Youngs Moduli (GPa) = 56.04988 89.14488 59.77111
#
# Poissons Ratio (x) = 0.31344 0.37262
# Poissons Ratio (y) = 0.19707 0.22875
# Poissons Ratio (z) = 0.34942 0.34117
#
# Static dielectric constant tensor:
#      x y z
#    x 3.716100 0.000000 0.199050 
#    y 0.000000 3.043100 0.000000 
#    z 0.199050 0.000000 3.719230 
# 
# 
# High freq. dielectric constant tensor:
#      x y z
#    x 1.776540 0.000000 0.013090 
#    y 0.000000 1.706070 0.000000 
#    z 0.013090 0.000000 1.782160 
# 
# From -- ./inp_files/34879.got.cif
#   From: 2010.06.25/outbox.cif.g09.slc.cpg/sg10_18_cif.got.tgz:34879.got - 2010.06.27 22:07:45.
