data_PCOD8064823
_publ_section_title
;
Structure prediction by ZEFSAII (Michael W. Deem and Ramdas Pophale) SiO2 
 PCOD8064823
Probable space group: P 2/M
;
_chemical_formula_sum "Si O2"
_cell_formula_units_Z 32
_cell_length_a 16.192124
_cell_length_b 8.860708
_cell_length_c 24.731738
_cell_angle_alpha 90.000000
_cell_angle_beta 26.763909
_cell_angle_gamma 90.000000
_cell_volume 1597.877549
_symmetry_space_group_name_H-M "P 2/M"
_symmetry_group_IT_number 10
_symmetry_cell_setting 'monoclinic'
loop_
_space_group_symop_operation_xyz
x,y,z
-x,y,-z
-x,-y,-z
x,-y,z
loop_
_atom_site_type_symbol
_atom_site_label
_atom_site_fract_x
_atom_site_fract_y
_atom_site_fract_z
Si Si1 0.857832 0.825190 0.536263
Si Si2 0.856219 0.676213 0.249208
Si Si3 0.737020 0.321615 0.008674
Si Si4 0.516258 0.324576 0.240410
Si Si5 0.547763 0.679435 0.912787
Si Si6 0.781623 0.177651 0.402195
Si Si7 0.550195 0.673370 0.343895
Si Si8 0.959739 0.322317 0.669961
O O1 0.658932 0.775447 0.672826
O O2 0.000000 0.789073 0.500000
O O3 0.906231 0.724964 0.456370
O O4 0.859783 0.000000 0.518439
O O5 0.862308 0.500000 0.259839
O O6 0.755529 0.761098 0.356962
O O7 0.740311 0.707228 0.262933
O O8 0.059880 0.743552 0.120644
O O9 0.743738 0.500000 0.998431
O O10 0.675034 0.277472 0.105513
O O11 0.593990 0.253481 0.048386
O O12 0.463757 0.500000 0.263929
O O13 0.585190 0.289116 0.260552
O O14 0.535738 0.500000 0.919640
O O15 0.753435 0.732454 0.777717
O O16 0.500000 0.743057 0.000000
O O17 0.609907 0.222712 0.539466
O O18 0.969759 0.246113 0.316117
O O19 0.797303 0.000000 0.391753
O O20 0.488970 0.500000 0.387580
O O21 0.968440 0.500000 0.673454
#
# Coordination Sequence:
#
# PCOD8064823 Si02
#       8
#     4   4   4   4   4   4   4   4
#     4  11  23  37  54  81 117 155 194 235 285 342
#     4  10  21  38  61  86 116 152 194 244 296 348
#     4   9  18  34  57  87 118 151 195 244 290 343
#     4  10  20  36  59  85 116 153 197 243 290 346
#     4   9  17  30  52  83 115 148 189 236 287 340
#     4  12  24  38  58  85 119 154 194 243 298 356
#     4  10  21  37  59  88 117 151 194 244 297 348
#     4  11  21  35  59  86 113 149 193 240 291 344
#
# _framework density 20.026565000000002
#
# number of rings (size 3 to 8) (size 9 to 14) (size 15 to 20)
#    0.000    1.750    1.250    3.750    0.000    6.500 
#    0.000    3.125    0.000    8.250    0.000    2.625 
#    0.000    0.000    0.000    0.000    0.000    0.000 
#
# Total GULP energy -396913.417174 kJ/mol
# GULP energy per Si atom -12403.544287 kJ/mol
# Density = 1.998098 g / cm^3
# Si number density = 20.026565 Si / 1000 Ang^3
#
#
#
# Elastic Constant Matrix: (Units=GPa)
#
#
# Indices 1 2 3 4 5 6 
#
# 1 142.6862 41.5194 54.1575 0.0000 -0.3347 0.0000
# 2 41.5194 63.6621 22.9632 0.0000 -3.0247 0.0000
# 3 54.1575 22.9632 104.2175 0.0000 1.2042 0.0000
# 4 0.0000 0.0000 0.0000 4.2634 0.0000 -4.8835
# 5 -0.3347 -3.0247 1.2042 0.0000 40.7684 0.0000
# 6 0.0000 0.0000 0.0000 -4.8835 0.0000 15.7299
#
#
#
# Elastic Compliance Matrix: (Units=1/GPa)
#
#
# Indices 1 2 3 4 5 6 
#
# 1 0.010041 -0.005079 -0.004097 0.000000 -0.000173 0.000000
# 2 -0.005079 0.019711 -0.001721 0.000000 0.001472 0.000000
# 3 -0.004097 -0.001721 0.012109 0.000000 -0.000519 0.000000
# 4 0.000000 0.000000 0.000000 0.364002 0.000000 0.113007
# 5 -0.000173 0.001472 -0.000519 0.000000 0.024652 0.000000
# 6 0.000000 0.000000 0.000000 0.113007 0.000000 0.098657
#
#
# Mechanical properties :
#
#
# Convention : Reuss Voigt Hill
#
# Bulk Modulus (GPa) = 49.83002 60.87179 55.35090
# Shear Modulus (GPa) = 8.96613 24.94739 16.95676
#
# Velocity S-wave (km/s) = 2.11822 3.53330 2.91299
# Velocity P-wave (km/s) = 5.56043 6.86346 6.24602
#
# Compressibility (1/GPa) = 0.02006822
#
# Stress axis : x y z
#
# Youngs Moduli (GPa) = 99.59352 50.73318 82.58089
#
# Poissons Ratio (x) = 0.25767 0.33831
# Poissons Ratio (y) = 0.50584 0.14210
# Poissons Ratio (z) = 0.40800 0.08730
#
# Static dielectric constant tensor:
#      x y z
#    x 3.898110 0.000000 -0.068470 
#    y 0.000000 3.276090 0.000000 
#    z -0.068470 0.000000 3.716020 
# 
# 
# High freq. dielectric constant tensor:
#      x y z
#    x 1.797480 0.000000 -0.000660 
#    y 0.000000 1.744650 0.000000 
#    z -0.000660 0.000000 1.784500 
# 
# From -- ./inp_files/89478.got.cif
#   From: 2010.06.25/outbox.cif.g09.slc.cpg/sg10_45_cif.got.tgz:89478.got - 2010.06.27 22:07:45.
