data_PCOD8064868
_publ_section_title
;
Structure prediction by ZEFSAII (Michael W. Deem and Ramdas Pophale) SiO2 
 PCOD8064868
Probable space group: P 2/M
;
_chemical_formula_sum "Si O2"
_cell_formula_units_Z 32
_cell_length_a 18.464700
_cell_length_b 13.714991
_cell_length_c 12.194462
_cell_angle_alpha 90.000000
_cell_angle_beta 29.188353
_cell_angle_gamma 90.000000
_cell_volume 1506.042871
_symmetry_space_group_name_H-M "P 2/M"
_symmetry_group_IT_number 10
_symmetry_cell_setting 'monoclinic'
loop_
_space_group_symop_operation_xyz
x,y,z
-x,y,-z
-x,-y,-z
x,-y,z
loop_
_atom_site_type_symbol
_atom_site_label
_atom_site_fract_x
_atom_site_fract_y
_atom_site_fract_z
Si Si1 0.286031 0.794792 0.592308
Si Si2 0.089445 0.787249 0.644816
Si Si3 0.792538 0.889281 0.083211
Si Si4 0.256799 0.614157 0.352571
Si Si5 0.428615 0.611299 0.478772
Si Si6 0.412102 0.112056 0.845481
Si Si7 0.456597 0.388307 0.899229
Si Si8 0.154346 0.884880 0.344081
O O1 0.155664 0.805218 0.677428
O O2 0.292977 0.684994 0.633644
O O3 0.444176 0.820598 0.328544
O O4 0.253637 0.871592 0.730984
O O5 0.109433 0.674767 0.579608
O O6 0.174080 0.854661 0.444376
O O7 0.916905 0.813838 0.878166
O O8 0.853414 0.000000 0.990754
O O9 0.648640 0.875449 0.197533
O O10 0.216573 0.500000 0.414517
O O11 0.384021 0.652057 0.269345
O O12 0.312342 0.648863 0.157309
O O13 0.500000 0.638922 0.500000
O O14 0.368195 0.500000 0.557863
O O15 0.555129 0.625282 0.216660
O O16 0.453435 0.000000 0.815158
O O17 0.292560 0.153933 0.089868
O O18 0.465462 0.500000 0.923370
O O19 0.000000 0.841508 0.500000
O O20 0.151415 0.000000 0.337094
#
# Coordination Sequence:
#
# PCOD8064868 Si02
#       8
#     4   4   4   4   4   4   4   4
#     4  12  25  39  61  97 128 154 213 277 315 362
#     4  12  24  37  65  93 123 168 210 255 319 382
#     4  11  24  45  65  85 122 174 217 253 319 397
#     4   9  18  34  58  90 128 164 204 258 316 373
#     4  10  20  36  59  88 128 171 207 250 310 380
#     4  10  22  41  66  90 120 162 207 261 318 375
#     4   8  15  31  55  83 121 164 203 249 311 370
#     4  10  21  41  64  89 123 163 205 250 315 394
#
# _framework density 21.247734000000001
#
# number of rings (size 3 to 8) (size 9 to 14) (size 15 to 20)
#    0.000    1.750    2.500    3.000    1.750    4.000 
#    0.000    1.875    0.000    2.625    0.000    0.000 
#    0.000    0.000    0.000    0.000    0.000    0.000 
#
# Total GULP energy -396741.067500 kJ/mol
# GULP energy per Si atom -12398.158359 kJ/mol
# Density = 2.119937 g / cm^3
# Si number density = 21.247734 Si / 1000 Ang^3
#
#
#
# Elastic Constant Matrix: (Units=GPa)
#
#
# Indices 1 2 3 4 5 6 
#
# 1 91.5592 16.9424 6.5439 0.0000 25.5894 0.0000
# 2 16.9424 69.4329 24.0669 0.0000 -9.6024 0.0000
# 3 6.5439 24.0669 75.3146 0.0000 9.4995 0.0000
# 4 0.0000 0.0000 0.0000 33.2247 0.0000 1.0149
# 5 25.5894 -9.6024 9.4995 0.0000 34.5476 0.0000
# 6 0.0000 0.0000 0.0000 1.0149 0.0000 28.0794
#
#
#
# Elastic Compliance Matrix: (Units=1/GPa)
#
#
# Indices 1 2 3 4 5 6 
#
# 1 0.016054 -0.006832 0.002618 0.000000 -0.014510 0.000000
# 2 -0.006832 0.020465 -0.007564 0.000000 0.012828 0.000000
# 3 0.002618 -0.007564 0.016551 0.000000 -0.008593 0.000000
# 4 0.000000 0.000000 0.000000 0.030131 0.000000 -0.001089
# 5 -0.014510 0.012828 -0.008593 0.000000 0.045622 0.000000
# 6 0.000000 0.000000 0.000000 -0.001089 0.000000 0.035653
#
#
# Mechanical properties :
#
#
# Convention : Reuss Voigt Hill
#
# Bulk Modulus (GPa) = 33.88030 36.82367 35.35199
# Shear Modulus (GPa) = 25.26910 31.75394 28.51152
#
# Velocity S-wave (km/s) = 3.45231 3.87002 3.66712
# Velocity P-wave (km/s) = 5.64546 6.11046 5.88256
#
# Compressibility (1/GPa) = 0.02951567
#
# Stress axis : x y z
#
# Youngs Moduli (GPa) = 62.28865 48.86284 60.41893
#
# Poissons Ratio (x) = 0.33382 -0.15820
# Poissons Ratio (y) = 0.42554 0.45702
# Poissons Ratio (z) = -0.16309 0.36961
#
# Static dielectric constant tensor:
#      x y z
#    x 3.737130 0.000000 0.304770 
#    y 0.000000 3.866840 0.000000 
#    z 0.304770 0.000000 3.765710 
# 
# 
# High freq. dielectric constant tensor:
#      x y z
#    x 1.826170 0.000000 0.030890 
#    y 0.000000 1.837490 0.000000 
#    z 0.030890 0.000000 1.818560 
# 
# From -- ./inp_files/54002.got.cif
#   From: 2010.06.25/outbox.cif.g09.slc.cpg/sg10_28_cif.got.tgz:54002.got - 2010.06.27 22:07:45.
