data_PCOD8064167
_publ_section_title
;
Structure prediction by ZEFSAII (Michael W. Deem and Ramdas Pophale) SiO2 
 PCOD8064167
Probable space group: P 2/M
;
_chemical_formula_sum "Si O2"
_cell_formula_units_Z 28
_cell_length_a 26.701618
_cell_length_b 7.754354
_cell_length_c 9.066140
_cell_angle_alpha 90.000000
_cell_angle_beta 132.573789
_cell_angle_gamma 90.000000
_cell_volume 1382.366913
_symmetry_space_group_name_H-M "P 2/M"
_symmetry_group_IT_number 10
_symmetry_cell_setting 'monoclinic'
loop_
_space_group_symop_operation_xyz
x,y,z
-x,y,-z
-x,-y,-z
x,-y,z
loop_
_atom_site_type_symbol
_atom_site_label
_atom_site_fract_x
_atom_site_fract_y
_atom_site_fract_z
Si Si1 0.198335 0.804809 0.328154
Si Si2 0.572077 0.000000 0.067115
Si Si3 0.329806 0.696834 0.082544
Si Si4 0.194525 0.701529 0.991898
Si Si5 0.331395 0.307784 0.745479
Si Si6 0.937280 0.300596 0.785278
Si Si7 0.571665 0.000000 0.720106
Si Si8 0.932708 0.294612 0.447815
O O1 0.195099 0.802463 0.145802
O O2 0.263758 0.701201 0.513596
O O3 0.131557 0.718681 0.261332
O O4 0.203859 0.000000 0.395378
O O5 0.613252 0.830054 0.199943
O O6 0.500000 0.000000 0.000000
O O7 0.559414 0.000000 0.868968
O O8 0.354194 0.500000 0.158897
O O9 0.263466 0.741255 0.043158
O O10 0.388668 0.827465 0.250743
O O11 0.311367 0.727949 0.874952
O O12 0.185487 0.500000 0.007040
O O13 0.132735 0.774418 0.770680
O O14 0.362365 0.500000 0.788685
O O15 0.954302 0.500000 0.796876
O O16 0.931283 0.216610 0.610639
O O17 0.000000 0.213770 0.000000
O O18 0.500000 0.000000 0.500000
O O19 0.930253 0.500000 0.447595
O O20 0.000000 0.227230 0.500000
#
# Coordination Sequence:
#
# PCOD8064167 Si02
#       8
#     4   2   4   4   4   4   2   4
#     4  12  24  36  54  84 118 153 196 246 296 351
#     4  10  22  40  60  92 127 154 197 238 284 352
#     4   9  20  38  62  87 115 153 198 242 287 346
#     4  10  20  35  55  83 113 148 194 242 293 349
#     4  10  20  40  64  87 118 158 200 243 294 347
#     4  10  20  36  59  83 110 150 196 244 300 357
#     4  10  22  38  60  88 121 158 189 234 288 344
#     4   9  17  32  56  83 110 143 190 245 295 349
#
# _framework density 20.255113999999999
#
# number of rings (size 3 to 8) (size 9 to 14) (size 15 to 20)
#    0.000    2.000    0.714    3.000    1.000    6.571 
#    0.000    0.714    0.000    1.714    0.000    0.000 
#    0.000    0.000    0.000    0.000    0.000    0.000 
#
# Total GULP energy -347275.058797 kJ/mol
# GULP energy per Si atom -12402.680671 kJ/mol
# Density = 2.020901 g / cm^3
# Si number density = 20.255114 Si / 1000 Ang^3
#
#
#
# Elastic Constant Matrix: (Units=GPa)
#
#
# Indices 1 2 3 4 5 6 
#
# 1 146.0243 37.9823 69.7829 0.0000 14.4610 0.0000
# 2 37.9823 81.0909 45.4311 0.0000 9.9950 0.0000
# 3 69.7829 45.4311 159.4950 0.0000 14.7055 0.0000
# 4 0.0000 0.0000 0.0000 21.6982 0.0000 1.1338
# 5 14.4610 9.9950 14.7055 0.0000 36.4769 0.0000
# 6 0.0000 0.0000 0.0000 1.1338 0.0000 13.8016
#
#
#
# Elastic Compliance Matrix: (Units=1/GPa)
#
#
# Indices 1 2 3 4 5 6 
#
# 1 0.009135 -0.002281 -0.003189 0.000000 -0.001711 0.000000
# 2 -0.002281 0.015453 -0.003216 0.000000 -0.002033 0.000000
# 3 -0.003189 -0.003216 0.008707 0.000000 -0.001365 0.000000
# 4 0.000000 0.000000 0.000000 0.046286 0.000000 -0.003802
# 5 -0.001711 -0.002033 -0.001365 0.000000 0.029200 0.000000
# 6 0.000000 0.000000 0.000000 -0.003802 0.000000 0.072768
#
#
# Mechanical properties :
#
#
# Convention : Reuss Voigt Hill
#
# Bulk Modulus (GPa) = 62.80689 77.00031 69.90360
# Shear Modulus (GPa) = 24.48234 29.95624 27.21929
#
# Velocity S-wave (km/s) = 3.48041 3.84988 3.66980
# Velocity P-wave (km/s) = 6.87213 7.60657 7.24866
#
# Compressibility (1/GPa) = 0.01592182
#
# Stress axis : x y z
#
# Youngs Moduli (GPa) = 109.46840 64.71351 114.84891
#
# Poissons Ratio (x) = 0.14762 0.36629
# Poissons Ratio (y) = 0.24971 0.36936
# Poissons Ratio (z) = 0.34913 0.20812
#
# Static dielectric constant tensor:
#      x y z
#    x 3.566580 0.000000 -0.002870 
#    y 0.000000 3.593980 0.000000 
#    z -0.002870 0.000000 3.376820 
# 
# 
# High freq. dielectric constant tensor:
#      x y z
#    x 1.789220 0.000000 -0.004370 
#    y 0.000000 1.784780 0.000000 
#    z -0.004370 0.000000 1.792950 
# 
# From -- ./inp_files/37428.got.cif
#   From: 2010.06.25/outbox.cif.g09.slc.cpg/sg10_19_cif.got.tgz:37428.got - 2010.06.27 22:07:45.
