data_PCOD8064430
_publ_section_title
;
Structure prediction by ZEFSAII (Michael W. Deem and Ramdas Pophale) SiO2 
 PCOD8064430
Probable space group: P 2/M
;
_chemical_formula_sum "Si O2"
_cell_formula_units_Z 24
_cell_length_a 13.550448
_cell_length_b 8.416749
_cell_length_c 10.338473
_cell_angle_alpha 90.000000
_cell_angle_beta 79.517649
_cell_angle_gamma 90.000000
_cell_volume 1159.432109
_symmetry_space_group_name_H-M "P 2/M"
_symmetry_group_IT_number 10
_symmetry_cell_setting 'monoclinic'
loop_
_space_group_symop_operation_xyz
x,y,z
-x,y,-z
-x,-y,-z
x,-y,z
loop_
_atom_site_type_symbol
_atom_site_label
_atom_site_fract_x
_atom_site_fract_y
_atom_site_fract_z
Si Si1 0.886004 0.683523 0.756484
Si Si2 0.447413 0.686254 0.386505
Si Si3 0.557661 0.310888 0.110056
Si Si4 0.229350 0.183425 0.452868
Si Si5 0.897129 0.184763 0.269376
Si Si6 0.786900 0.312697 0.050197
O O1 0.864420 0.500000 0.731208
O O2 0.845005 0.787806 0.648612
O O3 0.003808 0.710307 0.743071
O O4 0.831153 0.735464 0.901048
O O5 0.500000 0.763117 0.500000
O O6 0.466703 0.500000 0.381358
O O7 0.501958 0.760840 0.248625
O O8 0.329471 0.715920 0.410690
O O9 0.552338 0.500000 0.109181
O O10 0.672356 0.254463 0.081490
O O11 0.500000 0.240309 0.000000
O O12 0.176962 0.238249 0.598139
O O13 0.258828 0.000000 0.452163
O O14 0.846399 0.216872 0.144323
O O15 0.925426 0.000000 0.275140
O O16 0.797838 0.500000 0.074039
#
# Coordination Sequence:
#
# PCOD8064430 Si02
#       6
#     4   4   4   4   4   4
#     4  11  23  39  62  89 114 146 192 241 287 338
#     4  10  20  35  58  85 111 146 192 237 282 332
#     4   9  17  32  55  82 112 144 181 230 282 330
#     4  11  24  40  58  83 118 157 193 233 285 342
#     4  11  24  40  58  83 117 155 192 232 285 345
#     4  10  21  38  61  88 116 148 190 238 287 340
#
# _framework density 20.699788000000002
#
# number of rings (size 3 to 8) (size 9 to 14) (size 15 to 20)
#    0.000    1.667    0.000    4.500    0.000   12.333 
#    0.000    0.833    0.000    2.000    0.000    0.000 
#    0.000    0.000    0.000    0.000    0.000    0.000 
#
# Total GULP energy -297734.735460 kJ/mol
# GULP energy per Si atom -12405.613978 kJ/mol
# Density = 2.065267 g / cm^3
# Si number density = 20.699788 Si / 1000 Ang^3
#
#
#
# Elastic Constant Matrix: (Units=GPa)
#
#
# Indices 1 2 3 4 5 6 
#
# 1 106.6470 6.9048 26.5303 0.0000 1.9427 0.0000
# 2 6.9048 22.4598 28.0311 0.0000 -4.3977 0.0000
# 3 26.5303 28.0311 126.0651 0.0000 -1.2680 0.0000
# 4 0.0000 0.0000 0.0000 22.6733 0.0000 3.7191
# 5 1.9427 -4.3977 -1.2680 0.0000 46.1827 0.0000
# 6 0.0000 0.0000 0.0000 3.7191 0.0000 14.1632
#
#
#
# Elastic Compliance Matrix: (Units=1/GPa)
#
#
# Indices 1 2 3 4 5 6 
#
# 1 0.009914 -0.000752 -0.001925 0.000000 -0.000541 0.000000
# 2 -0.000752 0.063108 -0.013817 0.000000 0.005662 0.000000
# 3 -0.001925 -0.013817 0.011401 0.000000 -0.000922 0.000000
# 4 0.000000 0.000000 0.000000 0.046090 0.000000 -0.012103
# 5 -0.000541 0.005662 -0.000922 0.000000 0.022190 0.000000
# 6 0.000000 0.000000 0.000000 -0.012103 0.000000 0.073784
#
#
# Mechanical properties :
#
#
# Convention : Reuss Voigt Hill
#
# Bulk Modulus (GPa) = 19.44185 42.01159 30.72672
# Shear Modulus (GPa) = 18.07543 29.51757 23.79650
#
# Velocity S-wave (km/s) = 2.95823 3.78032 3.39426
# Velocity P-wave (km/s) = 4.59139 6.27647 5.49886
#
# Compressibility (1/GPa) = 0.05143544
#
# Stress axis : x y z
#
# Youngs Moduli (GPa) = 100.86676 15.84578 87.71541
#
# Poissons Ratio (x) = 0.01191 0.16882
# Poissons Ratio (y) = 0.07583 1.21198
# Poissons Ratio (z) = 0.19414 0.21894
#
# Static dielectric constant tensor:
#      x y z
#    x 3.796490 0.000000 -0.012360 
#    y 0.000000 3.376080 0.000000 
#    z -0.012360 0.000000 4.103560 
# 
# 
# High freq. dielectric constant tensor:
#      x y z
#    x 1.823710 0.000000 -0.001120 
#    y 0.000000 1.782780 0.000000 
#    z -0.001120 0.000000 1.831410 
# 
# From -- ./inp_files/27001.got.cif
#   From: 2010.06.25/outbox.cif.g09.slc.cpg/sg10_14_cif.got.tgz:27001.got - 2010.06.27 22:07:45.
