data_PCOD8064922
_publ_section_title
;
Structure prediction by ZEFSAII (Michael W. Deem and Ramdas Pophale) SiO2 
 PCOD8064922
Probable space group: P 2/M
;
_chemical_formula_sum "Si O2"
_cell_formula_units_Z 32
_cell_length_a 21.812112
_cell_length_b 15.560287
_cell_length_c 8.484337
_cell_angle_alpha 90.000000
_cell_angle_beta 148.870653
_cell_angle_gamma 90.000000
_cell_volume 1488.675778
_symmetry_space_group_name_H-M "P 2/M"
_symmetry_group_IT_number 10
_symmetry_cell_setting 'monoclinic'
loop_
_space_group_symop_operation_xyz
x,y,z
-x,y,-z
-x,-y,-z
x,-y,z
loop_
_atom_site_type_symbol
_atom_site_label
_atom_site_fract_x
_atom_site_fract_y
_atom_site_fract_z
Si Si1 0.940742 0.753244 0.199604
Si Si2 0.321999 0.639887 0.022529
Si Si3 0.474978 0.904871 0.762333
Si Si4 0.294470 0.190554 0.783105
Si Si5 0.943279 0.408711 0.549446
Si Si6 0.445576 0.598237 0.619806
Si Si7 0.051999 0.906784 0.283826
Si Si8 0.316056 0.249449 0.472949
O O1 0.000000 0.757147 0.500000
O O2 0.005666 0.674822 0.245992
O O3 0.958923 0.845427 0.163945
O O4 0.801516 0.731827 0.888480
O O5 0.296133 0.738418 0.923074
O O6 0.198837 0.589337 0.760511
O O7 0.383350 0.631126 0.325279
O O8 0.411808 0.601034 0.088674
O O9 0.372340 0.834403 0.512856
O O10 0.440125 0.000000 0.618459
O O11 0.500000 0.914129 0.000000
O O12 0.593225 0.870456 0.939202
O O13 0.181233 0.132725 0.562423
O O14 0.290520 0.232825 0.600620
O O15 0.983966 0.500000 0.715196
O O16 0.000000 0.403195 0.500000
O O17 0.409247 0.500000 0.584274
O O18 0.402468 0.666756 0.656895
O O19 0.057960 0.000000 0.382522
O O20 0.000000 0.921956 0.000000
#
# Coordination Sequence:
#
# PCOD8064922 Si02
#       8
#     4   4   4   4   4   4   4   4
#     4  11  23  39  62  91 128 168 209 264 320 379
#     4  11  21  38  66  89 124 164 207 260 307 374
#     4   9  19  37  63  90 118 159 209 256 309 375
#     4  11  21  40  65  93 128 161 213 262 320 371
#     4  10  20  36  60  88 118 157 205 249 305 369
#     4  11  23  40  62  92 128 169 215 254 311 380
#     4  11  23  41  65  91 124 171 216 261 318 381
#     4  11  23  39  64  93 128 169 205 264 319 375
#
# _framework density 21.495615000000001
#
# number of rings (size 3 to 8) (size 9 to 14) (size 15 to 20)
#    0.000    1.375    3.750    3.375    0.000    2.750 
#    0.000    2.500    0.000    1.875    0.000    0.000 
#    0.000    0.000    0.000    0.000    0.000    0.000 
#
# Total GULP energy -396554.801565 kJ/mol
# GULP energy per Si atom -12392.337549 kJ/mol
# Density = 2.144669 g / cm^3
# Si number density = 21.495615 Si / 1000 Ang^3
#
#
#
# Elastic Constant Matrix: (Units=GPa)
#
#
# Indices 1 2 3 4 5 6 
#
# 1 55.0318 37.4966 16.6438 0.0000 25.7129 0.0000
# 2 37.4966 206.4709 35.7980 0.0000 13.2256 0.0000
# 3 16.6438 35.7980 86.2371 0.0000 28.9893 0.0000
# 4 0.0000 0.0000 0.0000 37.9665 0.0000 5.3930
# 5 25.7129 13.2256 28.9893 0.0000 34.5263 0.0000
# 6 0.0000 0.0000 0.0000 5.3930 0.0000 15.6973
#
#
#
# Elastic Compliance Matrix: (Units=1/GPa)
#
#
# Indices 1 2 3 4 5 6 
#
# 1 0.032355 -0.005003 0.004581 0.000000 -0.026026 0.000000
# 2 -0.005003 0.005994 -0.002791 0.000000 0.003773 0.000000
# 3 0.004581 -0.002791 0.017635 0.000000 -0.017150 0.000000
# 4 0.000000 0.000000 0.000000 0.027690 0.000000 -0.009513
# 5 -0.026026 0.003773 -0.017150 0.000000 0.061300 0.000000
# 6 0.000000 0.000000 0.000000 -0.009513 0.000000 0.066974
#
#
# Mechanical properties :
#
#
# Convention : Reuss Voigt Hill
#
# Bulk Modulus (GPa) = 20.17822 58.62407 39.40114
# Shear Modulus (GPa) = 21.28623 34.82479 28.05551
#
# Velocity S-wave (km/s) = 3.15025 4.02940 3.61664
# Velocity P-wave (km/s) = 4.75811 6.99856 5.98412
#
# Compressibility (1/GPa) = 0.04955839
#
# Stress axis : x y z
#
# Youngs Moduli (GPa) = 30.90718 166.83056 56.70410
#
# Poissons Ratio (x) = 0.83467 -0.25977
# Poissons Ratio (y) = 0.15463 0.15826
# Poissons Ratio (z) = -0.14159 0.46563
#
# Static dielectric constant tensor:
#      x y z
#    x 3.789930 0.000000 0.327300 
#    y 0.000000 5.169850 0.000000 
#    z 0.327300 0.000000 3.747240 
# 
# 
# High freq. dielectric constant tensor:
#      x y z
#    x 1.825300 0.000000 0.031560 
#    y 0.000000 1.868770 0.000000 
#    z 0.031560 0.000000 1.828940 
# 
# From -- ./inp_files/36397.got.cif
#   From: 2010.06.25/outbox.cif.g09.slc.cpg/sg10_19_cif.got.tgz:36397.got - 2010.06.27 22:07:45.
