data_PCOD8064110
_publ_section_title
;
Structure prediction by ZEFSAII (Michael W. Deem and Ramdas Pophale) SiO2 
 PCOD8064110
Probable space group: P 2/M
;
_chemical_formula_sum "Si O2"
_cell_formula_units_Z 32
_cell_length_a 16.896091
_cell_length_b 17.392468
_cell_length_c 10.762607
_cell_angle_alpha 90.000000
_cell_angle_beta 33.359545
_cell_angle_gamma 90.000000
_cell_volume 1739.168484
_symmetry_space_group_name_H-M "P 2/M"
_symmetry_group_IT_number 10
_symmetry_cell_setting 'monoclinic'
loop_
_space_group_symop_operation_xyz
x,y,z
-x,y,-z
-x,-y,-z
x,-y,z
loop_
_atom_site_type_symbol
_atom_site_label
_atom_site_fract_x
_atom_site_fract_y
_atom_site_fract_z
Si Si1 0.534635 0.913821 0.594421
Si Si2 0.342486 0.704865 0.974070
Si Si3 0.770570 0.913926 0.882472
Si Si4 0.809299 0.215869 0.626723
Si Si5 0.886087 0.793168 0.878954
Si Si6 0.348961 0.590004 0.761670
Si Si7 0.347847 0.222589 0.420321
Si Si8 0.147239 0.690688 0.859360
O O1 0.500000 0.886891 0.500000
O O2 0.649714 0.854042 0.498520
O O3 0.601027 0.000000 0.504853
O O4 0.396587 0.912834 0.864224
O O5 0.352636 0.620115 0.899847
O O6 0.496574 0.740722 0.800325
O O7 0.253388 0.708528 0.220049
O O8 0.261161 0.756857 0.980085
O O9 0.800345 0.859357 0.725509
O O10 0.864779 0.884173 0.878592
O O11 0.821552 0.000000 0.783181
O O12 0.715949 0.198222 0.627945
O O13 0.972934 0.236503 0.378296
O O14 0.895520 0.769210 0.010240
O O15 0.500000 0.611589 0.500000
O O16 0.321028 0.500000 0.802286
O O17 0.219995 0.628086 0.853215
O O18 0.249713 0.287625 0.611571
O O19 0.000000 0.653889 0.000000
#
# Coordination Sequence:
#
# PCOD8064110 Si02
#       8
#     4   4   4   4   4   4   4   4
#     4  10  21  35  53  78 111 147 191 243 289 330
#     4  10  20  35  60  83 111 147 184 228 273 327
#     4  10  20  35  55  77 107 151 196 238 287 337
#     4  11  22  35  53  85 118 147 184 235 282 335
#     4  10  20  36  56  81 112 147 190 237 274 333
#     4  10  21  38  63  92 115 143 185 228 273 331
#     4  12  21  35  59  85 113 147 192 239 279 329
#     4  11  22  38  60  89 114 149 183 233 288 331
#
# _framework density 18.399598000000001
#
# number of rings (size 3 to 8) (size 9 to 14) (size 15 to 20)
#    0.000    1.500    5.000    2.625    1.750    1.750 
#    0.000    1.250    0.000    9.000    0.000    0.000 
#    0.000    0.000    0.000    0.000    0.000    0.000 
#
# Total GULP energy -396653.521771 kJ/mol
# GULP energy per Si atom -12395.422555 kJ/mol
# Density = 1.835772 g / cm^3
# Si number density = 18.399598 Si / 1000 Ang^3
#
#
#
# Elastic Constant Matrix: (Units=GPa)
#
#
# Indices 1 2 3 4 5 6 
#
# 1 83.2398 43.5172 10.6748 0.0000 -0.6555 0.0000
# 2 43.5172 90.2177 26.0711 0.0000 1.1573 0.0000
# 3 10.6748 26.0711 84.1531 0.0000 -4.7832 0.0000
# 4 0.0000 0.0000 0.0000 20.9953 0.0000 3.3621
# 5 -0.6555 1.1573 -4.7832 0.0000 33.1045 0.0000
# 6 0.0000 0.0000 0.0000 3.3621 0.0000 20.9042
#
#
#
# Elastic Compliance Matrix: (Units=1/GPa)
#
#
# Indices 1 2 3 4 5 6 
#
# 1 0.016091 -0.007898 0.000443 0.000000 0.000659 0.000000
# 2 -0.007898 0.016082 -0.004055 0.000000 -0.001304 0.000000
# 3 0.000443 -0.004055 0.013200 0.000000 0.002058 0.000000
# 4 0.000000 0.000000 0.000000 0.048889 0.000000 -0.007863
# 5 0.000659 -0.001304 0.002058 0.000000 0.030563 0.000000
# 6 0.000000 0.000000 0.000000 -0.007863 0.000000 0.049102
#
#
# Mechanical properties :
#
#
# Convention : Reuss Voigt Hill
#
# Bulk Modulus (GPa) = 44.73441 46.45965 45.59703
# Shear Modulus (GPa) = 24.46207 26.82397 25.64302
#
# Velocity S-wave (km/s) = 3.65017 3.82233 3.73724
# Velocity P-wave (km/s) = 6.49080 6.69219 6.59227
#
# Compressibility (1/GPa) = 0.02235416
#
# Stress axis : x y z
#
# Youngs Moduli (GPa) = 62.14697 62.17953 75.75746
#
# Poissons Ratio (x) = 0.49110 -0.03358
# Poissons Ratio (y) = 0.49084 0.30718
# Poissons Ratio (z) = -0.02754 0.25212
#
# Static dielectric constant tensor:
#      x y z
#    x 3.504510 0.000000 0.053540 
#    y 0.000000 3.380270 0.000000 
#    z 0.053540 0.000000 3.520850 
# 
# 
# High freq. dielectric constant tensor:
#      x y z
#    x 1.711260 0.000000 0.000220 
#    y 0.000000 1.684520 0.000000 
#    z 0.000220 0.000000 1.726140 
# 
# From -- ./inp_files/54135.got.cif
#   From: 2010.06.25/outbox.cif.g09.slc.cpg/sg10_28_cif.got.tgz:54135.got - 2010.06.27 22:07:45.
