data_PCOD8064020
_publ_section_title
;
Structure prediction by ZEFSAII (Michael W. Deem and Ramdas Pophale) SiO2 
 PCOD8064020
Probable space group: P 2/M
;
_chemical_formula_sum "Si O2"
_cell_formula_units_Z 32
_cell_length_a 23.184575
_cell_length_b 8.815765
_cell_length_c 21.000724
_cell_angle_alpha 90.000000
_cell_angle_beta 24.132801
_cell_angle_gamma 90.000000
_cell_volume 1754.933145
_symmetry_space_group_name_H-M "P 2/M"
_symmetry_group_IT_number 10
_symmetry_cell_setting 'monoclinic'
loop_
_space_group_symop_operation_xyz
x,y,z
-x,y,-z
-x,-y,-z
x,-y,z
loop_
_atom_site_type_symbol
_atom_site_label
_atom_site_fract_x
_atom_site_fract_y
_atom_site_fract_z
Si Si1 0.057744 0.675639 0.303835
Si Si2 0.409935 0.671679 0.527013
Si Si3 0.662503 0.821843 0.212478
Si Si4 0.541954 0.323902 0.095383
Si Si5 0.243304 0.327465 0.348231
Si Si6 0.744005 0.821663 0.797625
Si Si7 0.740859 0.821101 0.993093
Si Si8 0.838846 0.179417 0.156591
O O1 0.099820 0.500000 0.267517
O O2 0.118517 0.764352 0.303440
O O3 0.890592 0.700139 0.471677
O O4 0.119988 0.741995 0.175638
O O5 0.500000 0.684027 0.500000
O O6 0.379487 0.500000 0.537393
O O7 0.506703 0.749113 0.375632
O O8 0.258468 0.753024 0.688786
O O9 0.727316 0.771318 0.079909
O O10 0.773338 0.767865 0.154888
O O11 0.639545 0.000000 0.239901
O O12 0.580019 0.500000 0.064863
O O13 0.375545 0.294946 0.260432
O O14 0.602904 0.232528 0.093801
O O15 0.607225 0.262472 0.963680
O O16 0.246468 0.500000 0.318689
O O17 0.240137 0.214046 0.292385
O O18 0.726620 0.000000 0.824911
O O19 0.756760 0.000000 0.969791
O O20 0.836264 0.000000 0.166536
O O21 0.000000 0.240045 0.000000
#
# Coordination Sequence:
#
# PCOD8064020 Si02
#       8
#     4   4   4   4   4   4   4   4
#     4  10  20  35  53  71  96 130 165 201 244 296
#     4   9  17  29  48  75 103 130 163 202 240 279
#     4   9  18  33  53  74  98 132 169 203 240 289
#     4  10  20  35  53  71  96 129 164 204 248 294
#     4  10  21  35  51  72  97 127 163 202 248 301
#     4  11  21  32  50  76 101 126 160 201 248 300
#     4  10  20  35  53  73  97 127 167 207 244 290
#     4   9  17  31  52  77 106 137 166 198 242 293
#
# _framework density 18.234313
#
# number of rings (size 3 to 8) (size 9 to 14) (size 15 to 20)
#    0.000    2.250    0.000    4.875    0.000    7.750 
#    0.000    1.250    0.000    4.500    0.000    0.000 
#    0.000    0.000    0.000    0.000    0.000    0.000 
#
# Total GULP energy -396800.938045 kJ/mol
# GULP energy per Si atom -12400.029314 kJ/mol
# Density = 1.819281 g / cm^3
# Si number density = 18.234313 Si / 1000 Ang^3
#
#
#
# Elastic Constant Matrix: (Units=GPa)
#
#
# Indices 1 2 3 4 5 6 
#
# 1 69.8776 21.6260 61.5143 0.0000 10.0636 0.0000
# 2 21.6260 49.2725 33.8918 0.0000 2.5696 0.0000
# 3 61.5143 33.8918 146.5334 0.0000 -16.4709 0.0000
# 4 0.0000 0.0000 0.0000 16.9523 0.0000 4.8941
# 5 10.0636 2.5696 -16.4709 0.0000 26.7781 0.0000
# 6 0.0000 0.0000 0.0000 4.8941 0.0000 16.7491
#
#
#
# Elastic Compliance Matrix: (Units=1/GPa)
#
#
# Indices 1 2 3 4 5 6 
#
# 1 0.031002 -0.002378 -0.014770 0.000000 -0.020508 0.000000
# 2 -0.002378 0.025307 -0.005401 0.000000 -0.004857 0.000000
# 3 -0.014770 -0.005401 0.016067 0.000000 0.015951 0.000000
# 4 0.000000 0.000000 0.000000 0.064424 0.000000 -0.018825
# 5 -0.020508 -0.004857 0.015951 0.000000 0.055328 0.000000
# 6 0.000000 0.000000 0.000000 -0.018825 0.000000 0.065205
#
#
# Mechanical properties :
#
#
# Convention : Reuss Voigt Hill
#
# Bulk Modulus (GPa) = 36.65864 55.52749 46.09306
# Shear Modulus (GPa) = 16.05012 22.00602 19.02807
#
# Velocity S-wave (km/s) = 2.97006 3.47774 3.23388
# Velocity P-wave (km/s) = 5.64885 6.82968 6.26714
#
# Compressibility (1/GPa) = 0.02727870
#
# Stress axis : x y z
#
# Youngs Moduli (GPa) = 32.25576 39.51417 62.24014
#
# Poissons Ratio (x) = 0.09398 0.91927
# Poissons Ratio (y) = 0.07672 0.33615
# Poissons Ratio (z) = 0.47641 0.21341
#
# Static dielectric constant tensor:
#      x y z
#    x 3.150380 0.000000 -0.030840 
#    y 0.000000 3.393290 0.000000 
#    z -0.030840 0.000000 3.521350 
# 
# 
# High freq. dielectric constant tensor:
#      x y z
#    x 1.675630 0.000000 -0.001710 
#    y 0.000000 1.713120 0.000000 
#    z -0.001710 0.000000 1.715810 
# 
# From -- ./inp_files/91219.got.cif
#   From: 2010.06.25/outbox.cif.g09.slc.cpg/sg10_46_cif.got.tgz:91219.got - 2010.06.27 22:07:45.
