data_PCOD8064075
_publ_section_title
;
Structure prediction by ZEFSAII (Michael W. Deem and Ramdas Pophale) SiO2 
 PCOD8064075
Probable space group: P 2/M
;
_chemical_formula_sum "Si O2"
_cell_formula_units_Z 20
_cell_length_a 9.787793
_cell_length_b 10.403098
_cell_length_c 19.785848
_cell_angle_alpha 90.000000
_cell_angle_beta 148.401520
_cell_angle_gamma 90.000000
_cell_volume 1055.608823
_symmetry_space_group_name_H-M "P 2/M"
_symmetry_group_IT_number 10
_symmetry_cell_setting 'monoclinic'
loop_
_space_group_symop_operation_xyz
x,y,z
-x,y,-z
-x,-y,-z
x,-y,z
loop_
_atom_site_type_symbol
_atom_site_label
_atom_site_fract_x
_atom_site_fract_y
_atom_site_fract_z
Si Si1 0.993693 0.000000 0.184233
Si Si2 0.839736 0.500000 0.567167
Si Si3 0.147003 0.762127 0.493363
Si Si4 0.041238 0.000000 0.669766
Si Si5 0.757659 0.742091 0.764636
Si Si6 0.353723 0.000000 0.081620
Si Si7 0.000000 0.204982 0.000000
Si Si8 0.217685 0.500000 0.307393
O O1 0.153664 0.877384 0.227330
O O2 0.970660 0.000000 0.254565
O O3 0.714195 0.000000 0.027542
O O4 0.955610 0.626125 0.579291
O O5 0.528903 0.500000 0.439602
O O6 0.928175 0.500000 0.682255
O O7 0.448047 0.745490 0.636924
O O8 0.000000 0.798850 0.500000
O O9 0.101610 0.873711 0.419138
O O10 0.341246 0.000000 0.774982
O O11 0.868229 0.711016 0.885826
O O12 0.875264 0.629009 0.768597
O O13 0.233797 0.123479 0.066786
#
# Coordination Sequence:
#
# PCOD8064075 Si02
#       8
#     2   2   4   2   4   2   2   2
#     4  10  21  36  55  76 105 141 174 214 258 312
#     4   9  19  36  52  71 108 146 166 201 265 318
#     4  11  22  34  53  80 108 136 173 217 261 311
#     4  12  22  33  55  82 107 133 173 225 260 297
#     4  10  20  35  54  79 105 137 178 213 259 310
#     4   9  19  35  53  77 107 141 175 206 261 315
#     4   9  18  35  56  74 106 142 170 216 260 304
#     4   9  18  33  54  77 103 135 175 214 250 311
#
# _framework density 18.946413
#
# number of rings (size 3 to 8) (size 9 to 14) (size 15 to 20)
#    0.000    2.000    0.000    4.500    0.000    3.600 
#    0.000    0.000    0.000    4.800    0.000   19.600 
#    0.000    0.000    0.000    0.000    0.000    0.000 
#
# Total GULP energy -247968.945800 kJ/mol
# GULP energy per Si atom -12398.447290 kJ/mol
# Density = 1.890329 g / cm^3
# Si number density = 18.946413 Si / 1000 Ang^3
#
#
#
# Elastic Constant Matrix: (Units=GPa)
#
#
# Indices 1 2 3 4 5 6 
#
# 1 85.8508 23.9704 36.9882 0.0000 -28.9155 0.0000
# 2 23.9704 127.4670 34.7404 0.0000 -20.4052 0.0000
# 3 36.9882 34.7404 98.6308 0.0000 -19.5641 0.0000
# 4 0.0000 0.0000 0.0000 24.7706 0.0000 1.1284
# 5 -28.9155 -20.4052 -19.5641 0.0000 39.9149 0.0000
# 6 0.0000 0.0000 0.0000 1.1284 0.0000 18.1485
#
#
#
# Elastic Compliance Matrix: (Units=1/GPa)
#
#
# Indices 1 2 3 4 5 6 
#
# 1 0.016954 -0.000439 -0.004222 0.000000 0.009988 0.000000
# 2 -0.000439 0.009089 -0.002413 0.000000 0.003146 0.000000
# 3 -0.004222 -0.002413 0.012983 0.000000 0.002071 0.000000
# 4 0.000000 0.000000 0.000000 0.040485 0.000000 -0.002517
# 5 0.009988 0.003146 0.002071 0.000000 0.034912 0.000000
# 6 0.000000 0.000000 0.000000 -0.002517 0.000000 0.055258
#
#
# Mechanical properties :
#
#
# Convention : Reuss Voigt Hill
#
# Bulk Modulus (GPa) = 40.19563 55.92738 48.06151
# Shear Modulus (GPa) = 26.02528 30.98344 28.50436
#
# Velocity S-wave (km/s) = 3.71027 4.04830 3.88296
# Velocity P-wave (km/s) = 6.29414 7.17178 6.74725
#
# Compressibility (1/GPa) = 0.02487832
#
# Stress axis : x y z
#
# Youngs Moduli (GPa) = 58.98381 110.02469 77.02393
#
# Poissons Ratio (x) = 0.04825 0.32522
# Poissons Ratio (y) = 0.02587 0.18585
# Poissons Ratio (z) = 0.24905 0.26547
#
# Static dielectric constant tensor:
#      x y z
#    x 3.472770 0.000000 -0.331550 
#    y 0.000000 3.545060 0.000000 
#    z -0.331550 0.000000 3.549030 
# 
# 
# High freq. dielectric constant tensor:
#      x y z
#    x 1.738180 0.000000 -0.021720 
#    y 0.000000 1.737870 0.000000 
#    z -0.021720 0.000000 1.731240 
# 
# From -- ./inp_files/41682.got.cif
#   From: 2010.06.25/outbox.cif.g09.slc.cpg/sg10_21_cif.got.tgz:41682.got - 2010.06.27 22:07:45.
