data_PCOD8064004
_publ_section_title
;
Structure prediction by ZEFSAII (Michael W. Deem and Ramdas Pophale) SiO2 
 PCOD8064004
Probable space group: P 2/M
;
_chemical_formula_sum "Si O2"
_cell_formula_units_Z 28
_cell_length_a 14.745741
_cell_length_b 11.695157
_cell_length_c 9.857096
_cell_angle_alpha 90.000000
_cell_angle_beta 69.593238
_cell_angle_gamma 90.000000
_cell_volume 1593.209366
_symmetry_space_group_name_H-M "P 2/M"
_symmetry_group_IT_number 10
_symmetry_cell_setting 'monoclinic'
loop_
_space_group_symop_operation_xyz
x,y,z
-x,y,-z
-x,-y,-z
x,-y,z
loop_
_atom_site_type_symbol
_atom_site_label
_atom_site_fract_x
_atom_site_fract_y
_atom_site_fract_z
Si Si1 0.097461 0.135312 0.622089
Si Si2 0.274246 0.739903 0.624994
Si Si3 0.681886 0.867313 0.892537
Si Si4 0.597984 0.261136 0.187804
Si Si5 0.884533 0.865496 0.694325
Si Si6 0.588547 0.132214 0.650027
Si Si7 0.655510 0.500000 0.475019
Si Si8 0.530096 0.500000 0.270639
O O1 0.165416 0.209960 0.684885
O O2 0.118217 0.178980 0.458589
O O3 0.985472 0.165454 0.715790
O O4 0.117463 0.000000 0.630287
O O5 0.309620 0.738427 0.761679
O O6 0.338473 0.823564 0.500927
O O7 0.276807 0.612174 0.560933
O O8 0.792398 0.819652 0.826866
O O9 0.631501 0.846154 0.775828
O O10 0.679115 0.000000 0.935500
O O11 0.623114 0.798464 0.034419
O O12 0.512886 0.196585 0.312205
O O13 0.561905 0.388539 0.170042
O O14 0.874547 0.000000 0.686013
O O15 0.570000 0.000000 0.631998
O O16 0.585031 0.500000 0.384221
O O17 0.585954 0.500000 0.643778
#
# Coordination Sequence:
#
# PCOD8064004 Si02
#       8
#     4   4   4   4   4   4   2   2
#     4   9  16  29  53  81 100 125 169 211 249 299
#     4  11  20  33  54  77  99 130 173 218 250 292
#     4  10  20  35  51  73 107 142 166 195 254 313
#     4  11  22  34  51  73 104 136 170 212 251 296
#     4   8  15  30  52  74 101 136 167 199 246 308
#     4  11  21  33  50  75 106 138 167 200 250 307
#     4   9  18  34  53  70  98 135 174 211 255 294
#     4   9  18  36  52  68  95 139 181 208 244 295
#
# _framework density 17.574589
#
# number of rings (size 3 to 8) (size 9 to 14) (size 15 to 20)
#    0.000    2.143    2.857    2.571    0.000    4.000 
#    0.000    2.857    0.000    5.143    0.000    3.000 
#    0.000    0.000    0.000    0.000    0.000    0.000 
#
# Total GULP energy -347154.988834 kJ/mol
# GULP energy per Si atom -12398.392458 kJ/mol
# Density = 1.753459 g / cm^3
# Si number density = 17.574589 Si / 1000 Ang^3
#
#
#
# Elastic Constant Matrix: (Units=GPa)
#
#
# Indices 1 2 3 4 5 6 
#
# 1 80.3892 31.9800 -6.5495 0.0000 -6.3137 0.0000
# 2 31.9800 91.0533 13.1228 0.0000 1.9882 0.0000
# 3 -6.5495 13.1228 35.0704 0.0000 -1.3173 0.0000
# 4 0.0000 0.0000 0.0000 13.3970 0.0000 -3.0089
# 5 -6.3137 1.9882 -1.3173 0.0000 18.2597 0.0000
# 6 0.0000 0.0000 0.0000 -3.0089 0.0000 2.7464
#
#
#
# Elastic Compliance Matrix: (Units=1/GPa)
#
#
# Indices 1 2 3 4 5 6 
#
# 1 0.016062 -0.006612 0.005725 0.000000 0.006687 0.000000
# 2 -0.006612 0.014376 -0.006777 0.000000 -0.004341 0.000000
# 3 0.005725 -0.006777 0.032309 0.000000 0.005048 0.000000
# 4 0.000000 0.000000 0.000000 0.099004 0.000000 0.108463
# 5 0.006687 -0.004341 0.005048 0.000000 0.057914 0.000000
# 6 0.000000 0.000000 0.000000 0.108463 0.000000 0.482934
#
#
# Mechanical properties :
#
#
# Convention : Reuss Voigt Hill
#
# Bulk Modulus (GPa) = 21.08930 31.51327 26.30129
# Shear Modulus (GPa) = 6.81446 18.07794 12.44620
#
# Velocity S-wave (km/s) = 1.97126 3.21072 2.66408
# Velocity P-wave (km/s) = 4.14814 5.63161 4.94581
#
# Compressibility (1/GPa) = 0.04741740
#
# Stress axis : x y z
#
# Youngs Moduli (GPa) = 62.26056 69.55798 30.95132
#
# Poissons Ratio (x) = 0.45994 -0.17719
# Poissons Ratio (y) = 0.41168 0.20977
# Poissons Ratio (z) = -0.35644 0.47142
#
# Static dielectric constant tensor:
#      x y z
#    x 3.494040 0.000000 -0.198220 
#    y 0.000000 3.256520 0.000000 
#    z -0.198220 0.000000 3.074570 
# 
# 
# High freq. dielectric constant tensor:
#      x y z
#    x 1.680400 0.000000 -0.006720 
#    y 0.000000 1.662690 0.000000 
#    z -0.006720 0.000000 1.656600 
# 
# From -- ./inp_files/28265.got.cif
#   From: 2010.06.25/outbox.cif.g09.slc.cpg/sg10_15_cif.got.tgz:28265.got - 2010.06.27 22:07:45.
