data_PCOD8064581
_publ_section_title
;
Structure prediction by ZEFSAII (Michael W. Deem and Ramdas Pophale) SiO2 
 PCOD8064581
Probable space group: P 2/M
;
_chemical_formula_sum "Si O2"
_cell_formula_units_Z 32
_cell_length_a 28.074017
_cell_length_b 8.458955
_cell_length_c 21.745764
_cell_angle_alpha 90.000000
_cell_angle_beta 18.807350
_cell_angle_gamma 90.000000
_cell_volume 1664.844364
_symmetry_space_group_name_H-M "P 2/M"
_symmetry_group_IT_number 10
_symmetry_cell_setting 'monoclinic'
loop_
_space_group_symop_operation_xyz
x,y,z
-x,y,-z
-x,-y,-z
x,-y,z
loop_
_atom_site_type_symbol
_atom_site_label
_atom_site_fract_x
_atom_site_fract_y
_atom_site_fract_z
Si Si1 0.546651 0.688886 0.509293
Si Si2 0.601496 0.312383 0.188659
Si Si3 0.180612 0.315467 0.395004
Si Si4 0.693875 0.314658 0.516249
Si Si5 0.150431 0.314501 0.201493
Si Si6 0.663756 0.816860 0.680212
Si Si7 0.841922 0.313303 0.211337
Si Si8 0.675241 0.816509 0.899458
O O1 0.500000 0.758830 0.500000
O O2 0.548553 0.500000 0.505218
O O3 0.426908 0.747730 0.706756
O O4 0.709599 0.752141 0.329483
O O5 0.606050 0.500000 0.184126
O O6 0.466824 0.258216 0.310061
O O7 0.751486 0.242718 0.974878
O O8 0.182184 0.500000 0.375831
O O9 0.251129 0.290276 0.375194
O O10 0.274827 0.218748 0.230649
O O11 0.014390 0.244604 0.599056
O O12 0.695972 0.500000 0.528877
O O13 0.735688 0.217025 0.525884
O O14 0.812013 0.271704 0.319063
O O15 0.140924 0.500000 0.203774
O O16 0.223390 0.280350 0.177817
O O17 0.680182 0.000000 0.677844
O O18 0.493621 0.762380 0.887149
O O19 0.846560 0.500000 0.196670
O O20 0.000000 0.237214 0.000000
O O21 0.693698 0.000000 0.891869
#
# Coordination Sequence:
#
# PCOD8064581 Si02
#       8
#     4   4   4   4   4   4   4   4
#     4   8  13  22  38  64  98 134 164 194 245 302
#     4   8  14  27  48  71 100 135 169 207 250 302
#     4  11  24  38  54  80 109 138 172 214 270 320
#     4   9  16  30  54  76 101 139 176 212 261 310
#     4  10  20  36  56  79 107 137 174 217 261 312
#     4  11  23  38  55  77 106 138 178 222 263 310
#     4   8  14  25  42  70 103 132 165 208 254 303
#     4  11  23  38  58  80 102 136 179 217 263 316
#
# _framework density 19.221015999999999
#
# number of rings (size 3 to 8) (size 9 to 14) (size 15 to 20)
#    0.000    2.500    1.250    3.375    0.000    5.500 
#    2.250    0.000    0.000    0.375    0.000    0.000 
#    0.000    3.000    0.000    0.000    0.000    0.000 
#
# Total GULP energy -396715.470608 kJ/mol
# GULP energy per Si atom -12397.358457 kJ/mol
# Density = 1.917727 g / cm^3
# Si number density = 19.221016 Si / 1000 Ang^3
#
#
#
# Elastic Constant Matrix: (Units=GPa)
#
#
# Indices 1 2 3 4 5 6 
#
# 1 129.7412 1.6391 57.1622 0.0000 12.0635 0.0000
# 2 1.6391 13.1910 14.9774 0.0000 -2.2381 0.0000
# 3 57.1622 14.9774 125.9638 0.0000 7.9884 0.0000
# 4 0.0000 0.0000 0.0000 8.5442 0.0000 -3.8030
# 5 12.0635 -2.2381 7.9884 0.0000 30.9241 0.0000
# 6 0.0000 0.0000 0.0000 -3.8030 0.0000 8.3441
#
#
#
# Elastic Compliance Matrix: (Units=1/GPa)
#
#
# Indices 1 2 3 4 5 6 
#
# 1 0.010019 0.003865 -0.004856 0.000000 -0.002374 0.000000
# 2 0.003865 0.091776 -0.013209 0.000000 0.008546 0.000000
# 3 -0.004856 -0.013209 0.011847 0.000000 -0.002122 0.000000
# 4 0.000000 0.000000 0.000000 0.146824 0.000000 0.066918
# 5 -0.002374 0.008546 -0.002122 0.000000 0.034430 0.000000
# 6 0.000000 0.000000 0.000000 0.066918 0.000000 0.150346
#
#
# Mechanical properties :
#
#
# Convention : Reuss Voigt Hill
#
# Bulk Modulus (GPa) = 11.73088 46.27261 29.00175
# Shear Modulus (GPa) = 9.95907 22.57029 16.26468
#
# Velocity S-wave (km/s) = 2.27873 3.43045 2.91209
# Velocity P-wave (km/s) = 3.61107 6.31006 5.14085
#
# Compressibility (1/GPa) = 0.08524510
#
# Stress axis : x y z
#
# Youngs Moduli (GPa) = 99.81149 10.89605 84.40703
#
# Poissons Ratio (x) = -0.04212 0.40985
# Poissons Ratio (y) = -0.38581 1.11489
# Poissons Ratio (z) = 0.48464 0.14392
#
# Static dielectric constant tensor:
#      x y z
#    x 3.555540 0.000000 0.123540 
#    y 0.000000 3.004060 0.000000 
#    z 0.123540 0.000000 3.961000 
# 
# 
# High freq. dielectric constant tensor:
#      x y z
#    x 1.748210 0.000000 0.012190 
#    y 0.000000 1.703760 0.000000 
#    z 0.012190 0.000000 1.753180 
# 
# From -- ./inp_files/86725.got.cif
#   From: 2010.06.25/outbox.cif.g09.slc.cpg/sg10_44_cif.got.tgz:86725.got - 2010.06.27 22:07:45.
