data_PCOD8064853
_publ_section_title
;
Structure prediction by ZEFSAII (Michael W. Deem and Ramdas Pophale) SiO2 
 PCOD8064853
Probable space group: P 2/M
;
_chemical_formula_sum "Si O2"
_cell_formula_units_Z 28
_cell_length_a 19.923556
_cell_length_b 8.661255
_cell_length_c 14.559046
_cell_angle_alpha 90.000000
_cell_angle_beta 32.950841
_cell_angle_gamma 90.000000
_cell_volume 1366.517006
_symmetry_space_group_name_H-M "P 2/M"
_symmetry_group_IT_number 10
_symmetry_cell_setting 'monoclinic'
loop_
_space_group_symop_operation_xyz
x,y,z
-x,y,-z
-x,-y,-z
x,-y,z
loop_
_atom_site_type_symbol
_atom_site_label
_atom_site_fract_x
_atom_site_fract_y
_atom_site_fract_z
Si Si1 0.641871 0.820191 0.340282
Si Si2 0.199940 0.179161 0.017100
Si Si3 0.709050 0.679258 0.902380
Si Si4 0.552200 0.177971 0.777406
Si Si5 0.785949 0.821587 0.631227
Si Si6 0.943556 0.320862 0.298474
Si Si7 0.287928 0.679296 0.556274
O O1 0.500000 0.768353 0.500000
O O2 0.712903 0.723170 0.336178
O O3 0.655452 0.000000 0.348302
O O4 0.702668 0.778593 0.173587
O O5 0.231892 0.281241 0.068073
O O6 0.063693 0.220267 0.138343
O O7 0.208511 0.000000 0.033539
O O8 0.725272 0.500000 0.863243
O O9 0.783883 0.772962 0.739396
O O10 0.565370 0.720014 0.064347
O O11 0.651791 0.210656 0.741985
O O12 0.606150 0.223043 0.616253
O O13 0.511258 0.000000 0.821262
O O14 0.888879 0.722125 0.460782
O O15 0.822492 0.000000 0.580150
O O16 0.978896 0.500000 0.257331
O O17 0.845358 0.278847 0.332238
O O18 0.317339 0.500000 0.507928
#
# Coordination Sequence:
#
# PCOD8064853 Si02
#       7
#     4   4   4   4   4   4   4
#     4  10  22  40  62  88 118 152 191 238 290 346
#     4  11  24  41  61  85 115 154 199 243 288 344
#     4  12  24  37  57  86 120 156 194 241 296 348
#     4  10  20  36  59  87 120 155 194 240 288 344
#     4  10  21  38  61  87 116 154 198 241 287 344
#     4  10  22  41  61  86 119 152 193 242 292 344
#     4  10  21  37  61  89 118 154 192 238 294 348
#
# _framework density 20.490047000000001
#
# number of rings (size 3 to 8) (size 9 to 14) (size 15 to 20)
#    0.000    1.571    0.000    4.714    0.000    8.857 
#    0.000    5.714    0.000    0.000    0.000    0.000 
#    0.000    0.000    0.000    0.000    0.000    0.000 
#
# Total GULP energy -347423.260777 kJ/mol
# GULP energy per Si atom -12407.973599 kJ/mol
# Density = 2.044341 g / cm^3
# Si number density = 20.490047 Si / 1000 Ang^3
#
#
#
# Elastic Constant Matrix: (Units=GPa)
#
#
# Indices 1 2 3 4 5 6 
#
# 1 94.1798 28.9056 52.4826 0.0000 14.5735 0.0000
# 2 28.9056 54.0802 18.2958 0.0000 -1.2759 0.0000
# 3 52.4826 18.2958 94.6751 0.0000 -10.3261 0.0000
# 4 0.0000 0.0000 0.0000 32.2808 0.0000 -0.6642
# 5 14.5735 -1.2759 -10.3261 0.0000 25.6095 0.0000
# 6 0.0000 0.0000 0.0000 -0.6642 0.0000 34.6034
#
#
#
# Elastic Compliance Matrix: (Units=1/GPa)
#
#
# Indices 1 2 3 4 5 6 
#
# 1 0.023966 -0.008617 -0.013759 0.000000 -0.019615 0.000000
# 2 -0.008617 0.022891 0.001059 0.000000 0.006471 0.000000
# 3 -0.013759 0.001059 0.019712 0.000000 0.015831 0.000000
# 4 0.000000 0.000000 0.000000 0.030990 0.000000 0.000595
# 5 -0.019615 0.006471 0.015831 0.000000 0.056916 0.000000
# 6 0.000000 0.000000 0.000000 0.000595 0.000000 0.028910
#
#
# Mechanical properties :
#
#
# Convention : Reuss Voigt Hill
#
# Bulk Modulus (GPa) = 41.78226 49.14479 45.46353
# Shear Modulus (GPa) = 21.36767 28.04883 24.70825
#
# Velocity S-wave (km/s) = 3.23279 3.70388 3.47633
# Velocity P-wave (km/s) = 5.86262 6.50603 6.19269
#
# Compressibility (1/GPa) = 0.02393360
#
# Stress axis : x y z
#
# Youngs Moduli (GPa) = 41.72648 43.68456 50.73101
#
# Poissons Ratio (x) = 0.37645 0.69802
# Poissons Ratio (y) = 0.35957 -0.05373
# Poissons Ratio (z) = 0.57413 -0.04627
#
# Static dielectric constant tensor:
#      x y z
#    x 3.674240 0.000000 -0.018180 
#    y 0.000000 3.677700 0.000000 
#    z -0.018180 0.000000 3.717730 
# 
# 
# High freq. dielectric constant tensor:
#      x y z
#    x 1.803210 0.000000 0.002070 
#    y 0.000000 1.807550 0.000000 
#    z 0.002070 0.000000 1.802490 
# 
# From -- ./inp_files/70165.got.cif
#   From: 2010.06.25/outbox.cif.g09.slc.cpg/sg10_36_cif.got.tgz:70165.got - 2010.06.27 22:07:45.
