data_PCOD8064344
_publ_section_title
;
Structure prediction by ZEFSAII (Michael W. Deem and Ramdas Pophale) SiO2 
 PCOD8064344
Probable space group: P 2/M
;
_chemical_formula_sum "Si O2"
_cell_formula_units_Z 24
_cell_length_a 25.798490
_cell_length_b 11.681525
_cell_length_c 8.957804
_cell_angle_alpha 90.000000
_cell_angle_beta 150.692479
_cell_angle_gamma 90.000000
_cell_volume 1321.433614
_symmetry_space_group_name_H-M "P 2/M"
_symmetry_group_IT_number 10
_symmetry_cell_setting 'monoclinic'
loop_
_space_group_symop_operation_xyz
x,y,z
-x,y,-z
-x,-y,-z
x,-y,z
loop_
_atom_site_type_symbol
_atom_site_label
_atom_site_fract_x
_atom_site_fract_y
_atom_site_fract_z
Si Si1 0.896583 0.363980 0.323390
Si Si2 0.551026 0.000000 0.357279
Si Si3 0.112464 0.368828 0.360100
Si Si4 0.669681 0.000000 0.366042
Si Si5 0.508294 0.242221 0.352141
Si Si6 0.291817 0.242914 0.632184
Si Si7 0.688884 0.364619 0.630913
O O1 0.901315 0.500000 0.332060
O O2 0.895222 0.321369 0.490740
O O3 0.000000 0.313282 0.500000
O O4 0.792551 0.318359 0.977565
O O5 0.652142 0.000000 0.500684
O O6 0.555630 0.113424 0.470196
O O7 0.444874 0.000000 0.995613
O O8 0.152949 0.500000 0.459526
O O9 0.192388 0.290488 0.470545
O O10 0.000000 0.358939 0.000000
O O11 0.734290 0.112193 0.478938
O O12 0.500000 0.285822 0.500000
O O13 0.584516 0.327272 0.455688
O O14 0.393456 0.249032 0.991924
O O15 0.314829 0.316101 0.543920
O O16 0.691281 0.500000 0.625827
#
# Coordination Sequence:
#
# PCOD8064344 Si02
#       7
#     4   2   4   2   4   4   4
#     4   9  18  34  54  77 107 141 179 219 257 309
#     4   9  17  36  56  76 102 138 186 225 258 318
#     4  10  20  35  57  84 110 141 180 219 264 321
#     4   9  18  34  57  78 101 138 183 225 266 310
#     4  11  22  35  54  80 110 142 180 224 270 320
#     4  11  21  36  56  79 108 141 181 225 268 318
#     4  11  22  34  52  79 110 145 179 217 271 324
#
# _framework density 18.162091
#
# number of rings (size 3 to 8) (size 9 to 14) (size 15 to 20)
#    0.000    1.833    1.667    3.250    0.000    5.000 
#    0.000    0.417    0.000    0.000    0.000    4.083 
#    0.000    0.000    0.000    0.000    0.000    0.000 
#
# Total GULP energy -297653.863927 kJ/mol
# GULP energy per Si atom -12402.244330 kJ/mol
# Density = 1.812075 g / cm^3
# Si number density = 18.162091 Si / 1000 Ang^3
#
#
#
# Elastic Constant Matrix: (Units=GPa)
#
#
# Indices 1 2 3 4 5 6 
#
# 1 162.3747 50.5676 39.7032 0.0000 2.1447 0.0000
# 2 50.5676 89.3536 32.1849 0.0000 9.0129 0.0000
# 3 39.7032 32.1849 69.9020 0.0000 -2.0893 0.0000
# 4 0.0000 0.0000 0.0000 22.9753 0.0000 -5.0167
# 5 2.1447 9.0129 -2.0893 0.0000 35.3267 0.0000
# 6 0.0000 0.0000 0.0000 -5.0167 0.0000 33.7758
#
#
#
# Elastic Compliance Matrix: (Units=1/GPa)
#
#
# Indices 1 2 3 4 5 6 
#
# 1 0.007949 -0.003474 -0.002908 0.000000 0.000232 0.000000
# 2 -0.003474 0.015463 -0.005267 0.000000 -0.004046 0.000000
# 3 -0.002908 -0.005267 0.018461 0.000000 0.002612 0.000000
# 4 0.000000 0.000000 0.000000 0.044984 0.000000 0.006681
# 5 0.000232 -0.004046 0.002612 0.000000 0.029480 0.000000
# 6 0.000000 0.000000 0.000000 0.006681 0.000000 0.030599
#
#
# Mechanical properties :
#
#
# Convention : Reuss Voigt Hill
#
# Bulk Modulus (GPa) = 53.84095 62.94908 58.39502
# Shear Modulus (GPa) = 28.34059 31.69386 30.01722
#
# Velocity S-wave (km/s) = 3.95451 4.18192 4.06980
# Velocity P-wave (km/s) = 7.11055 7.61924 7.36928
#
# Compressibility (1/GPa) = 0.01857322
#
# Stress axis : x y z
#
# Youngs Moduli (GPa) = 125.80880 64.67079 54.16901
#
# Poissons Ratio (x) = 0.22468 0.15753
# Poissons Ratio (y) = 0.43709 0.28532
# Poissons Ratio (z) = 0.36587 0.34063
#
# Static dielectric constant tensor:
#      x y z
#    x 3.429030 0.000000 -0.046150 
#    y 0.000000 3.349130 0.000000 
#    z -0.046150 0.000000 3.343180 
# 
# 
# High freq. dielectric constant tensor:
#      x y z
#    x 1.720570 0.000000 -0.006190 
#    y 0.000000 1.686030 0.000000 
#    z -0.006190 0.000000 1.697230 
# 
# From -- ./inp_files/36112.got.cif
#   From: 2010.06.25/outbox.cif.g09.slc.cpg/sg10_19_cif.got.tgz:36112.got - 2010.06.27 22:07:45.
