data_PCOD8064244
_publ_section_title
;
Structure prediction by ZEFSAII (Michael W. Deem and Ramdas Pophale) SiO2 
 PCOD8064244
Probable space group: P 2/M
;
_chemical_formula_sum "Si O2"
_cell_formula_units_Z 32
_cell_length_a 14.245004
_cell_length_b 9.337693
_cell_length_c 14.244638
_cell_angle_alpha 90.000000
_cell_angle_beta 113.520468
_cell_angle_gamma 90.000000
_cell_volume 1737.336237
_symmetry_space_group_name_H-M "P 2/M"
_symmetry_group_IT_number 10
_symmetry_cell_setting 'monoclinic'
loop_
_space_group_symop_operation_xyz
x,y,z
-x,y,-z
-x,-y,-z
x,-y,z
loop_
_atom_site_type_symbol
_atom_site_label
_atom_site_fract_x
_atom_site_fract_y
_atom_site_fract_z
Si Si1 0.617906 0.667345 0.057239
Si Si2 0.590728 0.169380 0.409228
Si Si3 0.981771 0.168810 0.214784
Si Si4 0.293495 0.332743 0.706511
Si Si5 0.175495 0.829852 0.175512
Si Si6 0.633587 0.169713 0.633563
Si Si7 0.057281 0.332645 0.617915
Si Si8 0.785207 0.168810 0.018203
O O1 0.634877 0.500000 0.045679
O O2 0.657396 0.712583 0.175261
O O3 0.680579 0.753192 0.003932
O O4 0.500000 0.711326 0.000000
O O5 0.649365 0.247062 0.350532
O O6 0.639669 0.219188 0.527746
O O7 0.472219 0.219215 0.360351
O O8 0.600781 0.000000 0.399151
O O9 0.996036 0.246818 0.319410
O O10 0.873529 0.211814 0.126452
O O11 0.070541 0.223859 0.180492
O O12 0.990135 0.000000 0.234952
O O13 0.307432 0.500000 0.692493
O O14 0.175286 0.287309 0.657365
O O15 0.271315 0.764235 0.271349
O O16 0.179399 0.000000 0.179416
O O17 0.180496 0.776137 0.070564
O O18 0.636859 0.000000 0.636853
O O19 0.045809 0.500000 0.634948
O O20 0.000000 0.288726 0.500000
O O21 0.765043 0.000000 0.009836
#
# Coordination Sequence:
#
# PCOD8064244 Si02
#       8
#     4   4   4   4   4   4   4   4
#     4  10  22  39  57  77 107 146 182 219 268 321
#     4   9  18  32  54  78 105 137 175 214 256 315
#     4  10  20  35  56  82 109 138 176 221 267 318
#     4  10  21  37  55  77 107 142 174 216 273 318
#     4   9  18  32  53  78 108 139 170 215 270 313
#     4   8  16  32  50  76 108 139 169 211 266 313
#     4  10  22  39  57  77 107 146 182 219 268 321
#     4  10  20  35  56  82 109 138 176 221 267 318
#
# _framework density 18.419
#
# number of rings (size 3 to 8) (size 9 to 14) (size 15 to 20)
#    0.000    2.500    1.250    1.125    3.500    3.000 
#    0.000    1.875    0.000    3.000    0.000    0.000 
#    0.000    0.000    0.000    0.000    0.000    0.000 
#
# Total GULP energy -396839.553788 kJ/mol
# GULP energy per Si atom -12401.236056 kJ/mol
# Density = 1.837708 g / cm^3
# Si number density = 18.419000 Si / 1000 Ang^3
#
#
#
# Elastic Constant Matrix: (Units=GPa)
#
#
# Indices 1 2 3 4 5 6 
#
# 1 149.6727 47.3572 87.1702 0.0000 -16.8433 0.0000
# 2 47.3572 32.5094 36.8067 0.0000 -9.1142 0.0000
# 3 87.1702 36.8067 130.8118 0.0000 0.9252 0.0000
# 4 0.0000 0.0000 0.0000 1.7583 0.0000 18.7898
# 5 -16.8433 -9.1142 0.9252 0.0000 36.7548 0.0000
# 6 0.0000 0.0000 0.0000 18.7898 0.0000 -19.9345
#
#
#
# Elastic Compliance Matrix: (Units=1/GPa)
#
#
# Indices 1 2 3 4 5 6 
#
# 1 0.015105 -0.014046 -0.006139 0.000000 0.003594 0.000000
# 2 -0.014046 0.063664 -0.008621 0.000000 0.009567 0.000000
# 3 -0.006139 -0.008621 0.014199 0.000000 -0.005309 0.000000
# 4 0.000000 0.000000 0.000000 0.051363 0.000000 0.048414
# 5 0.003594 0.009567 -0.005309 0.000000 0.031360 0.000000
# 6 0.000000 0.000000 0.000000 0.048414 0.000000 -0.004531
#
#
# Mechanical properties :
#
#
# Convention : Reuss Voigt Hill
#
# Bulk Modulus (GPa) = 28.28368 72.85137 50.56752
# Shear Modulus (GPa) = 20.78488 13.15971 16.97229
#
# Velocity S-wave (km/s) = 3.36288 2.67585 3.03884
# Velocity P-wave (km/s) = 5.51975 7.01320 6.31081
#
# Compressibility (1/GPa) = 0.03535608
#
# Stress axis : x y z
#
# Youngs Moduli (GPa) = 66.20123 15.70734 70.42849
#
# Poissons Ratio (x) = 0.22063 0.43237
# Poissons Ratio (y) = 0.92988 0.60716
# Poissons Ratio (z) = 0.40642 0.13541
#
# Static dielectric constant tensor:
#      x y z
#    x 3.489580 0.000000 0.150230 
#    y 0.000000 3.009420 0.000000 
#    z 0.150230 0.000000 3.662700 
# 
# 
# High freq. dielectric constant tensor:
#      x y z
#    x 1.725990 0.000000 0.001210 
#    y 0.000000 1.677420 0.000000 
#    z 0.001210 0.000000 1.727370 
# 
# From -- ./inp_files/66572.got.cif
#   From: 2010.06.25/outbox.cif.g09.slc.cpg/sg10_34_cif.got.tgz:66572.got - 2010.06.27 22:07:45.
