data_PCOD8064294
_publ_section_title
;
Structure prediction by ZEFSAII (Michael W. Deem and Ramdas Pophale) SiO2 
 PCOD8064294
Probable space group: P 2/M
;
_chemical_formula_sum "Si O2"
_cell_formula_units_Z 24
_cell_length_a 10.218146
_cell_length_b 18.312750
_cell_length_c 10.130893
_cell_angle_alpha 90.000000
_cell_angle_beta 136.067357
_cell_angle_gamma 90.000000
_cell_volume 1315.271326
_symmetry_space_group_name_H-M "P 2/M"
_symmetry_group_IT_number 10
_symmetry_cell_setting 'monoclinic'
loop_
_space_group_symop_operation_xyz
x,y,z
-x,y,-z
-x,-y,-z
x,-y,z
loop_
_atom_site_type_symbol
_atom_site_label
_atom_site_fract_x
_atom_site_fract_y
_atom_site_fract_z
Si Si1 0.390404 0.081298 0.221867
Si Si2 0.127083 0.651946 0.963733
Si Si3 0.219999 0.081742 0.388721
Si Si4 0.086518 0.817419 0.917862
Si Si5 0.498319 0.586162 0.652587
Si Si6 0.912944 0.414271 0.570160
O O1 0.302715 0.083688 0.302816
O O2 0.612202 0.101072 0.387658
O O3 0.362412 0.000000 0.142664
O O4 0.285202 0.140001 0.054054
O O5 0.120992 0.734074 0.902679
O O6 0.047084 0.600975 0.791292
O O7 0.340112 0.629662 0.152573
O O8 0.000000 0.641310 0.000000
O O9 0.056685 0.142313 0.287018
O O10 0.140732 0.000000 0.359159
O O11 0.000000 0.821055 0.000000
O O12 0.500000 0.606272 0.500000
O O13 0.529575 0.500000 0.696675
O O14 0.299047 0.615602 0.563400
O O15 0.897096 0.500000 0.543167
O O16 0.000000 0.379470 0.500000
#
# Coordination Sequence:
#
# PCOD8064294 Si02
#       6
#     4   4   4   4   4   4
#     4   8  13  22  35  53  80 121 168 208 245 292
#     4  11  21  33  51  78 109 141 174 215 268 319
#     4   8  13  22  36  53  81 124 167 204 246 296
#     4   9  17  25  36  61  92 128 164 206 253 302
#     4  10  20  35  57  80 102 136 177 216 262 314
#     4  10  22  39  58  80 105 136 178 224 264 310
#
# _framework density 18.247185999999999
#
# number of rings (size 3 to 8) (size 9 to 14) (size 15 to 20)
#    0.000    2.667    1.667    2.000    0.000    4.667 
#    3.000    2.500    0.000    0.000    0.000    0.000 
#    0.000    2.667    0.000   11.333    0.000    9.667 
#
# Total GULP energy -297492.393226 kJ/mol
# GULP energy per Si atom -12395.516384 kJ/mol
# Density = 1.820565 g / cm^3
# Si number density = 18.247186 Si / 1000 Ang^3
#
#
#
# Elastic Constant Matrix: (Units=GPa)
#
#
# Indices 1 2 3 4 5 6 
#
# 1 84.6597 30.3604 52.6307 0.0000 13.5473 0.0000
# 2 30.3604 49.2108 30.7108 0.0000 15.7176 0.0000
# 3 52.6307 30.7108 107.0334 0.0000 31.3716 0.0000
# 4 0.0000 0.0000 0.0000 15.7057 0.0000 9.5368
# 5 13.5473 15.7176 31.3716 0.0000 29.1663 0.0000
# 6 0.0000 0.0000 0.0000 9.5368 0.0000 11.0101
#
#
#
# Elastic Compliance Matrix: (Units=1/GPa)
#
#
# Indices 1 2 3 4 5 6 
#
# 1 0.019237 -0.008015 -0.008480 0.000000 0.004505 0.000000
# 2 -0.008015 0.029558 -0.001405 0.000000 -0.010694 0.000000
# 3 -0.008480 -0.001405 0.018313 0.000000 -0.015001 0.000000
# 4 0.000000 0.000000 0.000000 0.134317 0.000000 -0.116343
# 5 0.004505 -0.010694 -0.015001 0.000000 0.054092 0.000000
# 6 0.000000 0.000000 0.000000 -0.116343 0.000000 0.191600
#
#
# Mechanical properties :
#
#
# Convention : Reuss Voigt Hill
#
# Bulk Modulus (GPa) = 31.94140 52.03418 41.98779
# Shear Modulus (GPa) = 10.13468 19.65655 14.89561
#
# Velocity S-wave (km/s) = 2.35927 3.28569 2.86024
# Velocity P-wave (km/s) = 4.99644 6.55534 5.82825
#
# Compressibility (1/GPa) = 0.03130733
#
# Stress axis : x y z
#
# Youngs Moduli (GPa) = 51.98233 33.83133 54.60633
#
# Poissons Ratio (x) = 0.27116 0.46307
# Poissons Ratio (y) = 0.41665 0.07674
# Poissons Ratio (z) = 0.44082 0.04755
#
# Static dielectric constant tensor:
#      x y z
#    x 3.173730 0.000000 0.369310 
#    y 0.000000 3.436000 0.000000 
#    z 0.369310 0.000000 3.442720 
# 
# 
# High freq. dielectric constant tensor:
#      x y z
#    x 1.658770 0.000000 0.035270 
#    y 0.000000 1.701550 0.000000 
#    z 0.035270 0.000000 1.707880 
# 
# From -- ./inp_files/20269.got.cif
#   From: 2010.06.25/outbox.cif.g09.slc.cpg/sg10_11_cif.got.tgz:20269.got - 2010.06.27 22:07:45.
