data_PCOD8064828
_publ_section_title
;
Structure prediction by ZEFSAII (Michael W. Deem and Ramdas Pophale) SiO2 
 PCOD8064828
Probable space group: P 2/M
;
_chemical_formula_sum "Si O2"
_cell_formula_units_Z 32
_cell_length_a 11.812302
_cell_length_b 8.901777
_cell_length_c 28.681699
_cell_angle_alpha 90.000000
_cell_angle_beta 30.719558
_cell_angle_gamma 90.000000
_cell_volume 1540.628621
_symmetry_space_group_name_H-M "P 2/M"
_symmetry_group_IT_number 10
_symmetry_cell_setting 'monoclinic'
loop_
_space_group_symop_operation_xyz
x,y,z
-x,y,-z
-x,-y,-z
x,-y,z
loop_
_atom_site_type_symbol
_atom_site_label
_atom_site_fract_x
_atom_site_fract_y
_atom_site_fract_z
Si Si1 0.922787 0.673149 0.578901
Si Si2 0.720340 0.823486 0.316914
Si Si3 0.356881 0.174147 0.005706
Si Si4 0.544306 0.328389 0.213119
Si Si5 0.886508 0.325526 0.169044
Si Si6 0.262232 0.175971 0.524224
Si Si7 0.938616 0.323247 0.321728
Si Si8 0.390353 0.173997 0.179192
O O1 0.985358 0.500000 0.566979
O O2 0.661392 0.702323 0.678875
O O3 0.000000 0.719408 0.500000
O O4 0.049059 0.780041 0.569815
O O5 0.743227 0.767981 0.256447
O O6 0.480831 0.772014 0.419736
O O7 0.911843 0.746699 0.279968
O O8 0.755654 0.000000 0.306976
O O9 0.493463 0.207261 0.910848
O O10 0.288487 0.000000 0.034046
O O11 0.500000 0.223237 0.000000
O O12 0.138840 0.273713 0.079720
O O13 0.536921 0.500000 0.198272
O O14 0.772948 0.295203 0.159287
O O15 0.545591 0.221254 0.167470
O O16 0.874961 0.500000 0.186444
O O17 0.255429 0.259610 0.576346
O O18 0.261935 0.000000 0.534304
O O19 0.922748 0.500000 0.324440
O O20 0.172598 0.275079 0.260318
O O21 0.325666 0.000000 0.206502
#
# Coordination Sequence:
#
# PCOD8064828 Si02
#       8
#     4   4   4   4   4   4   4   4
#     4  10  20  36  59  85 120 168 215 260 310 367
#     4  11  24  41  61  88 126 167 208 261 317 373
#     4  10  23  44  68  94 126 164 206 257 319 381
#     4  10  22  40  61  90 128 168 208 257 315 372
#     4  11  24  42  66  95 126 163 209 258 312 375
#     4  11  23  38  58  88 123 163 212 260 312 374
#     4  12  24  39  62  91 125 164 209 262 317 377
#     4  11  23  40  66  95 125 166 212 261 316 379
#
# _framework density 20.770741999999998
#
# number of rings (size 3 to 8) (size 9 to 14) (size 15 to 20)
#    0.000    1.250    1.250    4.500    0.000    8.500 
#    0.000    2.500    0.000    0.000    0.000    0.000 
#    0.000    0.000    0.000    0.000    0.000    0.000 
#
# Total GULP energy -397006.941938 kJ/mol
# GULP energy per Si atom -12406.466936 kJ/mol
# Density = 2.072347 g / cm^3
# Si number density = 20.770742 Si / 1000 Ang^3
#
#
#
# Elastic Constant Matrix: (Units=GPa)
#
#
# Indices 1 2 3 4 5 6 
#
# 1 114.5661 42.1812 41.5547 0.0000 1.6606 0.0000
# 2 42.1812 101.5994 44.9567 0.0000 1.3547 0.0000
# 3 41.5547 44.9567 93.7707 0.0000 3.0577 0.0000
# 4 0.0000 0.0000 0.0000 25.7487 0.0000 4.2554
# 5 1.6606 1.3547 3.0577 0.0000 39.3886 0.0000
# 6 0.0000 0.0000 0.0000 4.2554 0.0000 36.0967
#
#
#
# Elastic Compliance Matrix: (Units=1/GPa)
#
#
# Indices 1 2 3 4 5 6 
#
# 1 0.011116 -0.003091 -0.003441 0.000000 -0.000095 0.000000
# 2 -0.003091 0.013353 -0.005034 0.000000 0.000062 0.000000
# 3 -0.003441 -0.005034 0.014629 0.000000 -0.000817 0.000000
# 4 0.000000 0.000000 0.000000 0.039609 0.000000 -0.004669
# 5 -0.000095 0.000062 -0.000817 0.000000 0.025453 0.000000
# 6 0.000000 0.000000 0.000000 -0.004669 0.000000 0.028254
#
#
# Mechanical properties :
#
#
# Convention : Reuss Voigt Hill
#
# Bulk Modulus (GPa) = 62.63352 63.03573 62.83462
# Shear Modulus (GPa) = 31.08141 32.32970 31.70556
#
# Velocity S-wave (km/s) = 3.87253 3.94953 3.91122
# Velocity P-wave (km/s) = 7.08629 7.15630 7.12138
#
# Compressibility (1/GPa) = 0.01596589
#
# Stress axis : x y z
#
# Youngs Moduli (GPa) = 89.95862 74.89209 68.35638
#
# Poissons Ratio (x) = 0.23151 0.23522
# Poissons Ratio (y) = 0.27809 0.34409
# Poissons Ratio (z) = 0.30955 0.37699
#
# Static dielectric constant tensor:
#      x y z
#    x 3.860300 0.000000 0.091480 
#    y 0.000000 3.693500 0.000000 
#    z 0.091480 0.000000 3.798180 
# 
# 
# High freq. dielectric constant tensor:
#      x y z
#    x 1.823930 0.000000 0.003800 
#    y 0.000000 1.813640 0.000000 
#    z 0.003800 0.000000 1.814210 
# 
# From -- ./inp_files/49865.got.cif
#   From: 2010.06.25/outbox.cif.g09.slc.cpg/sg10_25_cif.got.tgz:49865.got - 2010.06.27 22:07:45.
