data_PCOD8064930
_publ_section_title
;
Structure prediction by ZEFSAII (Michael W. Deem and Ramdas Pophale) SiO2 
 PCOD8064930
Probable space group: P 2/M
;
_chemical_formula_sum "Si O2"
_cell_formula_units_Z 32
_cell_length_a 23.867412
_cell_length_b 8.871090
_cell_length_c 23.829235
_cell_angle_alpha 90.000000
_cell_angle_beta 18.489420
_cell_angle_gamma 90.000000
_cell_volume 1600.033626
_symmetry_space_group_name_H-M "P 2/M"
_symmetry_group_IT_number 10
_symmetry_cell_setting 'monoclinic'
loop_
_space_group_symop_operation_xyz
x,y,z
-x,y,-z
-x,-y,-z
x,-y,z
loop_
_atom_site_type_symbol
_atom_site_label
_atom_site_fract_x
_atom_site_fract_y
_atom_site_fract_z
Si Si1 0.136521 0.677036 0.120762
Si Si2 0.062936 0.823418 0.072222
Si Si3 0.727464 0.326392 0.340094
Si Si4 0.523993 0.825398 0.147834
Si Si5 0.584927 0.323053 0.977166
Si Si6 0.327145 0.673609 0.737535
Si Si7 0.863081 0.830488 0.458282
Si Si8 0.941147 0.827586 0.616919
O O1 0.156421 0.500000 0.098428
O O2 0.100087 0.739517 0.094297
O O3 0.973920 0.715242 0.315904
O O4 0.318886 0.741671 0.970411
O O5 0.868963 0.780293 0.234925
O O6 0.069501 0.000000 0.076779
O O7 0.213657 0.780843 0.884718
O O8 0.778063 0.500000 0.303168
O O9 0.729060 0.292918 0.272592
O O10 0.534524 0.290838 0.548890
O O11 0.344894 0.801139 0.353556
O O12 0.574225 0.000000 0.094698
O O13 0.488890 0.759850 0.119421
O O14 0.561008 0.500000 0.007879
O O15 0.789770 0.280822 0.783648
O O16 0.500000 0.265367 0.000000
O O17 0.287591 0.500000 0.790182
O O18 0.900213 0.811767 0.489444
O O19 0.913655 0.000000 0.391209
O O20 0.000000 0.769112 0.500000
O O21 0.873091 0.000000 0.677478
#
# Coordination Sequence:
#
# PCOD8064930 Si02
#       8
#     4   4   4   4   4   4   4   4
#     4  12  26  44  65  88 120 163 209 259 311 368
#     4  12  25  39  60  90 126 166 210 258 310 366
#     4   9  19  38  64  93 127 167 209 256 309 365
#     4  11  23  42  67  91 120 157 199 249 308 372
#     4  11  23  37  56  88 126 161 198 245 300 359
#     4   9  19  38  64  93 127 167 210 256 308 365
#     4  10  22  41  65  91 120 156 198 249 307 368
#     4  10  20  36  60  89 120 156 198 244 301 366
#
# _framework density 19.999580999999999
#
# number of rings (size 3 to 8) (size 9 to 14) (size 15 to 20)
#    0.000    1.500    1.250    4.875    0.000    6.750 
#    0.000    1.250    0.000    0.000    0.000    0.000 
#    0.000    0.000    0.000    0.000    0.000    0.000 
#
# Total GULP energy -396930.172610 kJ/mol
# GULP energy per Si atom -12404.067894 kJ/mol
# Density = 1.995406 g / cm^3
# Si number density = 19.999581 Si / 1000 Ang^3
#
#
#
# Elastic Constant Matrix: (Units=GPa)
#
#
# Indices 1 2 3 4 5 6 
#
# 1 94.9535 46.8673 41.7440 0.0000 -15.5176 0.0000
# 2 46.8673 119.1056 41.1698 0.0000 -21.9217 0.0000
# 3 41.7440 41.1698 110.6408 0.0000 -8.2419 0.0000
# 4 0.0000 0.0000 0.0000 -3.8149 0.0000 29.6368
# 5 -15.5176 -21.9217 -8.2419 0.0000 29.1057 0.0000
# 6 0.0000 0.0000 0.0000 29.6368 0.0000 6.5425
#
#
#
# Elastic Compliance Matrix: (Units=1/GPa)
#
#
# Indices 1 2 3 4 5 6 
#
# 1 0.014718 -0.003727 -0.003872 0.000000 0.003943 0.000000
# 2 -0.003727 0.011896 -0.002555 0.000000 0.006249 0.000000
# 3 -0.003872 -0.002555 0.011393 0.000000 -0.000762 0.000000
# 4 0.000000 0.000000 0.000000 -0.007243 0.000000 0.032809
# 5 0.003943 0.006249 -0.000762 0.000000 0.040950 0.000000
# 6 0.000000 0.000000 0.000000 0.032809 0.000000 0.004223
#
#
# Mechanical properties :
#
#
# Convention : Reuss Voigt Hill
#
# Bulk Modulus (GPa) = 56.50266 64.91801 60.71034
# Shear Modulus (GPa) = 48.94982 19.36124 34.15553
#
# Velocity S-wave (km/s) = 4.95263 3.11478 4.13705
# Velocity P-wave (km/s) = 7.81140 6.74284 7.29671
#
# Compressibility (1/GPa) = 0.01769828
#
# Stress axis : x y z
#
# Youngs Moduli (GPa) = 67.94451 84.06378 87.77263
#
# Poissons Ratio (x) = 0.31332 0.33988
# Poissons Ratio (y) = 0.25324 0.22423
# Poissons Ratio (z) = 0.26310 0.21476
#
# Static dielectric constant tensor:
#      x y z
#    x 4.212810 0.000000 0.525720 
#    y 0.000000 3.582780 0.000000 
#    z 0.525720 0.000000 4.250970 
# 
# 
# High freq. dielectric constant tensor:
#      x y z
#    x 1.782930 0.000000 -0.003420 
#    y 0.000000 1.778270 0.000000 
#    z -0.003420 0.000000 1.789630 
# 
# From -- ./inp_files/90586.got.cif
#   From: 2010.06.25/outbox.cif.g09.slc.cpg/sg10_46_cif.got.tgz:90586.got - 2010.06.27 22:07:45.
