data_PCOD8064689
_publ_section_title
;
Structure prediction by ZEFSAII (Michael W. Deem and Ramdas Pophale) SiO2 
 PCOD8064689
Probable space group: P 2/M
;
_chemical_formula_sum "Si O2"
_cell_formula_units_Z 28
_cell_length_a 13.386940
_cell_length_b 8.916973
_cell_length_c 13.386926
_cell_angle_alpha 90.000000
_cell_angle_beta 115.644892
_cell_angle_gamma 90.000000
_cell_volume 1440.596415
_symmetry_space_group_name_H-M "P 2/M"
_symmetry_group_IT_number 10
_symmetry_cell_setting 'monoclinic'
loop_
_space_group_symop_operation_xyz
x,y,z
-x,y,-z
-x,-y,-z
x,-y,z
loop_
_atom_site_type_symbol
_atom_site_label
_atom_site_fract_x
_atom_site_fract_y
_atom_site_fract_z
Si Si1 0.058829 0.328834 0.238797
Si Si2 0.608047 0.177673 0.108047
Si Si3 0.127181 0.166125 0.080904
Si Si4 0.186042 0.676965 0.911274
Si Si5 0.588726 0.676965 0.313958
Si Si6 0.738797 0.671166 0.558828
Si Si7 0.419095 0.166125 0.372819
O O1 0.055589 0.500000 0.200142
O O2 0.133659 0.238398 0.192506
O O3 0.126314 0.313618 0.373686
O O4 0.931329 0.274177 0.191310
O O5 0.717893 0.239793 0.105093
O O6 0.605093 0.239792 0.217893
O O7 0.614513 0.000000 0.114513
O O8 0.500000 0.231782 0.000000
O O9 0.181578 0.000000 0.104976
O O10 0.189995 0.269932 0.027893
O O11 0.000000 0.154058 0.000000
O O12 0.205715 0.500000 0.914222
O O13 0.585779 0.500000 0.294285
O O14 0.691310 0.725824 0.431328
O O15 0.472106 0.730068 0.310005
O O16 0.700143 0.500000 0.555588
O O17 0.692506 0.761602 0.633658
O O18 0.500000 0.154058 0.500000
O O19 0.395023 0.000000 0.318422
#
# Coordination Sequence:
#
# PCOD8064689 Si02
#       7
#     4   4   4   4   4   4   4
#     4   9  18  33  54  82 114 145 177 214 259 314
#     4  11  25  43  60  77 100 134 177 225 274 321
#     4   9  17  30  50  77 109 143 177 215 259 305
#     4  10  20  36  58  81 107 141 180 222 266 313
#     4  10  20  36  58  81 107 141 180 222 266 313
#     4   9  18  33  54  82 114 145 177 214 259 314
#     4   9  17  30  50  77 109 143 177 215 259 305
#
# _framework density 19.436395000000001
#
# number of rings (size 3 to 8) (size 9 to 14) (size 15 to 20)
#    0.000    2.429    0.000    2.143    0.000    7.429 
#    0.000    0.714    0.000    4.286    0.000    0.000 
#    0.000    0.000    0.000    0.000    0.000    0.000 
#
# Total GULP energy -347010.230901 kJ/mol
# GULP energy per Si atom -12393.222532 kJ/mol
# Density = 1.939216 g / cm^3
# Si number density = 19.436395 Si / 1000 Ang^3
#
#
#
# Elastic Constant Matrix: (Units=GPa)
#
#
# Indices 1 2 3 4 5 6 
#
# 1 115.1050 43.0147 69.7312 0.0000 -4.5761 0.0000
# 2 43.0147 85.0909 41.7021 0.0000 -0.8802 0.0000
# 3 69.7312 41.7021 119.4409 0.0000 7.4834 0.0000
# 4 0.0000 0.0000 0.0000 19.0595 0.0000 -4.9735
# 5 -4.5761 -0.8802 7.4834 0.0000 27.3606 0.0000
# 6 0.0000 0.0000 0.0000 -4.9735 0.0000 26.4787
#
#
#
# Elastic Compliance Matrix: (Units=1/GPa)
#
#
# Indices 1 2 3 4 5 6 
#
# 1 0.014915 -0.003726 -0.007687 0.000000 0.004477 0.000000
# 2 -0.003726 0.015201 -0.003178 0.000000 0.000735 0.000000
# 3 -0.007687 -0.003178 0.014302 0.000000 -0.005300 0.000000
# 4 0.000000 0.000000 0.000000 0.055171 0.000000 0.010363
# 5 0.004477 0.000735 -0.005300 0.000000 0.038771 0.000000
# 6 0.000000 0.000000 0.000000 0.010363 0.000000 0.039713
#
#
# Mechanical properties :
#
#
# Convention : Reuss Voigt Hill
#
# Bulk Modulus (GPa) = 65.63740 69.83698 67.73719
# Shear Modulus (GPa) = 23.54784 25.59236 24.57010
#
# Velocity S-wave (km/s) = 3.48449 3.63261 3.55932
# Velocity P-wave (km/s) = 7.07337 7.32144 7.19847
#
# Compressibility (1/GPa) = 0.01523522
#
# Stress axis : x y z
#
# Youngs Moduli (GPa) = 67.04609 65.78588 69.92092
#
# Poissons Ratio (x) = 0.24512 0.53750
# Poissons Ratio (y) = 0.24982 0.22221
# Poissons Ratio (z) = 0.51540 0.20907
#
# Static dielectric constant tensor:
#      x y z
#    x 3.525500 0.000000 0.090880 
#    y 0.000000 3.782150 0.000000 
#    z 0.090880 0.000000 3.661000 
# 
# 
# High freq. dielectric constant tensor:
#      x y z
#    x 1.735980 0.000000 0.015270 
#    y 0.000000 1.765130 0.000000 
#    z 0.015270 0.000000 1.758760 
# 
# From -- ./inp_files/63924.got.cif
#   From: 2010.06.25/outbox.cif.g09.slc.cpg/sg10_32_cif.got.tgz:63924.got - 2010.06.27 22:07:45.
