data_PCOD8064614
_publ_section_title
;
Structure prediction by ZEFSAII (Michael W. Deem and Ramdas Pophale) SiO2 
 PCOD8064614
Probable space group: P 2/M
;
_chemical_formula_sum "Si O2"
_cell_formula_units_Z 32
_cell_length_a 20.893511
_cell_length_b 8.688050
_cell_length_c 26.132437
_cell_angle_alpha 90.000000
_cell_angle_beta 20.884079
_cell_angle_gamma 90.000000
_cell_volume 1691.012676
_symmetry_space_group_name_H-M "P 2/M"
_symmetry_group_IT_number 10
_symmetry_cell_setting 'monoclinic'
loop_
_space_group_symop_operation_xyz
x,y,z
-x,y,-z
-x,-y,-z
x,-y,z
loop_
_atom_site_type_symbol
_atom_site_label
_atom_site_fract_x
_atom_site_fract_y
_atom_site_fract_z
Si Si1 0.298397 0.677671 0.150638
Si Si2 0.200682 0.180131 0.859179
Si Si3 0.531461 0.182283 0.149396
Si Si4 0.530066 0.318129 0.262689
Si Si5 0.246531 0.816415 0.547486
Si Si6 0.506636 0.179772 0.439112
Si Si7 0.800124 0.321491 0.660703
Si Si8 0.155049 0.180756 0.158863
O O1 0.289911 0.500000 0.140425
O O2 0.218556 0.707984 0.265520
O O3 0.188670 0.776192 0.192229
O O4 0.500000 0.739263 0.000000
O O5 0.296172 0.266715 0.834598
O O6 0.302799 0.212855 0.729712
O O7 0.201894 0.000000 0.872099
O O8 0.000000 0.242443 0.000000
O O9 0.553036 0.259412 0.188102
O O10 0.341646 0.224002 0.265753
O O11 0.543490 0.000000 0.146628
O O12 0.693159 0.248092 0.992711
O O13 0.517699 0.500000 0.271820
O O14 0.344678 0.251649 0.424181
O O15 0.348978 0.753492 0.521165
O O16 0.043591 0.755586 0.705317
O O17 0.257756 0.000000 0.534123
O O18 0.500000 0.259614 0.500000
O O19 0.471756 0.000000 0.471603
O O20 0.772626 0.500000 0.666794
O O21 0.000000 0.263630 0.500000
O O22 0.156352 0.000000 0.152032
#
# Coordination Sequence:
#
# PCOD8064614 Si02
#       8
#     4   4   4   4   4   4   4   4
#     4  10  20  36  57  79 108 145 181 225 275 333
#     4   9  18  34  57  83 111 146 187 229 275 327
#     4  11  23  39  58  83 114 147 187 235 284 334
#     4  11  23  38  57  81 114 154 191 231 278 330
#     4   9  19  37  57  82 113 144 185 231 277 331
#     4   8  14  27  51  80 107 137 174 218 265 316
#     4  10  22  39  57  81 112 146 187 229 275 335
#     4  10  22  37  57  83 111 144 182 233 285 334
#
# _framework density 18.923573000000001
#
# number of rings (size 3 to 8) (size 9 to 14) (size 15 to 20)
#    0.000    2.250    1.250    2.250    1.750    3.250 
#    0.000    3.750    0.000    6.000    0.000    0.000 
#    0.000    0.000    0.000    0.000    0.000    0.000 
#
# Total GULP energy -396780.363005 kJ/mol
# GULP energy per Si atom -12399.386344 kJ/mol
# Density = 1.888050 g / cm^3
# Si number density = 18.923573 Si / 1000 Ang^3
#
#
#
# Elastic Constant Matrix: (Units=GPa)
#
#
# Indices 1 2 3 4 5 6 
#
# 1 116.0122 29.5134 69.2801 0.0000 2.0724 0.0000
# 2 29.5134 44.8873 34.8150 0.0000 -0.6390 0.0000
# 3 69.2801 34.8150 161.2583 0.0000 -12.6981 0.0000
# 4 0.0000 0.0000 0.0000 19.7563 0.0000 1.4370
# 5 2.0724 -0.6390 -12.6981 0.0000 26.1237 0.0000
# 6 0.0000 0.0000 0.0000 1.4370 0.0000 15.5647
#
#
#
# Elastic Compliance Matrix: (Units=1/GPa)
#
#
# Indices 1 2 3 4 5 6 
#
# 1 0.012694 -0.004753 -0.004696 0.000000 -0.003406 0.000000
# 2 -0.004753 0.028665 -0.004224 0.000000 -0.000975 0.000000
# 3 -0.004696 -0.004224 0.009516 0.000000 0.004895 0.000000
# 4 0.000000 0.000000 0.000000 0.050959 0.000000 -0.004705
# 5 -0.003406 -0.000975 0.004895 0.000000 0.040905 0.000000
# 6 0.000000 0.000000 0.000000 -0.004705 0.000000 0.064682
#
#
# Mechanical properties :
#
#
# Convention : Reuss Voigt Hill
#
# Bulk Modulus (GPa) = 42.49749 65.48608 53.99178
# Shear Modulus (GPa) = 20.60936 24.85888 22.73412
#
# Velocity S-wave (km/s) = 3.30371 3.62836 3.46983
# Velocity P-wave (km/s) = 6.08760 7.22731 6.68180
#
# Compressibility (1/GPa) = 0.02353080
#
# Stress axis : x y z
#
# Youngs Moduli (GPa) = 78.77831 34.88595 105.08787
#
# Poissons Ratio (x) = 0.16580 0.49346
# Poissons Ratio (y) = 0.37441 0.44384
# Poissons Ratio (z) = 0.36991 0.14734
#
# Static dielectric constant tensor:
#      x y z
#    x 3.612250 0.000000 -0.006840 
#    y 0.000000 3.222880 0.000000 
#    z -0.006840 0.000000 3.762460 
# 
# 
# High freq. dielectric constant tensor:
#      x y z
#    x 1.742790 0.000000 0.000920 
#    y 0.000000 1.710930 0.000000 
#    z 0.000920 0.000000 1.746680 
# 
# From -- ./inp_files/93656.got.cif
#   From: 2010.06.25/outbox.cif.g09.slc.cpg/sg10_47_cif.got.tgz:93656.got - 2010.06.27 22:07:45.
