data_PCOD8064440
_publ_section_title
;
Structure prediction by ZEFSAII (Michael W. Deem and Ramdas Pophale) SiO2 
 PCOD8064440
Probable space group: P 2/M
;
_chemical_formula_sum "Si O2"
_cell_formula_units_Z 28
_cell_length_a 7.888571
_cell_length_b 9.275410
_cell_length_c 27.661858
_cell_angle_alpha 90.000000
_cell_angle_beta 44.524852
_cell_angle_gamma 90.000000
_cell_volume 1419.273882
_symmetry_space_group_name_H-M "P 2/M"
_symmetry_group_IT_number 10
_symmetry_cell_setting 'monoclinic'
loop_
_space_group_symop_operation_xyz
x,y,z
-x,y,-z
-x,-y,-z
x,-y,z
loop_
_atom_site_type_symbol
_atom_site_label
_atom_site_fract_x
_atom_site_fract_y
_atom_site_fract_z
Si Si1 0.888821 0.833553 0.168804
Si Si2 0.067674 0.336380 0.295574
Si Si3 0.732840 0.166447 0.831196
Si Si4 0.637400 0.835273 0.424493
Si Si5 0.240137 0.835273 0.424493
Si Si6 0.192536 0.171314 0.922986
Si Si7 0.454457 0.663620 0.295574
O O1 0.881729 0.773808 0.115421
O O2 0.705634 0.747543 0.240166
O O3 0.157660 0.815100 0.136936
O O4 0.807899 0.000000 0.186061
O O5 0.988981 0.500000 0.300708
O O6 0.093538 0.252456 0.240166
O O7 0.323652 0.330523 0.270539
O O8 0.869055 0.263726 0.369995
O O9 0.458836 0.226192 0.884579
O O10 0.738202 0.000000 0.813940
O O11 0.500000 0.779427 0.500000
O O12 0.467681 0.820527 0.412927
O O13 0.722425 0.000000 0.414896
O O14 0.280972 0.736274 0.369995
O O15 0.000000 0.779427 0.500000
O O16 0.203095 0.000000 0.414896
O O17 0.183025 0.000000 0.926790
O O18 0.000000 0.236956 0.000000
O O19 0.507479 0.500000 0.300708
#
# Coordination Sequence:
#
# PCOD8064440 Si02
#       7
#     4   4   4   4   4   4   4
#     4  10  20  35  58  86 114 149 191 232 281 340
#     4  11  23  37  55  80 111 149 190 234 284 336
#     4  10  20  35  58  86 114 149 191 232 281 340
#     4  10  21  37  57  81 108 142 185 232 285 342
#     4  10  21  37  57  81 108 142 185 232 285 342
#     4   9  18  34  57  87 121 151 183 233 289 337
#     4  11  23  37  55  80 111 149 190 234 284 336
#
# _framework density 19.728399
#
# number of rings (size 3 to 8) (size 9 to 14) (size 15 to 20)
#    0.000    1.857    1.429    2.571    0.000    8.571 
#    0.000    2.857    0.000    1.714    0.000    2.000 
#    0.000    0.000    0.000    0.000    0.000    0.000 
#
# Total GULP energy -347286.398019 kJ/mol
# GULP energy per Si atom -12403.085644 kJ/mol
# Density = 1.968350 g / cm^3
# Si number density = 19.728399 Si / 1000 Ang^3
#
#
#
# Elastic Constant Matrix: (Units=GPa)
#
#
# Indices 1 2 3 4 5 6 
#
# 1 108.9237 32.6277 48.9102 0.0000 -0.0352 0.0000
# 2 32.6277 78.7250 50.7653 0.0000 0.2108 0.0000
# 3 48.9102 50.7653 139.8966 0.0000 0.3951 0.0000
# 4 0.0000 0.0000 0.0000 -2.8905 0.0000 -0.2492
# 5 -0.0352 0.2108 0.3951 0.0000 28.5008 0.0000
# 6 0.0000 0.0000 0.0000 -0.2492 0.0000 18.5516
#
#
#
# Elastic Compliance Matrix: (Units=1/GPa)
#
#
# Indices 1 2 3 4 5 6 
#
# 1 0.011344 -0.002799 -0.002951 0.000000 0.000076 0.000000
# 2 -0.002799 0.017274 -0.005289 0.000000 -0.000058 0.000000
# 3 -0.002951 -0.005289 0.010099 0.000000 -0.000105 0.000000
# 4 0.000000 0.000000 0.000000 -0.345556 0.000000 -0.004642
# 5 0.000076 -0.000058 -0.000105 0.000000 0.035089 0.000000
# 6 0.000000 0.000000 0.000000 -0.004642 0.000000 0.053841
#
#
# Mechanical properties :
#
#
# Convention : Reuss Voigt Hill
#
# Bulk Modulus (GPa) = 60.10023 65.79465 62.94744
# Shear Modulus (GPa) = -26.27649 21.84849 -2.21400
#
# Velocity S-wave (km/s) = -3.65350 3.33147 -1.06051
# Velocity P-wave (km/s) = 3.56827 6.94412 5.52057
#
# Compressibility (1/GPa) = 0.01663887
#
# Stress axis : x y z
#
# Youngs Moduli (GPa) = 88.15123 57.89206 99.01586
#
# Poissons Ratio (x) = 0.16205 0.29215
# Poissons Ratio (y) = 0.24675 0.52373
# Poissons Ratio (z) = 0.26010 0.30621
#
# Static dielectric constant tensor:
#      x y z
#    x 3.677980 0.000000 -0.001460 
#    y 0.000000 3.399920 0.000000 
#    z -0.001460 0.000000 3.552310 
# 
# 
# High freq. dielectric constant tensor:
#      x y z
#    x 1.783360 0.000000 -0.000240 
#    y 0.000000 1.742980 0.000000 
#    z -0.000240 0.000000 1.762750 
# 
# From -- ./inp_files/90334.got.cif
#   From: 2010.06.25/outbox.cif.g09.slc.cpg/sg10_46_cif.got.tgz:90334.got - 2010.06.27 22:07:45.
