data_PCOD8064803
_publ_section_title
;
Structure prediction by ZEFSAII (Michael W. Deem and Ramdas Pophale) SiO2 
 PCOD8064803
Probable space group: P 2/M
;
_chemical_formula_sum "Si O2"
_cell_formula_units_Z 32
_cell_length_a 12.285285
_cell_length_b 8.806251
_cell_length_c 15.123402
_cell_angle_alpha 90.000000
_cell_angle_beta 87.559815
_cell_angle_gamma 90.000000
_cell_volume 1634.676433
_symmetry_space_group_name_H-M "P 2/M"
_symmetry_group_IT_number 10
_symmetry_cell_setting 'monoclinic'
loop_
_space_group_symop_operation_xyz
x,y,z
-x,y,-z
-x,-y,-z
x,-y,z
loop_
_atom_site_type_symbol
_atom_site_label
_atom_site_fract_x
_atom_site_fract_y
_atom_site_fract_z
Si Si1 0.530656 0.820616 0.371799
Si Si2 0.662564 0.319512 0.521556
Si Si3 0.106548 0.820647 0.243594
Si Si4 0.537700 0.324304 0.188625
Si Si5 0.095463 0.678576 0.430656
Si Si6 0.297030 0.677698 0.138944
Si Si7 0.951907 0.179687 0.093513
Si Si8 0.264129 0.677269 0.941569
O O1 0.414577 0.742355 0.397412
O O2 0.625567 0.756464 0.431362
O O3 0.564071 0.780712 0.271297
O O4 0.520534 0.000000 0.385670
O O5 0.649636 0.500000 0.515630
O O6 0.786982 0.271071 0.535679
O O7 0.070383 0.757873 0.339040
O O8 0.226818 0.764183 0.214675
O O9 0.022724 0.758021 0.172766
O O10 0.106455 0.000000 0.247415
O O11 0.544564 0.500000 0.217382
O O12 0.421502 0.282541 0.152703
O O13 0.622316 0.285039 0.108833
O O14 0.092851 0.500000 0.415077
O O15 0.000000 0.730990 0.500000
O O16 0.274089 0.500000 0.148771
O O17 0.268006 0.737582 0.042037
O O18 0.829438 0.237764 0.109601
O O19 0.952777 0.000000 0.092459
O O20 0.000000 0.245143 0.000000
O O21 0.239210 0.500000 0.940966
#
# Coordination Sequence:
#
# PCOD8064803 Si02
#       8
#     4   4   4   4   4   4   4   4
#     4  11  22  36  57  86 116 148 190 236 278 336
#     4  10  20  38  63  85 111 148 187 231 290 344
#     4  11  23  38  60  87 115 153 194 235 285 340
#     4  10  21  37  55  81 118 152 185 232 291 344
#     4  10  23  42  62  86 116 149 188 238 291 343
#     4  10  20  36  59  84 113 149 191 237 285 338
#     4  10  21  39  58  80 117 156 190 233 286 340
#     4  10  21  36  58  85 111 147 195 242 283 331
#
# _framework density 19.57574
#
# number of rings (size 3 to 8) (size 9 to 14) (size 15 to 20)
#    0.000    1.750    1.250    3.750    0.000    9.000 
#    0.000    3.750    0.000    2.250    0.000    0.000 
#    0.000    0.000    0.000    0.000    0.000    0.000 
#
# Total GULP energy -396952.019150 kJ/mol
# GULP energy per Si atom -12404.750598 kJ/mol
# Density = 1.953118 g / cm^3
# Si number density = 19.575740 Si / 1000 Ang^3
#
#
#
# Elastic Constant Matrix: (Units=GPa)
#
#
# Indices 1 2 3 4 5 6 
#
# 1 134.7189 35.6034 68.5386 0.0000 6.0878 0.0000
# 2 35.6034 53.0268 45.2761 0.0000 3.6887 0.0000
# 3 68.5386 45.2761 131.6412 0.0000 -3.1240 0.0000
# 4 0.0000 0.0000 0.0000 28.7957 0.0000 2.4979
# 5 6.0878 3.6887 -3.1240 0.0000 27.8251 0.0000
# 6 0.0000 0.0000 0.0000 2.4979 0.0000 10.5607
#
#
#
# Elastic Compliance Matrix: (Units=1/GPa)
#
#
# Indices 1 2 3 4 5 6 
#
# 1 0.010665 -0.003117 -0.004539 0.000000 -0.002430 0.000000
# 2 -0.003117 0.028205 -0.008172 0.000000 -0.003975 0.000000
# 3 -0.004539 -0.008172 0.012854 0.000000 0.003519 0.000000
# 4 0.000000 0.000000 0.000000 0.035455 0.000000 -0.008386
# 5 -0.002430 -0.003975 0.003519 0.000000 0.037392 0.000000
# 6 0.000000 0.000000 0.000000 -0.008386 0.000000 0.096675
#
#
# Mechanical properties :
#
#
# Convention : Reuss Voigt Hill
#
# Bulk Modulus (GPa) = 49.82819 68.69147 59.25983
# Shear Modulus (GPa) = 19.26102 24.76755 22.01429
#
# Velocity S-wave (km/s) = 3.14016 3.56085 3.35710
# Velocity P-wave (km/s) = 6.21746 7.21612 6.73533
#
# Compressibility (1/GPa) = 0.02006896
#
# Stress axis : x y z
#
# Youngs Moduli (GPa) = 93.76126 35.45411 77.79840
#
# Poissons Ratio (x) = 0.11050 0.35310
# Poissons Ratio (y) = 0.29223 0.63580
# Poissons Ratio (z) = 0.42555 0.28975
#
# Static dielectric constant tensor:
#      x y z
#    x 3.636030 0.000000 0.076100 
#    y 0.000000 3.429510 0.000000 
#    z 0.076100 0.000000 3.668000 
# 
# 
# High freq. dielectric constant tensor:
#      x y z
#    x 1.768780 0.000000 0.004970 
#    y 0.000000 1.754240 0.000000 
#    z 0.004970 0.000000 1.769650 
# 
# From -- ./inp_files/63820.got.cif
#   From: 2010.06.25/outbox.cif.g09.slc.cpg/sg10_32_cif.got.tgz:63820.got - 2010.06.27 22:07:45.
