data_PCOD8064479
_publ_section_title
;
Structure prediction by ZEFSAII (Michael W. Deem and Ramdas Pophale) SiO2 
 PCOD8064479
Probable space group: P 2/M
;
_chemical_formula_sum "Si O2"
_cell_formula_units_Z 32
_cell_length_a 25.344773
_cell_length_b 14.036721
_cell_length_c 9.380627
_cell_angle_alpha 90.000000
_cell_angle_beta 150.568979
_cell_angle_gamma 90.000000
_cell_volume 1639.831889
_symmetry_space_group_name_H-M "P 2/M"
_symmetry_group_IT_number 10
_symmetry_cell_setting 'monoclinic'
loop_
_space_group_symop_operation_xyz
x,y,z
-x,y,-z
-x,-y,-z
x,-y,z
loop_
_atom_site_type_symbol
_atom_site_label
_atom_site_fract_x
_atom_site_fract_y
_atom_site_fract_z
Si Si1 0.021121 0.218955 0.384285
Si Si2 0.321003 0.107179 0.766911
Si Si3 0.092395 0.112261 0.108886
Si Si4 0.239443 0.107658 0.888480
Si Si5 0.465730 0.716798 0.074989
Si Si6 0.309077 0.391152 0.902687
Si Si7 0.939228 0.391364 0.713046
Si Si8 0.395066 0.747560 0.339918
O O1 0.128068 0.160376 0.601338
O O2 0.023318 0.325706 0.328892
O O3 0.000000 0.226020 0.500000
O O4 0.924090 0.161387 0.082852
O O5 0.209393 0.143006 0.436964
O O6 0.307306 0.109343 0.903648
O O7 0.349203 0.000000 0.781959
O O8 0.417554 0.176496 0.949893
O O9 0.082697 0.000000 0.068484
O O10 0.000000 0.149296 0.000000
O O11 0.218385 0.000000 0.892218
O O12 0.314087 0.164189 0.175875
O O13 0.570800 0.712608 0.423259
O O14 0.500000 0.680805 0.000000
O O15 0.377953 0.645454 0.931773
O O16 0.338505 0.500000 0.004476
O O17 0.187618 0.378548 0.565499
O O18 0.333213 0.334173 0.105311
O O19 0.968928 0.500000 0.743507
O O20 0.000000 0.359812 0.000000
O O21 0.500000 0.780925 0.500000
#
# Coordination Sequence:
#
# PCOD8064479 Si02
#       8
#     4   4   4   4   4   4   4   4
#     4  12  24  36  57  89 127 157 185 240 304 354
#     4  10  20  37  61  85 114 159 208 244 286 342
#     4  10  20  35  59  86 114 159 206 243 284 345
#     4  11  21  37  60  87 117 154 205 244 281 343
#     4  11  24  39  57  88 125 150 193 249 300 351
#     4  10  21  42  68  89 113 148 197 242 287 354
#     4  10  22  42  69  93 115 153 200 240 284 352
#     4  10  20  38  61  87 112 153 202 241 294 338
#
# _framework density 19.514194
#
# number of rings (size 3 to 8) (size 9 to 14) (size 15 to 20)
#    0.000    1.500    5.000    0.750    1.750    5.750 
#    0.000    1.250    0.000    0.000    0.000    0.000 
#    0.000    0.000    0.000    0.000    0.000    0.000 
#
# Total GULP energy -396845.072290 kJ/mol
# GULP energy per Si atom -12401.408509 kJ/mol
# Density = 1.946978 g / cm^3
# Si number density = 19.514194 Si / 1000 Ang^3
#
#
#
# Elastic Constant Matrix: (Units=GPa)
#
#
# Indices 1 2 3 4 5 6 
#
# 1 79.7469 30.7014 33.9525 0.0000 -27.4540 0.0000
# 2 30.7014 108.0161 50.9705 0.0000 -5.6477 0.0000
# 3 33.9525 50.9705 128.6843 0.0000 -17.0255 0.0000
# 4 0.0000 0.0000 0.0000 32.3533 0.0000 2.1407
# 5 -27.4540 -5.6477 -17.0255 0.0000 25.9615 0.0000
# 6 0.0000 0.0000 0.0000 2.1407 0.0000 14.3201
#
#
#
# Elastic Compliance Matrix: (Units=1/GPa)
#
#
# Indices 1 2 3 4 5 6 
#
# 1 0.022357 -0.004665 -0.001158 0.000000 0.021868 0.000000
# 2 -0.004665 0.012366 -0.004341 0.000000 -0.005089 0.000000
# 3 -0.001158 -0.004341 0.010412 0.000000 0.004660 0.000000
# 4 0.000000 0.000000 0.000000 0.031217 0.000000 -0.004667
# 5 0.021868 -0.005089 0.004660 0.000000 0.063592 0.000000
# 6 0.000000 0.000000 0.000000 -0.004667 0.000000 0.070530
#
#
# Mechanical properties :
#
#
# Convention : Reuss Voigt Hill
#
# Bulk Modulus (GPa) = 40.30853 60.85511 50.58182
# Shear Modulus (GPa) = 20.91436 27.91519 24.41477
#
# Velocity S-wave (km/s) = 3.27731 3.78631 3.54097
# Velocity P-wave (km/s) = 5.91793 7.09701 6.53412
#
# Compressibility (1/GPa) = 0.02480864
#
# Stress axis : x y z
#
# Youngs Moduli (GPa) = 44.72900 80.86783 96.04133
#
# Poissons Ratio (x) = 0.37723 0.11120
# Poissons Ratio (y) = 0.20865 0.41687
# Poissons Ratio (z) = 0.05179 0.35101
#
# Static dielectric constant tensor:
#      x y z
#    x 3.216700 0.000000 -0.055690 
#    y 0.000000 3.743700 0.000000 
#    z -0.055690 0.000000 3.843430 
# 
# 
# High freq. dielectric constant tensor:
#      x y z
#    x 1.722790 0.000000 -0.004120 
#    y 0.000000 1.766120 0.000000 
#    z -0.004120 0.000000 1.778160 
# 
# From -- ./inp_files/36387.got.cif
#   From: 2010.06.25/outbox.cif.g09.slc.cpg/sg10_19_cif.got.tgz:36387.got - 2010.06.27 22:07:45.
