data_PCOD8064250
_publ_section_title
;
Structure prediction by ZEFSAII (Michael W. Deem and Ramdas Pophale) SiO2 
 PCOD8064250
Probable space group: P 2/M
;
_chemical_formula_sum "Si O2"
_cell_formula_units_Z 28
_cell_length_a 16.631626
_cell_length_b 8.645623
_cell_length_c 12.461827
_cell_angle_alpha 90.000000
_cell_angle_beta 120.523737
_cell_angle_gamma 90.000000
_cell_volume 1543.572659
_symmetry_space_group_name_H-M "P 2/M"
_symmetry_group_IT_number 10
_symmetry_cell_setting 'monoclinic'
loop_
_space_group_symop_operation_xyz
x,y,z
-x,y,-z
-x,-y,-z
x,-y,z
loop_
_atom_site_type_symbol
_atom_site_label
_atom_site_fract_x
_atom_site_fract_y
_atom_site_fract_z
Si Si1 0.096723 0.680600 0.181696
Si Si2 0.594635 0.319828 0.121969
Si Si3 0.418279 0.821487 0.660556
Si Si4 0.388980 0.320118 0.262047
Si Si5 0.730743 0.678854 0.024482
Si Si6 0.903658 0.180314 0.048746
Si Si7 0.278823 0.821831 0.380005
O O1 0.076346 0.500000 0.173054
O O2 0.184229 0.722118 0.315540
O O3 0.004911 0.769624 0.161330
O O4 0.121120 0.727771 0.076536
O O5 0.586883 0.500000 0.147421
O O6 0.610880 0.220264 0.238843
O O7 0.500000 0.265687 0.000000
O O8 0.681802 0.285580 0.104020
O O9 0.502111 0.715396 0.675761
O O10 0.328909 0.787707 0.526256
O O11 0.448823 0.000000 0.673975
O O12 0.374856 0.500000 0.278574
O O13 0.339207 0.272348 0.117774
O O14 0.347535 0.221180 0.330168
O O15 0.757699 0.500000 0.032700
O O16 0.825264 0.778979 0.083352
O O17 0.904038 0.000000 0.023092
O O18 0.251181 0.000000 0.348706
#
# Coordination Sequence:
#
# PCOD8064250 Si02
#       7
#     4   4   4   4   4   4   4
#     4  11  21  35  56  81 111 145 184 227 272 329
#     4  10  20  38  59  79 107 145 189 233 273 319
#     4  11  24  38  54  79 114 150 187 230 275 329
#     4  11  21  35  56  81 112 149 188 225 271 328
#     4  10  20  35  56  82 113 145 183 231 276 321
#     4  11  21  34  55  83 114 146 179 223 279 333
#     4  11  23  38  54  79 115 150 184 227 279 329
#
# _framework density 18.139734000000001
#
# number of rings (size 3 to 8) (size 9 to 14) (size 15 to 20)
#    0.000    1.286    2.857    5.143    0.000    5.429 
#    0.000    0.000    0.000    0.857    0.000    6.000 
#    0.000    0.000    0.000    0.000    0.000    0.000 
#
# Total GULP energy -347367.232452 kJ/mol
# GULP energy per Si atom -12405.972588 kJ/mol
# Density = 1.809845 g / cm^3
# Si number density = 18.139734 Si / 1000 Ang^3
#
#
#
# Elastic Constant Matrix: (Units=GPa)
#
#
# Indices 1 2 3 4 5 6 
#
# 1 91.8659 28.7884 41.8857 0.0000 20.9891 0.0000
# 2 28.7884 63.5807 30.1741 0.0000 3.7325 0.0000
# 3 41.8857 30.1741 98.6248 0.0000 3.6389 0.0000
# 4 0.0000 0.0000 0.0000 28.0157 0.0000 2.4783
# 5 20.9891 3.7325 3.6389 0.0000 20.4171 0.0000
# 6 0.0000 0.0000 0.0000 2.4783 0.0000 29.6754
#
#
#
# Elastic Compliance Matrix: (Units=1/GPa)
#
#
# Indices 1 2 3 4 5 6 
#
# 1 0.019200 -0.004786 -0.006034 0.000000 -0.017788 0.000000
# 2 -0.004786 0.019708 -0.004072 0.000000 0.002043 0.000000
# 3 -0.006034 -0.004072 0.013782 0.000000 0.004491 0.000000
# 4 0.000000 0.000000 0.000000 0.035960 0.000000 -0.003003
# 5 -0.017788 0.002043 0.004491 0.000000 0.066091 0.000000
# 6 0.000000 0.000000 0.000000 -0.003003 0.000000 0.033949
#
#
# Mechanical properties :
#
#
# Convention : Reuss Voigt Hill
#
# Bulk Modulus (GPa) = 43.65628 50.64086 47.14857
# Shear Modulus (GPa) = 22.11319 25.83652 23.97486
#
# Velocity S-wave (km/s) = 3.49527 3.77809 3.63943
# Velocity P-wave (km/s) = 6.35674 6.85636 6.61127
#
# Compressibility (1/GPa) = 0.02290621
#
# Stress axis : x y z
#
# Youngs Moduli (GPa) = 52.08239 50.74143 72.55726
#
# Poissons Ratio (x) = 0.24284 0.43780
# Poissons Ratio (y) = 0.24926 0.29548
# Poissons Ratio (z) = 0.31425 0.20664
#
# Static dielectric constant tensor:
#      x y z
#    x 3.358430 0.000000 0.102600 
#    y 0.000000 3.391290 0.000000 
#    z 0.102600 0.000000 3.262100 
# 
# 
# High freq. dielectric constant tensor:
#      x y z
#    x 1.702380 0.000000 0.012260 
#    y 0.000000 1.712500 0.000000 
#    z 0.012260 0.000000 1.683400 
# 
# From -- ./inp_files/50115.got.cif
#   From: 2010.06.25/outbox.cif.g09.slc.cpg/sg10_26_cif.got.tgz:50115.got - 2010.06.27 22:07:45.
