data_PCOD8064400
_publ_section_title
;
Structure prediction by ZEFSAII (Michael W. Deem and Ramdas Pophale) SiO2 
 PCOD8064400
Probable space group: P 2/M
;
_chemical_formula_sum "Si O2"
_cell_formula_units_Z 26
_cell_length_a 7.569048
_cell_length_b 20.452686
_cell_length_c 9.084469
_cell_angle_alpha 90.000000
_cell_angle_beta 58.257662
_cell_angle_gamma 90.000000
_cell_volume 1195.985581
_symmetry_space_group_name_H-M "P 2/M"
_symmetry_group_IT_number 10
_symmetry_cell_setting 'monoclinic'
loop_
_space_group_symop_operation_xyz
x,y,z
-x,y,-z
-x,-y,-z
x,-y,z
loop_
_atom_site_type_symbol
_atom_site_label
_atom_site_fract_x
_atom_site_fract_y
_atom_site_fract_z
Si Si1 0.126672 0.197724 0.160423
Si Si2 0.163123 0.671157 0.307767
Si Si3 0.275143 0.572116 0.025963
Si Si4 0.305941 0.779595 0.788604
Si Si5 0.043914 0.071364 0.650754
Si Si6 0.567771 0.639940 0.310219
Si Si7 0.500000 0.126768 0.500000
O O1 0.133697 0.252318 0.284867
O O2 0.910596 0.194367 0.171906
O O3 0.130248 0.123811 0.219727
O O4 0.312070 0.215265 0.964335
O O5 0.136045 0.625923 0.173440
O O6 0.384140 0.660427 0.282744
O O7 0.000000 0.647388 0.500000
O O8 0.172625 0.500000 0.084015
O O9 0.500000 0.570363 0.000000
O O10 0.290575 0.589046 0.844211
O O11 0.309638 0.706870 0.719109
O O12 0.489623 0.825292 0.647001
O O13 0.288268 0.085936 0.576258
O O14 0.000000 0.066042 0.500000
O O15 0.999214 0.000000 0.743111
O O16 0.500000 0.610950 0.500000
#
# Coordination Sequence:
#
# PCOD8064400 Si02
#       7
#     4   4   4   4   4   4   2
#     4  10  21  37  58  85 118 150 194 248 297 357
#     4  11  22  35  59  89 114 156 198 245 300 349
#     4   9  20  39  58  82 120 159 196 241 299 361
#     4  10  20  35  57  88 114 149 191 247 302 343
#     4  10  22  40  60  85 119 161 200 247 306 366
#     4  11  21  36  58  88 118 152 198 246 296 357
#     4  10  21  38  60  88 117 160 198 252 307 358
#
# _framework density 21.739391999999999
#
# number of rings (size 3 to 8) (size 9 to 14) (size 15 to 20)
#    0.000    1.846    2.308    1.615    4.308    0.615 
#    0.000    6.923    0.000    8.308    0.000    0.000 
#    0.000    0.000    0.000    0.000    0.000    0.000 
#
# Total GULP energy -322176.345626 kJ/mol
# GULP energy per Si atom -12391.397909 kJ/mol
# Density = 2.168991 g / cm^3
# Si number density = 21.739392 Si / 1000 Ang^3
#
#
#
# Elastic Constant Matrix: (Units=GPa)
#
#
# Indices 1 2 3 4 5 6 
#
# 1 28.6614 9.8896 3.1560 0.0000 11.6253 0.0000
# 2 9.8896 162.3971 61.9186 0.0000 5.9157 0.0000
# 3 3.1560 61.9186 153.2494 0.0000 15.1731 0.0000
# 4 0.0000 0.0000 0.0000 37.0682 0.0000 1.1338
# 5 11.6253 5.9157 15.1731 0.0000 25.9238 0.0000
# 6 0.0000 0.0000 0.0000 1.1338 0.0000 18.5534
#
#
#
# Elastic Compliance Matrix: (Units=1/GPa)
#
#
# Indices 1 2 3 4 5 6 
#
# 1 0.043854 -0.002782 0.002234 0.000000 -0.020339 0.000000
# 2 -0.002782 0.007456 -0.003089 0.000000 0.001354 0.000000
# 3 0.002234 -0.003089 0.008234 0.000000 -0.005116 0.000000
# 4 0.000000 0.000000 0.000000 0.027028 0.000000 -0.001652
# 5 -0.020339 0.001354 -0.005116 0.000000 0.050381 0.000000
# 6 0.000000 0.000000 0.000000 -0.001652 0.000000 0.053999
#
#
# Mechanical properties :
#
#
# Convention : Reuss Voigt Hill
#
# Bulk Modulus (GPa) = 19.13120 54.91514 37.02317
# Shear Modulus (GPa) = 23.18597 34.26533 28.72565
#
# Velocity S-wave (km/s) = 3.26934 3.97443 3.63900
# Velocity P-wave (km/s) = 4.80321 6.81006 5.89270
#
# Compressibility (1/GPa) = 0.05227064
#
# Stress axis : x y z
#
# Youngs Moduli (GPa) = 22.80315 134.12668 121.44771
#
# Poissons Ratio (x) = 0.37309 -0.27137
# Poissons Ratio (y) = 0.06343 0.37517
# Poissons Ratio (z) = -0.05095 0.41434
#
# Static dielectric constant tensor:
#      x y z
#    x 3.709570 0.000000 0.059430 
#    y 0.000000 4.330610 0.000000 
#    z 0.059430 0.000000 4.525980 
# 
# 
# High freq. dielectric constant tensor:
#      x y z
#    x 1.840240 0.000000 0.009090 
#    y 0.000000 1.849900 0.000000 
#    z 0.009090 0.000000 1.855290 
# 
# From -- ./inp_files/20429.got.cif
#   From: 2010.06.25/outbox.cif.g09.slc.cpg/sg10_11_cif.got.tgz:20429.got - 2010.06.27 22:07:45.
