data_PCOD8064194
_publ_section_title
;
Structure prediction by ZEFSAII (Michael W. Deem and Ramdas Pophale) SiO2 
 PCOD8064194
Probable space group: P 2/M
;
_chemical_formula_sum "Si O2"
_cell_formula_units_Z 24
_cell_length_a 31.710337
_cell_length_b 8.874264
_cell_length_c 9.024214
_cell_angle_alpha 90.000000
_cell_angle_beta 29.218935
_cell_angle_gamma 90.000000
_cell_volume 1239.636067
_symmetry_space_group_name_H-M "P 2/M"
_symmetry_group_IT_number 10
_symmetry_cell_setting 'monoclinic'
loop_
_space_group_symop_operation_xyz
x,y,z
-x,y,-z
-x,-y,-z
x,-y,z
loop_
_atom_site_type_symbol
_atom_site_label
_atom_site_fract_x
_atom_site_fract_y
_atom_site_fract_z
Si Si1 0.523552 0.325291 0.262007
Si Si2 0.826637 0.680324 0.323420
Si Si3 0.645640 0.676340 0.406819
Si Si4 0.326458 0.822623 0.368396
Si Si5 0.804686 0.680128 0.723654
Si Si6 0.987626 0.664417 0.212063
O O1 0.500000 0.278152 0.500000
O O2 0.550696 0.500000 0.170816
O O3 0.443160 0.290165 0.403652
O O4 0.604848 0.226581 0.965407
O O5 0.824786 0.500000 0.316786
O O6 0.766541 0.751941 0.382887
O O7 0.793998 0.733223 0.586225
O O8 0.925051 0.743135 0.992796
O O9 0.657082 0.500000 0.404797
O O10 0.641895 0.765526 0.570336
O O11 0.723968 0.738962 0.065934
O O12 0.317949 0.000000 0.396440
O O13 0.809897 0.500000 0.709559
O O14 0.894456 0.746909 0.520644
O O15 0.981790 0.500000 0.305274
O O16 0.000000 0.643870 0.000000
#
# Coordination Sequence:
#
# PCOD8064194 Si02
#       6
#     4   4   4   4   4   4
#     4  10  21  39  63  86 103 125 165 215 264 313
#     4   9  16  31  56  81 105 135 174 219 263 308
#     4  10  20  35  56  79 105 137 171 210 258 312
#     4  12  25  37  50  73 109 147 178 210 251 302
#     4   8  14  28  54  85 107 127 167 221 269 310
#     4   7  11  22  47  82 109 127 159 215 271 309
#
# _framework density 19.360520000000001
#
# number of rings (size 3 to 8) (size 9 to 14) (size 15 to 20)
#    0.000    2.667    0.000    5.000    0.000    5.667 
#    0.000    3.333    0.000   10.500    0.000    0.000 
#    0.000    0.000    0.000    0.000    0.000    0.000 
#
# Total GULP energy -297424.201788 kJ/mol
# GULP energy per Si atom -12392.675074 kJ/mol
# Density = 1.931645 g / cm^3
# Si number density = 19.360520 Si / 1000 Ang^3
#
#
#
# Elastic Constant Matrix: (Units=GPa)
#
#
# Indices 1 2 3 4 5 6 
#
# 1 99.2513 32.8672 15.1194 0.0000 -11.9284 0.0000
# 2 32.8672 47.5406 16.6557 0.0000 -8.7012 0.0000
# 3 15.1194 16.6557 46.0029 0.0000 -18.7894 0.0000
# 4 0.0000 0.0000 0.0000 5.2649 0.0000 1.0149
# 5 -11.9284 -8.7012 -18.7894 0.0000 31.4676 0.0000
# 6 0.0000 0.0000 0.0000 1.0149 0.0000 -2.7409
#
#
#
# Elastic Compliance Matrix: (Units=1/GPa)
#
#
# Indices 1 2 3 4 5 6 
#
# 1 0.013271 -0.008643 -0.000204 0.000000 0.002519 0.000000
# 2 -0.008643 0.029807 -0.007834 0.000000 0.000288 0.000000
# 3 -0.000204 -0.007834 0.031377 0.000000 0.016492 0.000000
# 4 0.000000 0.000000 0.000000 0.177282 0.000000 0.065647
# 5 0.002519 0.000288 0.016492 0.000000 0.042661 0.000000
# 6 0.000000 0.000000 0.000000 0.065647 0.000000 -0.340535
#
#
# Mechanical properties :
#
#
# Convention : Reuss Voigt Hill
#
# Bulk Modulus (GPa) = 24.33359 35.78659 30.06009
# Shear Modulus (GPa) = 5431.73968 15.34182 2723.54075
#
# Velocity S-wave (km/s) = 53.02515 2.81806 37.54735
# Velocity P-wave (km/s) = 61.33094 5.39565 43.53503
#
# Compressibility (1/GPa) = 0.04109546
#
# Stress axis : x y z
#
# Youngs Moduli (GPa) = 75.35080 33.54912 31.87059
#
# Poissons Ratio (x) = 0.28995 0.00649
# Poissons Ratio (y) = 0.65123 0.24966
# Poissons Ratio (z) = 0.01534 0.26281
#
# Static dielectric constant tensor:
#      x y z
#    x 3.558170 0.000000 -0.297880 
#    y 0.000000 2.995060 0.000000 
#    z -0.297880 0.000000 3.917640 
# 
# 
# High freq. dielectric constant tensor:
#      x y z
#    x 1.752970 0.000000 -0.022350 
#    y 0.000000 1.693280 0.000000 
#    z -0.022350 0.000000 1.766600 
# 
# From -- ./inp_files/37863.got.cif
#   From: 2010.06.25/outbox.cif.g09.slc.cpg/sg10_19_cif.got.tgz:37863.got - 2010.06.27 22:07:45.
