data_PCOD8064845
_publ_section_title
;
Structure prediction by ZEFSAII (Michael W. Deem and Ramdas Pophale) SiO2 
 PCOD8064845
Probable space group: P 2/M
;
_chemical_formula_sum "Si O2"
_cell_formula_units_Z 28
_cell_length_a 11.869831
_cell_length_b 7.454506
_cell_length_c 16.001263
_cell_angle_alpha 90.000000
_cell_angle_beta 114.023365
_cell_angle_gamma 90.000000
_cell_volume 1293.209646
_symmetry_space_group_name_H-M "P 2/M"
_symmetry_group_IT_number 10
_symmetry_cell_setting 'monoclinic'
loop_
_space_group_symop_operation_xyz
x,y,z
-x,y,-z
-x,-y,-z
x,-y,z
loop_
_atom_site_type_symbol
_atom_site_label
_atom_site_fract_x
_atom_site_fract_y
_atom_site_fract_z
Si Si1 0.397076 0.000000 0.075198
Si Si2 0.030166 0.706869 0.099991
Si Si3 0.310625 0.713061 0.475119
Si Si4 0.123276 0.714100 0.785906
Si Si5 0.328841 0.000000 0.864131
Si Si6 0.959301 0.712767 0.577885
Si Si7 0.542976 0.287789 0.637813
Si Si8 0.691066 0.706936 0.836954
O O1 0.327583 0.822243 0.086175
O O2 0.541409 0.000000 0.146828
O O3 0.374213 0.000000 0.971560
O O4 0.994088 0.500000 0.082897
O O5 0.174130 0.735808 0.162735
O O6 0.951432 0.783738 0.154283
O O7 0.000000 0.796739 0.000000
O O8 0.301526 0.500000 0.466832
O O9 0.175812 0.796539 0.446579
O O10 0.370413 0.792025 0.408907
O O11 0.400505 0.768011 0.579642
O O12 0.147295 0.500000 0.795076
O O13 0.048910 0.771320 0.680137
O O14 0.252376 0.819406 0.820766
O O15 0.952502 0.500000 0.572270
O O16 0.000000 0.789488 0.500000
O O17 0.557901 0.500000 0.640238
O O18 0.590960 0.217507 0.740893
O O19 0.670970 0.500000 0.855287
#
# Coordination Sequence:
#
# PCOD8064845 Si02
#       8
#     2   4   4   4   2   4   4   4
#     4  11  26  43  59  82 113 150 192 244 293 339
#     4   9  17  31  56  88 116 145 186 237 294 351
#     4   8  13  24  44  75 113 147 184 227 273 330
#     4  10  21  39  63  88 118 155 192 238 291 343
#     4  11  26  45  60  81 113 151 200 241 282 347
#     4   9  17  29  49  79 113 149 188 229 275 331
#     4   8  14  25  47  77 108 146 184 224 278 337
#     4  10  20  36  59  87 117 149 190 237 291 352
#
# _framework density 21.651554999999998
#
# number of rings (size 3 to 8) (size 9 to 14) (size 15 to 20)
#    0.000    2.714    0.000    2.571    0.000    7.429 
#    0.000    6.071    0.000    2.571    0.000    0.000 
#    0.000    0.000    0.000    0.000    0.000    0.000 
#
# Total GULP energy -347002.249321 kJ/mol
# GULP energy per Si atom -12392.937476 kJ/mol
# Density = 2.160228 g / cm^3
# Si number density = 21.651555 Si / 1000 Ang^3
#
#
#
# Elastic Constant Matrix: (Units=GPa)
#
#
# Indices 1 2 3 4 5 6 
#
# 1 107.1903 26.3846 30.9562 0.0000 11.6693 0.0000
# 2 26.3846 63.6834 15.8049 0.0000 4.4024 0.0000
# 3 30.9562 15.8049 123.0625 0.0000 8.3747 0.0000
# 4 0.0000 0.0000 0.0000 7.5757 0.0000 8.4952
# 5 11.6693 4.4024 8.3747 0.0000 37.7259 0.0000
# 6 0.0000 0.0000 0.0000 8.4952 0.0000 4.5350
#
#
#
# Elastic Compliance Matrix: (Units=1/GPa)
#
#
# Indices 1 2 3 4 5 6 
#
# 1 0.011189 -0.003931 -0.002138 0.000000 -0.002528 0.000000
# 2 -0.003931 0.017679 -0.001243 0.000000 -0.000571 0.000000
# 3 -0.002138 -0.001243 0.008903 0.000000 -0.001170 0.000000
# 4 0.000000 0.000000 0.000000 -0.119931 0.000000 0.224662
# 5 -0.002528 -0.000571 -0.001170 0.000000 0.027615 0.000000
# 6 0.000000 0.000000 0.000000 0.224662 0.000000 -0.200343
#
#
# Mechanical properties :
#
#
# Convention : Reuss Voigt Hill
#
# Bulk Modulus (GPa) = 43.19875 48.91417 46.05646
# Shear Modulus (GPa) = -21.50088 24.68668 1.59290
#
# Velocity S-wave (km/s) = -3.15467 3.38032 0.85866
# Velocity P-wave (km/s) = 2.59342 6.15435 4.72238
#
# Compressibility (1/GPa) = 0.02314882
#
# Stress axis : x y z
#
# Youngs Moduli (GPa) = 89.37132 56.56398 112.32208
#
# Poissons Ratio (x) = 0.22232 0.24013
# Poissons Ratio (y) = 0.35127 0.13961
# Poissons Ratio (z) = 0.19106 0.07030
#
# Static dielectric constant tensor:
#      x y z
#    x 4.104530 0.000000 0.092080 
#    y 0.000000 3.407910 0.000000 
#    z 0.092080 0.000000 4.166090 
# 
# 
# High freq. dielectric constant tensor:
#      x y z
#    x 1.844510 0.000000 0.011480 
#    y 0.000000 1.821490 0.000000 
#    z 0.011480 0.000000 1.857570 
# 
# From -- ./inp_files/63534.got.cif
#   From: 2010.06.25/outbox.cif.g09.slc.cpg/sg10_32_cif.got.tgz:63534.got - 2010.06.27 22:07:45.
