data_PCOD8064322
_publ_section_title
;
Structure prediction by ZEFSAII (Michael W. Deem and Ramdas Pophale) SiO2 
 PCOD8064322
Probable space group: P 2/M
;
_chemical_formula_sum "Si O2"
_cell_formula_units_Z 32
_cell_length_a 27.917394
_cell_length_b 13.620474
_cell_length_c 9.799645
_cell_angle_alpha 90.000000
_cell_angle_beta 27.600519
_cell_angle_gamma 90.000000
_cell_volume 1726.408434
_symmetry_space_group_name_H-M "P 2/M"
_symmetry_group_IT_number 10
_symmetry_cell_setting 'monoclinic'
loop_
_space_group_symop_operation_xyz
x,y,z
-x,y,-z
-x,-y,-z
x,-y,z
loop_
_atom_site_type_symbol
_atom_site_label
_atom_site_fract_x
_atom_site_fract_y
_atom_site_fract_z
Si Si1 0.416233 0.886741 0.597146
Si Si2 0.592852 0.199818 0.665671
Si Si3 0.690978 0.391062 0.342512
Si Si4 0.382969 0.390589 0.777262
Si Si5 0.883279 0.726127 0.781882
Si Si6 0.879745 0.886120 0.288018
Si Si7 0.233421 0.777110 0.186544
Si Si8 0.190893 0.887208 0.832924
O O1 0.500000 0.862454 0.500000
O O2 0.443323 0.820839 0.397569
O O3 0.417667 0.000000 0.551060
O O4 0.302787 0.859434 0.937522
O O5 0.628491 0.313291 0.593015
O O6 0.686451 0.127581 0.465864
O O7 0.500000 0.175732 0.000000
O O8 0.685980 0.500000 0.421062
O O9 0.639617 0.391162 0.325093
O O10 0.810085 0.357739 0.030069
O O11 0.500000 0.353444 0.500000
O O12 0.368594 0.500000 0.875931
O O13 0.304622 0.315972 0.049601
O O14 0.856155 0.744741 0.692019
O O15 0.000000 0.687985 0.500000
O O16 0.870472 0.826531 0.898403
O O17 0.816219 0.819742 0.552588
O O18 0.845911 0.853752 0.223181
O O19 0.854199 0.000000 0.381208
O O20 0.000000 0.864104 0.000000
O O21 0.162914 0.000000 0.929697
#
# Coordination Sequence:
#
# PCOD8064322 Si02
#       8
#     4   4   4   4   4   4   4   4
#     4  11  23  37  55  84 116 149 188 225 269 326
#     4  11  23  37  56  81 113 150 184 225 273 332
#     4   9  19  36  54  79 110 139 179 231 277 330
#     4   9  17  31  55  82 109 140 178 223 275 328
#     4  10  20  35  57  83 106 142 185 229 282 327
#     4  10  22  37  54  79 109 146 187 226 275 326
#     4  11  20  35  58  81 111 142 184 234 269 322
#     4  10  21  37  53  76 112 148 184 224 270 329
#
# _framework density 18.535591
#
# number of rings (size 3 to 8) (size 9 to 14) (size 15 to 20)
#    0.000    1.875    3.750    1.875    1.750    2.250 
#    0.000    0.000    0.000    3.375    0.000    0.000 
#    0.000    0.000    0.000    0.000    0.000    0.000 
#
# Total GULP energy -396843.192558 kJ/mol
# GULP energy per Si atom -12401.349767 kJ/mol
# Density = 1.849340 g / cm^3
# Si number density = 18.535591 Si / 1000 Ang^3
#
#
#
# Elastic Constant Matrix: (Units=GPa)
#
#
# Indices 1 2 3 4 5 6 
#
# 1 98.7131 33.1999 39.9761 0.0000 -14.6647 0.0000
# 2 33.1999 104.1084 32.5852 0.0000 5.2346 0.0000
# 3 39.9761 32.5852 91.4931 0.0000 -8.2994 0.0000
# 4 0.0000 0.0000 0.0000 24.4099 0.0000 0.9663
# 5 -14.6647 5.2346 -8.2994 0.0000 30.5415 0.0000
# 6 0.0000 0.0000 0.0000 0.9663 0.0000 18.0297
#
#
#
# Elastic Compliance Matrix: (Units=1/GPa)
#
#
# Indices 1 2 3 4 5 6 
#
# 1 0.013929 -0.003395 -0.004324 0.000000 0.006095 0.000000
# 2 -0.003395 0.011908 -0.003169 0.000000 -0.004532 0.000000
# 3 -0.004324 -0.003169 0.014157 0.000000 0.002314 0.000000
# 4 0.000000 0.000000 0.000000 0.041054 0.000000 -0.002200
# 5 0.006095 -0.004532 0.002314 0.000000 0.037074 0.000000
# 6 0.000000 0.000000 0.000000 -0.002200 0.000000 0.055582
#
#
# Mechanical properties :
#
#
# Convention : Reuss Voigt Hill
#
# Bulk Modulus (GPa) = 54.88825 56.20409 55.54617
# Shear Modulus (GPa) = 24.80749 27.16645 25.98697
#
# Velocity S-wave (km/s) = 3.66234 3.83252 3.74840
# Velocity P-wave (km/s) = 6.89640 7.06911 6.98329
#
# Compressibility (1/GPa) = 0.01821884
#
# Stress axis : x y z
#
# Youngs Moduli (GPa) = 71.79434 83.97974 70.63417
#
# Poissons Ratio (x) = 0.28510 0.30541
# Poissons Ratio (y) = 0.24374 0.22382
# Poissons Ratio (z) = 0.31043 0.26610
#
# Static dielectric constant tensor:
#      x y z
#    x 3.509570 0.000000 -0.143220 
#    y 0.000000 3.693260 0.000000 
#    z -0.143220 0.000000 3.193410 
# 
# 
# High freq. dielectric constant tensor:
#      x y z
#    x 1.723910 0.000000 -0.015820 
#    y 0.000000 1.722800 0.000000 
#    z -0.015820 0.000000 1.701580 
# 
# From -- ./inp_files/37703.got.cif
#   From: 2010.06.25/outbox.cif.g09.slc.cpg/sg10_19_cif.got.tgz:37703.got - 2010.06.27 22:07:45.
