data_PCOD8064337
_publ_section_title
;
Structure prediction by ZEFSAII (Michael W. Deem and Ramdas Pophale) SiO2 
 PCOD8064337
Probable space group: P 2/M
;
_chemical_formula_sum "Si O2"
_cell_formula_units_Z 28
_cell_length_a 9.333367
_cell_length_b 8.854656
_cell_length_c 29.167720
_cell_angle_alpha 90.000000
_cell_angle_beta 142.604506
_cell_angle_gamma 90.000000
_cell_volume 1463.947004
_symmetry_space_group_name_H-M "P 2/M"
_symmetry_group_IT_number 10
_symmetry_cell_setting 'monoclinic'
loop_
_space_group_symop_operation_xyz
x,y,z
-x,y,-z
-x,-y,-z
x,-y,z
loop_
_atom_site_type_symbol
_atom_site_label
_atom_site_fract_x
_atom_site_fract_y
_atom_site_fract_z
Si Si1 0.679697 0.174473 0.505169
Si Si2 0.176542 0.675456 0.636316
Si Si3 0.417900 0.678956 0.930398
Si Si4 0.418866 0.178140 0.205859
Si Si5 0.473818 0.326988 0.623943
Si Si6 0.113746 0.675846 0.204184
Si Si7 0.270710 0.321395 0.074541
O O1 0.500000 0.210146 0.500000
O O2 0.554740 0.216048 0.425825
O O3 0.907339 0.276141 0.571353
O O4 0.754247 0.000000 0.523013
O O5 0.202562 0.500000 0.654970
O O6 0.328455 0.766972 0.711673
O O7 0.268621 0.707510 0.608430
O O8 0.435700 0.500000 0.936792
O O9 0.588972 0.739550 0.934180
O O10 0.150380 0.729957 0.851816
O O11 0.500000 0.747615 0.000000
O O12 0.207179 0.234381 0.184156
O O13 0.384856 0.240834 0.146687
O O14 0.416997 0.000000 0.204226
O O15 0.457876 0.500000 0.603066
O O16 0.727782 0.292239 0.710908
O O17 0.124743 0.500000 0.193487
O O18 0.296893 0.500000 0.087543
O O19 0.000000 0.273314 0.000000
#
# Coordination Sequence:
#
# PCOD8064337 Si02
#       7
#     4   4   4   4   4   4   4
#     4  11  24  38  53  80 117 150 181 222 274 329
#     4  10  21  39  62  84 107 140 186 231 272 324
#     4   9  17  31  55  84 109 139 184 234 276 316
#     4  11  22  36  56  83 114 145 180 223 276 333
#     4   9  19  35  56  81 106 139 185 232 275 325
#     4   9  18  35  57  81 109 140 182 231 275 325
#     4  10  20  35  57  83 112 148 188 229 274 324
#
# _framework density 19.126377000000002
#
# number of rings (size 3 to 8) (size 9 to 14) (size 15 to 20)
#    0.000    2.143    0.000    4.286    0.000    9.429 
#    0.000    2.143    0.000    1.714    0.000    0.000 
#    0.000    0.000    0.000    0.000    0.000    0.000 
#
# Total GULP energy -347301.650220 kJ/mol
# GULP energy per Si atom -12403.630365 kJ/mol
# Density = 1.908284 g / cm^3
# Si number density = 19.126377 Si / 1000 Ang^3
#
#
#
# Elastic Constant Matrix: (Units=GPa)
#
#
# Indices 1 2 3 4 5 6 
#
# 1 140.0173 40.4730 84.5944 0.0000 0.3778 0.0000
# 2 40.4730 42.3153 30.5415 0.0000 -9.7929 0.0000
# 3 84.5944 30.5415 120.3839 0.0000 -1.0640 0.0000
# 4 0.0000 0.0000 0.0000 -11.6895 0.0000 4.6538
# 5 0.3778 -9.7929 -1.0640 0.0000 37.0349 0.0000
# 6 0.0000 0.0000 0.0000 4.6538 0.0000 20.7743
#
#
#
# Elastic Compliance Matrix: (Units=1/GPa)
#
#
# Indices 1 2 3 4 5 6 
#
# 1 0.014505 -0.008717 -0.008005 0.000000 -0.002683 0.000000
# 2 -0.008717 0.036374 -0.003018 0.000000 0.009620 0.000000
# 3 -0.008005 -0.003018 0.014695 0.000000 -0.000294 0.000000
# 4 0.000000 0.000000 0.000000 -0.078542 0.000000 0.017595
# 5 -0.002683 0.009620 -0.000294 0.000000 0.029564 0.000000
# 6 0.000000 0.000000 0.000000 0.017595 0.000000 0.044195
#
#
# Mechanical properties :
#
#
# Convention : Reuss Voigt Hill
#
# Bulk Modulus (GPa) = 38.32178 68.21492 53.26835
# Shear Modulus (GPa) = 45.88435 19.03111 32.45773
#
# Velocity S-wave (km/s) = 4.90328 3.15781 4.12395
# Velocity P-wave (km/s) = 7.22051 7.00275 7.11247
#
# Compressibility (1/GPa) = 0.02609482
#
# Stress axis : x y z
#
# Youngs Moduli (GPa) = 68.93955 27.49213 68.04992
#
# Poissons Ratio (x) = 0.23965 0.54476
# Poissons Ratio (y) = 0.60094 0.20535
# Poissons Ratio (z) = 0.55188 0.08296
#
# Static dielectric constant tensor:
#      x y z
#    x 3.615600 0.000000 0.083590 
#    y 0.000000 3.290980 0.000000 
#    z 0.083590 0.000000 3.630540 
# 
# 
# High freq. dielectric constant tensor:
#      x y z
#    x 1.744610 0.000000 0.002790 
#    y 0.000000 1.724840 0.000000 
#    z 0.002790 0.000000 1.757710 
# 
# From -- ./inp_files/36936.got.cif
#   From: 2010.06.25/outbox.cif.g09.slc.cpg/sg10_19_cif.got.tgz:36936.got - 2010.06.27 22:07:45.
