data_PCOD8064064
_publ_section_title
;
Structure prediction by ZEFSAII (Michael W. Deem and Ramdas Pophale) SiO2 
 PCOD8064064
Probable space group: P 2/M
;
_chemical_formula_sum "Si O2"
_cell_formula_units_Z 32
_cell_length_a 15.929748
_cell_length_b 8.635673
_cell_length_c 25.711612
_cell_angle_alpha 90.000000
_cell_angle_beta 29.178991
_cell_angle_gamma 90.000000
_cell_volume 1724.424757
_symmetry_space_group_name_H-M "P 2/M"
_symmetry_group_IT_number 10
_symmetry_cell_setting 'monoclinic'
loop_
_space_group_symop_operation_xyz
x,y,z
-x,y,-z
-x,-y,-z
x,-y,z
loop_
_atom_site_type_symbol
_atom_site_label
_atom_site_fract_x
_atom_site_fract_y
_atom_site_fract_z
Si Si1 0.963554 0.818886 0.772852
Si Si2 0.852109 0.682574 0.042512
Si Si3 0.348556 0.819941 0.547838
Si Si4 0.095731 0.318665 0.305376
Si Si5 0.779137 0.181347 0.975741
Si Si6 0.468240 0.318601 0.276738
Si Si7 0.262589 0.817177 0.481412
Si Si8 0.395586 0.818830 0.209820
O O1 0.901943 0.722573 0.756600
O O2 0.859064 0.755211 0.878884
O O3 0.165526 0.789237 0.674372
O O4 0.928317 0.000000 0.781042
O O5 0.864899 0.500000 0.032893
O O6 0.666605 0.734367 0.164716
O O7 0.881341 0.745679 0.968769
O O8 0.000000 0.751344 0.000000
O O9 0.500000 0.738880 0.500000
O O10 0.345127 0.754566 0.490764
O O11 0.390040 0.000000 0.521465
O O12 0.122924 0.500000 0.298509
O O13 0.250860 0.227064 0.247618
O O14 0.919704 0.266779 0.428542
O O15 0.808375 0.000000 0.963176
O O16 0.578682 0.227143 0.085565
O O17 0.448486 0.500000 0.298239
O O18 0.390654 0.222727 0.366003
O O19 0.367866 0.274507 0.278356
O O20 0.227687 0.000000 0.503198
O O21 0.386966 0.000000 0.227138
#
# Coordination Sequence:
#
# PCOD8064064 Si02
#       8
#     4   4   4   4   4   4   4   4
#     4   9  18  34  53  75 105 138 172 212 259 305
#     4   9  19  35  53  75 108 146 177 210 257 309
#     4   8  15  29  50  75 102 132 167 207 250 298
#     4  11  22  36  54  77 104 135 172 211 256 311
#     4   9  19  34  54  78 103 135 176 221 261 303
#     4  10  20  35  54  77 106 138 175 216 256 304
#     4  10  20  35  55  78 105 137 172 213 262 309
#     4  10  20  36  55  76 103 134 172 216 263 309
#
# _framework density 18.556912000000001
#
# number of rings (size 3 to 8) (size 9 to 14) (size 15 to 20)
#    0.000    2.500    0.000    3.000    0.000    3.750 
#    0.000    6.250    0.000    9.375    0.000    0.000 
#    0.000    0.000    0.000    0.000    0.000    0.000 
#
# Total GULP energy -396833.082417 kJ/mol
# GULP energy per Si atom -12401.033826 kJ/mol
# Density = 1.851468 g / cm^3
# Si number density = 18.556912 Si / 1000 Ang^3
#
#
#
# Elastic Constant Matrix: (Units=GPa)
#
#
# Indices 1 2 3 4 5 6 
#
# 1 109.8502 11.9411 57.1916 0.0000 -11.3457 0.0000
# 2 11.9411 28.5015 15.9584 0.0000 1.1548 0.0000
# 3 57.1916 15.9584 102.5545 0.0000 17.0078 0.0000
# 4 0.0000 0.0000 0.0000 21.2528 0.0000 1.5909
# 5 -11.3457 1.1548 17.0078 0.0000 33.6651 0.0000
# 6 0.0000 0.0000 0.0000 1.5909 0.0000 25.4343
#
#
#
# Elastic Compliance Matrix: (Units=1/GPa)
#
#
# Indices 1 2 3 4 5 6 
#
# 1 0.015691 -0.001230 -0.010307 0.000000 0.010537 0.000000
# 2 -0.001230 0.038638 -0.005498 0.000000 0.001038 0.000000
# 3 -0.010307 -0.005498 0.018444 0.000000 -0.012603 0.000000
# 4 0.000000 0.000000 0.000000 0.047274 0.000000 -0.002957
# 5 0.010537 0.001038 -0.012603 0.000000 0.039587 0.000000
# 6 0.000000 0.000000 0.000000 -0.002957 0.000000 0.039502
#
#
# Mechanical properties :
#
#
# Convention : Reuss Voigt Hill
#
# Bulk Modulus (GPa) = 25.83787 45.67648 35.75717
# Shear Modulus (GPa) = 20.31623 26.45812 23.38718
#
# Velocity S-wave (km/s) = 3.31238 3.78005 3.55391
# Velocity P-wave (km/s) = 5.34630 6.61207 6.01258
#
# Compressibility (1/GPa) = 0.03870288
#
# Stress axis : x y z
#
# Youngs Moduli (GPa) = 63.72921 25.88133 54.21696
#
# Poissons Ratio (x) = 0.03184 0.55880
# Poissons Ratio (y) = 0.07840 0.29811
# Poissons Ratio (z) = 0.65684 0.14231
#
# Static dielectric constant tensor:
#      x y z
#    x 3.587270 0.000000 -0.033900 
#    y 0.000000 3.230500 0.000000 
#    z -0.033900 0.000000 3.488900 
# 
# 
# High freq. dielectric constant tensor:
#      x y z
#    x 1.725380 0.000000 0.001160 
#    y 0.000000 1.708000 0.000000 
#    z 0.001160 0.000000 1.720370 
# 
# From -- ./inp_files/66466.got.cif
#   From: 2010.06.25/outbox.cif.g09.slc.cpg/sg10_34_cif.got.tgz:66466.got - 2010.06.27 22:07:45.
