data_PCOD8064137
_publ_section_title
;
Structure prediction by ZEFSAII (Michael W. Deem and Ramdas Pophale) SiO2 
 PCOD8064137
Probable space group: P 2/M
;
_chemical_formula_sum "Si O2"
_cell_formula_units_Z 28
_cell_length_a 9.526080
_cell_length_b 8.844962
_cell_length_c 22.429020
_cell_angle_alpha 90.000000
_cell_angle_beta 133.468654
_cell_angle_gamma 90.000000
_cell_volume 1371.538649
_symmetry_space_group_name_H-M "P 2/M"
_symmetry_group_IT_number 10
_symmetry_cell_setting 'monoclinic'
loop_
_space_group_symop_operation_xyz
x,y,z
-x,y,-z
-x,-y,-z
x,-y,z
loop_
_atom_site_type_symbol
_atom_site_label
_atom_site_fract_x
_atom_site_fract_y
_atom_site_fract_z
Si Si1 0.402999 0.174252 0.060255
Si Si2 0.812042 0.669090 0.904373
Si Si3 0.093957 0.177988 0.661571
Si Si4 0.210738 0.321900 0.816744
Si Si5 0.685911 0.321319 0.515733
Si Si6 0.781167 0.333929 0.415288
Si Si7 0.032445 0.824507 0.870778
O O1 0.343823 0.224200 0.109482
O O2 0.585100 0.274905 0.093969
O O3 0.466557 0.000000 0.079599
O O4 0.232154 0.202910 0.963968
O O5 0.728380 0.500000 0.871075
O O6 0.858256 0.742129 0.854097
O O7 0.000000 0.663132 0.000000
O O8 0.199460 0.254145 0.747839
O O9 0.224582 0.218386 0.641660
O O10 0.874261 0.236177 0.594894
O O11 0.091830 0.000000 0.668898
O O12 0.186288 0.500000 0.807939
O O13 0.042961 0.250887 0.808893
O O14 0.500000 0.269307 0.500000
O O15 0.722502 0.500000 0.533362
O O16 0.655443 0.280052 0.436367
O O17 0.709243 0.500000 0.373066
O O18 0.000000 0.347154 0.500000
O O19 0.982834 0.000000 0.850524
#
# Coordination Sequence:
#
# PCOD8064137 Si02
#       7
#     4   4   4   4   4   4   4
#     4  10  20  35  55  79 107 140 181 229 279 329
#     4   9  17  31  52  77 103 133 173 218 263 316
#     4  11  22  36  54  78 110 144 180 220 267 321
#     4  12  24  37  54  76 106 143 185 231 278 329
#     4   9  18  35  60  87 113 141 174 213 258 312
#     4   8  15  31  55  80 106 137 172 207 248 304
#     4  10  20  35  55  79 108 142 181 227 280 331
#
# _framework density 20.415029000000001
#
# number of rings (size 3 to 8) (size 9 to 14) (size 15 to 20)
#    0.000    2.143    0.000    5.143    0.000    8.000 
#    0.000    1.429    0.000    1.714    0.000    0.000 
#    0.000    0.000    0.000    0.000    0.000    0.000 
#
# Total GULP energy -347150.689700 kJ/mol
# GULP energy per Si atom -12398.238918 kJ/mol
# Density = 2.036856 g / cm^3
# Si number density = 20.415029 Si / 1000 Ang^3
#
#
#
# Elastic Constant Matrix: (Units=GPa)
#
#
# Indices 1 2 3 4 5 6 
#
# 1 122.0589 28.5355 13.2175 0.0000 -30.1935 0.0000
# 2 28.5355 115.1882 26.0899 0.0000 -16.2776 0.0000
# 3 13.2175 26.0899 33.3300 0.0000 -16.6798 0.0000
# 4 0.0000 0.0000 0.0000 23.1206 0.0000 -2.8102
# 5 -30.1935 -16.2776 -16.6798 0.0000 28.3717 0.0000
# 6 0.0000 0.0000 0.0000 -2.8102 0.0000 35.1834
#
#
#
# Elastic Compliance Matrix: (Units=1/GPa)
#
#
# Indices 1 2 3 4 5 6 
#
# 1 0.011514 -0.001759 0.003454 0.000000 0.013274 0.000000
# 2 -0.001759 0.010879 -0.007979 0.000000 -0.000321 0.000000
# 3 0.003454 -0.007979 0.048779 0.000000 0.027775 0.000000
# 4 0.000000 0.000000 0.000000 0.043675 0.000000 0.003488
# 5 0.013274 -0.000321 0.027775 0.000000 0.065518 0.000000
# 6 0.000000 0.000000 0.000000 0.003488 0.000000 0.028701
#
#
# Mechanical properties :
#
#
# Convention : Reuss Voigt Hill
#
# Bulk Modulus (GPa) = 17.06366 45.14032 31.10199
# Shear Modulus (GPa) = 20.73239 30.85077 25.79158
#
# Velocity S-wave (km/s) = 3.19022 3.89161 3.55824
# Velocity P-wave (km/s) = 4.68471 6.50785 5.67004
#
# Compressibility (1/GPa) = 0.05860408
#
# Stress axis : x y z
#
# Youngs Moduli (GPa) = 86.85398 91.92019 20.50061
#
# Poissons Ratio (x) = 0.16166 -0.07081
# Poissons Ratio (y) = 0.15275 0.16357
# Poissons Ratio (z) = -0.29999 0.73343
#
# Static dielectric constant tensor:
#      x y z
#    x 4.112760 0.000000 -0.290140 
#    y 0.000000 3.706870 0.000000 
#    z -0.290140 0.000000 3.359940 
# 
# 
# High freq. dielectric constant tensor:
#      x y z
#    x 1.809560 0.000000 -0.023200 
#    y 0.000000 1.800100 0.000000 
#    z -0.023200 0.000000 1.759890 
# 
# From -- ./inp_files/82258.got.cif
#   From: 2010.06.25/outbox.cif.g09.slc.cpg/sg10_42_cif.got.tgz:82258.got - 2010.06.27 22:07:45.
