data_PCOD8064724
_publ_section_title
;
Structure prediction by ZEFSAII (Michael W. Deem and Ramdas Pophale) SiO2 
 PCOD8064724
Probable space group: P 2/M
;
_chemical_formula_sum "Si O2"
_cell_formula_units_Z 28
_cell_length_a 9.040740
_cell_length_b 19.161331
_cell_length_c 15.334010
_cell_angle_alpha 90.000000
_cell_angle_beta 30.403231
_cell_angle_gamma 90.000000
_cell_volume 1344.332291
_symmetry_space_group_name_H-M "P 2/M"
_symmetry_group_IT_number 10
_symmetry_cell_setting 'monoclinic'
loop_
_space_group_symop_operation_xyz
x,y,z
-x,y,-z
-x,-y,-z
x,-y,z
loop_
_atom_site_type_symbol
_atom_site_label
_atom_site_fract_x
_atom_site_fract_y
_atom_site_fract_z
Si Si1 0.325909 0.078391 0.852773
Si Si2 0.377436 0.791479 0.932056
Si Si3 0.325488 0.339824 0.846852
Si Si4 0.962108 0.794418 0.725811
Si Si5 0.685507 0.662459 0.487387
Si Si6 0.177667 0.421106 0.320504
Si Si7 0.864548 0.921369 0.475574
O O1 0.453960 0.131152 0.859021
O O2 0.513843 0.081867 0.667991
O O3 0.334931 0.000000 0.887204
O O4 0.000000 0.103404 0.000000
O O5 0.294247 0.739417 0.896450
O O6 0.674914 0.764275 0.824426
O O7 0.106058 0.796974 0.136713
O O8 0.485882 0.341668 0.673467
O O9 0.507175 0.384624 0.825619
O O10 0.000000 0.371503 0.000000
O O11 0.229673 0.742745 0.571903
O O12 0.047028 0.870874 0.647907
O O13 0.500000 0.633376 0.500000
O O14 0.982221 0.617244 0.346473
O O15 0.234291 0.500000 0.260532
O O16 0.000000 0.418890 0.500000
O O17 0.000000 0.898837 0.500000
O O18 0.965950 0.000000 0.399579
#
# Coordination Sequence:
#
# PCOD8064724 Si02
#       7
#     4   4   4   4   4   4   4
#     4  10  21  37  57  82 115 155 202 253 308 367
#     4  11  22  37  58  88 120 161 204 257 311 362
#     4  11  22  39  65  92 127 167 205 253 308 367
#     4  11  23  36  59  88 121 155 208 263 303 362
#     4  11  23  40  64  94 126 164 208 254 306 366
#     4   9  20  40  66  94 126 166 207 247 300 366
#     4  10  20  36  58  83 114 158 208 254 309 375
#
# _framework density 20.828184
#
# number of rings (size 3 to 8) (size 9 to 14) (size 15 to 20)
#    0.000    1.571    2.857    2.143    0.000    2.286 
#    0.000    1.429    0.000    9.000    0.000    0.000 
#    0.000    0.000    0.000    0.000    0.000    0.000 
#
# Total GULP energy -347202.859821 kJ/mol
# GULP energy per Si atom -12400.102136 kJ/mol
# Density = 2.078078 g / cm^3
# Si number density = 20.828184 Si / 1000 Ang^3
#
#
#
# Elastic Constant Matrix: (Units=GPa)
#
#
# Indices 1 2 3 4 5 6 
#
# 1 114.5626 53.4152 44.7004 0.0000 -11.0232 0.0000
# 2 53.4152 120.6370 36.1295 0.0000 -1.7135 0.0000
# 3 44.7004 36.1295 110.0474 0.0000 -10.9021 0.0000
# 4 0.0000 0.0000 0.0000 21.8486 0.0000 -3.2896
# 5 -11.0232 -1.7135 -10.9021 0.0000 36.2749 0.0000
# 6 0.0000 0.0000 0.0000 -3.2896 0.0000 17.3501
#
#
#
# Elastic Compliance Matrix: (Units=1/GPa)
#
#
# Indices 1 2 3 4 5 6 
#
# 1 0.012329 -0.004435 -0.003300 0.000000 0.002545 0.000000
# 2 -0.004435 0.010797 -0.001882 0.000000 -0.001403 0.000000
# 3 -0.003300 -0.001882 0.011273 0.000000 0.002296 0.000000
# 4 0.000000 0.000000 0.000000 0.047115 0.000000 0.008933
# 5 0.002545 -0.001403 0.002296 0.000000 0.028965 0.000000
# 6 0.000000 0.000000 0.000000 0.008933 0.000000 0.059330
#
#
# Mechanical properties :
#
#
# Convention : Reuss Voigt Hill
#
# Bulk Modulus (GPa) = 65.94180 68.19303 67.06742
# Shear Modulus (GPa) = 25.76040 29.16150 27.46095
#
# Velocity S-wave (km/s) = 3.52064 3.74585 3.63499
# Velocity P-wave (km/s) = 6.94659 7.17777 7.06313
#
# Compressibility (1/GPa) = 0.01516489
#
# Stress axis : x y z
#
# Youngs Moduli (GPa) = 81.11004 92.62127 88.70855
#
# Poissons Ratio (x) = 0.41073 0.29273
# Poissons Ratio (y) = 0.35968 0.16698
# Poissons Ratio (z) = 0.26765 0.17435
#
# Static dielectric constant tensor:
#      x y z
#    x 3.696250 0.000000 -0.242670 
#    y 0.000000 3.683910 0.000000 
#    z -0.242670 0.000000 3.835970 
# 
# 
# High freq. dielectric constant tensor:
#      x y z
#    x 1.800730 0.000000 -0.018800 
#    y 0.000000 1.808390 0.000000 
#    z -0.018800 0.000000 1.819570 
# 
# From -- ./inp_files/30420.got.cif
#   From: 2010.06.25/outbox.cif.g09.slc.cpg/sg10_16_cif.got.tgz:30420.got - 2010.06.27 22:07:45.
