data_PCOD8064007
_publ_section_title
;
Structure prediction by ZEFSAII (Michael W. Deem and Ramdas Pophale) SiO2 
 PCOD8064007
Probable space group: P 2/M
;
_chemical_formula_sum "Si O2"
_cell_formula_units_Z 32
_cell_length_a 19.357084
_cell_length_b 9.482687
_cell_length_c 27.108094
_cell_angle_alpha 90.000000
_cell_angle_beta 159.184621
_cell_angle_gamma 90.000000
_cell_volume 1768.219891
_symmetry_space_group_name_H-M "P 2/M"
_symmetry_group_IT_number 10
_symmetry_cell_setting 'monoclinic'
loop_
_space_group_symop_operation_xyz
x,y,z
-x,y,-z
-x,-y,-z
x,-y,z
loop_
_atom_site_type_symbol
_atom_site_label
_atom_site_fract_x
_atom_site_fract_y
_atom_site_fract_z
Si Si1 0.930983 0.333479 0.876589
Si Si2 0.534502 0.164692 0.869739
Si Si3 0.016665 0.837645 0.843387
Si Si4 0.613726 0.167019 0.030305
Si Si5 0.044621 0.164256 0.308715
Si Si6 0.706129 0.333873 0.820334
Si Si7 0.185855 0.335298 0.592218
Si Si8 0.271498 0.664507 0.539966
O O1 0.933608 0.500000 0.868832
O O2 0.759121 0.288847 0.799596
O O3 0.896717 0.256173 0.801887
O O4 0.134736 0.275421 0.035037
O O5 0.381352 0.254659 0.736974
O O6 0.494795 0.000000 0.833684
O O7 0.755602 0.205020 0.003855
O O8 0.502784 0.205219 0.905909
O O9 0.917228 0.811438 0.723857
O O10 0.996394 0.000000 0.844734
O O11 0.831239 0.225956 0.177338
O O12 0.628047 0.000000 0.044389
O O13 0.500000 0.236149 0.000000
O O14 0.189932 0.251195 0.439362
O O15 0.063971 0.000000 0.335237
O O16 0.722965 0.500000 0.834429
O O17 0.493360 0.281393 0.694161
O O18 0.221183 0.500000 0.625820
O O19 0.153627 0.306581 0.512199
O O20 0.000000 0.281489 0.500000
O O21 0.266841 0.500000 0.523389
#
# Coordination Sequence:
#
# PCOD8064007 Si02
#       8
#     4   4   4   4   4   4   4   4
#     4   9  16  30  55  79  98 126 170 209 242 294
#     4   9  18  32  51  74  96 124 166 205 239 291
#     4   9  18  33  50  74 106 130 156 206 260 293
#     4   8  15  29  50  72  93 120 159 209 251 277
#     4   9  19  34  51  72  98 131 168 206 247 294
#     4   8  16  31  51  77 102 128 166 210 246 285
#     4  10  22  36  49  71 104 135 160 199 255 301
#     4  10  20  35  52  69 100 138 166 199 249 299
#
# _framework density 18.097297000000001
#
# number of rings (size 3 to 8) (size 9 to 14) (size 15 to 20)
#    0.000    3.000    0.000    3.000    1.750    2.750 
#    0.000    5.000    0.000    4.500    0.000    0.000 
#    0.000    0.000    0.000    0.000    0.000    0.000 
#
# Total GULP energy -396627.047849 kJ/mol
# GULP energy per Si atom -12394.595245 kJ/mol
# Density = 1.805611 g / cm^3
# Si number density = 18.097297 Si / 1000 Ang^3
#
#
#
# Elastic Constant Matrix: (Units=GPa)
#
#
# Indices 1 2 3 4 5 6 
#
# 1 122.1954 34.6703 26.8113 0.0000 -6.0697 0.0000
# 2 34.6703 41.5878 27.6911 0.0000 -7.4054 0.0000
# 3 26.8113 27.6911 69.1759 0.0000 -7.1862 0.0000
# 4 0.0000 0.0000 0.0000 26.4061 0.0000 -8.9547
# 5 -6.0697 -7.4054 -7.1862 0.0000 23.0570 0.0000
# 6 0.0000 0.0000 0.0000 -8.9547 0.0000 23.5599
#
#
#
# Elastic Compliance Matrix: (Units=1/GPa)
#
#
# Indices 1 2 3 4 5 6 
#
# 1 0.010751 -0.008457 -0.000796 0.000000 -0.000134 0.000000
# 2 -0.008457 0.040455 -0.012193 0.000000 0.006967 0.000000
# 3 -0.000796 -0.012193 0.019859 0.000000 0.002064 0.000000
# 4 0.000000 0.000000 0.000000 0.043473 0.000000 0.016524
# 5 -0.000134 0.006967 0.002064 0.000000 0.046216 0.000000
# 6 0.000000 0.000000 0.000000 0.016524 0.000000 0.048725
#
#
# Mechanical properties :
#
#
# Convention : Reuss Voigt Hill
#
# Bulk Modulus (GPa) = 35.49233 45.70050 40.59642
# Shear Modulus (GPa) = 19.10135 24.19034 21.64585
#
# Velocity S-wave (km/s) = 3.25234 3.66003 3.46219
# Velocity P-wave (km/s) = 5.81018 6.57028 6.20189
#
# Compressibility (1/GPa) = 0.02817510
#
# Stress axis : x y z
#
# Youngs Moduli (GPa) = 93.01498 24.71910 50.35417
#
# Poissons Ratio (x) = 0.20905 0.04006
# Poissons Ratio (y) = 0.78661 0.61394
# Poissons Ratio (z) = 0.07399 0.30139
#
# Static dielectric constant tensor:
#      x y z
#    x 3.646520 0.000000 0.091340 
#    y 0.000000 2.975310 0.000000 
#    z 0.091340 0.000000 3.264150 
# 
# 
# High freq. dielectric constant tensor:
#      x y z
#    x 1.714310 0.000000 -0.005470 
#    y 0.000000 1.669400 0.000000 
#    z -0.005470 0.000000 1.685780 
# 
# From -- ./inp_files/86958.got.cif
#   From: 2010.06.25/outbox.cif.g09.slc.cpg/sg10_44_cif.got.tgz:86958.got - 2010.06.27 22:07:45.
