data_PCOD8064497
_publ_section_title
;
Structure prediction by ZEFSAII (Michael W. Deem and Ramdas Pophale) SiO2 
 PCOD8064497
Probable space group: P 2/M
;
_chemical_formula_sum "Si O2"
_cell_formula_units_Z 32
_cell_length_a 17.453977
_cell_length_b 14.236366
_cell_length_c 11.319426
_cell_angle_alpha 90.000000
_cell_angle_beta 147.757908
_cell_angle_gamma 90.000000
_cell_volume 1500.550333
_symmetry_space_group_name_H-M "P 2/M"
_symmetry_group_IT_number 10
_symmetry_cell_setting 'monoclinic'
loop_
_space_group_symop_operation_xyz
x,y,z
-x,y,-z
-x,-y,-z
x,-y,z
loop_
_atom_site_type_symbol
_atom_site_label
_atom_site_fract_x
_atom_site_fract_y
_atom_site_fract_z
Si Si1 0.237004 0.274002 0.620452
Si Si2 0.318202 0.104173 0.412461
Si Si3 0.712377 0.722594 0.047288
Si Si4 0.850794 0.607839 0.857728
Si Si5 0.402222 0.706567 0.608953
Si Si6 0.899563 0.105442 0.679308
Si Si7 0.949356 0.392170 0.246322
Si Si8 0.783685 0.892217 0.973255
O O1 0.310035 0.263713 0.842627
O O2 0.350339 0.315317 0.673979
O O3 0.194800 0.169418 0.528946
O O4 0.101899 0.343002 0.439961
O O5 0.417043 0.181721 0.603301
O O6 0.157102 0.113427 0.258888
O O7 0.380054 0.000000 0.521705
O O8 0.321245 0.119168 0.275481
O O9 0.848789 0.654456 0.213640
O O10 0.741281 0.822781 0.023195
O O11 0.566837 0.671851 0.808633
O O12 0.834952 0.500000 0.796090
O O13 0.709763 0.662516 0.630032
O O14 0.858822 0.618911 0.008061
O O15 0.000000 0.649553 0.000000
O O16 0.063302 0.138004 0.881400
O O17 0.882352 0.000000 0.609278
O O18 0.976425 0.500000 0.314062
O O19 0.782793 0.000000 0.018580
#
# Coordination Sequence:
#
# PCOD8064497 Si02
#       8
#     4   4   4   4   4   4   4   4
#     4  11  23  42  64  85 123 171 215 250 291 363
#     4   9  19  35  58  89 125 162 206 255 309 368
#     4  12  26  41  56  93 132 166 208 248 301 367
#     4  10  21  41  69  96 118 146 199 258 311 371
#     4  11  24  40  66  91 124 166 204 253 310 364
#     4   9  18  34  59  91 120 159 212 263 304 350
#     4  11  24  43  68  94 121 156 200 257 316 365
#     4  10  20  35  59  91 128 165 203 256 314 361
#
# _framework density 21.325510000000001
#
# number of rings (size 3 to 8) (size 9 to 14) (size 15 to 20)
#    0.000    1.625    2.500    1.875    0.000    6.000 
#    0.000    3.750    0.000    6.000    0.000    0.000 
#    0.000    0.000    0.000    0.000    0.000    0.000 
#
# Total GULP energy -396707.016839 kJ/mol
# GULP energy per Si atom -12397.094276 kJ/mol
# Density = 2.127697 g / cm^3
# Si number density = 21.325510 Si / 1000 Ang^3
#
#
#
# Elastic Constant Matrix: (Units=GPa)
#
#
# Indices 1 2 3 4 5 6 
#
# 1 59.5473 26.9891 12.4442 0.0000 -11.0047 0.0000
# 2 26.9891 84.7046 29.6649 0.0000 2.8837 0.0000
# 3 12.4442 29.6649 66.5298 0.0000 3.2651 0.0000
# 4 0.0000 0.0000 0.0000 11.2393 0.0000 -4.7056
# 5 -11.0047 2.8837 3.2651 0.0000 37.0903 0.0000
# 6 0.0000 0.0000 0.0000 -4.7056 0.0000 18.8462
#
#
#
# Elastic Compliance Matrix: (Units=1/GPa)
#
#
# Indices 1 2 3 4 5 6 
#
# 1 0.021341 -0.006541 -0.001417 0.000000 0.006965 0.000000
# 2 -0.006541 0.016006 -0.005782 0.000000 -0.002676 0.000000
# 3 -0.001417 -0.005782 0.017950 0.000000 -0.001551 0.000000
# 4 0.000000 0.000000 0.000000 0.099360 0.000000 0.024808
# 5 0.006965 -0.002676 -0.001551 0.000000 0.029372 0.000000
# 6 0.000000 0.000000 0.000000 0.024808 0.000000 0.059255
#
#
# Mechanical properties :
#
#
# Convention : Reuss Voigt Hill
#
# Bulk Modulus (GPa) = 35.94879 38.77534 37.36207
# Shear Modulus (GPa) = 17.85474 22.88073 20.36773
#
# Velocity S-wave (km/s) = 2.89666 3.27911 3.09380
# Velocity P-wave (km/s) = 5.29918 5.70604 5.50637
#
# Compressibility (1/GPa) = 0.02781735
#
# Stress axis : x y z
#
# Youngs Moduli (GPa) = 46.85765 62.47722 55.70951
#
# Poissons Ratio (x) = 0.40864 0.07895
# Poissons Ratio (y) = 0.30648 0.32212
# Poissons Ratio (z) = 0.06641 0.36125
#
# Static dielectric constant tensor:
#      x y z
#    x 3.942560 0.000000 0.066150 
#    y 0.000000 3.905200 0.000000 
#    z 0.066150 0.000000 3.564420 
# 
# 
# High freq. dielectric constant tensor:
#      x y z
#    x 1.841570 0.000000 0.006390 
#    y 0.000000 1.835080 0.000000 
#    z 0.006390 0.000000 1.819370 
# 
# From -- ./inp_files/54064.got.cif
#   From: 2010.06.25/outbox.cif.g09.slc.cpg/sg10_28_cif.got.tgz:54064.got - 2010.06.27 22:07:45.
