data_PCOD8064039
_publ_section_title
;
Structure prediction by ZEFSAII (Michael W. Deem and Ramdas Pophale) SiO2 
 PCOD8064039
Probable space group: P 2/M
;
_chemical_formula_sum "Si O2"
_cell_formula_units_Z 32
_cell_length_a 19.914701
_cell_length_b 9.000968
_cell_length_c 28.680174
_cell_angle_alpha 90.000000
_cell_angle_beta 159.813687
_cell_angle_gamma 90.000000
_cell_volume 1774.013934
_symmetry_space_group_name_H-M "P 2/M"
_symmetry_group_IT_number 10
_symmetry_cell_setting 'monoclinic'
loop_
_space_group_symop_operation_xyz
x,y,z
-x,y,-z
-x,-y,-z
x,-y,z
loop_
_atom_site_type_symbol
_atom_site_label
_atom_site_fract_x
_atom_site_fract_y
_atom_site_fract_z
Si Si1 0.552582 0.325537 0.815554
Si Si2 0.930720 0.825133 0.646266
Si Si3 0.985245 0.672618 0.104329
Si Si4 0.674121 0.824686 0.145674
Si Si5 0.181161 0.174260 0.150868
Si Si6 0.062451 0.669574 0.820825
Si Si7 0.563266 0.675289 0.360428
Si Si8 0.512756 0.326925 0.126449
O O1 0.582254 0.500000 0.841972
O O2 0.426114 0.285077 0.687853
O O3 0.449170 0.268178 0.795684
O O4 0.771043 0.261888 0.952720
O O5 0.749239 0.744441 0.505461
O O6 0.122143 0.773111 0.743237
O O7 0.949347 0.777731 0.712151
O O8 0.898473 0.000000 0.622512
O O9 0.004595 0.500000 0.102716
O O10 0.139701 0.768898 0.176102
O O11 0.027583 0.694637 0.186681
O O12 0.657423 0.759695 0.186658
O O13 0.659729 0.000000 0.139688
O O14 0.500000 0.761290 0.000000
O O15 0.369548 0.257815 0.255537
O O16 0.223233 0.000000 0.178994
O O17 0.000000 0.216165 0.000000
O O18 0.030967 0.500000 0.784357
O O19 0.290217 0.709009 0.968536
O O20 0.560707 0.500000 0.366748
O O21 0.559409 0.500000 0.151905
#
# Coordination Sequence:
#
# PCOD8064039 Si02
#       8
#     4   4   4   4   4   4   4   4
#     4   8  16  32  54  81 109 139 176 224 275 317
#     4  11  23  38  55  77 114 150 181 225 275 330
#     4   9  17  33  57  83 110 140 180 228 272 318
#     4  10  20  35  53  78 110 146 184 221 270 329
#     4  11  22  35  54  85 118 144 180 225 268 321
#     4   9  18  33  55  83 111 140 180 227 274 323
#     4  11  22  38  60  80 108 148 188 224 270 329
#     4   9  17  31  55  84 109 134 177 233 273 311
#
# _framework density 18.038191000000001
#
# number of rings (size 3 to 8) (size 9 to 14) (size 15 to 20)
#    0.000    2.250    2.500    2.625    0.000    2.250 
#    0.000    4.375    0.000    7.500    0.000    0.000 
#    0.000    0.000    0.000    0.000    0.000    0.000 
#
# Total GULP energy -396793.554324 kJ/mol
# GULP energy per Si atom -12399.798573 kJ/mol
# Density = 1.799713 g / cm^3
# Si number density = 18.038191 Si / 1000 Ang^3
#
#
#
# Elastic Constant Matrix: (Units=GPa)
#
#
# Indices 1 2 3 4 5 6 
#
# 1 129.9554 50.9022 59.4184 0.0000 -7.0933 0.0000
# 2 50.9022 62.9061 50.9652 0.0000 -1.6184 0.0000
# 3 59.4184 50.9652 106.7425 0.0000 -2.7205 0.0000
# 4 0.0000 0.0000 0.0000 13.2966 0.0000 4.2791
# 5 -7.0933 -1.6184 -2.7205 0.0000 20.9263 0.0000
# 6 0.0000 0.0000 0.0000 4.2791 0.0000 19.9193
#
#
#
# Elastic Compliance Matrix: (Units=1/GPa)
#
#
# Indices 1 2 3 4 5 6 
#
# 1 0.012147 -0.007070 -0.003306 0.000000 0.003141 0.000000
# 2 -0.007070 0.030043 -0.010446 0.000000 -0.001431 0.000000
# 3 -0.003306 -0.010446 0.016201 0.000000 0.000178 0.000000
# 4 0.000000 0.000000 0.000000 0.080793 0.000000 -0.017356
# 5 0.003141 -0.001431 0.000178 0.000000 0.048764 0.000000
# 6 0.000000 0.000000 0.000000 -0.017356 0.000000 0.053931
#
#
# Mechanical properties :
#
#
# Convention : Reuss Voigt Hill
#
# Bulk Modulus (GPa) = 59.70825 69.13063 64.41944
# Shear Modulus (GPa) = 17.29478 20.04965 18.67221
#
# Velocity S-wave (km/s) = 3.09979 3.33755 3.22086
# Velocity P-wave (km/s) = 6.78118 7.29795 7.04431
#
# Compressibility (1/GPa) = 0.01674810
#
# Stress axis : x y z
#
# Youngs Moduli (GPa) = 82.32333 33.28519 61.72630
#
# Poissons Ratio (x) = 0.23532 0.20408
# Poissons Ratio (y) = 0.58202 0.64476
# Poissons Ratio (z) = 0.27217 0.34768
#
# Static dielectric constant tensor:
#      x y z
#    x 3.529800 0.000000 -0.095920 
#    y 0.000000 3.169190 0.000000 
#    z -0.095920 0.000000 3.191660 
# 
# 
# High freq. dielectric constant tensor:
#      x y z
#    x 1.713700 0.000000 -0.006310 
#    y 0.000000 1.687570 0.000000 
#    z -0.006310 0.000000 1.673120 
# 
# From -- ./inp_files/95670.got.cif
#   From: 2010.06.25/outbox.cif.g09.slc.cpg/sg10_48_cif.got.tgz:95670.got - 2010.06.27 22:07:45.
