data_PCOD8064179
_publ_section_title
;
Structure prediction by ZEFSAII (Michael W. Deem and Ramdas Pophale) SiO2 
 PCOD8064179
Probable space group: P 2/M
;
_chemical_formula_sum "Si O2"
_cell_formula_units_Z 32
_cell_length_a 12.470114
_cell_length_b 14.136946
_cell_length_c 18.939777
_cell_angle_alpha 90.000000
_cell_angle_beta 29.045441
_cell_angle_gamma 90.000000
_cell_volume 1621.036945
_symmetry_space_group_name_H-M "P 2/M"
_symmetry_group_IT_number 10
_symmetry_cell_setting 'monoclinic'
loop_
_space_group_symop_operation_xyz
x,y,z
-x,y,-z
-x,-y,-z
x,-y,z
loop_
_atom_site_type_symbol
_atom_site_label
_atom_site_fract_x
_atom_site_fract_y
_atom_site_fract_z
Si Si1 0.531058 0.605200 0.219426
Si Si2 0.910516 0.111162 0.209966
Si Si3 0.656458 0.792870 0.848231
Si Si4 0.764107 0.604785 0.482898
Si Si5 0.234428 0.398976 0.262086
Si Si6 0.852333 0.803255 0.391203
Si Si7 0.344186 0.801514 0.902320
Si Si8 0.453057 0.890397 0.694600
O O1 0.643800 0.500000 0.146789
O O2 0.456253 0.620576 0.343568
O O3 0.312899 0.610502 0.297279
O O4 0.687397 0.691759 0.104398
O O5 0.812858 0.139790 0.342055
O O6 0.732480 0.140614 0.254283
O O7 0.964054 0.000000 0.177030
O O8 0.130272 0.171409 0.070426
O O9 0.656785 0.678935 0.851466
O O10 0.558665 0.821687 0.828050
O O11 0.906133 0.828667 0.716306
O O12 0.500000 0.833204 0.000000
O O13 0.753346 0.500000 0.451991
O O14 0.803036 0.690973 0.405168
O O15 0.970466 0.609609 0.417410
O O16 0.306861 0.500000 0.188073
O O17 0.679751 0.835705 0.549861
O O18 0.364121 0.868496 0.823490
O O19 0.503947 0.000000 0.658257
#
# Coordination Sequence:
#
# PCOD8064179 Si02
#       8
#     4   4   4   4   4   4   4   4
#     4   9  16  29  52  84 122 159 194 236 287 346
#     4  11  24  43  66  86 115 155 201 257 309 349
#     4  10  20  35  55  85 128 163 184 225 303 377
#     4   9  16  29  52  84 122 159 194 236 287 346
#     4   8  15  25  46  79 114 157 202 237 274 330
#     4  11  21  39  63  91 123 158 196 244 297 359
#     4  11  21  39  63  91 123 158 196 244 297 359
#     4  11  24  43  66  90 109 145 211 267 297 337
#
# _framework density 19.740451
#
# number of rings (size 3 to 8) (size 9 to 14) (size 15 to 20)
#    0.000    2.000    2.500    1.875    0.000    4.250 
#    0.000    4.375    0.000    4.500    0.000    0.000 
#    0.000    0.000    0.000    0.000    0.000    0.000 
#
# Total GULP energy -396571.840246 kJ/mol
# GULP energy per Si atom -12392.870008 kJ/mol
# Density = 1.969552 g / cm^3
# Si number density = 19.740451 Si / 1000 Ang^3
#
#
#
# Elastic Constant Matrix: (Units=GPa)
#
#
# Indices 1 2 3 4 5 6 
#
# 1 78.4881 28.0688 7.2691 0.0000 1.2081 0.0000
# 2 28.0688 82.6728 23.6469 0.0000 -10.0128 0.0000
# 3 7.2691 23.6469 56.5650 0.0000 0.5521 0.0000
# 4 0.0000 0.0000 0.0000 17.4871 0.0000 14.0316
# 5 1.2081 -10.0128 0.5521 0.0000 22.6719 0.0000
# 6 0.0000 0.0000 0.0000 14.0316 0.0000 15.1463
#
#
#
# Elastic Compliance Matrix: (Units=1/GPa)
#
#
# Indices 1 2 3 4 5 6 
#
# 1 0.014722 -0.005518 0.000446 0.000000 -0.003232 0.000000
# 2 -0.005518 0.016740 -0.006365 0.000000 0.007842 0.000000
# 3 0.000446 -0.006365 0.020315 0.000000 -0.003330 0.000000
# 4 0.000000 0.000000 0.000000 0.222806 0.000000 -0.206408
# 5 -0.003232 0.007842 -0.003330 0.000000 0.047824 0.000000
# 6 0.000000 0.000000 0.000000 -0.206408 0.000000 0.257240
#
#
# Mechanical properties :
#
#
# Convention : Reuss Voigt Hill
#
# Bulk Modulus (GPa) = 34.59801 37.29947 35.94874
# Shear Modulus (GPa) = 8.16787 21.64382 14.90584
#
# Velocity S-wave (km/s) = 2.03632 3.31482 2.75087
# Velocity P-wave (km/s) = 4.80555 5.79540 5.32353
#
# Compressibility (1/GPa) = 0.02890340
#
# Stress axis : x y z
#
# Youngs Moduli (GPa) = 67.92374 59.73843 49.22470
#
# Poissons Ratio (x) = 0.32961 -0.02196
# Poissons Ratio (y) = 0.37477 0.31334
# Poissons Ratio (z) = -0.03031 0.38026
#
# Static dielectric constant tensor:
#      x y z
#    x 3.411660 0.000000 -0.039930 
#    y 0.000000 3.810620 0.000000 
#    z -0.039930 0.000000 3.316410 
# 
# 
# High freq. dielectric constant tensor:
#      x y z
#    x 1.748560 0.000000 0.001570 
#    y 0.000000 1.777340 0.000000 
#    z 0.001570 0.000000 1.754120 
# 
# From -- ./inp_files/54050.got.cif
#   From: 2010.06.25/outbox.cif.g09.slc.cpg/sg10_28_cif.got.tgz:54050.got - 2010.06.27 22:07:45.
