data_PCOD8064571
_publ_section_title
;
Structure prediction by ZEFSAII (Michael W. Deem and Ramdas Pophale) SiO2 
 PCOD8064571
Probable space group: P 2/M
;
_chemical_formula_sum "Si O2"
_cell_formula_units_Z 32
_cell_length_a 12.010422
_cell_length_b 14.778885
_cell_length_c 17.564575
_cell_angle_alpha 90.000000
_cell_angle_beta 30.200018
_cell_angle_gamma 90.000000
_cell_volume 1568.277905
_symmetry_space_group_name_H-M "P 2/M"
_symmetry_group_IT_number 10
_symmetry_cell_setting 'monoclinic'
loop_
_space_group_symop_operation_xyz
x,y,z
-x,y,-z
-x,-y,-z
x,-y,z
loop_
_atom_site_type_symbol
_atom_site_label
_atom_site_fract_x
_atom_site_fract_y
_atom_site_fract_z
Si Si1 0.940138 0.393464 0.195093
Si Si2 0.397404 0.601896 0.142091
Si Si3 0.489190 0.900821 0.785095
Si Si4 0.903854 0.183435 0.473250
Si Si5 0.082532 0.357648 0.622279
Si Si6 0.338010 0.294476 0.889204
Si Si7 0.450075 0.403191 0.680015
Si Si8 0.321364 0.098844 0.160912
O O1 0.002313 0.500000 0.164870
O O2 0.977542 0.344406 0.253715
O O3 0.693143 0.377238 0.310023
O O4 0.102319 0.340331 0.042111
O O5 0.467636 0.500000 0.125602
O O6 0.485620 0.676337 0.149682
O O7 0.131259 0.605177 0.296059
O O8 0.500000 0.625967 0.000000
O O9 0.693344 0.882755 0.606288
O O10 0.320899 0.815183 0.889535
O O11 0.585632 0.911953 0.810875
O O12 0.382343 0.000000 0.825715
O O13 0.821751 0.271448 0.478313
O O14 0.000000 0.205664 0.500000
O O15 0.087226 0.148151 0.305241
O O16 0.295992 0.422317 0.494448
O O17 0.430651 0.327555 0.754727
O O18 0.359847 0.500000 0.764519
O O19 0.276700 0.000000 0.150970
O O20 0.500000 0.149986 0.000000
#
# Coordination Sequence:
#
# PCOD8064571 Si02
#       8
#     4   4   4   4   4   4   4   4
#     4  11  24  43  65  89 124 166 208 256 306 358
#     4  11  22  36  57  90 135 173 196 234 305 380
#     4  10  21  38  58  84 121 161 203 256 313 368
#     4  10  20  36  55  85 125 167 203 242 309 371
#     4  12  23  37  62  92 126 166 203 246 302 368
#     4  12  23  40  64  94 123 163 210 252 307 373
#     4  11  24  42  64  90 121 162 215 260 293 352
#     4   9  18  31  54  86 118 156 203 249 299 366
#
# _framework density 20.404547000000001
#
# number of rings (size 3 to 8) (size 9 to 14) (size 15 to 20)
#    0.000    1.250    2.500    4.875    1.750    4.500 
#    0.000    1.250    0.000    1.500    0.000    0.875 
#    0.000    0.000    0.000    0.000    0.000    0.000 
#
# Total GULP energy -396497.224900 kJ/mol
# GULP energy per Si atom -12390.538278 kJ/mol
# Density = 2.035811 g / cm^3
# Si number density = 20.404547 Si / 1000 Ang^3
#
#
#
# Elastic Constant Matrix: (Units=GPa)
#
#
# Indices 1 2 3 4 5 6 
#
# 1 64.4169 30.2297 20.7507 0.0000 -8.3735 0.0000
# 2 30.2297 126.0690 35.4199 0.0000 5.0959 0.0000
# 3 20.7507 35.4199 110.5077 0.0000 -2.2627 0.0000
# 4 0.0000 0.0000 0.0000 44.6218 0.0000 -0.4133
# 5 -8.3735 5.0959 -2.2627 0.0000 34.2707 0.0000
# 6 0.0000 0.0000 0.0000 -0.4133 0.0000 10.3290
#
#
#
# Elastic Compliance Matrix: (Units=1/GPa)
#
#
# Indices 1 2 3 4 5 6 
#
# 1 0.018794 -0.004120 -0.002105 0.000000 0.005066 0.000000
# 2 -0.004120 0.009696 -0.002388 0.000000 -0.002606 0.000000
# 3 -0.002105 -0.002388 0.010220 0.000000 0.000516 0.000000
# 4 0.000000 0.000000 0.000000 0.022419 0.000000 0.000897
# 5 0.005066 -0.002606 0.000516 0.000000 0.030839 0.000000
# 6 0.000000 0.000000 0.000000 0.000897 0.000000 0.096851
#
#
# Mechanical properties :
#
#
# Convention : Reuss Voigt Hill
#
# Bulk Modulus (GPa) = 46.54271 52.64381 49.59326
# Shear Modulus (GPa) = 23.45163 32.15053 27.80108
#
# Velocity S-wave (km/s) = 3.39386 3.97376 3.69520
# Velocity P-wave (km/s) = 6.18201 6.84912 6.52409
#
# Compressibility (1/GPa) = 0.02148564
#
# Stress axis : x y z
#
# Youngs Moduli (GPa) = 53.20918 103.13314 97.84549
#
# Poissons Ratio (x) = 0.42490 0.20594
# Poissons Ratio (y) = 0.21922 0.23361
# Poissons Ratio (z) = 0.11199 0.24624
#
# Static dielectric constant tensor:
#      x y z
#    x 3.458360 0.000000 0.023800 
#    y 0.000000 4.012050 0.000000 
#    z 0.023800 0.000000 3.858580 
# 
# 
# High freq. dielectric constant tensor:
#      x y z
#    x 1.765980 0.000000 0.010680 
#    y 0.000000 1.795050 0.000000 
#    z 0.010680 0.000000 1.810340 
# 
# From -- ./inp_files/76967.got.cif
#   From: 2010.06.25/outbox.cif.g09.slc.cpg/sg10_39_cif.got.tgz:76967.got - 2010.06.27 22:07:45.
