data_PCOD8064367
_publ_section_title
;
Structure prediction by ZEFSAII (Michael W. Deem and Ramdas Pophale) SiO2 
 PCOD8064367
Probable space group: P 2/M
;
_chemical_formula_sum "Si O2"
_cell_formula_units_Z 20
_cell_length_a 11.881181
_cell_length_b 13.328546
_cell_length_c 7.826946
_cell_angle_alpha 90.000000
_cell_angle_beta 133.606776
_cell_angle_gamma 90.000000
_cell_volume 897.485528
_symmetry_space_group_name_H-M "P 2/M"
_symmetry_group_IT_number 10
_symmetry_cell_setting 'monoclinic'
loop_
_space_group_symop_operation_xyz
x,y,z
-x,y,-z
-x,-y,-z
x,-y,z
loop_
_atom_site_type_symbol
_atom_site_label
_atom_site_fract_x
_atom_site_fract_y
_atom_site_fract_z
Si Si1 0.593292 0.388093 0.443878
Si Si2 0.323502 0.116080 0.370050
Si Si3 0.307727 0.613840 0.925150
Si Si4 0.199853 0.248364 0.511140
Si Si5 0.108979 0.270377 0.961904
O O1 0.500000 0.334911 0.500000
O O2 0.635158 0.500000 0.541941
O O3 0.753408 0.329618 0.587944
O O4 0.491983 0.384360 0.161764
O O5 0.500000 0.136776 0.500000
O O6 0.290618 0.149443 0.535042
O O7 0.281408 0.000000 0.311256
O O8 0.210244 0.173843 0.120456
O O9 0.262969 0.500000 0.814230
O O10 0.262895 0.705490 0.753408
O O11 0.214289 0.637852 0.002440
O O12 0.013410 0.235507 0.316553
O O13 0.000000 0.308929 0.000000
#
# Coordination Sequence:
#
# PCOD8064367 Si02
#       5
#     4   4   4   4   4
#     4  10  20  35  57  84 118 164 210 248 292 353
#     4  10  22  43  69  91 115 154 204 257 310 366
#     4  11  23  38  58  89 130 170 205 247 300 359
#     4  11  21  35  58  88 124 158 197 249 306 361
#     4  10  22  38  60  88 120 161 206 252 302 359
#
# _framework density 22.284482000000001
#
# number of rings (size 3 to 8) (size 9 to 14) (size 15 to 20)
#    0.000    1.600    0.000    6.000    0.000    8.000 
#    0.000    4.000    0.000   10.800    0.000    0.000 
#    0.000    0.000    0.000    0.000    0.000    0.000 
#
# Total GULP energy -247782.744657 kJ/mol
# GULP energy per Si atom -12389.137233 kJ/mol
# Density = 2.223376 g / cm^3
# Si number density = 22.284482 Si / 1000 Ang^3
#
#
#
# Elastic Constant Matrix: (Units=GPa)
#
#
# Indices 1 2 3 4 5 6 
#
# 1 48.4383 34.9007 20.8377 0.0000 16.9893 0.0000
# 2 34.9007 126.3711 56.8304 0.0000 9.4244 0.0000
# 3 20.8377 56.8304 107.7818 0.0000 15.8158 0.0000
# 4 0.0000 0.0000 0.0000 19.6241 0.0000 -36.1691
# 5 16.9893 9.4244 15.8158 0.0000 39.4688 0.0000
# 6 0.0000 0.0000 0.0000 -36.1691 0.0000 -30.7802
#
#
#
# Elastic Compliance Matrix: (Units=1/GPa)
#
#
# Indices 1 2 3 4 5 6 
#
# 1 0.029894 -0.007291 -0.000321 0.000000 -0.010998 0.000000
# 2 -0.007291 0.012155 -0.005348 0.000000 0.002379 0.000000
# 3 -0.000321 -0.005348 0.012699 0.000000 -0.003673 0.000000
# 4 0.000000 0.000000 0.000000 0.016096 0.000000 -0.018915
# 5 -0.010998 0.002379 -0.003673 0.000000 0.030974 0.000000
# 6 0.000000 0.000000 0.000000 -0.018915 0.000000 -0.010262
#
#
# Mechanical properties :
#
#
# Convention : Reuss Voigt Hill
#
# Bulk Modulus (GPa) = 34.69061 56.41433 45.55247
# Shear Modulus (GPa) = 39.34322 16.99737 28.17030
#
# Velocity S-wave (km/s) = 4.20634 2.76478 3.55931
# Velocity P-wave (km/s) = 6.26035 5.96343 6.11369
#
# Compressibility (1/GPa) = 0.02882625
#
# Stress axis : x y z
#
# Youngs Moduli (GPa) = 33.45148 82.27296 78.74553
#
# Poissons Ratio (x) = 0.59989 0.02528
# Poissons Ratio (y) = 0.24391 0.42116
# Poissons Ratio (z) = 0.01074 0.44002
#
# Static dielectric constant tensor:
#      x y z
#    x 4.329630 0.000000 0.142920 
#    y 0.000000 3.806130 0.000000 
#    z 0.142920 0.000000 4.205660 
# 
# 
# High freq. dielectric constant tensor:
#      x y z
#    x 1.895220 0.000000 0.007810 
#    y 0.000000 1.849180 0.000000 
#    z 0.007810 0.000000 1.884630 
# 
# From -- ./inp_files/18609.got.cif
#   From: 2010.06.25/outbox.cif.g09.slc.cpg/sg10_10_cif.got.tgz:18609.got - 2010.06.27 22:07:45.
