data_PCOD8064545
_publ_section_title
;
Structure prediction by ZEFSAII (Michael W. Deem and Ramdas Pophale) SiO2 
 PCOD8064545
Probable space group: P 2/M
;
_chemical_formula_sum "Si O2"
_cell_formula_units_Z 28
_cell_length_a 9.566597
_cell_length_b 12.462189
_cell_length_c 15.348315
_cell_angle_alpha 90.000000
_cell_angle_beta 120.193879
_cell_angle_gamma 90.000000
_cell_volume 1581.580741
_symmetry_space_group_name_H-M "P 2/M"
_symmetry_group_IT_number 10
_symmetry_cell_setting 'monoclinic'
loop_
_space_group_symop_operation_xyz
x,y,z
-x,y,-z
-x,-y,-z
x,-y,z
loop_
_atom_site_type_symbol
_atom_site_label
_atom_site_fract_x
_atom_site_fract_y
_atom_site_fract_z
Si Si1 0.274761 0.500000 0.068657
Si Si2 0.170114 0.704976 0.250845
Si Si3 0.124908 0.624803 0.414890
Si Si4 0.437373 0.299826 0.192859
Si Si5 0.019682 0.877892 0.908912
Si Si6 0.385033 0.877480 0.039260
Si Si7 0.988723 0.500000 0.864318
Si Si8 0.767714 0.624124 0.361063
O O1 0.386280 0.395285 0.111761
O O2 0.130859 0.500000 0.092142
O O3 0.180066 0.500000 0.947123
O O4 0.202472 0.702150 0.364907
O O5 0.336930 0.690218 0.251074
O O6 0.084978 0.814180 0.194136
O O7 0.044660 0.607157 0.200113
O O8 0.160248 0.500000 0.405483
O O9 0.209675 0.658103 0.531473
O O10 0.932591 0.644837 0.360482
O O11 0.401899 0.188017 0.133998
O O12 0.626428 0.305051 0.274470
O O13 0.955301 0.000000 0.888538
O O14 0.206711 0.870176 0.942687
O O15 0.000000 0.828086 0.000000
O O16 0.430103 0.000000 0.076726
O O17 0.500000 0.830737 0.000000
O O18 0.716807 0.500000 0.339921
#
# Coordination Sequence:
#
# PCOD8064545 Si02
#       8
#     2   4   4   4   4   4   2   4
#     4   9  18  30  43  71 109 138 164 198 258 310
#     4  11  20  31  53  80 104 138 177 214 261 310
#     4   9  19  36  54  76 103 142 178 213 260 317
#     4  11  20  33  52  79 107 137 173 219 261 307
#     4  10  20  36  54  75 105 142 180 215 251 305
#     4  10  22  38  54  76 106 142 182 216 254 306
#     4   9  18  28  44  70 110 139 161 203 252 310
#     4   9  19  36  54  73 108 141 175 215 261 315
#
# _framework density 17.703807000000001
#
# number of rings (size 3 to 8) (size 9 to 14) (size 15 to 20)
#    0.000    2.143    2.857    1.714    4.000    0.571 
#    0.000    1.786    0.000    0.857    0.000    4.000 
#    0.000    0.000    0.000    0.000    0.000    0.000 
#
# Total GULP energy -347195.783571 kJ/mol
# GULP energy per Si atom -12399.849413 kJ/mol
# Density = 1.766351 g / cm^3
# Si number density = 17.703807 Si / 1000 Ang^3
#
#
#
# Elastic Constant Matrix: (Units=GPa)
#
#
# Indices 1 2 3 4 5 6 
#
# 1 63.0105 12.4645 16.1791 0.0000 -4.1605 0.0000
# 2 12.4645 65.0363 23.1641 0.0000 -1.1780 0.0000
# 3 16.1791 23.1641 55.4021 0.0000 2.5844 0.0000
# 4 0.0000 0.0000 0.0000 18.1448 0.0000 -1.0688
# 5 -4.1605 -1.1780 2.5844 0.0000 35.7294 0.0000
# 6 0.0000 0.0000 0.0000 -1.0688 0.0000 21.1422
#
#
#
# Elastic Compliance Matrix: (Units=1/GPa)
#
#
# Indices 1 2 3 4 5 6 
#
# 1 0.017519 -0.001710 -0.004509 0.000000 0.002310 0.000000
# 2 -0.001710 0.018280 -0.007187 0.000000 0.000923 0.000000
# 3 -0.004509 -0.007187 0.022483 0.000000 -0.002388 0.000000
# 4 0.000000 0.000000 0.000000 0.055277 0.000000 0.002794
# 5 0.002310 0.000923 -0.002388 0.000000 0.028460 0.000000
# 6 0.000000 0.000000 0.000000 0.002794 0.000000 0.047440
#
#
# Mechanical properties :
#
#
# Convention : Reuss Voigt Hill
#
# Bulk Modulus (GPa) = 31.77548 31.89603 31.83576
# Shear Modulus (GPa) = 22.04968 23.77936 22.91452
#
# Velocity S-wave (km/s) = 3.53296 3.66891 3.60158
# Velocity P-wave (km/s) = 5.88471 6.00029 5.94278
#
# Compressibility (1/GPa) = 0.03147081
#
# Stress axis : x y z
#
# Youngs Moduli (GPa) = 57.08133 54.70397 44.47817
#
# Poissons Ratio (x) = 0.09353 0.20055
# Poissons Ratio (y) = 0.09760 0.31966
# Poissons Ratio (z) = 0.25738 0.39315
#
# Static dielectric constant tensor:
#      x y z
#    x 3.264550 0.000000 -0.016780 
#    y 0.000000 3.106030 0.000000 
#    z -0.016780 0.000000 3.214050 
# 
# 
# High freq. dielectric constant tensor:
#      x y z
#    x 1.686180 0.000000 0.000550 
#    y 0.000000 1.662340 0.000000 
#    z 0.000550 0.000000 1.671420 
# 
# From -- ./inp_files/61310.got.cif
#   From: 2010.06.25/outbox.cif.g09.slc.cpg/sg10_31_cif.got.tgz:61310.got - 2010.06.27 22:07:45.
