data_PCOD8064280
_publ_section_title
;
Structure prediction by ZEFSAII (Michael W. Deem and Ramdas Pophale) SiO2 
 PCOD8064280
Probable space group: P 2/M
;
_chemical_formula_sum "Si O2"
_cell_formula_units_Z 32
_cell_length_a 12.574918
_cell_length_b 8.896426
_cell_length_c 14.291927
_cell_angle_alpha 90.000000
_cell_angle_beta 84.893402
_cell_angle_gamma 90.000000
_cell_volume 1592.517815
_symmetry_space_group_name_H-M "P 2/M"
_symmetry_group_IT_number 10
_symmetry_cell_setting 'monoclinic'
loop_
_space_group_symop_operation_xyz
x,y,z
-x,y,-z
-x,-y,-z
x,-y,z
loop_
_atom_site_type_symbol
_atom_site_label
_atom_site_fract_x
_atom_site_fract_y
_atom_site_fract_z
Si Si1 0.967318 0.678606 0.401183
Si Si2 0.859744 0.678415 0.761105
Si Si3 0.501735 0.670234 0.109244
Si Si4 0.751799 0.674152 0.327047
Si Si5 0.640613 0.176261 0.741089
Si Si6 0.109978 0.823474 0.039538
Si Si7 0.257755 0.327737 0.881772
Si Si8 0.530945 0.822119 0.395997
O O1 0.972124 0.500000 0.403203
O O2 0.847358 0.732018 0.386116
O O3 0.000000 0.745306 0.500000
O O4 0.047003 0.737343 0.314629
O O5 0.857209 0.500000 0.768336
O O6 0.750940 0.735909 0.723093
O O7 0.877588 0.742119 0.862889
O O8 0.471549 0.500000 0.140721
O O9 0.414227 0.784238 0.156070
O O10 0.617979 0.713345 0.138294
O O11 0.500000 0.690500 0.000000
O O12 0.725871 0.500000 0.346201
O O13 0.791748 0.699091 0.217083
O O14 0.646412 0.765807 0.357393
O O15 0.560941 0.235038 0.666781
O O16 0.663474 0.000000 0.733495
O O17 0.114038 0.000000 0.057557
O O18 0.204907 0.779163 0.962351
O O19 0.000000 0.772336 0.000000
O O20 0.243125 0.500000 0.916250
O O21 0.500000 0.758822 0.500000
O O22 0.535509 0.000000 0.394761
#
# Coordination Sequence:
#
# PCOD8064280 Si02
#       8
#     4   4   4   4   4   4   4   4
#     4   9  20  38  60  89 120 151 193 249 305 353
#     4  11  23  40  64  90 122 162 202 249 305 360
#     4  10  20  35  56  84 117 153 194 239 292 352
#     4  10  20  37  63  91 118 151 198 252 300 354
#     4  11  23  39  60  87 124 162 201 248 296 358
#     4  11  24  40  60  88 122 161 204 249 297 357
#     4  10  20  35  57  87 119 153 197 246 296 354
#     4  10  23  41  60  86 123 165 201 242 302 364
#
# _framework density 20.093966999999999
#
# number of rings (size 3 to 8) (size 9 to 14) (size 15 to 20)
#    0.000    1.750    1.250    2.625    1.750    5.000 
#    0.000    1.250    0.000    1.875    0.000    0.000 
#    0.000    0.000    0.000    0.000    0.000    0.000 
#
# Total GULP energy -396896.307340 kJ/mol
# GULP energy per Si atom -12403.009604 kJ/mol
# Density = 2.004823 g / cm^3
# Si number density = 20.093967 Si / 1000 Ang^3
#
#
#
# Elastic Constant Matrix: (Units=GPa)
#
#
# Indices 1 2 3 4 5 6 
#
# 1 119.5318 31.8494 63.3171 0.0000 13.8517 0.0000
# 2 31.8494 45.0379 29.2925 0.0000 1.1845 0.0000
# 3 63.3171 29.2925 110.3118 0.0000 5.1392 0.0000
# 4 0.0000 0.0000 0.0000 6.3657 0.0000 -3.2490
# 5 13.8517 1.1845 5.1392 0.0000 37.4568 0.0000
# 6 0.0000 0.0000 0.0000 -3.2490 0.0000 27.6491
#
#
#
# Elastic Compliance Matrix: (Units=1/GPa)
#
#
# Indices 1 2 3 4 5 6 
#
# 1 0.013535 -0.005481 -0.006127 0.000000 -0.003991 0.000000
# 2 -0.005481 0.029059 -0.004652 0.000000 0.001746 0.000000
# 3 -0.006127 -0.004652 0.013793 0.000000 0.000520 0.000000
# 4 0.000000 0.000000 0.000000 0.167116 0.000000 0.019638
# 5 -0.003991 0.001746 0.000520 0.000000 0.028047 0.000000
# 6 0.000000 0.000000 0.000000 0.019638 0.000000 0.038475
#
#
# Mechanical properties :
#
#
# Convention : Reuss Voigt Hill
#
# Bulk Modulus (GPa) = 41.89934 58.19992 50.04963
# Shear Modulus (GPa) = 15.12859 24.32249 19.72554
#
# Velocity S-wave (km/s) = 2.74686 3.48291 3.13655
# Velocity P-wave (km/s) = 5.56393 6.72317 6.17083
#
# Compressibility (1/GPa) = 0.02386672
#
# Stress axis : x y z
#
# Youngs Moduli (GPa) = 73.88490 34.41252 72.50008
#
# Poissons Ratio (x) = 0.18862 0.44422
# Poissons Ratio (y) = 0.40498 0.33725
# Poissons Ratio (z) = 0.45271 0.16008
#
# Static dielectric constant tensor:
#      x y z
#    x 3.457910 0.000000 -0.153150 
#    y 0.000000 3.440200 0.000000 
#    z -0.153150 0.000000 3.508340 
# 
# 
# High freq. dielectric constant tensor:
#      x y z
#    x 1.797130 0.000000 0.007490 
#    y 0.000000 1.764180 0.000000 
#    z 0.007490 0.000000 1.796090 
# 
# From -- ./inp_files/63800.got.cif
#   From: 2010.06.25/outbox.cif.g09.slc.cpg/sg10_32_cif.got.tgz:63800.got - 2010.06.27 22:07:45.
