data_PCOD8064640
_publ_section_title
;
Structure prediction by ZEFSAII (Michael W. Deem and Ramdas Pophale) SiO2 
 PCOD8064640
Probable space group: P 2/M
;
_chemical_formula_sum "Si O2"
_cell_formula_units_Z 32
_cell_length_a 11.196210
_cell_length_b 8.955963
_cell_length_c 15.344837
_cell_angle_alpha 90.000000
_cell_angle_beta 94.530448
_cell_angle_gamma 90.000000
_cell_volume 1533.862845
_symmetry_space_group_name_H-M "P 2/M"
_symmetry_group_IT_number 10
_symmetry_cell_setting 'monoclinic'
loop_
_space_group_symop_operation_xyz
x,y,z
-x,y,-z
-x,-y,-z
x,-y,z
loop_
_atom_site_type_symbol
_atom_site_label
_atom_site_fract_x
_atom_site_fract_y
_atom_site_fract_z
Si Si1 0.019865 0.834534 0.099071
Si Si2 0.636087 0.822309 0.478064
Si Si3 0.370480 0.325862 0.025405
Si Si4 0.617441 0.824082 0.283983
Si Si5 0.114709 0.325795 0.449250
Si Si6 0.366840 0.823750 0.204893
Si Si7 0.847500 0.672400 0.741590
Si Si8 0.243615 0.835718 0.870924
O O1 0.090998 0.723092 0.164929
O O2 0.896412 0.854161 0.141387
O O3 0.081997 0.000000 0.096320
O O4 0.000000 0.769925 0.000000
O O5 0.500000 0.773153 0.500000
O O6 0.648324 0.761257 0.380336
O O7 0.754531 0.751233 0.529807
O O8 0.647486 0.000000 0.489839
O O9 0.366028 0.500000 0.045521
O O10 0.331004 0.236588 0.108123
O O11 0.500000 0.273337 0.000000
O O12 0.276727 0.284350 0.945529
O O13 0.494326 0.756750 0.239858
O O14 0.719182 0.775305 0.221864
O O15 0.603564 0.000000 0.292442
O O16 0.131811 0.500000 0.471304
O O17 0.080589 0.299788 0.344778
O O18 0.000000 0.264187 0.500000
O O19 0.275223 0.765430 0.272455
O O20 0.365494 0.000000 0.202748
O O21 0.816896 0.500000 0.751072
O O22 0.303469 0.000000 0.892203
#
# Coordination Sequence:
#
# PCOD8064640 Si02
#       8
#     4   4   4   4   4   4   4   4
#     4  10  22  39  60  88 119 154 200 248 297 359
#     4  10  21  39  64  94 126 157 203 264 318 370
#     4  11  22  35  53  84 124 160 199 246 295 356
#     4   9  19  34  56  87 117 151 193 247 305 358
#     4  10  24  45  65  91 129 171 213 257 314 384
#     4  11  21  37  62  87 119 160 204 248 302 364
#     4  11  24  41  63  89 123 161 203 254 304 360
#     4  10  20  36  57  81 115 156 201 246 297 359
#
# _framework density 20.862359000000001
#
# number of rings (size 3 to 8) (size 9 to 14) (size 15 to 20)
#    0.000    1.750    1.250    2.625    1.750    4.750 
#    0.000    1.875    0.000    0.000    0.000    0.000 
#    0.000    0.000    0.000    0.000    0.000    0.000 
#
# Total GULP energy -396542.400682 kJ/mol
# GULP energy per Si atom -12391.950021 kJ/mol
# Density = 2.081488 g / cm^3
# Si number density = 20.862359 Si / 1000 Ang^3
#
#
#
# Elastic Constant Matrix: (Units=GPa)
#
#
# Indices 1 2 3 4 5 6 
#
# 1 106.1559 26.8977 40.0391 0.0000 -13.1347 0.0000
# 2 26.8977 64.4740 29.6279 0.0000 -3.2592 0.0000
# 3 40.0391 29.6279 140.9329 0.0000 -8.9614 0.0000
# 4 0.0000 0.0000 0.0000 19.5060 0.0000 -3.1112
# 5 -13.1347 -3.2592 -8.9614 0.0000 33.1317 0.0000
# 6 0.0000 0.0000 0.0000 -3.1112 0.0000 23.0696
#
#
#
# Elastic Compliance Matrix: (Units=1/GPa)
#
#
# Indices 1 2 3 4 5 6 
#
# 1 0.011662 -0.003614 -0.002322 0.000000 0.003640 0.000000
# 2 -0.003614 0.018306 -0.002847 0.000000 -0.000402 0.000000
# 3 -0.002322 -0.002847 0.008422 0.000000 0.001077 0.000000
# 4 0.000000 0.000000 0.000000 0.052393 0.000000 0.007066
# 5 0.003640 -0.000402 0.001077 0.000000 0.031877 0.000000
# 6 0.000000 0.000000 0.000000 0.007066 0.000000 0.044300
#
#
# Mechanical properties :
#
#
# Convention : Reuss Voigt Hill
#
# Bulk Modulus (GPa) = 48.02246 56.07691 52.04968
# Shear Modulus (GPa) = 26.11394 29.47469 27.79432
#
# Velocity S-wave (km/s) = 3.54181 3.76282 3.65399
# Velocity P-wave (km/s) = 6.30829 6.76877 6.54259
#
# Compressibility (1/GPa) = 0.02082359
#
# Stress axis : x y z
#
# Youngs Moduli (GPa) = 85.74871 54.62698 118.73237
#
# Poissons Ratio (x) = 0.19743 0.27569
# Poissons Ratio (y) = 0.30991 0.33805
# Poissons Ratio (z) = 0.19910 0.15553
#
# Static dielectric constant tensor:
#      x y z
#    x 4.004680 0.000000 -0.235300 
#    y 0.000000 3.572360 0.000000 
#    z -0.235300 0.000000 3.984870 
# 
# 
# High freq. dielectric constant tensor:
#      x y z
#    x 1.821640 0.000000 -0.013200 
#    y 0.000000 1.792840 0.000000 
#    z -0.013200 0.000000 1.828830 
# 
# From -- ./inp_files/63803.got.cif
#   From: 2010.06.25/outbox.cif.g09.slc.cpg/sg10_32_cif.got.tgz:63803.got - 2010.06.27 22:07:45.
