data_PCOD8064500
_publ_section_title
;
Structure prediction by ZEFSAII (Michael W. Deem and Ramdas Pophale) SiO2 
 PCOD8064500
Probable space group: P 2/M
;
_chemical_formula_sum "Si O2"
_cell_formula_units_Z 24
_cell_length_a 8.828333
_cell_length_b 12.059637
_cell_length_c 11.162934
_cell_angle_alpha 90.000000
_cell_angle_beta 92.501847
_cell_angle_gamma 90.000000
_cell_volume 1187.345576
_symmetry_space_group_name_H-M "P 2/M"
_symmetry_group_IT_number 10
_symmetry_cell_setting 'monoclinic'
loop_
_space_group_symop_operation_xyz
x,y,z
-x,y,-z
-x,-y,-z
x,-y,z
loop_
_atom_site_type_symbol
_atom_site_label
_atom_site_fract_x
_atom_site_fract_y
_atom_site_fract_z
Si Si1 0.273107 0.000000 0.914370
Si Si2 0.323350 0.627905 0.474697
Si Si3 0.438600 0.627384 0.123794
Si Si4 0.751729 0.784792 0.743289
Si Si5 0.600940 0.000000 0.816548
Si Si6 0.059432 0.794207 0.870656
Si Si7 0.257668 0.374469 0.736855
O O1 0.175413 0.894448 0.877709
O O2 0.423002 0.000000 0.838597
O O3 0.305368 0.000000 0.056778
O O4 0.500000 0.649464 0.500000
O O5 0.298026 0.500000 0.429886
O O6 0.255492 0.716911 0.380526
O O7 0.234007 0.649951 0.595572
O O8 0.387268 0.500000 0.112852
O O9 0.294653 0.701544 0.151204
O O10 0.565408 0.647698 0.229017
O O11 0.500000 0.671678 0.000000
O O12 0.921464 0.825216 0.777065
O O13 0.641737 0.891840 0.739104
O O14 0.145953 0.691046 0.817933
O O15 0.000000 0.763624 0.000000
O O16 0.218626 0.500000 0.766621
#
# Coordination Sequence:
#
# PCOD8064500 Si02
#       7
#     2   4   4   4   2   4   4
#     4  11  24  45  67  92 129 174 217 264 330 399
#     4  10  21  42  70  95 129 175 224 272 314 375
#     4  10  20  35  59  92 127 164 213 268 318 380
#     4  12  23  38  66  97 125 170 220 267 324 386
#     4  11  25  42  71  96 122 170 226 271 320 391
#     4  12  24  41  64  96 138 172 206 268 335 396
#     4  10  22  40  63  94 132 174 215 263 323 383
#
# _framework density 20.213155
#
# number of rings (size 3 to 8) (size 9 to 14) (size 15 to 20)
#    0.000    1.167    3.333    3.250    2.333    2.333 
#    0.000    2.917    0.000    2.000    0.000    0.000 
#    0.000    0.000    0.000    0.000    0.000    0.000 
#
# Total GULP energy -297656.620652 kJ/mol
# GULP energy per Si atom -12402.359194 kJ/mol
# Density = 2.016715 g / cm^3
# Si number density = 20.213155 Si / 1000 Ang^3
#
#
#
# Elastic Constant Matrix: (Units=GPa)
#
#
# Indices 1 2 3 4 5 6 
#
# 1 105.8611 65.2411 44.3550 0.0000 1.2391 0.0000
# 2 65.2411 121.2730 66.3280 0.0000 -9.6970 0.0000
# 3 44.3550 66.3280 107.8001 0.0000 6.7910 0.0000
# 4 0.0000 0.0000 0.0000 35.6959 0.0000 5.7405
# 5 1.2391 -9.6970 6.7910 0.0000 23.2757 0.0000
# 6 0.0000 0.0000 0.0000 5.7405 0.0000 46.3842
#
#
#
# Elastic Compliance Matrix: (Units=1/GPa)
#
#
# Indices 1 2 3 4 5 6 
#
# 1 0.014600 -0.007500 -0.001168 0.000000 -0.003561 0.000000
# 2 -0.007500 0.017735 -0.008472 0.000000 0.010260 0.000000
# 3 -0.001168 -0.008472 0.015473 0.000000 -0.007982 0.000000
# 4 0.000000 0.000000 0.000000 0.028583 0.000000 -0.003537
# 5 -0.003561 0.010260 -0.007982 0.000000 0.049756 0.000000
# 6 0.000000 0.000000 0.000000 -0.003537 0.000000 0.021997
#
#
# Mechanical properties :
#
#
# Convention : Reuss Voigt Hill
#
# Bulk Modulus (GPa) = 73.93041 76.30918 75.11980
# Shear Modulus (GPa) = 26.74749 31.67183 29.20966
#
# Velocity S-wave (km/s) = 3.64163 3.96269 3.80555
# Velocity P-wave (km/s) = 7.37134 7.66625 7.52024
#
# Compressibility (1/GPa) = 0.01352623
#
# Stress axis : x y z
#
# Youngs Moduli (GPa) = 68.49480 56.38609 64.62926
#
# Poissons Ratio (x) = 0.42290 0.07549
# Poissons Ratio (y) = 0.51371 0.54757
# Poissons Ratio (z) = 0.08001 0.47773
#
# Static dielectric constant tensor:
#      x y z
#    x 3.673380 0.000000 0.012900 
#    y 0.000000 3.855330 0.000000 
#    z 0.012900 0.000000 3.750240 
# 
# 
# High freq. dielectric constant tensor:
#      x y z
#    x 1.786950 0.000000 -0.005460 
#    y 0.000000 1.791630 0.000000 
#    z -0.005460 0.000000 1.787070 
# 
# From -- ./inp_files/42018.got.cif
#   From: 2010.06.25/outbox.cif.g09.slc.cpg/sg10_22_cif.got.tgz:42018.got - 2010.06.27 22:07:45.
