data_PCOD8064620
_publ_section_title
;
Structure prediction by ZEFSAII (Michael W. Deem and Ramdas Pophale) SiO2 
 PCOD8064620
Probable space group: P 2/M
;
_chemical_formula_sum "Si O2"
_cell_formula_units_Z 28
_cell_length_a 28.963109
_cell_length_b 8.996506
_cell_length_c 9.114942
_cell_angle_alpha 90.000000
_cell_angle_beta 38.155592
_cell_angle_gamma 90.000000
_cell_volume 1467.304491
_symmetry_space_group_name_H-M "P 2/M"
_symmetry_group_IT_number 10
_symmetry_cell_setting 'monoclinic'
loop_
_space_group_symop_operation_xyz
x,y,z
-x,y,-z
-x,-y,-z
x,-y,z
loop_
_atom_site_type_symbol
_atom_site_label
_atom_site_fract_x
_atom_site_fract_y
_atom_site_fract_z
Si Si1 0.504580 0.670745 0.159053
Si Si2 0.776816 0.174729 0.469155
Si Si3 0.355626 0.326805 0.707867
Si Si4 0.925801 0.329136 0.764698
Si Si5 0.926914 0.670631 0.104410
Si Si6 0.633054 0.175452 0.010788
Si Si7 0.775519 0.175390 0.137960
O O1 0.528946 0.500000 0.124577
O O2 0.424357 0.703499 0.428676
O O3 0.500000 0.709222 0.000000
O O4 0.564080 0.780512 0.081437
O O5 0.852421 0.245919 0.343901
O O6 0.708878 0.226772 0.740930
O O7 0.760990 0.228059 0.341843
O O8 0.787691 0.000000 0.444497
O O9 0.339247 0.500000 0.767917
O O10 0.283569 0.249589 0.821055
O O11 0.375005 0.258548 0.816109
O O12 0.908886 0.500000 0.765900
O O13 0.000000 0.270786 0.500000
O O14 0.939243 0.308404 0.902283
O O15 0.857055 0.228902 0.882342
O O16 0.917002 0.500000 0.175309
O O17 0.000000 0.739349 0.000000
O O18 0.631909 0.000000 0.040314
O O19 0.769436 0.000000 0.135932
#
# Coordination Sequence:
#
# PCOD8064620 Si02
#       7
#     4   4   4   4   4   4   4
#     4  10  22  40  61  84 110 143 183 224 268 321
#     4   9  20  37  55  78 108 143 181 221 268 322
#     4  11  23  38  57  82 112 144 180 223 271 322
#     4   9  18  33  52  75 106 142 180 222 268 320
#     4   9  18  32  51  76 104 137 179 223 265 313
#     4  11  23  38  57  83 114 145 180 223 271 322
#     4  10  20  36  57  80 108 142 183 227 271 322
#
# _framework density 19.082611
#
# number of rings (size 3 to 8) (size 9 to 14) (size 15 to 20)
#    0.000    2.143    0.000    2.571    0.000    6.571 
#    0.000    1.429    0.000    0.000    0.000    0.000 
#    0.000    0.000    0.000    0.000    0.000    0.000 
#
# Total GULP energy -347318.181790 kJ/mol
# GULP energy per Si atom -12404.220778 kJ/mol
# Density = 1.903918 g / cm^3
# Si number density = 19.082611 Si / 1000 Ang^3
#
#
#
# Elastic Constant Matrix: (Units=GPa)
#
#
# Indices 1 2 3 4 5 6 
#
# 1 117.8947 44.6019 56.2225 0.0000 -15.5308 0.0000
# 2 44.6019 67.0747 50.4642 0.0000 -6.8245 0.0000
# 3 56.2225 50.4642 127.9257 0.0000 -2.6548 0.0000
# 4 0.0000 0.0000 0.0000 29.2505 0.0000 -4.0395
# 5 -15.5308 -6.8245 -2.6548 0.0000 29.3636 0.0000
# 6 0.0000 0.0000 0.0000 -4.0395 0.0000 30.6223
#
#
#
# Elastic Compliance Matrix: (Units=1/GPa)
#
#
# Indices 1 2 3 4 5 6 
#
# 1 0.012852 -0.005471 -0.003382 0.000000 0.005221 0.000000
# 2 -0.005471 0.024054 -0.007042 0.000000 0.002060 0.000000
# 3 -0.003382 -0.007042 0.012033 0.000000 -0.002338 0.000000
# 4 0.000000 0.000000 0.000000 0.034822 0.000000 0.004593
# 5 0.005221 0.002060 -0.002338 0.000000 0.037085 0.000000
# 6 0.000000 0.000000 0.000000 0.004593 0.000000 0.033262
#
#
# Mechanical properties :
#
#
# Convention : Reuss Voigt Hill
#
# Bulk Modulus (GPa) = 58.30845 68.38582 63.34713
# Shear Modulus (GPa) = 26.09421 28.62104 27.35763
#
# Velocity S-wave (km/s) = 3.70189 3.87699 3.79045
# Velocity P-wave (km/s) = 6.99244 7.48037 7.24051
#
# Compressibility (1/GPa) = 0.01715017
#
# Stress axis : x y z
#
# Youngs Moduli (GPa) = 77.80637 41.57306 83.10597
#
# Poissons Ratio (x) = 0.22743 0.28108
# Poissons Ratio (y) = 0.42564 0.58522
# Poissons Ratio (z) = 0.26316 0.29275
#
# Static dielectric constant tensor:
#      x y z
#    x 3.515650 0.000000 -0.034790 
#    y 0.000000 3.472400 0.000000 
#    z -0.034790 0.000000 3.683320 
# 
# 
# High freq. dielectric constant tensor:
#      x y z
#    x 1.746650 0.000000 -0.005420 
#    y 0.000000 1.740280 0.000000 
#    z -0.005420 0.000000 1.751450 
# 
# From -- ./inp_files/36821.got.cif
#   From: 2010.06.25/outbox.cif.g09.slc.cpg/sg10_19_cif.got.tgz:36821.got - 2010.06.27 22:07:45.
