data_PCOD8064308
_publ_section_title
;
Structure prediction by ZEFSAII (Michael W. Deem and Ramdas Pophale) SiO2 
 PCOD8064308
Probable space group: P 2/M
;
_chemical_formula_sum "Si O2"
_cell_formula_units_Z 32
_cell_length_a 21.134719
_cell_length_b 8.691764
_cell_length_c 21.112244
_cell_angle_alpha 90.000000
_cell_angle_beta 26.216324
_cell_angle_gamma 90.000000
_cell_volume 1713.273254
_symmetry_space_group_name_H-M "P 2/M"
_symmetry_group_IT_number 10
_symmetry_cell_setting 'monoclinic'
loop_
_space_group_symop_operation_xyz
x,y,z
-x,y,-z
-x,-y,-z
x,-y,z
loop_
_atom_site_type_symbol
_atom_site_label
_atom_site_fract_x
_atom_site_fract_y
_atom_site_fract_z
Si Si1 0.310940 0.182734 0.615273
Si Si2 0.563607 0.182634 0.877390
Si Si3 0.310500 0.816915 0.015871
Si Si4 0.929306 0.177866 0.261449
Si Si5 0.628305 0.183314 0.302811
Si Si6 0.014825 0.680729 0.313691
Si Si7 0.120052 0.817970 0.442712
Si Si8 0.243962 0.176520 0.938955
O O1 0.191928 0.250798 0.674973
O O2 0.464197 0.237120 0.451855
O O3 0.291143 0.242001 0.705650
O O4 0.299065 0.000000 0.625622
O O5 0.457327 0.237423 0.916827
O O6 0.724471 0.243236 0.720399
O O7 0.566782 0.000000 0.878447
O O8 0.500000 0.250325 0.000000
O O9 0.310440 0.751531 0.943835
O O10 0.293814 0.000000 0.031051
O O11 0.172744 0.754477 0.177398
O O12 0.935071 0.273047 0.320778
O O13 0.899859 0.000000 0.305424
O O14 0.074210 0.194872 0.091653
O O15 0.697851 0.257912 0.177153
O O16 0.638818 0.000000 0.291953
O O17 0.032375 0.500000 0.301354
O O18 0.914946 0.738223 0.459884
O O19 0.000000 0.768918 0.500000
O O20 0.122356 0.000000 0.450844
O O21 0.291721 0.000000 0.894097
#
# Coordination Sequence:
#
# PCOD8064308 Si02
#       8
#     4   4   4   4   4   4   4   4
#     4   8  14  23  38  62  94 125 151 189 243 299
#     4   9  17  30  52  80 103 126 161 202 241 283
#     4   9  17  32  52  73  97 127 167 210 249 292
#     4   9  17  30  47  68  92 122 161 202 244 290
#     4   8  13  22  36  62  96 122 148 191 249 300
#     4  11  22  35  51  72 101 136 169 204 247 292
#     4  10  20  35  57  82 106 132 162 199 243 292
#     4   8  14  23  38  61  89 118 149 191 239 284
#
# _framework density 18.677697999999999
#
# number of rings (size 3 to 8) (size 9 to 14) (size 15 to 20)
#    0.000    3.000    0.000    3.375    0.000    3.750 
#    0.000    6.875    0.000    1.500    0.000    8.750 
#    0.000    0.000    0.000    0.000    0.000    0.000 
#
# Total GULP energy -396624.696294 kJ/mol
# GULP energy per Si atom -12394.521759 kJ/mol
# Density = 1.863519 g / cm^3
# Si number density = 18.677698 Si / 1000 Ang^3
#
#
#
# Elastic Constant Matrix: (Units=GPa)
#
#
# Indices 1 2 3 4 5 6 
#
# 1 145.1646 19.4996 94.8355 0.0000 -7.4640 0.0000
# 2 19.4996 23.2012 20.9320 0.0000 1.8321 0.0000
# 3 94.8355 20.9320 134.6196 0.0000 5.8971 0.0000
# 4 0.0000 0.0000 0.0000 4.1234 0.0000 -1.4605
# 5 -7.4640 1.8321 5.8971 0.0000 43.1086 0.0000
# 6 0.0000 0.0000 0.0000 -1.4605 0.0000 2.4231
#
#
#
# Elastic Compliance Matrix: (Units=1/GPa)
#
#
# Indices 1 2 3 4 5 6 
#
# 1 0.013523 -0.003394 -0.009162 0.000000 0.003739 0.000000
# 2 -0.003394 0.051035 -0.005456 0.000000 -0.002010 0.000000
# 3 -0.009162 -0.005456 0.014880 0.000000 -0.003390 0.000000
# 4 0.000000 0.000000 0.000000 0.308346 0.000000 0.185849
# 5 0.003739 -0.002010 -0.003390 0.000000 0.024394 0.000000
# 6 0.000000 0.000000 0.000000 0.185849 0.000000 0.524703
#
#
# Mechanical properties :
#
#
# Convention : Reuss Voigt Hill
#
# Bulk Modulus (GPa) = 23.03503 63.72438 43.37971
# Shear Modulus (GPa) = 5.06392 21.11224 13.08808
#
# Velocity S-wave (km/s) = 1.64836 3.36571 2.65001
# Velocity P-wave (km/s) = 3.99781 7.02111 5.71307
#
# Compressibility (1/GPa) = 0.04341215
#
# Stress axis : x y z
#
# Youngs Moduli (GPa) = 73.95018 19.59424 67.20520
#
# Poissons Ratio (x) = 0.06651 0.61575
# Poissons Ratio (y) = 0.25101 0.36669
# Poissons Ratio (z) = 0.67755 0.10691
#
# Static dielectric constant tensor:
#      x y z
#    x 3.884000 0.000000 0.052250 
#    y 0.000000 2.796510 0.000000 
#    z 0.052250 0.000000 3.564480 
# 
# 
# High freq. dielectric constant tensor:
#      x y z
#    x 1.742130 0.000000 0.002980 
#    y 0.000000 1.658770 0.000000 
#    z 0.002980 0.000000 1.725790 
# 
# From -- ./inp_files/90531.got.cif
#   From: 2010.06.25/outbox.cif.g09.slc.cpg/sg10_46_cif.got.tgz:90531.got - 2010.06.27 22:07:45.
