data_PCOD8064624
_publ_section_title
;
Structure prediction by ZEFSAII (Michael W. Deem and Ramdas Pophale) SiO2 
 PCOD8064624
Probable space group: P 2/M
;
_chemical_formula_sum "Si O2"
_cell_formula_units_Z 32
_cell_length_a 11.947345
_cell_length_b 8.961248
_cell_length_c 21.801217
_cell_angle_alpha 90.000000
_cell_angle_beta 133.829557
_cell_angle_gamma 90.000000
_cell_volume 1683.831502
_symmetry_space_group_name_H-M "P 2/M"
_symmetry_group_IT_number 10
_symmetry_cell_setting 'monoclinic'
loop_
_space_group_symop_operation_xyz
x,y,z
-x,y,-z
-x,-y,-z
x,-y,z
loop_
_atom_site_type_symbol
_atom_site_label
_atom_site_fract_x
_atom_site_fract_y
_atom_site_fract_z
Si Si1 0.971992 0.176646 0.393882
Si Si2 0.406659 0.676621 0.122528
Si Si3 0.050801 0.173649 0.752782
Si Si4 0.113538 0.674538 0.204913
Si Si5 0.557266 0.326148 0.724928
Si Si6 0.909341 0.824178 0.026191
Si Si7 0.597190 0.172560 0.095826
Si Si8 0.753914 0.823580 0.417565
O O1 0.138268 0.226576 0.484403
O O2 0.950396 0.237111 0.317015
O O3 0.832966 0.236288 0.384557
O O4 0.961566 0.000000 0.390538
O O5 0.393048 0.500000 0.115351
O O6 0.421551 0.735405 0.197864
O O7 0.553184 0.731517 0.138848
O O8 0.255876 0.746061 0.034086
O O9 0.220441 0.196625 0.847127
O O10 0.924390 0.272134 0.740769
O O11 0.002442 0.000000 0.736371
O O12 0.078072 0.500000 0.182536
O O13 0.291689 0.711156 0.257785
O O14 0.005829 0.772023 0.120677
O O15 0.522572 0.500000 0.714005
O O16 0.414125 0.247510 0.637328
O O17 0.884182 0.000000 0.019882
O O18 0.000000 0.773502 0.000000
O O19 0.560178 0.000000 0.095777
O O20 0.500000 0.228291 0.000000
O O21 0.734939 0.000000 0.408727
#
# Coordination Sequence:
#
# PCOD8064624 Si02
#       8
#     4   4   4   4   4   4   4   4
#     4   8  16  33  57  86 113 139 176 226 278 326
#     4  11  22  36  56  80 110 145 181 223 274 331
#     4  10  20  36  57  80 112 149 185 228 277 326
#     4  11  23  39  56  76 111 151 186 225 271 327
#     4  10  22  37  52  78 113 143 174 223 279 322
#     4  11  22  36  56  81 107 140 186 231 270 319
#     4  10  21  36  54  80 113 143 178 228 276 321
#     4   9  17  33  60  86 108 138 179 224 275 332
#
# _framework density 19.004276999999998
#
# number of rings (size 3 to 8) (size 9 to 14) (size 15 to 20)
#    0.000    2.000    1.250    3.375    0.000    5.250 
#    0.000    3.125    0.000    3.750    0.000    0.000 
#    0.000    0.000    0.000    0.000    0.000    0.000 
#
# Total GULP energy -396887.995305 kJ/mol
# GULP energy per Si atom -12402.749853 kJ/mol
# Density = 1.896102 g / cm^3
# Si number density = 19.004277 Si / 1000 Ang^3
#
#
#
# Elastic Constant Matrix: (Units=GPa)
#
#
# Indices 1 2 3 4 5 6 
#
# 1 111.8084 33.4511 46.0098 0.0000 -0.6397 0.0000
# 2 33.4511 41.7452 18.7552 0.0000 3.2639 0.0000
# 3 46.0098 18.7552 106.5265 0.0000 1.6513 0.0000
# 4 0.0000 0.0000 0.0000 20.0721 0.0000 1.9193
# 5 -0.6397 3.2639 1.6513 0.0000 34.0888 0.0000
# 6 0.0000 0.0000 0.0000 1.9193 0.0000 33.2367
#
#
#
# Elastic Compliance Matrix: (Units=1/GPa)
#
#
# Indices 1 2 3 4 5 6 
#
# 1 0.013352 -0.008906 -0.004219 0.000000 0.001308 0.000000
# 2 -0.008906 0.032129 -0.001761 0.000000 -0.003158 0.000000
# 3 -0.004219 -0.001761 0.011527 0.000000 -0.000469 0.000000
# 4 0.000000 0.000000 0.000000 0.050097 0.000000 -0.002893
# 5 0.001308 -0.003158 -0.000469 0.000000 0.029685 0.000000
# 6 0.000000 0.000000 0.000000 -0.002893 0.000000 0.030254
#
#
# Mechanical properties :
#
#
# Convention : Reuss Voigt Hill
#
# Bulk Modulus (GPa) = 36.71626 50.72358 43.71992
# Shear Modulus (GPa) = 24.28413 28.27045 26.27729
#
# Velocity S-wave (km/s) = 3.57855 3.86110 3.72251
# Velocity P-wave (km/s) = 6.03627 6.82833 6.44448
#
# Compressibility (1/GPa) = 0.02723589
#
# Stress axis : x y z
#
# Youngs Moduli (GPa) = 74.89499 31.12413 86.75288
#
# Poissons Ratio (x) = 0.27719 0.36602
# Poissons Ratio (y) = 0.66700 0.15280
# Poissons Ratio (z) = 0.31599 0.05482
#
# Static dielectric constant tensor:
#      x y z
#    x 3.749430 0.000000 -0.094140 
#    y 0.000000 3.259760 0.000000 
#    z -0.094140 0.000000 3.565310 
# 
# 
# High freq. dielectric constant tensor:
#      x y z
#    x 1.743250 0.000000 0.001340 
#    y 0.000000 1.721440 0.000000 
#    z 0.001340 0.000000 1.736650 
# 
# From -- ./inp_files/83611.got.cif
#   From: 2010.06.25/outbox.cif.g09.slc.cpg/sg10_42_cif.got.tgz:83611.got - 2010.06.27 22:07:45.
