data_PCOD8064719
_publ_section_title
;
Structure prediction by ZEFSAII (Michael W. Deem and Ramdas Pophale) SiO2 
 PCOD8064719
Probable space group: P 2/M
;
_chemical_formula_sum "Si O2"
_cell_formula_units_Z 32
_cell_length_a 20.947121
_cell_length_b 9.409438
_cell_length_c 21.740049
_cell_angle_alpha 90.000000
_cell_angle_beta 21.567199
_cell_angle_gamma 90.000000
_cell_volume 1575.124341
_symmetry_space_group_name_H-M "P 2/M"
_symmetry_group_IT_number 10
_symmetry_cell_setting 'monoclinic'
loop_
_space_group_symop_operation_xyz
x,y,z
-x,y,-z
-x,-y,-z
x,-y,z
loop_
_atom_site_type_symbol
_atom_site_label
_atom_site_fract_x
_atom_site_fract_y
_atom_site_fract_z
Si Si1 0.413911 0.332443 0.384199
Si Si2 0.613924 0.668294 0.453372
Si Si3 0.060237 0.833928 0.680444
Si Si4 0.483624 0.655894 0.088228
Si Si5 0.979423 0.665575 0.085602
Si Si6 0.793164 0.665366 0.006070
Si Si7 0.813753 0.156997 0.667947
Si Si8 0.778789 0.846310 0.841767
O O1 0.370273 0.500000 0.419310
O O2 0.454832 0.286628 0.417853
O O3 0.586559 0.296458 0.189091
O O4 0.244281 0.246299 0.513616
O O5 0.500000 0.735122 0.500000
O O6 0.608610 0.500000 0.452644
O O7 0.809663 0.728731 0.271672
O O8 0.975290 0.816748 0.688355
O O9 0.088208 0.000000 0.672822
O O10 0.912054 0.764812 0.856864
O O11 0.457156 0.500000 0.139720
O O12 0.317600 0.750189 0.254481
O O13 0.500000 0.648574 0.000000
O O14 0.647409 0.720875 0.978593
O O15 0.945664 0.500000 0.105670
O O16 0.000000 0.738034 0.000000
O O17 0.147967 0.692401 0.976249
O O18 0.824104 0.500000 0.960557
O O19 0.756255 0.144488 0.789355
O O20 0.000000 0.233583 0.500000
O O21 0.824595 0.000000 0.627931
O O22 0.719076 0.000000 0.922431
#
# Coordination Sequence:
#
# PCOD8064719 Si02
#       8
#     4   4   4   4   4   4   4   4
#     4  10  20  36  58  83 111 144 185 236 290 341
#     4   9  15  25  46  79 111 136 172 227 286 337
#     4  11  23  39  58  79 112 155 195 232 274 333
#     4   9  17  30  51  78 106 135 166 209 265 316
#     4   9  15  25  46  79 111 136 173 230 287 337
#     4  10  20  36  58  83 111 144 187 236 288 341
#     4   9  17  32  55  80 108 140 176 220 266 315
#     4   9  19  36  55  76 102 141 186 220 257 317
#
# _framework density 20.315857000000001
#
# number of rings (size 3 to 8) (size 9 to 14) (size 15 to 20)
#    0.000    2.500    1.250    1.500    0.000    6.250 
#    2.250    0.000    0.000    0.750    0.000    0.000 
#    0.000    0.000    0.000    0.000    0.000    0.000 
#
# Total GULP energy -396447.575893 kJ/mol
# GULP energy per Si atom -12388.986747 kJ/mol
# Density = 2.026962 g / cm^3
# Si number density = 20.315857 Si / 1000 Ang^3
#
#
#
# Elastic Constant Matrix: (Units=GPa)
#
#
# Indices 1 2 3 4 5 6 
#
# 1 47.3503 28.0577 10.8318 0.0000 -30.7548 0.0000
# 2 28.0577 94.6847 45.9939 0.0000 -26.0879 0.0000
# 3 10.8318 45.9939 111.1671 0.0000 -33.5508 0.0000
# 4 0.0000 0.0000 0.0000 26.4720 0.0000 -5.6898
# 5 -30.7548 -26.0879 -33.5508 0.0000 37.1092 0.0000
# 6 0.0000 0.0000 0.0000 -5.6898 0.0000 4.9389
#
#
#
# Elastic Compliance Matrix: (Units=1/GPa)
#
#
# Indices 1 2 3 4 5 6 
#
# 1 0.060506 -0.009613 0.015370 0.000000 0.057283 0.000000
# 2 -0.009613 0.015786 -0.006394 0.000000 -0.002651 0.000000
# 3 0.015370 -0.006394 0.017371 0.000000 0.023948 0.000000
# 4 0.000000 0.000000 0.000000 0.050208 0.000000 0.057841
# 5 0.057283 -0.002651 0.023948 0.000000 0.094211 0.000000
# 6 0.000000 0.000000 0.000000 0.057841 0.000000 0.269107
#
#
# Mechanical properties :
#
#
# Convention : Reuss Voigt Hill
#
# Bulk Modulus (GPa) = 10.82388 46.99655 28.91022
# Shear Modulus (GPa) = 9.27200 24.92525 17.09863
#
# Velocity S-wave (km/s) = 2.13865 3.50649 2.90425
# Velocity P-wave (km/s) = 3.38198 6.29104 5.05049
#
# Compressibility (1/GPa) = 0.09238831
#
# Stress axis : x y z
#
# Youngs Moduli (GPa) = 16.52739 63.34820 57.56658
#
# Poissons Ratio (x) = 0.60895 -0.88480
# Poissons Ratio (y) = 0.15887 0.36811
# Poissons Ratio (z) = -0.25403 0.40508
#
# Static dielectric constant tensor:
#      x y z
#    x 3.706120 0.000000 -0.212000 
#    y 0.000000 3.588740 0.000000 
#    z -0.212000 0.000000 3.755280 
# 
# 
# High freq. dielectric constant tensor:
#      x y z
#    x 1.789830 0.000000 -0.018680 
#    y 0.000000 1.755470 0.000000 
#    z -0.018680 0.000000 1.791220 
# 
# From -- ./inp_files/90629.got.cif
#   From: 2010.06.25/outbox.cif.g09.slc.cpg/sg10_46_cif.got.tgz:90629.got - 2010.06.27 22:07:45.
