data_PCOD8064787
_publ_section_title
;
Structure prediction by ZEFSAII (Michael W. Deem and Ramdas Pophale) SiO2 
 PCOD8064787
Probable space group: P 2/M
;
_chemical_formula_sum "Si O2"
_cell_formula_units_Z 28
_cell_length_a 13.136844
_cell_length_b 8.904650
_cell_length_c 14.290480
_cell_angle_alpha 90.000000
_cell_angle_beta 122.578955
_cell_angle_gamma 90.000000
_cell_volume 1408.646623
_symmetry_space_group_name_H-M "P 2/M"
_symmetry_group_IT_number 10
_symmetry_cell_setting 'monoclinic'
loop_
_space_group_symop_operation_xyz
x,y,z
-x,y,-z
-x,-y,-z
x,-y,z
loop_
_atom_site_type_symbol
_atom_site_label
_atom_site_fract_x
_atom_site_fract_y
_atom_site_fract_z
Si Si1 0.486197 0.824546 0.885403
Si Si2 0.789386 0.174839 0.545497
Si Si3 0.197860 0.676817 0.254099
Si Si4 0.278885 0.175604 0.115078
Si Si5 0.054278 0.827537 0.877998
Si Si6 0.274474 0.324120 0.668874
Si Si7 0.930221 0.830127 0.326411
O O1 0.607665 0.779118 0.891792
O O2 0.376564 0.731128 0.789591
O O3 0.456371 0.000000 0.860342
O O4 0.500000 0.778984 0.000000
O O5 0.755210 0.251001 0.626543
O O6 0.708395 0.245583 0.423421
O O7 0.929087 0.205048 0.590460
O O8 0.760600 0.000000 0.540210
O O9 0.205137 0.500000 0.267450
O O10 0.285616 0.732378 0.214761
O O11 0.061471 0.724671 0.162102
O O12 0.279034 0.000000 0.138026
O O13 0.157666 0.222146 0.000400
O O14 0.106832 0.808026 0.799872
O O15 0.013568 0.000000 0.873420
O O16 0.284145 0.500000 0.658979
O O17 0.144144 0.284270 0.647192
O O18 0.900492 0.000000 0.344377
#
# Coordination Sequence:
#
# PCOD8064787 Si02
#       7
#     4   4   4   4   4   4   4
#     4  10  22  42  65  85 108 145 194 237 270 318
#     4  10  21  39  61  82 109 148 193 235 273 325
#     4  11  22  35  54  84 120 150 180 227 286 341
#     4  10  20  36  59  83 109 148 195 236 274 323
#     4   9  18  34  57  84 114 149 191 234 274 325
#     4  12  24  36  55  85 119 150 181 227 287 341
#     4   9  18  34  57  84 113 149 191 232 274 325
#
# _framework density 19.877234999999999
#
# number of rings (size 3 to 8) (size 9 to 14) (size 15 to 20)
#    0.000    1.857    0.000    5.571    0.000   10.000 
#    0.000    2.143    0.000    4.286    0.000    0.000 
#    0.000    0.000    0.000    0.000    0.000    0.000 
#
# Total GULP energy -347336.386043 kJ/mol
# GULP energy per Si atom -12404.870930 kJ/mol
# Density = 1.983199 g / cm^3
# Si number density = 19.877235 Si / 1000 Ang^3
#
#
#
# Elastic Constant Matrix: (Units=GPa)
#
#
# Indices 1 2 3 4 5 6 
#
# 1 94.2589 50.8156 46.8853 0.0000 -26.2256 0.0000
# 2 50.8156 118.9865 63.5568 0.0000 -14.8327 0.0000
# 3 46.8853 63.5568 124.8218 0.0000 -23.8177 0.0000
# 4 0.0000 0.0000 0.0000 24.3133 0.0000 -1.9306
# 5 -26.2256 -14.8327 -23.8177 0.0000 23.5959 0.0000
# 6 0.0000 0.0000 0.0000 -1.9306 0.0000 9.1776
#
#
#
# Elastic Compliance Matrix: (Units=1/GPa)
#
#
# Indices 1 2 3 4 5 6 
#
# 1 0.018511 -0.005256 -0.001215 0.000000 0.016043 0.000000
# 2 -0.005256 0.013088 -0.005245 0.000000 -0.002909 0.000000
# 3 -0.001215 -0.005245 0.012697 0.000000 0.008169 0.000000
# 4 0.000000 0.000000 0.000000 0.041828 0.000000 0.008799
# 5 0.016043 -0.002909 0.008169 0.000000 0.066628 0.000000
# 6 0.000000 0.000000 0.000000 0.008799 0.000000 0.110812
#
#
# Mechanical properties :
#
#
# Convention : Reuss Voigt Hill
#
# Bulk Modulus (GPa) = 47.93174 73.39806 60.66490
# Shear Modulus (GPa) = 17.00953 23.20466 20.10709
#
# Velocity S-wave (km/s) = 2.92846 3.42043 3.18396
# Velocity P-wave (km/s) = 5.96663 7.25293 6.64100
#
# Compressibility (1/GPa) = 0.02086300
#
# Stress axis : x y z
#
# Youngs Moduli (GPa) = 54.02196 76.40532 78.75723
#
# Poissons Ratio (x) = 0.40162 0.09572
# Poissons Ratio (y) = 0.28396 0.41307
# Poissons Ratio (z) = 0.06566 0.40074
#
# Static dielectric constant tensor:
#      x y z
#    x 3.536670 0.000000 -0.184420 
#    y 0.000000 3.441600 0.000000 
#    z -0.184420 0.000000 3.754650 
# 
# 
# High freq. dielectric constant tensor:
#      x y z
#    x 1.765040 0.000000 -0.019130 
#    y 0.000000 1.763220 0.000000 
#    z -0.019130 0.000000 1.784870 
# 
# From -- ./inp_files/63893.got.cif
#   From: 2010.06.25/outbox.cif.g09.slc.cpg/sg10_32_cif.got.tgz:63893.got - 2010.06.27 22:07:45.
