data_PCOD8064655
_publ_section_title
;
Structure prediction by ZEFSAII (Michael W. Deem and Ramdas Pophale) SiO2 
 PCOD8064655
Probable space group: P 2/M
;
_chemical_formula_sum "Si O2"
_cell_formula_units_Z 32
_cell_length_a 15.001685
_cell_length_b 8.880377
_cell_length_c 11.884756
_cell_angle_alpha 90.000000
_cell_angle_beta 93.310142
_cell_angle_gamma 90.000000
_cell_volume 1580.652994
_symmetry_space_group_name_H-M "P 2/M"
_symmetry_group_IT_number 10
_symmetry_cell_setting 'monoclinic'
loop_
_space_group_symop_operation_xyz
x,y,z
-x,y,-z
-x,-y,-z
x,-y,z
loop_
_atom_site_type_symbol
_atom_site_label
_atom_site_fract_x
_atom_site_fract_y
_atom_site_fract_z
Si Si1 0.665438 0.822907 0.748741
Si Si2 0.086161 0.322211 0.437951
Si Si3 0.269498 0.173872 0.482787
Si Si4 0.680056 0.173888 0.269203
Si Si5 0.497013 0.820840 0.871587
Si Si6 0.181182 0.828981 0.070706
Si Si7 0.976616 0.827913 0.784577
Si Si8 0.163532 0.324305 0.843225
O O1 0.678203 0.759270 0.622480
O O2 0.579437 0.752365 0.805609
O O3 0.753511 0.780028 0.824443
O O4 0.650958 0.000000 0.740814
O O5 0.092367 0.500000 0.443017
O O6 0.176020 0.256877 0.498825
O O7 0.077217 0.268209 0.309952
O O8 0.000000 0.263231 0.500000
O O9 0.332387 0.192756 0.597031
O O10 0.246123 0.000000 0.458291
O O11 0.592749 0.232281 0.197555
O O12 0.762442 0.277609 0.240808
O O13 0.699921 0.000000 0.239861
O O14 0.502895 0.000000 0.875063
O O15 0.500000 0.758074 0.000000
O O16 0.079031 0.816138 0.103896
O O17 0.202408 0.000000 0.033125
O O18 0.198706 0.716831 0.969461
O O19 0.074386 0.765900 0.811037
O O20 0.982815 0.000000 0.744076
O O21 0.143363 0.500000 0.831512
#
# Coordination Sequence:
#
# PCOD8064655 Si02
#       8
#     4   4   4   4   4   4   4   4
#     4   9  17  33  58  88 119 149 189 244 300 351
#     4  11  23  37  55  81 116 158 201 243 290 345
#     4  10  20  36  57  84 116 152 198 246 293 347
#     4  10  21  37  59  86 115 153 199 243 292 348
#     4   9  17  31  57  90 120 151 191 242 298 351
#     4  10  20  37  60  84 114 152 193 238 294 354
#     4  11  22  38  60  85 113 150 195 243 294 349
#     4  12  25  38  55  82 118 156 195 243 295 348
#
# _framework density 20.244796999999998
#
# number of rings (size 3 to 8) (size 9 to 14) (size 15 to 20)
#    0.000    1.750    1.250    3.750    0.000    8.500 
#    0.000    2.500    0.000    4.125    0.000    1.750 
#    0.000    0.000    0.000    0.000    0.000    0.000 
#
# Total GULP energy -396856.319238 kJ/mol
# GULP energy per Si atom -12401.759976 kJ/mol
# Density = 2.019872 g / cm^3
# Si number density = 20.244797 Si / 1000 Ang^3
#
#
#
# Elastic Constant Matrix: (Units=GPa)
#
#
# Indices 1 2 3 4 5 6 
#
# 1 129.8130 18.4671 58.4706 0.0000 -7.5136 0.0000
# 2 18.4671 26.1466 18.8127 0.0000 -10.6587 0.0000
# 3 58.4706 18.8127 129.6783 0.0000 1.5423 0.0000
# 4 0.0000 0.0000 0.0000 15.4190 0.0000 -3.1491
# 5 -7.5136 -10.6587 1.5423 0.0000 33.7811 0.0000
# 6 0.0000 0.0000 0.0000 -3.1491 0.0000 5.2630
#
#
#
# Elastic Compliance Matrix: (Units=1/GPa)
#
#
# Indices 1 2 3 4 5 6 
#
# 1 0.010127 -0.003733 -0.004040 0.000000 0.001259 0.000000
# 2 -0.003733 0.051602 -0.005990 0.000000 0.015725 0.000000
# 3 -0.004040 -0.005990 0.010441 0.000000 -0.003265 0.000000
# 4 0.000000 0.000000 0.000000 0.073884 0.000000 0.044208
# 5 0.001259 0.015725 -0.003265 0.000000 0.034993 0.000000
# 6 0.000000 0.000000 0.000000 0.044208 0.000000 0.216458
#
#
# Mechanical properties :
#
#
# Convention : Reuss Voigt Hill
#
# Bulk Modulus (GPa) = 22.39880 53.01543 37.70711
# Shear Modulus (GPa) = 11.36593 23.55179 17.45886
#
# Velocity S-wave (km/s) = 2.37201 3.41449 2.93983
# Velocity P-wave (km/s) = 4.31160 6.46444 5.49450
#
# Compressibility (1/GPa) = 0.04464525
#
# Stress axis : x y z
#
# Youngs Moduli (GPa) = 98.74825 19.37891 95.78005
#
# Poissons Ratio (x) = 0.07234 0.38690
# Poissons Ratio (y) = 0.36860 0.57373
# Poissons Ratio (z) = 0.39889 0.11608
#
# Static dielectric constant tensor:
#      x y z
#    x 3.769860 0.000000 -0.072430 
#    y 0.000000 3.303320 0.000000 
#    z -0.072430 0.000000 3.912240 
# 
# 
# High freq. dielectric constant tensor:
#      x y z
#    x 1.792650 0.000000 -0.001390 
#    y 0.000000 1.750110 0.000000 
#    z -0.001390 0.000000 1.805670 
# 
# From -- ./inp_files/49806.got.cif
#   From: 2010.06.25/outbox.cif.g09.slc.cpg/sg10_25_cif.got.tgz:49806.got - 2010.06.27 22:07:45.
