data_PCOD8064740
_publ_section_title
;
Structure prediction by ZEFSAII (Michael W. Deem and Ramdas Pophale) SiO2 
 PCOD8064740
Probable space group: P 2/M
;
_chemical_formula_sum "Si O2"
_cell_formula_units_Z 28
_cell_length_a 23.100354
_cell_length_b 14.065472
_cell_length_c 10.147309
_cell_angle_alpha 90.000000
_cell_angle_beta 153.369074
_cell_angle_gamma 90.000000
_cell_volume 1477.869346
_symmetry_space_group_name_H-M "P 2/M"
_symmetry_group_IT_number 10
_symmetry_cell_setting 'monoclinic'
loop_
_space_group_symop_operation_xyz
x,y,z
-x,y,-z
-x,-y,-z
x,-y,z
loop_
_atom_site_type_symbol
_atom_site_label
_atom_site_fract_x
_atom_site_fract_y
_atom_site_fract_z
Si Si1 0.589255 0.223230 0.806379
Si Si2 0.425488 0.273227 0.718712
Si Si3 0.797974 0.391681 0.833207
Si Si4 0.974689 0.233840 0.099385
Si Si5 0.343772 0.397755 0.177580
Si Si6 0.791824 0.893016 0.362319
Si Si7 0.258295 0.894156 0.435267
O O1 0.500000 0.191794 0.500000
O O2 0.507654 0.276509 0.753286
O O3 0.695533 0.304629 0.984499
O O4 0.671267 0.133523 0.023041
O O5 0.305822 0.346236 0.477256
O O6 0.381135 0.164114 0.636782
O O7 0.500000 0.305165 0.000000
O O8 0.832360 0.500000 0.862565
O O9 0.731561 0.389397 0.839513
O O10 0.926910 0.326143 0.085383
O O11 0.096896 0.186882 0.421989
O O12 0.870933 0.149641 0.887929
O O13 0.000000 0.266233 0.000000
O O14 0.500000 0.391140 0.500000
O O15 0.306762 0.500000 0.037524
O O16 0.740469 0.892982 0.405413
O O17 0.839398 0.000000 0.421371
O O18 0.271261 0.000000 0.405255
#
# Coordination Sequence:
#
# PCOD8064740 Si02
#       7
#     4   4   4   4   4   4   4
#     4  11  21  36  58  84 119 156 185 238 291 341
#     4  11  20  33  55  88 120 148 189 239 290 344
#     4  10  20  36  60  86 115 152 190 235 290 345
#     4   9  19  36  59  84 115 152 192 242 287 337
#     4   9  17  34  59  80 105 150 195 226 275 349
#     4  10  20  36  58  84 115 151 194 239 284 339
#     4   9  18  33  57  84 111 150 195 237 284 343
#
# _framework density 18.946196
#
# number of rings (size 3 to 8) (size 9 to 14) (size 15 to 20)
#    0.000    2.143    4.286    0.429    0.000    3.429 
#    0.000    1.429    0.000    2.571    0.000    0.000 
#    0.000    0.000    0.000    0.000    0.000    0.000 
#
# Total GULP energy -346916.527150 kJ/mol
# GULP energy per Si atom -12389.875970 kJ/mol
# Density = 1.890307 g / cm^3
# Si number density = 18.946196 Si / 1000 Ang^3
#
#
#
# Elastic Constant Matrix: (Units=GPa)
#
#
# Indices 1 2 3 4 5 6 
#
# 1 61.1593 42.1535 22.5726 0.0000 5.4126 0.0000
# 2 42.1535 158.0913 40.0512 0.0000 6.5608 0.0000
# 3 22.5726 40.0512 82.4235 0.0000 -5.0051 0.0000
# 4 0.0000 0.0000 0.0000 34.6174 0.0000 14.8557
# 5 5.4126 6.5608 -5.0051 0.0000 20.6743 0.0000
# 6 0.0000 0.0000 0.0000 14.8557 0.0000 35.9133
#
#
#
# Elastic Compliance Matrix: (Units=1/GPa)
#
#
# Indices 1 2 3 4 5 6 
#
# 1 0.021360 -0.004472 -0.003989 0.000000 -0.005139 0.000000
# 2 -0.004472 0.008362 -0.002973 0.000000 -0.002203 0.000000
# 3 -0.003989 -0.002973 0.015011 0.000000 0.005622 0.000000
# 4 0.000000 0.000000 0.000000 0.035122 0.000000 -0.014528
# 5 -0.005139 -0.002203 0.005622 0.000000 0.051775 0.000000
# 6 0.000000 0.000000 0.000000 -0.014528 0.000000 0.033855
#
#
# Mechanical properties :
#
#
# Convention : Reuss Voigt Hill
#
# Bulk Modulus (GPa) = 45.73164 56.80319 51.26742
# Shear Modulus (GPa) = 25.55738 31.36744 28.46241
#
# Velocity S-wave (km/s) = 3.67678 4.07333 3.88013
# Velocity P-wave (km/s) = 6.49731 7.22282 6.86965
#
# Compressibility (1/GPa) = 0.02186670
#
# Stress axis : x y z
#
# Youngs Moduli (GPa) = 46.81725 119.58531 66.61953
#
# Poissons Ratio (x) = 0.53473 0.26573
# Poissons Ratio (y) = 0.20935 0.19803
# Poissons Ratio (z) = 0.18675 0.35547
#
# Static dielectric constant tensor:
#      x y z
#    x 3.475310 0.000000 0.117160 
#    y 0.000000 3.858560 0.000000 
#    z 0.117160 0.000000 3.260720 
# 
# 
# High freq. dielectric constant tensor:
#      x y z
#    x 1.726190 0.000000 0.010480 
#    y 0.000000 1.747020 0.000000 
#    z 0.010480 0.000000 1.711690 
# 
# From -- ./inp_files/29605.got.cif
#   From: 2010.06.25/outbox.cif.g09.slc.cpg/sg10_15_cif.got.tgz:29605.got - 2010.06.27 22:07:45.
