data_PCOD8064171
_publ_section_title
;
Structure prediction by ZEFSAII (Michael W. Deem and Ramdas Pophale) SiO2 
 PCOD8064171
Probable space group: P 2/M
;
_chemical_formula_sum "Si O2"
_cell_formula_units_Z 28
_cell_length_a 15.071513
_cell_length_b 8.715958
_cell_length_c 10.826209
_cell_angle_alpha 90.000000
_cell_angle_beta 63.439936
_cell_angle_gamma 90.000000
_cell_volume 1272.073721
_symmetry_space_group_name_H-M "P 2/M"
_symmetry_group_IT_number 10
_symmetry_cell_setting 'monoclinic'
loop_
_space_group_symop_operation_xyz
x,y,z
-x,y,-z
-x,-y,-z
x,-y,z
loop_
_atom_site_type_symbol
_atom_site_label
_atom_site_fract_x
_atom_site_fract_y
_atom_site_fract_z
Si Si1 0.184940 0.174448 0.780262
Si Si2 0.066211 0.675903 0.571877
Si Si3 0.725274 0.672092 0.503996
Si Si4 0.974847 0.173724 0.855685
Si Si5 0.561672 0.677121 0.077121
Si Si6 0.226903 0.325001 0.988196
Si Si7 0.476727 0.821393 0.374965
O O1 0.223086 0.297632 0.659419
O O2 0.248448 0.209462 0.862182
O O3 0.067353 0.198669 0.898134
O O4 0.203516 0.000000 0.724132
O O5 0.043672 0.500000 0.627324
O O6 0.182557 0.689807 0.458037
O O7 0.000000 0.727223 0.500000
O O8 0.044266 0.798449 0.692706
O O9 0.680993 0.500000 0.534124
O O10 0.638269 0.791154 0.585628
O O11 0.934539 0.000000 0.886021
O O12 0.882760 0.288139 0.891889
O O13 0.531562 0.500000 0.104782
O O14 0.680110 0.698882 0.975911
O O15 0.539795 0.747173 0.225512
O O16 0.500000 0.751243 0.000000
O O17 0.225706 0.500000 0.943019
O O18 0.500000 0.756372 0.500000
O O19 0.499784 0.000000 0.359435
#
# Coordination Sequence:
#
# PCOD8064171 Si02
#       7
#     4   4   4   4   4   4   4
#     4  10  20  35  55  83 119 151 183 229 285 344
#     4   9  19  36  56  79 109 145 185 228 275 333
#     4  10  20  35  58  85 113 148 189 236 288 341
#     4  10  21  35  53  80 114 149 182 223 279 341
#     4  10  24  45  64  85 117 157 202 251 301 354
#     4  11  22  36  58  83 109 147 191 235 284 341
#     4  11  24  41  63  91 121 155 197 248 303 357
#
# _framework density 22.011303999999999
#
# number of rings (size 3 to 8) (size 9 to 14) (size 15 to 20)
#    0.000    1.857    0.000    3.429    0.000   10.286 
#    0.000    5.714    0.000    0.000    0.000    0.000 
#    0.000    0.000    0.000    0.000    0.000    0.000 
#
# Total GULP energy -346902.544944 kJ/mol
# GULP energy per Si atom -12389.376605 kJ/mol
# Density = 2.196120 g / cm^3
# Si number density = 22.011304 Si / 1000 Ang^3
#
#
#
# Elastic Constant Matrix: (Units=GPa)
#
#
# Indices 1 2 3 4 5 6 
#
# 1 154.3983 41.3911 31.3101 0.0000 -6.3555 0.0000
# 2 41.3911 63.9410 12.5753 0.0000 1.1419 0.0000
# 3 31.3101 12.5753 43.9781 0.0000 -10.8343 0.0000
# 4 0.0000 0.0000 0.0000 30.5780 0.0000 -5.3940
# 5 -6.3555 1.1419 -10.8343 0.0000 31.5731 0.0000
# 6 0.0000 0.0000 0.0000 -5.3940 0.0000 22.3674
#
#
#
# Elastic Compliance Matrix: (Units=1/GPa)
#
#
# Indices 1 2 3 4 5 6 
#
# 1 0.008723 -0.004709 -0.004795 0.000000 0.000281 0.000000
# 2 -0.004709 0.019286 -0.002805 0.000000 -0.002608 0.000000
# 3 -0.004795 -0.002805 0.029211 0.000000 0.009160 0.000000
# 4 0.000000 0.000000 0.000000 0.034156 0.000000 0.008237
# 5 0.000281 -0.002608 0.009160 0.000000 0.034967 0.000000
# 6 0.000000 0.000000 0.000000 0.008237 0.000000 0.046694
#
#
# Mechanical properties :
#
#
# Convention : Reuss Voigt Hill
#
# Bulk Modulus (GPa) = 30.67185 48.09672 39.38428
# Shear Modulus (GPa) = 23.97848 28.70643 26.34246
#
# Velocity S-wave (km/s) = 3.30414 3.61524 3.46319
# Velocity P-wave (km/s) = 5.34054 6.27097 5.82436
#
# Compressibility (1/GPa) = 0.03260318
#
# Stress axis : x y z
#
# Youngs Moduli (GPa) = 114.64064 51.85190 34.23404
#
# Poissons Ratio (x) = 0.24415 0.16414
# Poissons Ratio (y) = 0.53981 0.09602
# Poissons Ratio (z) = 0.54966 0.14543
#
# Static dielectric constant tensor:
#      x y z
#    x 4.497670 0.000000 -0.133590 
#    y 0.000000 3.723320 0.000000 
#    z -0.133590 0.000000 3.809830 
# 
# 
# High freq. dielectric constant tensor:
#      x y z
#    x 1.886980 0.000000 -0.014890 
#    y 0.000000 1.854720 0.000000 
#    z -0.014890 0.000000 1.845990 
# 
# From -- ./inp_files/49639.got.cif
#   From: 2010.06.25/outbox.cif.g09.slc.cpg/sg10_25_cif.got.tgz:49639.got - 2010.06.27 22:07:45.
