data_PCOD8064800
_publ_section_title
;
Structure prediction by ZEFSAII (Michael W. Deem and Ramdas Pophale) SiO2 
 PCOD8064800
Probable space group: P 2/M
;
_chemical_formula_sum "Si O2"
_cell_formula_units_Z 20
_cell_length_a 25.801725
_cell_length_b 8.645068
_cell_length_c 8.912659
_cell_angle_alpha 90.000000
_cell_angle_beta 150.070593
_cell_angle_gamma 90.000000
_cell_volume 991.896447
_symmetry_space_group_name_H-M "P 2/M"
_symmetry_group_IT_number 10
_symmetry_cell_setting 'monoclinic'
loop_
_space_group_symop_operation_xyz
x,y,z
-x,y,-z
-x,-y,-z
x,-y,z
loop_
_atom_site_type_symbol
_atom_site_label
_atom_site_fract_x
_atom_site_fract_y
_atom_site_fract_z
Si Si1 0.702146 0.679074 0.345213
Si Si2 0.305725 0.182359 0.350343
Si Si3 0.102380 0.184184 0.675573
Si Si4 0.488333 0.178994 0.294907
Si Si5 0.889526 0.822266 0.645801
O O1 0.698219 0.500000 0.376709
O O2 0.691713 0.776134 0.469939
O O3 0.809897 0.716669 0.535457
O O4 0.608887 0.721070 0.000811
O O5 0.408971 0.245571 0.528361
O O6 0.302314 0.000000 0.323451
O O7 0.203675 0.252540 0.013684
O O8 0.103279 0.239367 0.505935
O O9 0.000000 0.251810 0.500000
O O10 0.100524 0.000000 0.679178
O O11 0.500000 0.201672 0.500000
O O12 0.469117 0.000000 0.204886
O O13 0.851020 0.000000 0.553432
O O14 0.000000 0.804846 0.000000
#
# Coordination Sequence:
#
# PCOD8064800 Si02
#       5
#     4   4   4   4   4
#     4  12  25  38  55  82 119 156 189 230 282 343
#     4  10  20  36  59  84 112 148 191 237 282 333
#     4   9  17  32  58  90 115 138 179 235 289 337
#     4  10  21  39  63  87 111 144 191 243 288 335
#     4  10  20  37  63  89 113 146 190 238 285 336
#
# _framework density 20.163395999999999
#
# number of rings (size 3 to 8) (size 9 to 14) (size 15 to 20)
#    0.000    1.800    0.000    4.800    0.000   10.400 
#    0.000    3.000    0.000    2.400    0.000    0.000 
#    0.000    0.000    0.000    0.000    0.000    0.000 
#
# Total GULP energy -248088.837758 kJ/mol
# GULP energy per Si atom -12404.441888 kJ/mol
# Density = 2.011750 g / cm^3
# Si number density = 20.163396 Si / 1000 Ang^3
#
#
#
# Elastic Constant Matrix: (Units=GPa)
#
#
# Indices 1 2 3 4 5 6 
#
# 1 135.8806 2.0108 37.6793 0.0000 8.3201 0.0000
# 2 2.0108 13.7876 17.7479 0.0000 5.9697 0.0000
# 3 37.6793 17.7479 109.7667 0.0000 5.6195 0.0000
# 4 0.0000 0.0000 0.0000 5.6014 0.0000 11.1661
# 5 8.3201 5.9697 5.6195 0.0000 41.1180 0.0000
# 6 0.0000 0.0000 0.0000 11.1661 0.0000 1.5374
#
#
#
# Elastic Compliance Matrix: (Units=1/GPa)
#
#
# Indices 1 2 3 4 5 6 
#
# 1 0.008359 0.003959 -0.003417 0.000000 -0.001799 0.000000
# 2 0.003959 0.099050 -0.016714 0.000000 -0.012897 0.000000
# 3 -0.003417 -0.016714 0.012916 0.000000 0.001353 0.000000
# 4 0.000000 0.000000 0.000000 -0.013245 0.000000 0.096201
# 5 -0.001799 -0.012897 0.001353 0.000000 0.026372 0.000000
# 6 0.000000 0.000000 0.000000 0.096201 0.000000 -0.048259
#
#
# Mechanical properties :
#
#
# Convention : Reuss Voigt Hill
#
# Bulk Modulus (GPa) = 11.36614 41.59010 26.47812
# Shear Modulus (GPa) = 34.04504 23.11783 28.58143
#
# Velocity S-wave (km/s) = 4.11354 3.38971 3.76904
# Velocity P-wave (km/s) = 5.31139 5.99929 5.66579
#
# Compressibility (1/GPa) = 0.08798065
#
# Stress axis : x y z
#
# Youngs Moduli (GPa) = 119.63792 10.09588 77.42104
#
# Poissons Ratio (x) = -0.03997 0.26456
# Poissons Ratio (y) = -0.47361 1.29400
# Poissons Ratio (z) = 0.40882 0.16874
#
# Static dielectric constant tensor:
#      x y z
#    x 3.879090 0.000000 0.114650 
#    y 0.000000 3.263960 0.000000 
#    z 0.114650 0.000000 3.898080 
# 
# 
# High freq. dielectric constant tensor:
#      x y z
#    x 1.806370 0.000000 0.001170 
#    y 0.000000 1.742870 0.000000 
#    z 0.001170 0.000000 1.807380 
# 
# From -- ./inp_files/22109.got.cif
#   From: 2010.06.25/outbox.cif.g09.slc.cpg/sg10_12_cif.got.tgz:22109.got - 2010.06.27 22:07:45.
