data_PCOD8064685
_publ_section_title
;
Structure prediction by ZEFSAII (Michael W. Deem and Ramdas Pophale) SiO2 
 PCOD8064685
Probable space group: P 2/M
;
_chemical_formula_sum "Si O2"
_cell_formula_units_Z 32
_cell_length_a 22.530395
_cell_length_b 9.242456
_cell_length_c 27.459986
_cell_angle_alpha 90.000000
_cell_angle_beta 162.468241
_cell_angle_gamma 90.000000
_cell_volume 1722.507300
_symmetry_space_group_name_H-M "P 2/M"
_symmetry_group_IT_number 10
_symmetry_cell_setting 'monoclinic'
loop_
_space_group_symop_operation_xyz
x,y,z
-x,y,-z
-x,-y,-z
x,-y,z
loop_
_atom_site_type_symbol
_atom_site_label
_atom_site_fract_x
_atom_site_fract_y
_atom_site_fract_z
Si Si1 0.205817 0.833314 0.141433
Si Si2 0.535223 0.331943 0.725813
Si Si3 0.194496 0.329902 0.385588
Si Si4 0.551824 0.833305 0.487402
Si Si5 0.225176 0.328277 0.907394
Si Si6 0.726972 0.666304 0.164744
Si Si7 0.429435 0.329016 0.752200
Si Si8 0.032098 0.830178 0.468700
O O1 0.275431 0.750995 0.147357
O O2 0.361364 0.809170 0.305676
O O3 0.180545 0.000000 0.107194
O O4 0.000000 0.769091 0.000000
O O5 0.579952 0.500000 0.754865
O O6 0.337299 0.288081 0.542046
O O7 0.508338 0.288203 0.760654
O O8 0.191840 0.500000 0.374255
O O9 0.264489 0.254464 0.390686
O O10 0.978095 0.269565 0.228914
O O11 0.500000 0.771825 0.500000
O O12 0.615509 0.000000 0.540204
O O13 0.224834 0.500000 0.907612
O O14 0.242758 0.272565 0.865987
O O15 0.409535 0.272263 0.083160
O O16 0.799553 0.500000 0.225925
O O17 0.847326 0.765456 0.295616
O O18 0.500000 0.679226 0.000000
O O19 0.389751 0.500000 0.725858
O O20 0.228855 0.245601 0.604331
O O21 0.000000 0.795965 0.500000
O O22 0.046698 0.000000 0.469714
#
# Coordination Sequence:
#
# PCOD8064685 Si02
#       8
#     4   4   4   4   4   4   4   4
#     4   9  18  32  49  69  96 132 170 208 253 307
#     4   9  18  32  51  75 102 133 168 211 261 309
#     4   9  17  31  49  70 100 133 164 203 254 308
#     4   9  18  32  48  67  93 125 164 208 251 299
#     4   9  18  33  54  81 108 133 169 218 262 303
#     4  10  20  36  60  85 107 138 180 219 257 306
#     4  10  20  36  58  81 106 138 177 218 261 312
#     4  11  24  39  55  79 112 145 176 215 263 311
#
# _framework density 18.577570000000001
#
# number of rings (size 3 to 8) (size 9 to 14) (size 15 to 20)
#    0.000    2.500    0.000    1.875    0.000    6.250 
#    0.000    4.375    0.000    0.000    0.000    0.000 
#    0.000    0.000    0.000    0.000    0.000    0.000 
#
# Total GULP energy -396868.920063 kJ/mol
# GULP energy per Si atom -12402.153752 kJ/mol
# Density = 1.853529 g / cm^3
# Si number density = 18.577570 Si / 1000 Ang^3
#
#
#
# Elastic Constant Matrix: (Units=GPa)
#
#
# Indices 1 2 3 4 5 6 
#
# 1 155.2127 55.7529 58.1480 0.0000 4.9598 0.0000
# 2 55.7529 53.2855 41.0085 0.0000 4.9148 0.0000
# 3 58.1480 41.0085 99.3518 0.0000 10.8446 0.0000
# 4 0.0000 0.0000 0.0000 16.8408 0.0000 3.2859
# 5 4.9598 4.9148 10.8446 0.0000 35.0946 0.0000
# 6 0.0000 0.0000 0.0000 3.2859 0.0000 21.3381
#
#
#
# Elastic Compliance Matrix: (Units=1/GPa)
#
#
# Indices 1 2 3 4 5 6 
#
# 1 0.010711 -0.009361 -0.002466 0.000000 0.000559 0.000000
# 2 -0.009361 0.035688 -0.009160 0.000000 -0.000844 0.000000
# 3 -0.002466 -0.009160 0.015639 0.000000 -0.003201 0.000000
# 4 0.000000 0.000000 0.000000 0.061219 0.000000 -0.009427
# 5 0.000559 -0.000844 -0.003201 0.000000 0.029523 0.000000
# 6 0.000000 0.000000 0.000000 -0.009427 0.000000 0.048316
#
#
# Mechanical properties :
#
#
# Convention : Reuss Voigt Hill
#
# Bulk Modulus (GPa) = 49.83905 68.62986 59.23445
# Shear Modulus (GPa) = 20.01928 24.85074 22.43501
#
# Velocity S-wave (km/s) = 3.28625 3.66139 3.47888
# Velocity P-wave (km/s) = 6.42534 7.40924 6.93477
#
# Compressibility (1/GPa) = 0.02006459
#
# Stress axis : x y z
#
# Youngs Moduli (GPa) = 93.35951 28.02028 63.94259
#
# Poissons Ratio (x) = 0.26229 0.15770
# Poissons Ratio (y) = 0.87392 0.58571
# Poissons Ratio (z) = 0.23025 0.25667
#
# Static dielectric constant tensor:
#      x y z
#    x 1.547990 0.000000 0.044220 
#    y 0.000000 3.257220 0.000000 
#    z 0.044220 0.000000 3.473470 
# 
# 
# High freq. dielectric constant tensor:
#      x y z
#    x 1.734890 0.000000 0.005840 
#    y 0.000000 1.697220 0.000000 
#    z 0.005840 0.000000 1.725260 
# 
# From -- ./inp_files/93711.got.cif
#   From: 2010.06.25/outbox.cif.g09.slc.cpg/sg10_47_cif.got.tgz:93711.got - 2010.06.27 22:07:45.
