data_PCOD8064616
_publ_section_title
;
Structure prediction by ZEFSAII (Michael W. Deem and Ramdas Pophale) SiO2 
 PCOD8064616
Probable space group: P 2/M
;
_chemical_formula_sum "Si O2"
_cell_formula_units_Z 32
_cell_length_a 14.910645
_cell_length_b 9.440051
_cell_length_c 23.662977
_cell_angle_alpha 90.000000
_cell_angle_beta 29.823175
_cell_angle_gamma 90.000000
_cell_volume 1656.457772
_symmetry_space_group_name_H-M "P 2/M"
_symmetry_group_IT_number 10
_symmetry_cell_setting 'monoclinic'
loop_
_space_group_symop_operation_xyz
x,y,z
-x,y,-z
-x,-y,-z
x,-y,z
loop_
_atom_site_type_symbol
_atom_site_label
_atom_site_fract_x
_atom_site_fract_y
_atom_site_fract_z
Si Si1 0.412992 0.335561 0.725265
Si Si2 0.638587 0.664551 0.790065
Si Si3 0.928270 0.153252 0.599616
Si Si4 0.289079 0.665779 0.914715
Si Si5 0.073748 0.663986 0.830609
Si Si6 0.060351 0.835391 0.725433
Si Si7 0.246639 0.166468 0.507109
Si Si8 0.312545 0.834787 0.126597
O O1 0.469446 0.500000 0.699901
O O2 0.355803 0.271556 0.818022
O O3 0.243829 0.315592 0.777273
O O4 0.577222 0.250916 0.608200
O O5 0.667574 0.500000 0.784142
O O6 0.775670 0.728171 0.669270
O O7 0.434880 0.699424 0.883698
O O8 0.714274 0.750536 0.801640
O O9 0.000000 0.117227 0.500000
O O10 0.081282 0.213170 0.557961
O O11 0.857324 0.000000 0.662938
O O12 0.264419 0.500000 0.918016
O O13 0.099760 0.728374 0.040894
O O14 0.038736 0.500000 0.834812
O O15 0.113797 0.745410 0.750768
O O16 0.193034 0.795581 0.601090
O O17 0.852504 0.799584 0.824500
O O18 0.080863 0.000000 0.729293
O O19 0.286520 0.000000 0.478994
O O20 0.323840 0.000000 0.133550
O O21 0.500000 0.776426 0.000000
#
# Coordination Sequence:
#
# PCOD8064616 Si02
#       8
#     4   4   4   4   4   4   4   4
#     4  10  21  38  61  85 110 146 192 239 286 339
#     4  11  21  32  53  84 115 145 178 224 279 333
#     4  10  20  36  57  79 109 150 192 229 269 331
#     4   9  19  37  58  84 118 149 181 230 293 348
#     4  10  21  38  61  85 110 146 192 239 286 339
#     4  10  21  38  57  80 115 153 188 231 284 338
#     4  10  21  38  57  80 115 153 188 231 284 338
#     4  10  20  36  57  79 109 150 192 229 269 331
#
# _framework density 19.318331000000001
#
# number of rings (size 3 to 8) (size 9 to 14) (size 15 to 20)
#    0.000    2.000    1.250    2.250    0.000    4.500 
#    0.000    4.375    0.000    1.500    0.000    0.000 
#    0.000    0.000    0.000    0.000    0.000    0.000 
#
# Total GULP energy -396650.345404 kJ/mol
# GULP energy per Si atom -12395.323294 kJ/mol
# Density = 1.927436 g / cm^3
# Si number density = 19.318331 Si / 1000 Ang^3
#
#
#
# Elastic Constant Matrix: (Units=GPa)
#
#
# Indices 1 2 3 4 5 6 
#
# 1 76.4242 39.6150 28.9815 0.0000 7.7709 0.0000
# 2 39.6150 53.1285 36.1699 0.0000 -4.4463 0.0000
# 3 28.9815 36.1699 115.7305 0.0000 -0.4388 0.0000
# 4 0.0000 0.0000 0.0000 6.0883 0.0000 -19.3283
# 5 7.7709 -4.4463 -0.4388 0.0000 32.6281 0.0000
# 6 0.0000 0.0000 0.0000 -19.3283 0.0000 12.2920
#
#
#
# Elastic Compliance Matrix: (Units=1/GPa)
#
#
# Indices 1 2 3 4 5 6 
#
# 1 0.023223 -0.017787 -0.000287 0.000000 -0.007958 0.000000
# 2 -0.017787 0.037863 -0.007344 0.000000 0.009297 0.000000
# 3 -0.000287 -0.007344 0.011005 0.000000 -0.000785 0.000000
# 4 0.000000 0.000000 0.000000 -0.041146 0.000000 -0.064698
# 5 -0.007958 0.009297 -0.000785 0.000000 0.033800 0.000000
# 6 0.000000 0.000000 0.000000 -0.064698 0.000000 -0.020380
#
#
# Mechanical properties :
#
#
# Convention : Reuss Voigt Hill
#
# Bulk Modulus (GPa) = 47.04680 50.53510 48.79095
# Shear Modulus (GPa) = 48.88307 19.56948 34.22627
#
# Velocity S-wave (km/s) = 5.03576 3.18622 4.21372
# Velocity P-wave (km/s) = 7.63009 6.30491 6.99893
#
# Compressibility (1/GPa) = 0.02125543
#
# Stress axis : x y z
#
# Youngs Moduli (GPa) = 43.06141 26.41125 90.86910
#
# Poissons Ratio (x) = 0.46977 0.02605
# Poissons Ratio (y) = 0.76592 0.66734
# Poissons Ratio (z) = 0.01234 0.19396
#
# Static dielectric constant tensor:
#      x y z
#    x 3.497250 0.000000 0.041560 
#    y 0.000000 3.387630 0.000000 
#    z 0.041560 0.000000 3.899140 
# 
# 
# High freq. dielectric constant tensor:
#      x y z
#    x 1.755940 0.000000 0.003720 
#    y 0.000000 1.731450 0.000000 
#    z 0.003720 0.000000 1.765600 
# 
# From -- ./inp_files/71524.got.cif
#   From: 2010.06.25/outbox.cif.g09.slc.cpg/sg10_36_cif.got.tgz:71524.got - 2010.06.27 22:07:45.
