data_PCOD8064586
_publ_section_title
;
Structure prediction by ZEFSAII (Michael W. Deem and Ramdas Pophale) SiO2 
 PCOD8064586
Probable space group: P 2/M
;
_chemical_formula_sum "Si O2"
_cell_formula_units_Z 28
_cell_length_a 11.945211
_cell_length_b 9.128235
_cell_length_c 15.493438
_cell_angle_alpha 90.000000
_cell_angle_beta 60.394110
_cell_angle_gamma 90.000000
_cell_volume 1468.825233
_symmetry_space_group_name_H-M "P 2/M"
_symmetry_group_IT_number 10
_symmetry_cell_setting 'monoclinic'
loop_
_space_group_symop_operation_xyz
x,y,z
-x,y,-z
-x,-y,-z
x,-y,z
loop_
_atom_site_type_symbol
_atom_site_label
_atom_site_fract_x
_atom_site_fract_y
_atom_site_fract_z
Si Si1 0.682510 0.172983 0.482103
Si Si2 0.421152 0.172607 0.659664
Si Si3 0.372953 0.327891 0.848957
Si Si4 0.865532 0.826333 0.802835
Si Si5 0.424681 0.834048 0.117196
Si Si6 0.897990 0.672362 0.966157
Si Si7 0.040850 0.825410 0.577367
O O1 0.572682 0.213095 0.593670
O O2 0.648058 0.230569 0.400220
O O3 0.817848 0.241191 0.459321
O O4 0.692374 0.000000 0.471623
O O5 0.355613 0.260059 0.761516
O O6 0.401627 0.000000 0.681839
O O7 0.387646 0.500000 0.835530
O O8 0.502610 0.265419 0.841580
O O9 0.246298 0.284236 0.950731
O O10 0.719119 0.773914 0.842874
O O11 0.945677 0.772611 0.689227
O O12 0.872571 0.000000 0.813272
O O13 0.925955 0.753012 0.865194
O O14 0.420654 0.000000 0.154696
O O15 0.500000 0.825783 0.000000
O O16 0.912358 0.500000 0.945551
O O17 0.000000 0.725186 0.000000
O O18 0.000000 0.762191 0.500000
O O19 0.043332 0.000000 0.573867
#
# Coordination Sequence:
#
# PCOD8064586 Si02
#       7
#     4   4   4   4   4   4   4
#     4   8  16  32  52  78 109 142 179 220 275 328
#     4   9  18  33  56  81 107 140 179 226 274 321
#     4  11  23  36  55  82 109 143 185 223 271 330
#     4  10  21  36  58  87 111 142 186 232 276 318
#     4  10  20  36  56  80 110 139 177 227 275 320
#     4  10  23  41  57  77 112 154 187 219 273 336
#     4   9  18  31  51  81 114 142 175 222 274 327
#
# _framework density 19.062854000000002
#
# number of rings (size 3 to 8) (size 9 to 14) (size 15 to 20)
#    0.000    2.429    1.429    1.286    4.000    1.714 
#    0.000    1.429    0.000    1.286    0.000    0.000 
#    0.000    0.000    0.000    0.000    0.000    0.000 
#
# Total GULP energy -347184.445887 kJ/mol
# GULP energy per Si atom -12399.444496 kJ/mol
# Density = 1.901947 g / cm^3
# Si number density = 19.062854 Si / 1000 Ang^3
#
#
#
# Elastic Constant Matrix: (Units=GPa)
#
#
# Indices 1 2 3 4 5 6 
#
# 1 145.1436 27.7695 59.9529 0.0000 0.6594 0.0000
# 2 27.7695 37.9406 34.5973 0.0000 6.7136 0.0000
# 3 59.9529 34.5973 130.4509 0.0000 11.1838 0.0000
# 4 0.0000 0.0000 0.0000 7.5751 0.0000 2.5163
# 5 0.6594 6.7136 11.1838 0.0000 30.9604 0.0000
# 6 0.0000 0.0000 0.0000 2.5163 0.0000 15.9794
#
#
#
# Elastic Compliance Matrix: (Units=1/GPa)
#
#
# Indices 1 2 3 4 5 6 
#
# 1 0.008972 -0.003941 -0.003235 0.000000 0.001832 0.000000
# 2 -0.003941 0.037071 -0.007573 0.000000 -0.005219 0.000000
# 3 -0.003235 -0.007573 0.011366 0.000000 -0.002395 0.000000
# 4 0.000000 0.000000 0.000000 0.139297 0.000000 -0.021935
# 5 0.001832 -0.005219 -0.002395 0.000000 0.034257 0.000000
# 6 0.000000 0.000000 0.000000 -0.021935 0.000000 0.066035
#
#
# Mechanical properties :
#
#
# Convention : Reuss Voigt Hill
#
# Bulk Modulus (GPa) = 35.82855 62.01939 48.92397
# Shear Modulus (GPa) = 14.88986 23.65069 19.27027
#
# Velocity S-wave (km/s) = 2.79784 3.52613 3.18288
# Velocity P-wave (km/s) = 5.41045 7.01306 6.26322
#
# Compressibility (1/GPa) = 0.02791070
#
# Stress axis : x y z
#
# Youngs Moduli (GPa) = 111.46213 26.97560 87.97903
#
# Poissons Ratio (x) = 0.10630 0.28463
# Poissons Ratio (y) = 0.43923 0.66628
# Poissons Ratio (z) = 0.36060 0.20429
#
# Static dielectric constant tensor:
#      x y z
#    x 3.873830 0.000000 -0.065720 
#    y 0.000000 3.062520 0.000000 
#    z -0.065720 0.000000 3.539550 
# 
# 
# High freq. dielectric constant tensor:
#      x y z
#    x 1.753160 0.000000 0.000240 
#    y 0.000000 1.696710 0.000000 
#    z 0.000240 0.000000 1.750090 
# 
# From -- ./inp_files/63636.got.cif
#   From: 2010.06.25/outbox.cif.g09.slc.cpg/sg10_32_cif.got.tgz:63636.got - 2010.06.27 22:07:45.
