data_PCOD8064630
_publ_section_title
;
Structure prediction by ZEFSAII (Michael W. Deem and Ramdas Pophale) SiO2 
 PCOD8064630
Probable space group: P 2/M
;
_chemical_formula_sum "Si O2"
_cell_formula_units_Z 24
_cell_length_a 16.234013
_cell_length_b 7.591916
_cell_length_c 22.120418
_cell_angle_alpha 90.000000
_cell_angle_beta 154.417959
_cell_angle_gamma 90.000000
_cell_volume 1177.216451
_symmetry_space_group_name_H-M "P 2/M"
_symmetry_group_IT_number 10
_symmetry_cell_setting 'monoclinic'
loop_
_space_group_symop_operation_xyz
x,y,z
-x,y,-z
-x,-y,-z
x,-y,z
loop_
_atom_site_type_symbol
_atom_site_label
_atom_site_fract_x
_atom_site_fract_y
_atom_site_fract_z
Si Si1 0.323632 0.500000 0.308609
Si Si2 0.302807 0.209862 0.688477
Si Si3 0.948999 0.804433 0.897189
Si Si4 0.273707 0.205879 0.023481
Si Si5 0.964528 0.792030 0.383529
Si Si6 0.740157 0.500000 0.593247
Si Si7 0.972947 0.206505 0.252792
O O1 0.230896 0.678156 0.223030
O O2 0.538605 0.500000 0.425188
O O3 0.308619 0.500000 0.369659
O O4 0.201478 0.281392 0.682623
O O5 0.173648 0.272352 0.545733
O O6 0.315492 0.000000 0.699091
O O7 0.516785 0.291224 0.826945
O O8 0.121229 0.719758 0.971178
O O9 0.897413 0.000000 0.837432
O O10 0.000000 0.822484 0.000000
O O11 0.204501 0.247210 0.909181
O O12 0.290267 0.000000 0.045692
O O13 0.921680 0.730775 0.286805
O O14 0.962393 0.000000 0.386145
O O15 0.848074 0.320090 0.649515
O O16 0.028823 0.000000 0.287512
#
# Coordination Sequence:
#
# PCOD8064630 Si02
#       7
#     2   4   4   4   4   2   4
#     4  11  23  40  58  81 111 148 189 231 285 339
#     4   8  14  27  49  80 112 143 185 227 273 332
#     4  10  21  38  60  85 114 147 186 235 285 335
#     4   9  17  30  51  78 108 144 184 226 274 330
#     4   8  15  28  50  80 113 146 180 227 276 327
#     4  11  24  38  58  81 111 150 186 234 284 335
#     4  10  20  36  57  81 111 147 187 230 281 332
#
# _framework density 20.387073999999998
#
# number of rings (size 3 to 8) (size 9 to 14) (size 15 to 20)
#    0.000    2.667    1.667    1.250    0.000    2.667 
#    0.000    8.333    0.000    5.000    0.000    0.000 
#    0.000    0.000    0.000    0.000    0.000    0.000 
#
# Total GULP energy -297415.219076 kJ/mol
# GULP energy per Si atom -12392.300795 kJ/mol
# Density = 2.034067 g / cm^3
# Si number density = 20.387074 Si / 1000 Ang^3
#
#
#
# Elastic Constant Matrix: (Units=GPa)
#
#
# Indices 1 2 3 4 5 6 
#
# 1 75.0158 5.3515 36.6470 0.0000 -17.3401 0.0000
# 2 5.3515 62.0968 28.5430 0.0000 7.7093 0.0000
# 3 36.6470 28.5430 134.1554 0.0000 10.9864 0.0000
# 4 0.0000 0.0000 0.0000 9.0806 0.0000 6.9430
# 5 -17.3401 7.7093 10.9864 0.0000 33.4919 0.0000
# 6 0.0000 0.0000 0.0000 6.9430 0.0000 15.7204
#
#
#
# Elastic Compliance Matrix: (Units=1/GPa)
#
#
# Indices 1 2 3 4 5 6 
#
# 1 0.019122 -0.000315 -0.006138 0.000000 0.011986 0.000000
# 2 -0.000315 0.018141 -0.003513 0.000000 -0.003186 0.000000
# 3 -0.006138 -0.003513 0.010350 0.000000 -0.005765 0.000000
# 4 0.000000 0.000000 0.000000 0.166273 0.000000 -0.073436
# 5 0.011986 -0.003186 -0.005765 0.000000 0.038688 0.000000
# 6 0.000000 0.000000 0.000000 -0.073436 0.000000 0.096045
#
#
# Mechanical properties :
#
#
# Convention : Reuss Voigt Hill
#
# Bulk Modulus (GPa) = 36.12396 45.81678 40.97037
# Shear Modulus (GPa) = 13.23523 25.04036 19.13780
#
# Velocity S-wave (km/s) = 2.55070 3.50844 3.06718
# Velocity P-wave (km/s) = 5.14123 6.23974 5.71693
#
# Compressibility (1/GPa) = 0.02768246
#
# Stress axis : x y z
#
# Youngs Moduli (GPa) = 52.29484 55.12288 96.61536
#
# Poissons Ratio (x) = 0.01734 0.59305
# Poissons Ratio (y) = 0.01645 0.33940
# Poissons Ratio (z) = 0.32100 0.19364
#
# Static dielectric constant tensor:
#      x y z
#    x 4.021260 0.000000 -0.002880 
#    y 0.000000 3.978690 0.000000 
#    z -0.002880 0.000000 4.165980 
# 
# 
# High freq. dielectric constant tensor:
#      x y z
#    x 1.796400 0.000000 -0.005620 
#    y 0.000000 1.775120 0.000000 
#    z -0.005620 0.000000 1.793060 
# 
# From -- ./inp_files/90090.got.cif
#   From: 2010.06.25/outbox.cif.g09.slc.cpg/sg10_46_cif.got.tgz:90090.got - 2010.06.27 22:07:45.
