data_PCOD8064496
_publ_section_title
;
Structure prediction by ZEFSAII (Michael W. Deem and Ramdas Pophale) SiO2 
 PCOD8064496
Probable space group: P 2/M
;
_chemical_formula_sum "Si O2"
_cell_formula_units_Z 28
_cell_length_a 13.386364
_cell_length_b 8.803126
_cell_length_c 12.543334
_cell_angle_alpha 90.000000
_cell_angle_beta 112.326755
_cell_angle_gamma 90.000000
_cell_volume 1367.317875
_symmetry_space_group_name_H-M "P 2/M"
_symmetry_group_IT_number 10
_symmetry_cell_setting 'monoclinic'
loop_
_space_group_symop_operation_xyz
x,y,z
-x,y,-z
-x,-y,-z
x,-y,z
loop_
_atom_site_type_symbol
_atom_site_label
_atom_site_fract_x
_atom_site_fract_y
_atom_site_fract_z
Si Si1 0.514086 0.322235 0.822803
Si Si2 0.817535 0.826155 0.674887
Si Si3 0.874545 0.823250 0.462346
Si Si4 0.883817 0.677086 0.908150
Si Si5 0.271790 0.678950 0.775381
Si Si6 0.430397 0.826716 0.371330
Si Si7 0.282106 0.820633 0.999545
O O1 0.527645 0.500000 0.848739
O O2 0.392941 0.267000 0.797552
O O3 0.541349 0.285565 0.712233
O O4 0.595613 0.237129 0.935243
O O5 0.840418 0.766767 0.565507
O O6 0.884159 0.723299 0.784335
O O7 0.692412 0.807690 0.646803
O O8 0.856273 0.000000 0.702598
O O9 0.808330 0.728052 0.349995
O O10 0.000000 0.788837 0.500000
O O11 0.847167 0.000000 0.434923
O O12 0.859404 0.500000 0.911705
O O13 0.791115 0.768862 0.931497
O O14 0.000000 0.722371 0.000000
O O15 0.264932 0.500000 0.786944
O O16 0.233981 0.755918 0.870184
O O17 0.500000 0.775358 0.500000
O O18 0.456901 0.000000 0.348125
O O19 0.282075 0.000000 0.996007
#
# Coordination Sequence:
#
# PCOD8064496 Si02
#       7
#     4   4   4   4   4   4   4
#     4  11  23  40  62  92 129 167 209 260 316 381
#     4  10  21  39  63  93 128 166 210 258 309 370
#     4  10  23  43  66  95 128 168 216 263 313 372
#     4  11  25  43  65  95 129 167 209 258 318 379
#     4  11  25  43  64  93 130 171 213 261 320 378
#     4  10  20  35  59  90 125 167 208 254 309 370
#     4  12  25  42  67  96 127 167 212 262 320 378
#
# _framework density 20.478045999999999
#
# number of rings (size 3 to 8) (size 9 to 14) (size 15 to 20)
#    0.000    1.286    1.429    3.857    2.000    7.429 
#    0.000    0.000    0.000    0.000    0.000    0.000 
#    0.000    0.000    0.000    0.000    0.000    0.000 
#
# Total GULP energy -347404.098292 kJ/mol
# GULP energy per Si atom -12407.289225 kJ/mol
# Density = 2.043144 g / cm^3
# Si number density = 20.478046 Si / 1000 Ang^3
#
#
#
# Elastic Constant Matrix: (Units=GPa)
#
#
# Indices 1 2 3 4 5 6 
#
# 1 62.7781 36.0687 37.4520 0.0000 2.2533 0.0000
# 2 36.0687 88.9114 47.2525 0.0000 7.6289 0.0000
# 3 37.4520 47.2525 151.6494 0.0000 3.1517 0.0000
# 4 0.0000 0.0000 0.0000 35.4155 0.0000 5.0991
# 5 2.2533 7.6289 3.1517 0.0000 39.0266 0.0000
# 6 0.0000 0.0000 0.0000 5.0991 0.0000 23.1895
#
#
#
# Elastic Compliance Matrix: (Units=1/GPa)
#
#
# Indices 1 2 3 4 5 6 
#
# 1 0.021982 -0.007266 -0.003173 0.000000 0.000407 0.000000
# 2 -0.007266 0.016090 -0.003168 0.000000 -0.002470 0.000000
# 3 -0.003173 -0.003168 0.008362 0.000000 0.000127 0.000000
# 4 0.000000 0.000000 0.000000 0.029159 0.000000 -0.006412
# 5 0.000407 -0.002470 0.000127 0.000000 0.026073 0.000000
# 6 0.000000 0.000000 0.000000 -0.006412 0.000000 0.044533
#
#
# Mechanical properties :
#
#
# Convention : Reuss Voigt Hill
#
# Bulk Modulus (GPa) = 52.02766 60.54282 56.28524
# Shear Modulus (GPa) = 27.80550 31.69737 29.75144
#
# Velocity S-wave (km/s) = 3.68886 3.93857 3.81576
# Velocity P-wave (km/s) = 6.60343 7.09310 6.85264
#
# Compressibility (1/GPa) = 0.01922055
#
# Stress axis : x y z
#
# Youngs Moduli (GPa) = 45.49126 62.14951 119.58505
#
# Poissons Ratio (x) = 0.45158 0.37947
# Poissons Ratio (y) = 0.33054 0.37882
# Poissons Ratio (z) = 0.14436 0.19688
#
# Static dielectric constant tensor:
#      x y z
#    x 3.798410 0.000000 -0.016960 
#    y 0.000000 3.642380 0.000000 
#    z -0.016960 0.000000 3.862160 
# 
# 
# High freq. dielectric constant tensor:
#      x y z
#    x 1.806860 0.000000 -0.000290 
#    y 0.000000 1.797290 0.000000 
#    z -0.000290 0.000000 1.818890 
# 
# From -- ./inp_files/49314.got.cif
#   From: 2010.06.25/outbox.cif.g09.slc.cpg/sg10_25_cif.got.tgz:49314.got - 2010.06.27 22:07:45.
