data_PCOD8064889
_publ_section_title
;
Structure prediction by ZEFSAII (Michael W. Deem and Ramdas Pophale) SiO2 
 PCOD8064889
Probable space group: P 2/M
;
_chemical_formula_sum "Si O2"
_cell_formula_units_Z 32
_cell_length_a 11.841065
_cell_length_b 8.799628
_cell_length_c 28.848380
_cell_angle_alpha 90.000000
_cell_angle_beta 31.029105
_cell_angle_gamma 90.000000
_cell_volume 1549.468648
_symmetry_space_group_name_H-M "P 2/M"
_symmetry_group_IT_number 10
_symmetry_cell_setting 'monoclinic'
loop_
_space_group_symop_operation_xyz
x,y,z
-x,y,-z
-x,-y,-z
x,-y,z
loop_
_atom_site_type_symbol
_atom_site_label
_atom_site_fract_x
_atom_site_fract_y
_atom_site_fract_z
Si Si1 0.036794 0.176240 0.216571
Si Si2 0.601204 0.180185 0.840059
Si Si3 0.819134 0.173688 0.670728
Si Si4 0.227790 0.323471 0.482801
Si Si5 0.576118 0.175229 0.421956
Si Si6 0.436572 0.172380 0.330377
Si Si7 0.107886 0.819317 0.010028
Si Si8 0.890789 0.677752 0.175460
O O1 0.259257 0.229663 0.164067
O O2 0.834567 0.203983 0.323092
O O3 0.024674 0.271332 0.173678
O O4 0.049387 0.000000 0.198241
O O5 0.721413 0.243162 0.752088
O O6 0.591776 0.000000 0.839219
O O7 0.354904 0.245596 0.928551
O O8 0.625608 0.182871 0.701351
O O9 0.023324 0.276095 0.585591
O O10 0.900713 0.000000 0.648032
O O11 0.214784 0.500000 0.476145
O O12 0.451228 0.284423 0.430735
O O13 0.230701 0.231322 0.433222
O O14 0.500000 0.221385 0.500000
O O15 0.514883 0.000000 0.433450
O O16 0.638268 0.280598 0.271532
O O17 0.497086 0.000000 0.323007
O O18 0.969978 0.761914 0.101741
O O19 0.105896 0.000000 0.011517
O O20 0.000000 0.759975 0.000000
O O21 0.920057 0.500000 0.158280
#
# Coordination Sequence:
#
# PCOD8064889 Si02
#       8
#     4   4   4   4   4   4   4   4
#     4  10  20  37  62  88 119 159 205 255 304 360
#     4   9  19  38  65  94 118 150 203 259 304 354
#     4  10  21  39  63  89 118 156 205 257 308 364
#     4  12  24  36  54  86 126 163 201 248 309 375
#     4  10  20  36  60  85 114 160 215 263 306 357
#     4  11  22  39  63  88 117 159 211 260 305 361
#     4  10  21  41  69  97 124 157 203 254 305 366
#     4  12  25  40  61  90 127 165 202 251 312 375
#
# _framework density 20.652239999999999
#
# number of rings (size 3 to 8) (size 9 to 14) (size 15 to 20)
#    0.000    1.500    1.250    4.500    0.000    7.500 
#    0.000    5.625    0.000    0.000    0.000    0.000 
#    0.000    0.000    0.000    0.000    0.000    0.000 
#
# Total GULP energy -396915.696410 kJ/mol
# GULP energy per Si atom -12403.615513 kJ/mol
# Density = 2.060523 g / cm^3
# Si number density = 20.652240 Si / 1000 Ang^3
#
#
#
# Elastic Constant Matrix: (Units=GPa)
#
#
# Indices 1 2 3 4 5 6 
#
# 1 112.9748 27.5112 46.1283 0.0000 0.8404 0.0000
# 2 27.5112 44.1762 15.3840 0.0000 -2.4092 0.0000
# 3 46.1283 15.3840 101.0943 0.0000 1.6832 0.0000
# 4 0.0000 0.0000 0.0000 15.7672 0.0000 2.7464
# 5 0.8404 -2.4092 1.6832 0.0000 42.3922 0.0000
# 6 0.0000 0.0000 0.0000 2.7464 0.0000 0.8760
#
#
#
# Elastic Compliance Matrix: (Units=1/GPa)
#
#
# Indices 1 2 3 4 5 6 
#
# 1 0.012218 -0.006010 -0.004654 0.000000 -0.000399 0.000000
# 2 -0.006010 0.026956 -0.001388 0.000000 0.001706 0.000000
# 3 -0.004654 -0.001388 0.012234 0.000000 -0.000472 0.000000
# 4 0.000000 0.000000 0.000000 0.139716 0.000000 -0.438005
# 5 -0.000399 0.001706 -0.000472 0.000000 0.023713 0.000000
# 6 0.000000 0.000000 0.000000 -0.438005 0.000000 2.514630
#
#
# Mechanical properties :
#
#
# Convention : Reuss Voigt Hill
#
# Bulk Modulus (GPa) = 36.62403 48.47693 42.55048
# Shear Modulus (GPa) = 1.80984 23.08854 12.44919
#
# Velocity S-wave (km/s) = 0.93715 3.34723 2.45786
# Velocity P-wave (km/s) = 4.35238 6.20182 5.35750
#
# Compressibility (1/GPa) = 0.02730447
#
# Stress axis : x y z
#
# Youngs Moduli (GPa) = 81.84472 37.09756 81.73721
#
# Poissons Ratio (x) = 0.22296 0.38039
# Poissons Ratio (y) = 0.49190 0.11345
# Poissons Ratio (z) = 0.38089 0.05149
#
# Static dielectric constant tensor:
#      x y z
#    x 3.875910 0.000000 0.017590 
#    y 0.000000 3.414420 0.000000 
#    z 0.017590 0.000000 3.827440 
# 
# 
# High freq. dielectric constant tensor:
#      x y z
#    x 1.821080 0.000000 0.003750 
#    y 0.000000 1.776890 0.000000 
#    z 0.003750 0.000000 1.813850 
# 
# From -- ./inp_files/94995.got.cif
#   From: 2010.06.25/outbox.cif.g09.slc.cpg/sg10_48_cif.got.tgz:94995.got - 2010.06.27 22:07:45.
