data_PCOD8064187
_publ_section_title
;
Structure prediction by ZEFSAII (Michael W. Deem and Ramdas Pophale) SiO2 
 PCOD8064187
Probable space group: P 2/M
;
_chemical_formula_sum "Si O2"
_cell_formula_units_Z 30
_cell_length_a 15.932858
_cell_length_b 9.124562
_cell_length_c 11.314094
_cell_angle_alpha 90.000000
_cell_angle_beta 91.056957
_cell_angle_gamma 90.000000
_cell_volume 1644.567086
_symmetry_space_group_name_H-M "P 2/M"
_symmetry_group_IT_number 10
_symmetry_cell_setting 'monoclinic'
loop_
_space_group_symop_operation_xyz
x,y,z
-x,y,-z
-x,-y,-z
x,-y,z
loop_
_atom_site_type_symbol
_atom_site_label
_atom_site_fract_x
_atom_site_fract_y
_atom_site_fract_z
Si Si1 0.235882 0.833503 0.170828
Si Si2 0.509902 0.836597 0.258998
Si Si3 0.668748 0.673861 0.366710
Si Si4 0.339514 0.833255 0.391667
Si Si5 0.323311 0.658666 0.989365
Si Si6 0.092200 0.828698 0.995063
Si Si7 0.500000 0.258172 0.000000
Si Si8 0.224631 0.172459 0.808772
O O1 0.253377 0.818612 0.311227
O O2 0.257845 0.000000 0.130653
O O3 0.297682 0.715140 0.116868
O O4 0.141967 0.796287 0.119559
O O5 0.583871 0.727381 0.300507
O O6 0.422318 0.792002 0.319055
O O7 0.536191 0.000000 0.299729
O O8 0.495510 0.840158 0.117915
O O9 0.673290 0.500000 0.354716
O O10 0.667849 0.719489 0.502680
O O11 0.754684 0.742211 0.312113
O O12 0.346247 0.000000 0.439424
O O13 0.281242 0.500000 0.959599
O O14 0.421853 0.633396 0.991380
O O15 0.301868 0.785916 0.895600
O O16 0.141940 0.771338 0.879006
O O17 0.081157 0.000000 0.976129
O O18 0.000000 0.753827 0.000000
O O19 0.222083 0.000000 0.783530
#
# Coordination Sequence:
#
# PCOD8064187 Si02
#       8
#     4   4   4   4   4   4   2   4
#     4   9  18  34  55  79 106 139 177 214 260 320
#     4  11  23  37  56  77 104 141 185 228 270 320
#     4  12  25  38  53  75 105 143 186 231 273 310
#     4  10  21  38  55  75 102 143 192 228 261 310
#     4  11  21  32  48  74 108 140 173 218 267 311
#     4   8  15  30  57  91 117 133 159 210 271 322
#     4  12  22  32  52  78 108 140 174 220 272 316
#     4  10  20  35  56  78 105 140 177 214 260 320
#
# _framework density 18.241882
#
# number of rings (size 3 to 8) (size 9 to 14) (size 15 to 20)
#    0.000    1.733    2.667    3.600    0.000    4.267 
#    0.000    0.000    0.000   10.800    0.000    5.600 
#    0.000    0.000    0.000    0.000    0.000    0.000 
#
# Total GULP energy -371648.502997 kJ/mol
# GULP energy per Si atom -12388.283433 kJ/mol
# Density = 1.820036 g / cm^3
# Si number density = 18.241882 Si / 1000 Ang^3
#
#
#
# Elastic Constant Matrix: (Units=GPa)
#
#
# Indices 1 2 3 4 5 6 
#
# 1 128.0041 38.2514 54.3690 0.0000 -0.8495 0.0000
# 2 38.2514 91.3686 38.0260 0.0000 -7.2989 0.0000
# 3 54.3690 38.0260 111.4832 0.0000 -11.4316 0.0000
# 4 0.0000 0.0000 0.0000 3.6025 0.0000 3.2988
# 5 -0.8495 -7.2989 -11.4316 0.0000 19.5764 0.0000
# 6 0.0000 0.0000 0.0000 3.2988 0.0000 7.8625
#
#
#
# Elastic Compliance Matrix: (Units=1/GPa)
#
#
# Indices 1 2 3 4 5 6 
#
# 1 0.010545 -0.002790 -0.004521 0.000000 -0.003223 0.000000
# 2 -0.002790 0.013597 -0.002946 0.000000 0.003228 0.000000
# 3 -0.004521 -0.002946 0.012814 0.000000 0.006188 0.000000
# 4 0.000000 0.000000 0.000000 0.450773 0.000000 -0.189127
# 5 -0.003223 0.003228 0.006188 0.000000 0.055759 0.000000
# 6 0.000000 0.000000 0.000000 -0.189127 0.000000 0.206536
#
#
# Mechanical properties :
#
#
# Convention : Reuss Voigt Hill
#
# Bulk Modulus (GPa) = 60.82421 65.79429 63.30925
# Shear Modulus (GPa) = 6.44313 19.55556 12.99934
#
# Velocity S-wave (km/s) = 1.88141 3.27772 2.67237
# Velocity P-wave (km/s) = 6.17537 7.10426 6.65604
#
# Compressibility (1/GPa) = 0.01644082
#
# Stress axis : x y z
#
# Youngs Moduli (GPa) = 94.82987 73.54671 78.03724
#
# Poissons Ratio (x) = 0.20523 0.35284
# Poissons Ratio (y) = 0.26462 0.22989
# Poissons Ratio (z) = 0.42877 0.21666
#
# Static dielectric constant tensor:
#      x y z
#    x 3.604810 0.000000 -0.088490 
#    y 0.000000 3.199900 0.000000 
#    z -0.088490 0.000000 3.395690 
# 
# 
# High freq. dielectric constant tensor:
#      x y z
#    x 1.683710 0.000000 -0.007230 
#    y 0.000000 1.696290 0.000000 
#    z -0.007230 0.000000 1.699610 
# 
# From -- ./inp_files/49994.got.cif
#   From: 2010.06.25/outbox.cif.g09.slc.cpg/sg10_25_cif.got.tgz:49994.got - 2010.06.27 22:07:45.
