data_PCOD8064360
_publ_section_title
;
Structure prediction by ZEFSAII (Michael W. Deem and Ramdas Pophale) SiO2 
 PCOD8064360
Probable space group: P 2/M
;
_chemical_formula_sum "Si O2"
_cell_formula_units_Z 32
_cell_length_a 18.941947
_cell_length_b 8.926681
_cell_length_c 21.385096
_cell_angle_alpha 90.000000
_cell_angle_beta 152.090081
_cell_angle_gamma 90.000000
_cell_volume 1692.577344
_symmetry_space_group_name_H-M "P 2/M"
_symmetry_group_IT_number 10
_symmetry_cell_setting 'monoclinic'
loop_
_space_group_symop_operation_xyz
x,y,z
-x,y,-z
-x,-y,-z
x,-y,z
loop_
_atom_site_type_symbol
_atom_site_label
_atom_site_fract_x
_atom_site_fract_y
_atom_site_fract_z
Si Si1 0.158943 0.325391 0.596303
Si Si2 0.348122 0.823238 0.276472
Si Si3 0.189431 0.324133 0.035318
Si Si4 0.341807 0.328225 0.497309
Si Si5 0.465228 0.674643 0.902684
Si Si6 0.299760 0.826548 0.592105
Si Si7 0.841796 0.329713 0.768285
Si Si8 0.611748 0.173324 0.904177
O O1 0.156860 0.500000 0.577690
O O2 0.291400 0.288854 0.749634
O O3 0.182170 0.234536 0.550774
O O4 0.000000 0.272531 0.500000
O O5 0.280229 0.754853 0.161005
O O6 0.515912 0.762307 0.417465
O O7 0.249592 0.781709 0.259266
O O8 0.354785 0.000000 0.273880
O O9 0.218736 0.500000 0.060919
O O10 0.246662 0.261496 0.013728
O O11 0.015365 0.283319 0.907333
O O12 0.389446 0.500000 0.545408
O O13 0.275451 0.261456 0.508982
O O14 0.210117 0.313545 0.343549
O O15 0.499952 0.500000 0.921308
O O16 0.578519 0.764636 0.946974
O O17 0.500000 0.728280 0.000000
O O18 0.469298 0.798483 0.747881
O O19 0.266689 0.000000 0.554652
O O20 0.817918 0.500000 0.773634
O O21 0.653055 0.000000 0.941901
#
# Coordination Sequence:
#
# PCOD8064360 Si02
#       8
#     4   4   4   4   4   4   4   4
#     4   9  18  34  56  81 109 144 187 230 274 327
#     4  12  24  38  60  88 115 148 189 232 284 346
#     4  11  22  39  62  84 112 150 193 238 282 334
#     4  11  22  39  62  84 112 150 193 238 282 334
#     4   9  18  34  56  81 109 144 187 230 274 327
#     4  10  20  35  57  84 114 147 188 233 278 336
#     4  10  24  42  58  84 115 148 191 238 286 336
#     4  10  20  35  57  84 114 147 188 233 278 336
#
# _framework density 18.906078000000001
#
# number of rings (size 3 to 8) (size 9 to 14) (size 15 to 20)
#    0.000    1.750    1.250    3.375    0.000    6.500 
#    2.250    0.000    0.000    0.000    0.000    0.000 
#    0.000    0.000    0.000    0.000    0.000    0.000 
#
# Total GULP energy -396975.763479 kJ/mol
# GULP energy per Si atom -12405.492609 kJ/mol
# Density = 1.886305 g / cm^3
# Si number density = 18.906078 Si / 1000 Ang^3
#
#
#
# Elastic Constant Matrix: (Units=GPa)
#
#
# Indices 1 2 3 4 5 6 
#
# 1 127.2542 56.7023 25.9496 0.0000 2.4382 0.0000
# 2 56.7023 94.9187 22.1042 0.0000 1.6439 0.0000
# 3 25.9496 22.1042 39.5880 0.0000 5.7067 0.0000
# 4 0.0000 0.0000 0.0000 13.1952 0.0000 2.4670
# 5 2.4382 1.6439 5.7067 0.0000 28.1710 0.0000
# 6 0.0000 0.0000 0.0000 2.4670 0.0000 15.8752
#
#
#
# Elastic Compliance Matrix: (Units=1/GPa)
#
#
# Indices 1 2 3 4 5 6 
#
# 1 0.011280 -0.005762 -0.004207 0.000000 0.000212 0.000000
# 2 -0.005762 0.015066 -0.004718 0.000000 0.000575 0.000000
# 3 -0.004207 -0.004718 0.031479 0.000000 -0.005737 0.000000
# 4 0.000000 0.000000 0.000000 0.078053 0.000000 -0.012129
# 5 0.000212 0.000575 -0.005737 0.000000 0.036608 0.000000
# 6 0.000000 0.000000 0.000000 -0.012129 0.000000 0.064876
#
#
# Mechanical properties :
#
#
# Convention : Reuss Voigt Hill
#
# Bulk Modulus (GPa) = 35.14872 52.36367 43.75620
# Shear Modulus (GPa) = 18.10150 21.91527 20.00838
#
# Velocity S-wave (km/s) = 3.09761 3.40835 3.25669
# Velocity P-wave (km/s) = 5.60582 6.57617 6.11028
#
# Compressibility (1/GPa) = 0.02845054
#
# Stress axis : x y z
#
# Youngs Moduli (GPa) = 88.65543 66.37320 31.76684
#
# Poissons Ratio (x) = 0.38245 0.13364
# Poissons Ratio (y) = 0.51085 0.14988
# Poissons Ratio (z) = 0.37297 0.31317
#
# Static dielectric constant tensor:
#      x y z
#    x 3.535350 0.000000 0.011390 
#    y 0.000000 3.563410 0.000000 
#    z 0.011390 0.000000 3.409630 
# 
# 
# High freq. dielectric constant tensor:
#      x y z
#    x 1.744880 0.000000 -0.000290 
#    y 0.000000 1.741150 0.000000 
#    z -0.000290 0.000000 1.723340 
# 
# From -- ./inp_files/85743.got.cif
#   From: 2010.06.25/outbox.cif.g09.slc.cpg/sg10_43_cif.got.tgz:85743.got - 2010.06.27 22:07:45.
