data_PCOD8064159
_publ_section_title
;
Structure prediction by ZEFSAII (Michael W. Deem and Ramdas Pophale) SiO2 
 PCOD8064159
Probable space group: P 2/M
;
_chemical_formula_sum "Si O2"
_cell_formula_units_Z 28
_cell_length_a 14.054075
_cell_length_b 8.960528
_cell_length_c 13.437753
_cell_angle_alpha 90.000000
_cell_angle_beta 57.027676
_cell_angle_gamma 90.000000
_cell_volume 1419.678762
_symmetry_space_group_name_H-M "P 2/M"
_symmetry_group_IT_number 10
_symmetry_cell_setting 'monoclinic'
loop_
_space_group_symop_operation_xyz
x,y,z
-x,y,-z
-x,-y,-z
x,-y,z
loop_
_atom_site_type_symbol
_atom_site_label
_atom_site_fract_x
_atom_site_fract_y
_atom_site_fract_z
Si Si1 0.402227 0.324214 0.276340
Si Si2 0.131561 0.662691 0.946226
Si Si3 0.594541 0.337605 0.027470
Si Si4 0.062259 0.675903 0.197551
Si Si5 0.396311 0.172380 0.489266
Si Si6 0.834560 0.171872 0.263749
Si Si7 0.751727 0.824592 0.798146
O O1 0.380705 0.500000 0.279172
O O2 0.529044 0.282918 0.164335
O O3 0.395606 0.274291 0.393039
O O4 0.304579 0.242783 0.268481
O O5 0.188969 0.500000 0.897906
O O6 0.187876 0.778896 0.837971
O O7 0.140720 0.714416 0.055854
O O8 0.000000 0.647944 0.000000
O O9 0.655557 0.500000 0.009925
O O10 0.500000 0.365155 0.000000
O O11 0.680553 0.213499 0.938450
O O12 0.053742 0.500000 0.219972
O O13 0.122894 0.754204 0.257394
O O14 0.935002 0.736475 0.258529
O O15 0.500000 0.222072 0.500000
O O16 0.279793 0.202388 0.612224
O O17 0.409045 0.000000 0.450642
O O18 0.869955 0.000000 0.243583
O O19 0.761941 0.000000 0.778866
#
# Coordination Sequence:
#
# PCOD8064159 Si02
#       7
#     4   4   4   4   4   4   4
#     4  10  21  38  59  82 111 148 189 232 275 324
#     4   8  16  31  51  75 105 143 180 217 267 321
#     4   8  16  32  52  77 110 144 179 221 267 316
#     4  10  20  35  55  81 116 152 185 225 274 330
#     4  10  23  42  60  80 109 144 183 231 283 330
#     4  10  20  35  56  82 112 145 185 233 279 327
#     4  11  21  33  55  86 117 149 184 224 275 334
#
# _framework density 19.722771000000002
#
# number of rings (size 3 to 8) (size 9 to 14) (size 15 to 20)
#    0.000    2.429    0.000    4.286    0.000    8.857 
#    0.000    3.571    0.000    4.286    0.000    0.000 
#    0.000    0.000    0.000    0.000    0.000    0.000 
#
# Total GULP energy -347058.560163 kJ/mol
# GULP energy per Si atom -12394.948577 kJ/mol
# Density = 1.967788 g / cm^3
# Si number density = 19.722771 Si / 1000 Ang^3
#
#
#
# Elastic Constant Matrix: (Units=GPa)
#
#
# Indices 1 2 3 4 5 6 
#
# 1 116.0758 62.6928 37.6973 0.0000 7.3238 0.0000
# 2 62.6928 124.4506 51.2111 0.0000 0.6038 0.0000
# 3 37.6973 51.2111 89.7413 0.0000 6.3666 0.0000
# 4 0.0000 0.0000 0.0000 38.5153 0.0000 -12.8240
# 5 7.3238 0.6038 6.3666 0.0000 19.9045 0.0000
# 6 0.0000 0.0000 0.0000 -12.8240 0.0000 16.2163
#
#
#
# Elastic Compliance Matrix: (Units=1/GPa)
#
#
# Indices 1 2 3 4 5 6 
#
# 1 0.012407 -0.005487 -0.001810 0.000000 -0.003820 0.000000
# 2 -0.005487 0.012980 -0.005339 0.000000 0.003333 0.000000
# 3 -0.001810 -0.005339 0.015237 0.000000 -0.004046 0.000000
# 4 0.000000 0.000000 0.000000 0.035244 0.000000 0.027871
# 5 -0.003820 0.003333 -0.004046 0.000000 0.052839 0.000000
# 6 0.000000 0.000000 0.000000 0.027871 0.000000 0.083707
#
#
# Mechanical properties :
#
#
# Convention : Reuss Voigt Hill
#
# Bulk Modulus (GPa) = 65.13161 70.38556 67.75859
# Shear Modulus (GPa) = 20.59285 26.83830 23.71558
#
# Velocity S-wave (km/s) = 3.23478 3.69287 3.47139
# Velocity P-wave (km/s) = 6.85908 7.34493 7.10616
#
# Compressibility (1/GPa) = 0.01535353
#
# Stress axis : x y z
#
# Youngs Moduli (GPa) = 80.59712 77.04075 65.63021
#
# Poissons Ratio (x) = 0.42273 0.11877
# Poissons Ratio (y) = 0.44224 0.35038
# Poissons Ratio (z) = 0.14586 0.41129
#
# Static dielectric constant tensor:
#      x y z
#    x 3.890980 0.000000 0.040870 
#    y 0.000000 3.566120 0.000000 
#    z 0.040870 0.000000 3.672570 
# 
# 
# High freq. dielectric constant tensor:
#      x y z
#    x 1.775210 0.000000 0.001090 
#    y 0.000000 1.769260 0.000000 
#    z 0.001090 0.000000 1.746810 
# 
# From -- ./inp_files/66412.got.cif
#   From: 2010.06.25/outbox.cif.g09.slc.cpg/sg10_34_cif.got.tgz:66412.got - 2010.06.27 22:07:45.
