data_PCOD8064582
_publ_section_title
;
Structure prediction by ZEFSAII (Michael W. Deem and Ramdas Pophale) SiO2 
 PCOD8064582
Probable space group: P 2/M
;
_chemical_formula_sum "Si O2"
_cell_formula_units_Z 32
_cell_length_a 24.397058
_cell_length_b 8.869100
_cell_length_c 18.942976
_cell_angle_alpha 90.000000
_cell_angle_beta 23.671103
_cell_angle_gamma 90.000000
_cell_volume 1645.642638
_symmetry_space_group_name_H-M "P 2/M"
_symmetry_group_IT_number 10
_symmetry_cell_setting 'monoclinic'
loop_
_space_group_symop_operation_xyz
x,y,z
-x,y,-z
-x,-y,-z
x,-y,z
loop_
_atom_site_type_symbol
_atom_site_label
_atom_site_fract_x
_atom_site_fract_y
_atom_site_fract_z
Si Si1 0.665850 0.676661 0.639365
Si Si2 0.621954 0.667701 0.169518
Si Si3 0.614867 0.822633 0.031519
Si Si4 0.156559 0.178807 0.002037
Si Si5 0.102860 0.322234 0.318314
Si Si6 0.040504 0.676556 0.659292
Si Si7 0.859754 0.177792 0.138092
Si Si8 0.314931 0.333913 0.542550
O O1 0.630577 0.500000 0.677599
O O2 0.528466 0.757606 0.830794
O O3 0.795987 0.711458 0.536367
O O4 0.701968 0.732109 0.517066
O O5 0.675307 0.500000 0.083727
O O6 0.625315 0.781644 0.100796
O O7 0.472479 0.653877 0.377164
O O8 0.713443 0.737217 0.121539
O O9 0.614870 0.000000 0.019637
O O10 0.751457 0.753768 0.835444
O O11 0.020506 0.230765 0.203288
O O12 0.170833 0.000000 0.991660
O O13 0.156850 0.236925 0.921551
O O14 0.124052 0.500000 0.296123
O O15 0.000000 0.266940 0.500000
O O16 0.036904 0.272685 0.320926
O O17 0.018799 0.500000 0.698802
O O18 0.743377 0.225257 0.329450
O O19 0.864300 0.000000 0.132061
O O20 0.000000 0.248452 0.000000
O O21 0.246730 0.500000 0.627122
#
# Coordination Sequence:
#
# PCOD8064582 Si02
#       8
#     4   4   4   4   4   4   4   4
#     4   9  19  36  58  84 113 149 193 237 281 334
#     4  10  20  36  56  79 108 143 184 232 281 334
#     4  11  21  35  58  87 116 150 188 229 283 339
#     4  11  22  34  53  81 110 144 187 234 283 334
#     4  10  21  38  61  88 118 152 188 230 280 335
#     4  10  20  36  60  86 112 147 191 237 282 332
#     4  10  22  37  50  70 106 147 182 224 283 342
#     4   9  19  34  53  76 103 138 185 235 278 325
#
# _framework density 19.44529
#
# number of rings (size 3 to 8) (size 9 to 14) (size 15 to 20)
#    0.000    2.000    1.250    3.375    0.000    5.000 
#    0.000    3.125    0.000    3.750    0.000    0.000 
#    0.000    0.000    0.000    0.000    0.000    0.000 
#
# Total GULP energy -396680.741333 kJ/mol
# GULP energy per Si atom -12396.273167 kJ/mol
# Density = 1.940103 g / cm^3
# Si number density = 19.445290 Si / 1000 Ang^3
#
#
#
# Elastic Constant Matrix: (Units=GPa)
#
#
# Indices 1 2 3 4 5 6 
#
# 1 43.2142 14.8843 32.4431 0.0000 -13.3343 0.0000
# 2 14.8843 50.7501 31.9518 0.0000 -6.4206 0.0000
# 3 32.4431 31.9518 115.8508 0.0000 -4.6667 0.0000
# 4 0.0000 0.0000 0.0000 -50.5953 0.0000 -21.0020
# 5 -13.3343 -6.4206 -4.6667 0.0000 35.9445 0.0000
# 6 0.0000 0.0000 0.0000 -21.0020 0.0000 16.0419
#
#
#
# Elastic Compliance Matrix: (Units=1/GPa)
#
#
# Indices 1 2 3 4 5 6 
#
# 1 0.033723 -0.003446 -0.008057 0.000000 0.010849 0.000000
# 2 -0.003446 0.024623 -0.005731 0.000000 0.002376 0.000000
# 3 -0.008057 -0.005731 0.012372 0.000000 -0.002406 0.000000
# 4 0.000000 0.000000 0.000000 -0.012806 0.000000 -0.016765
# 5 0.010849 0.002376 -0.002406 0.000000 0.031957 0.000000
# 6 0.000000 0.000000 0.000000 -0.016765 0.000000 0.040388
#
#
# Mechanical properties :
#
#
# Convention : Reuss Voigt Hill
#
# Bulk Modulus (GPa) = 27.58413 40.93039 34.25726
# Shear Modulus (GPa) = 28.27923 8.98062 18.62993
#
# Velocity S-wave (km/s) = 3.81766 2.15138 3.09863
# Velocity P-wave (km/s) = 5.80078 5.22168 5.51883
#
# Compressibility (1/GPa) = 0.03625273
#
# Stress axis : x y z
#
# Youngs Moduli (GPa) = 29.65302 40.61165 80.83061
#
# Poissons Ratio (x) = 0.13993 0.65122
# Poissons Ratio (y) = 0.10217 0.46320
# Poissons Ratio (z) = 0.23890 0.23273
#
# Static dielectric constant tensor:
#      x y z
#    x 3.561050 0.000000 -0.225560 
#    y 0.000000 3.413140 0.000000 
#    z -0.225560 0.000000 3.721020 
# 
# 
# High freq. dielectric constant tensor:
#      x y z
#    x 1.744410 0.000000 -0.016750 
#    y 0.000000 1.748030 0.000000 
#    z -0.016750 0.000000 1.765060 
# 
# From -- ./inp_files/86889.got.cif
#   From: 2010.06.25/outbox.cif.g09.slc.cpg/sg10_44_cif.got.tgz:86889.got - 2010.06.27 22:07:45.
