data_PCOD8064678
_publ_section_title
;
Structure prediction by ZEFSAII (Michael W. Deem and Ramdas Pophale) SiO2 
 PCOD8064678
Probable space group: P 2/M
;
_chemical_formula_sum "Si O2"
_cell_formula_units_Z 28
_cell_length_a 30.109402
_cell_length_b 7.713662
_cell_length_c 8.970705
_cell_angle_alpha 90.000000
_cell_angle_beta 41.508508
_cell_angle_gamma 90.000000
_cell_volume 1380.787234
_symmetry_space_group_name_H-M "P 2/M"
_symmetry_group_IT_number 10
_symmetry_cell_setting 'monoclinic'
loop_
_space_group_symop_operation_xyz
x,y,z
-x,y,-z
-x,-y,-z
x,-y,z
loop_
_atom_site_type_symbol
_atom_site_label
_atom_site_fract_x
_atom_site_fract_y
_atom_site_fract_z
Si Si1 0.428155 0.500000 0.497937
Si Si2 0.577310 0.500000 0.135043
Si Si3 0.066333 0.802759 0.403661
Si Si4 0.330898 0.800938 0.735853
Si Si5 0.803685 0.794222 0.081329
Si Si6 0.188544 0.203220 0.599743
Si Si7 0.326665 0.803311 0.097084
Si Si8 0.939873 0.696323 0.250056
O O1 0.503884 0.500000 0.243938
O O2 0.429842 0.500000 0.670736
O O3 0.391604 0.675398 0.533981
O O4 0.616176 0.673743 0.986441
O O5 0.066454 0.801415 0.581577
O O6 0.000000 0.711915 0.500000
O O7 0.067084 0.000000 0.346076
O O8 0.133538 0.713984 0.168439
O O9 0.265383 0.728507 0.816922
O O10 0.348786 0.000000 0.647328
O O11 0.316221 0.785779 0.947483
O O12 0.808383 0.729351 0.238901
O O13 0.803424 0.000000 0.071572
O O14 0.257629 0.252060 0.346848
O O15 0.129007 0.300875 0.666865
O O16 0.173935 0.000000 0.628093
O O17 0.347129 0.000000 0.089389
O O18 0.958028 0.500000 0.246848
O O19 0.000000 0.777631 0.000000
#
# Coordination Sequence:
#
# PCOD8064678 Si02
#       8
#     2   2   4   4   4   4   4   4
#     4   9  18  32  51  83 108 143 184 217 277 329
#     4   9  18  32  53  79 116 139 176 233 265 329
#     4  10  20  36  59  82 105 139 184 229 274 325
#     4   9  17  32  52  77 111 142 180 230 273 327
#     4   9  18  34  55  80 107 136 177 230 280 324
#     4  10  20  36  58  80 104 138 183 228 272 326
#     4   9  18  32  54  81 108 144 182 224 280 328
#     4  11  24  38  52  76 112 147 180 222 273 326
#
# _framework density 20.278286999999999
#
# number of rings (size 3 to 8) (size 9 to 14) (size 15 to 20)
#    0.000    2.429    0.000    2.143    1.000    5.429 
#    5.143    2.857    0.000    1.714    0.000    4.000 
#    0.000    0.000    0.000    0.000    0.000    0.000 
#
# Total GULP energy -347193.755805 kJ/mol
# GULP energy per Si atom -12399.776993 kJ/mol
# Density = 2.023213 g / cm^3
# Si number density = 20.278287 Si / 1000 Ang^3
#
#
#
# Elastic Constant Matrix: (Units=GPa)
#
#
# Indices 1 2 3 4 5 6 
#
# 1 124.8513 33.5917 74.6070 0.0000 -25.1003 0.0000
# 2 33.5917 72.9564 43.1465 0.0000 -19.2783 0.0000
# 3 74.6070 43.1465 132.8076 0.0000 -28.9652 0.0000
# 4 0.0000 0.0000 0.0000 18.2400 0.0000 -9.4346
# 5 -25.1003 -19.2783 -28.9652 0.0000 40.1244 0.0000
# 6 0.0000 0.0000 0.0000 -9.4346 0.0000 13.0240
#
#
#
# Elastic Compliance Matrix: (Units=1/GPa)
#
#
# Indices 1 2 3 4 5 6 
#
# 1 0.012529 -0.001515 -0.005929 0.000000 0.002830 0.000000
# 2 -0.001515 0.018022 -0.003943 0.000000 0.004865 0.000000
# 3 -0.005929 -0.003943 0.012960 0.000000 0.003752 0.000000
# 4 0.000000 0.000000 0.000000 0.087677 0.000000 0.063513
# 5 0.002830 0.004865 0.003752 0.000000 0.031739 0.000000
# 6 0.000000 0.000000 0.000000 0.063513 0.000000 0.122790
#
#
# Mechanical properties :
#
#
# Convention : Reuss Voigt Hill
#
# Bulk Modulus (GPa) = 48.22300 70.36729 59.29514
# Shear Modulus (GPa) = 15.85280 26.22902 21.04091
#
# Velocity S-wave (km/s) = 2.79903 3.60036 3.22469
# Velocity P-wave (km/s) = 5.85477 7.21524 6.57031
#
# Compressibility (1/GPa) = 0.02073699
#
# Stress axis : x y z
#
# Youngs Moduli (GPa) = 79.81483 55.48902 77.16165
#
# Poissons Ratio (x) = 0.08404 0.45751
# Poissons Ratio (y) = 0.12088 0.30425
# Poissons Ratio (z) = 0.47324 0.21879
#
# Static dielectric constant tensor:
#      x y z
#    x 3.628780 0.000000 -0.208960 
#    y 0.000000 3.547650 0.000000 
#    z -0.208960 0.000000 3.788450 
# 
# 
# High freq. dielectric constant tensor:
#      x y z
#    x 1.782120 0.000000 -0.010330 
#    y 0.000000 1.781980 0.000000 
#    z -0.010330 0.000000 1.788190 
# 
# From -- ./inp_files/37182.got.cif
#   From: 2010.06.25/outbox.cif.g09.slc.cpg/sg10_19_cif.got.tgz:37182.got - 2010.06.27 22:07:45.
