data_PCOD8064670
_publ_section_title
;
Structure prediction by ZEFSAII (Michael W. Deem and Ramdas Pophale) SiO2 
 PCOD8064670
Probable space group: P 2/M
;
_chemical_formula_sum "Si O2"
_cell_formula_units_Z 30
_cell_length_a 18.475678
_cell_length_b 10.354333
_cell_length_c 7.022047
_cell_angle_alpha 90.000000
_cell_angle_beta 99.825684
_cell_angle_gamma 90.000000
_cell_volume 1323.636124
_symmetry_space_group_name_H-M "P 2/M"
_symmetry_group_IT_number 10
_symmetry_cell_setting 'monoclinic'
loop_
_space_group_symop_operation_xyz
x,y,z
-x,y,-z
-x,-y,-z
x,-y,z
loop_
_atom_site_type_symbol
_atom_site_label
_atom_site_fract_x
_atom_site_fract_y
_atom_site_fract_z
Si Si1 0.335288 0.643247 0.271980
Si Si2 0.288369 0.353594 0.817063
Si Si3 0.601511 0.855165 0.213391
Si Si4 0.930595 0.141140 0.846469
Si Si5 0.872199 0.640409 0.330314
Si Si6 0.174332 0.641140 0.267333
Si Si7 0.558229 0.856210 0.754679
Si Si8 0.000000 0.200635 0.500000
O O1 0.363762 0.500000 0.343669
O O2 0.259290 0.678596 0.344682
O O3 0.396268 0.751288 0.348237
O O4 0.319165 0.644455 0.041320
O O5 0.290563 0.500000 0.729341
O O6 0.338019 0.255593 0.712152
O O7 0.204208 0.301287 0.786093
O O8 0.529147 0.831531 0.311437
O O9 0.632915 0.000000 0.265932
O O10 0.578024 0.844272 0.984186
O O11 0.867607 0.246660 0.867981
O O12 0.950380 0.123770 0.629738
O O13 0.901746 0.000000 0.899754
O O14 0.000000 0.183559 0.000000
O O15 0.885174 0.500000 0.243966
O O16 0.866943 0.627978 0.554362
O O17 0.945553 0.722701 0.330552
O O18 0.171742 0.500000 0.159867
O O19 0.578377 0.000000 0.689490
#
# Coordination Sequence:
#
# PCOD8064670 Si02
#       8
#     4   4   4   4   4   4   4   2
#     4   9  17  28  45  71  99 123 157 203 247 292
#     4   9  17  28  45  70  97 123 156 204 251 292
#     4   8  14  26  42  65  95 125 160 199 240 294
#     4  10  22  38  55  78 106 136 171 215 263 309
#     4   9  18  33  52  74  99 130 167 207 253 303
#     4   9  19  35  52  72  99 132 168 204 248 304
#     4   8  14  25  43  65  94 128 159 196 243 292
#     4  10  20  36  58  76 103 140 175 214 259 312
#
# _framework density 22.664839000000001
#
# number of rings (size 3 to 8) (size 9 to 14) (size 15 to 20)
#    0.000    3.067    0.000    1.200    1.867    1.867 
#    0.000    6.000    0.000    0.800    0.000    5.600 
#    0.000    0.000    0.000    0.000    0.000    0.000 
#
# Total GULP energy -371722.039972 kJ/mol
# GULP energy per Si atom -12390.734666 kJ/mol
# Density = 2.261325 g / cm^3
# Si number density = 22.664839 Si / 1000 Ang^3
#
#
#
# Elastic Constant Matrix: (Units=GPa)
#
#
# Indices 1 2 3 4 5 6 
#
# 1 115.9849 90.1269 -2.3863 0.0000 13.9153 0.0000
# 2 90.1269 156.4610 2.0220 0.0000 18.5776 0.0000
# 3 -2.3863 2.0220 13.7899 0.0000 8.2861 0.0000
# 4 0.0000 0.0000 0.0000 1.9181 0.0000 6.4560
# 5 13.9153 18.5776 8.2861 0.0000 31.5364 0.0000
# 6 0.0000 0.0000 0.0000 6.4560 0.0000 24.5787
#
#
#
# Elastic Compliance Matrix: (Units=1/GPa)
#
#
# Indices 1 2 3 4 5 6 
#
# 1 0.016125 -0.008957 0.006185 0.000000 -0.003464 0.000000
# 2 -0.008957 0.011881 -0.001735 0.000000 -0.002591 0.000000
# 3 0.006185 -0.001735 0.088903 0.000000 -0.025066 0.000000
# 4 0.000000 0.000000 0.000000 4.497580 0.000000 -1.181363
# 5 -0.003464 -0.002591 -0.025066 0.000000 0.041350 0.000000
# 6 0.000000 0.000000 0.000000 -1.181363 0.000000 0.350990
#
#
# Mechanical properties :
#
#
# Convention : Reuss Voigt Hill
#
# Bulk Modulus (GPa) = 9.26842 51.75122 30.50982
# Shear Modulus (GPa) = 0.98974 24.70485 12.84729
#
# Velocity S-wave (km/s) = 0.66154 3.30511 2.38342
# Velocity P-wave (km/s) = 2.16373 6.11946 4.58964
#
# Compressibility (1/GPa) = 0.10789329
#
# Stress axis : x y z
#
# Youngs Moduli (GPa) = 62.01631 84.16792 11.24824
#
# Poissons Ratio (x) = 0.75390 -0.06957
# Poissons Ratio (y) = 0.55549 0.01952
# Poissons Ratio (z) = -0.38356 0.14607
#
# Static dielectric constant tensor:
#      x y z
#    x 4.208400 0.000000 0.010860 
#    y 0.000000 4.409880 0.000000 
#    z 0.010860 0.000000 3.725450 
# 
# 
# High freq. dielectric constant tensor:
#      x y z
#    x 1.883040 0.000000 -0.000890 
#    y 0.000000 1.885180 0.000000 
#    z -0.000890 0.000000 1.887910 
# 
# From -- ./inp_files/33928.got.cif
#   From: 2010.06.25/outbox.cif.g09.slc.cpg/sg10_17_cif.got.tgz:33928.got - 2010.06.27 22:07:45.
