data_PCOD8064472
_publ_section_title
;
Structure prediction by ZEFSAII (Michael W. Deem and Ramdas Pophale) SiO2 
 PCOD8064472
Probable space group: P 2/M
;
_chemical_formula_sum "Si O2"
_cell_formula_units_Z 28
_cell_length_a 20.276681
_cell_length_b 8.970745
_cell_length_c 16.002613
_cell_angle_alpha 90.000000
_cell_angle_beta 149.980513
_cell_angle_gamma 90.000000
_cell_volume 1456.270414
_symmetry_space_group_name_H-M "P 2/M"
_symmetry_group_IT_number 10
_symmetry_cell_setting 'monoclinic'
loop_
_space_group_symop_operation_xyz
x,y,z
-x,y,-z
-x,-y,-z
x,-y,z
loop_
_atom_site_type_symbol
_atom_site_label
_atom_site_fract_x
_atom_site_fract_y
_atom_site_fract_z
Si Si1 0.051168 0.676665 0.807925
Si Si2 0.572668 0.328624 0.356386
Si Si3 0.888126 0.676940 0.941206
Si Si4 0.646791 0.823835 0.140885
Si Si5 0.298339 0.672806 0.971573
Si Si6 0.225599 0.324414 0.566107
Si Si7 0.627940 0.825021 0.588351
O O1 0.048197 0.500000 0.809190
O O2 0.168951 0.730319 0.877461
O O3 0.913023 0.736895 0.620915
O O4 0.072616 0.739342 0.924622
O O5 0.601204 0.500000 0.412053
O O6 0.659829 0.280970 0.372773
O O7 0.612341 0.224638 0.476021
O O8 0.420471 0.302705 0.167646
O O9 0.873941 0.500000 0.925140
O O10 0.749676 0.744328 0.764098
O O11 0.000000 0.730886 0.000000
O O12 0.687842 0.772685 0.094496
O O13 0.748809 0.755112 0.318261
O O14 0.654502 0.000000 0.155000
O O15 0.500000 0.765135 0.000000
O O16 0.287931 0.500000 0.933522
O O17 0.221155 0.500000 0.577325
O O18 0.500000 0.777082 0.500000
O O19 0.652053 0.000000 0.617340
#
# Coordination Sequence:
#
# PCOD8064472 Si02
#       7
#     4   4   4   4   4   4   4
#     4   9  19  35  57  87 116 143 182 236 290 331
#     4  10  20  35  59  85 108 145 195 241 282 332
#     4  10  20  38  64  88 115 151 195 245 292 341
#     4  11  23  38  57  83 115 148 185 230 282 336
#     4  10  20  36  59  84 112 147 188 234 282 334
#     4  10  20  37  61  86 112 142 185 233 279 336
#     4  11  24  38  54  82 120 158 194 235 287 346
#
# _framework density 19.227198999999999
#
# number of rings (size 3 to 8) (size 9 to 14) (size 15 to 20)
#    0.000    1.857    1.429    2.571    0.000    7.143 
#    0.000    5.000    0.000    0.000    0.000    0.000 
#    0.000    0.000    0.000    0.000    0.000    0.000 
#
# Total GULP energy -347338.920531 kJ/mol
# GULP energy per Si atom -12404.961448 kJ/mol
# Density = 1.918344 g / cm^3
# Si number density = 19.227199 Si / 1000 Ang^3
#
#
#
# Elastic Constant Matrix: (Units=GPa)
#
#
# Indices 1 2 3 4 5 6 
#
# 1 115.5905 30.6911 55.5155 0.0000 0.8015 0.0000
# 2 30.6911 32.4920 29.6385 0.0000 -1.4072 0.0000
# 3 55.5155 29.6385 131.0543 0.0000 0.7141 0.0000
# 4 0.0000 0.0000 0.0000 39.4601 0.0000 -23.5186
# 5 0.8015 -1.4072 0.7141 0.0000 41.5538 0.0000
# 6 0.0000 0.0000 0.0000 -23.5186 0.0000 43.0877
#
#
#
# Elastic Compliance Matrix: (Units=1/GPa)
#
#
# Indices 1 2 3 4 5 6 
#
# 1 0.012617 -0.008902 -0.003329 0.000000 -0.000488 0.000000
# 2 -0.008902 0.045147 -0.006449 0.000000 0.001811 0.000000
# 3 -0.003329 -0.006449 0.010501 0.000000 -0.000335 0.000000
# 4 0.000000 0.000000 0.000000 0.037562 0.000000 0.020502
# 5 -0.000488 0.001811 -0.000335 0.000000 0.024142 0.000000
# 6 0.000000 0.000000 0.000000 0.020502 0.000000 0.034399
#
#
# Mechanical properties :
#
#
# Convention : Reuss Voigt Hill
#
# Bulk Modulus (GPa) = 32.35774 56.75857 44.55815
# Shear Modulus (GPa) = 23.58170 35.70643 29.64406
#
# Velocity S-wave (km/s) = 3.50591 4.31406 3.93081
# Velocity P-wave (km/s) = 5.76665 7.37556 6.62016
#
# Compressibility (1/GPa) = 0.03090451
#
# Stress axis : x y z
#
# Youngs Moduli (GPa) = 79.25784 22.15000 95.23148
#
# Poissons Ratio (x) = 0.19719 0.31700
# Poissons Ratio (y) = 0.70559 0.61413
# Poissons Ratio (z) = 0.26382 0.14284
#
# Static dielectric constant tensor:
#      x y z
#    x 3.608270 0.000000 0.114090 
#    y 0.000000 3.250180 0.000000 
#    z 0.114090 0.000000 3.660710 
# 
# 
# High freq. dielectric constant tensor:
#      x y z
#    x 1.760470 0.000000 -0.000260 
#    y 0.000000 1.723000 0.000000 
#    z -0.000260 0.000000 1.763200 
# 
# From -- ./inp_files/70180.got.cif
#   From: 2010.06.25/outbox.cif.g09.slc.cpg/sg10_36_cif.got.tgz:70180.got - 2010.06.27 22:07:45.
