data_PCOD8064737
_publ_section_title
;
Structure prediction by ZEFSAII (Michael W. Deem and Ramdas Pophale) SiO2 
 PCOD8064737
Probable space group: P 2/M
;
_chemical_formula_sum "Si O2"
_cell_formula_units_Z 24
_cell_length_a 10.103008
_cell_length_b 9.058727
_cell_length_c 13.869380
_cell_angle_alpha 90.000000
_cell_angle_beta 89.683254
_cell_angle_gamma 90.000000
_cell_volume 1269.311689
_symmetry_space_group_name_H-M "P 2/M"
_symmetry_group_IT_number 10
_symmetry_cell_setting 'monoclinic'
loop_
_space_group_symop_operation_xyz
x,y,z
-x,y,-z
-x,-y,-z
x,-y,z
loop_
_atom_site_type_symbol
_atom_site_label
_atom_site_fract_x
_atom_site_fract_y
_atom_site_fract_z
Si Si1 0.876028 0.335131 0.569083
Si Si2 0.644029 0.830181 0.041325
Si Si3 0.023141 0.826035 0.250608
Si Si4 0.630566 0.674101 0.443891
Si Si5 0.720390 0.827789 0.255378
Si Si6 0.122531 0.673611 0.064923
O O1 0.846882 0.500000 0.610740
O O2 0.903526 0.218505 0.652209
O O3 0.753043 0.274167 0.508566
O O4 0.000000 0.343151 0.500000
O O5 0.647742 0.792767 0.154911
O O6 0.686184 0.000000 0.024448
O O7 0.500000 0.797636 0.000000
O O8 0.742979 0.724328 0.985092
O O9 0.107787 0.751973 0.166747
O O10 0.871562 0.768236 0.250615
O O11 0.027645 0.000000 0.236713
O O12 0.500000 0.727702 0.500000
O O13 0.631372 0.500000 0.427382
O O14 0.637918 0.747290 0.338864
O O15 0.720699 0.000000 0.279265
O O16 0.126804 0.500000 0.081217
O O17 0.000000 0.723068 0.000000
#
# Coordination Sequence:
#
# PCOD8064737 Si02
#       6
#     4   4   4   4   4   4
#     4  10  20  36  58  84 114 148 191 239 286 343
#     4  10  22  41  63  88 122 159 198 245 299 354
#     4  11  22  36  60  89 118 153 197 246 295 346
#     4  10  22  39  59  84 116 154 191 235 292 349
#     4  10  21  37  59  86 115 152 194 240 294 350
#     4  11  23  38  60  89 119 155 200 245 293 349
#
# _framework density 18.907886000000001
#
# number of rings (size 3 to 8) (size 9 to 14) (size 15 to 20)
#    0.000    1.667    3.333    1.000    0.000    5.000 
#    0.000    3.333    0.000    0.000    0.000    0.000 
#    0.000    0.000    0.000    0.000    0.000    0.000 
#
# Total GULP energy -297708.238630 kJ/mol
# GULP energy per Si atom -12404.509943 kJ/mol
# Density = 1.886485 g / cm^3
# Si number density = 18.907886 Si / 1000 Ang^3
#
#
#
# Elastic Constant Matrix: (Units=GPa)
#
#
# Indices 1 2 3 4 5 6 
#
# 1 120.5515 33.7269 65.5225 0.0000 4.2858 0.0000
# 2 33.7269 55.4481 46.5771 0.0000 -4.3868 0.0000
# 3 65.5225 46.5771 140.2843 0.0000 1.0590 0.0000
# 4 0.0000 0.0000 0.0000 28.1353 0.0000 -9.0101
# 5 4.2858 -4.3868 1.0590 0.0000 34.1570 0.0000
# 6 0.0000 0.0000 0.0000 -9.0101 0.0000 25.7900
#
#
#
# Elastic Compliance Matrix: (Units=1/GPa)
#
#
# Indices 1 2 3 4 5 6 
#
# 1 0.011688 -0.003715 -0.004212 0.000000 -0.001813 0.000000
# 2 -0.003715 0.026609 -0.007131 0.000000 0.004105 0.000000
# 3 -0.004212 -0.007131 0.011469 0.000000 -0.000743 0.000000
# 4 0.000000 0.000000 0.000000 0.040020 0.000000 0.013982
# 5 -0.001813 0.004105 -0.000743 0.000000 0.030054 0.000000
# 6 0.000000 0.000000 0.000000 0.013982 0.000000 0.043659
#
#
# Mechanical properties :
#
#
# Convention : Reuss Voigt Hill
#
# Bulk Modulus (GPa) = 50.88783 67.54854 59.21818
# Shear Modulus (GPa) = 24.97933 28.98028 26.97980
#
# Velocity S-wave (km/s) = 3.63865 3.91923 3.78154
# Velocity P-wave (km/s) = 6.68019 7.50221 7.10310
#
# Compressibility (1/GPa) = 0.01965107
#
# Stress axis : x y z
#
# Youngs Moduli (GPa) = 85.55497 37.58135 87.19221
#
# Poissons Ratio (x) = 0.13960 0.36728
# Poissons Ratio (y) = 0.31781 0.62174
# Poissons Ratio (z) = 0.36038 0.26798
#
# Static dielectric constant tensor:
#      x y z
#    x 3.326240 0.000000 -0.103510 
#    y 0.000000 3.420840 0.000000 
#    z -0.103510 0.000000 3.333080 
# 
# 
# High freq. dielectric constant tensor:
#      x y z
#    x 1.734560 0.000000 0.002350 
#    y 0.000000 1.730680 0.000000 
#    z 0.002350 0.000000 1.745050 
# 
# From -- ./inp_files/60280.got.cif
#   From: 2010.06.25/outbox.cif.g09.slc.cpg/sg10_31_cif.got.tgz:60280.got - 2010.06.27 22:07:45.
