data_PCOD8064727
_publ_section_title
;
Structure prediction by ZEFSAII (Michael W. Deem and Ramdas Pophale) SiO2 
 PCOD8064727
Probable space group: P 2/M
;
_chemical_formula_sum "Si O2"
_cell_formula_units_Z 32
_cell_length_a 24.545245
_cell_length_b 9.020337
_cell_length_c 16.082853
_cell_angle_alpha 90.000000
_cell_angle_beta 153.479815
_cell_angle_gamma 90.000000
_cell_volume 1589.964394
_symmetry_space_group_name_H-M "P 2/M"
_symmetry_group_IT_number 10
_symmetry_cell_setting 'monoclinic'
loop_
_space_group_symop_operation_xyz
x,y,z
-x,y,-z
-x,-y,-z
x,-y,z
loop_
_atom_site_type_symbol
_atom_site_label
_atom_site_fract_x
_atom_site_fract_y
_atom_site_fract_z
Si Si1 0.475200 0.173897 0.706891
Si Si2 0.927107 0.169479 0.260058
Si Si3 0.286764 0.329703 0.560521
Si Si4 0.828897 0.169442 0.950722
Si Si5 0.403389 0.324968 0.437317
Si Si6 0.182901 0.324996 0.594894
Si Si7 0.734143 0.172555 0.131836
Si Si8 0.031323 0.668559 0.136111
O O1 0.396130 0.228623 0.677129
O O2 0.436370 0.254034 0.569866
O O3 0.455836 0.000000 0.668387
O O4 0.614885 0.215112 0.916496
O O5 0.854102 0.215369 0.243032
O O6 0.044129 0.271373 0.409826
O O7 0.972554 0.000000 0.327670
O O8 0.831809 0.188506 0.054089
O O9 0.330554 0.500000 0.623966
O O10 0.245774 0.272616 0.595249
O O11 0.175138 0.311244 0.344258
O O12 0.728975 0.274025 0.773033
O O13 0.802186 0.000000 0.889048
O O14 0.961677 0.218034 0.100428
O O15 0.500000 0.273243 0.500000
O O16 0.402109 0.500000 0.447368
O O17 0.179362 0.500000 0.594611
O O18 0.264355 0.263106 0.780847
O O19 0.733482 0.000000 0.153281
O O20 0.992094 0.500000 0.104062
O O21 0.000000 0.711337 0.000000
#
# Coordination Sequence:
#
# PCOD8064727 Si02
#       8
#     4   4   4   4   4   4   4   4
#     4  11  24  42  65  91 122 161 209 259 304 361
#     4  10  21  39  62  89 124 161 198 250 312 368
#     4  10  22  40  60  87 127 164 200 253 310 365
#     4  11  22  36  60  91 120 155 200 249 300 359
#     4  11  24  41  62  89 124 166 206 247 302 366
#     4  11  23  39  62  92 123 159 203 254 308 363
#     4  10  23  42  62  87 121 161 203 253 313 367
#     4  10  20  36  58  83 116 159 199 242 300 362
#
# _framework density 20.126235999999999
#
# number of rings (size 3 to 8) (size 9 to 14) (size 15 to 20)
#    0.000    1.500    1.250    3.375    0.000    8.750 
#    0.000    2.500    0.000    0.000    0.000    0.000 
#    0.000    0.000    0.000    0.000    0.000    0.000 
#
# Total GULP energy -396973.033186 kJ/mol
# GULP energy per Si atom -12405.407287 kJ/mol
# Density = 2.008043 g / cm^3
# Si number density = 20.126236 Si / 1000 Ang^3
#
#
#
# Elastic Constant Matrix: (Units=GPa)
#
#
# Indices 1 2 3 4 5 6 
#
# 1 112.9309 46.2530 29.8345 0.0000 -4.1032 0.0000
# 2 46.2530 69.7161 31.7025 0.0000 -0.9099 0.0000
# 3 29.8345 31.7025 74.6300 0.0000 -5.4700 0.0000
# 4 0.0000 0.0000 0.0000 25.2881 0.0000 0.0895
# 5 -4.1032 -0.9099 -5.4700 0.0000 36.1043 0.0000
# 6 0.0000 0.0000 0.0000 0.0895 0.0000 34.4135
#
#
#
# Elastic Compliance Matrix: (Units=1/GPa)
#
#
# Indices 1 2 3 4 5 6 
#
# 1 0.012385 -0.007418 -0.001730 0.000000 0.000959 0.000000
# 2 -0.007418 0.022238 -0.006575 0.000000 -0.001279 0.000000
# 3 -0.001730 -0.006575 0.017047 0.000000 0.002220 0.000000
# 4 0.000000 0.000000 0.000000 0.039545 0.000000 -0.000103
# 5 0.000959 -0.001279 0.002220 0.000000 0.028111 0.000000
# 6 0.000000 0.000000 0.000000 -0.000103 0.000000 0.029059
#
#
# Mechanical properties :
#
#
# Convention : Reuss Voigt Hill
#
# Bulk Modulus (GPa) = 49.44418 52.53967 50.99193
# Shear Modulus (GPa) = 26.79952 29.12699 27.96326
#
# Velocity S-wave (km/s) = 3.65303 3.80835 3.73150
# Velocity P-wave (km/s) = 6.51254 6.74536 6.62997
#
# Compressibility (1/GPa) = 0.02022483
#
# Stress axis : x y z
#
# Youngs Moduli (GPa) = 80.74431 44.96745 58.66198
#
# Poissons Ratio (x) = 0.33355 0.10147
# Poissons Ratio (y) = 0.59892 0.38571
# Poissons Ratio (z) = 0.13967 0.29567
#
# Static dielectric constant tensor:
#      x y z
#    x 3.817340 0.000000 -0.096360 
#    y 0.000000 3.621590 0.000000 
#    z -0.096360 0.000000 3.666320 
# 
# 
# High freq. dielectric constant tensor:
#      x y z
#    x 1.795900 0.000000 -0.006630 
#    y 0.000000 1.784460 0.000000 
#    z -0.006630 0.000000 1.793210 
# 
# From -- ./inp_files/71581.got.cif
#   From: 2010.06.25/outbox.cif.g09.slc.cpg/sg10_36_cif.got.tgz:71581.got - 2010.06.27 22:07:45.
