data_PCOD8064656
_publ_section_title
;
Structure prediction by ZEFSAII (Michael W. Deem and Ramdas Pophale) SiO2 
 PCOD8064656
Probable space group: P 2/M
;
_chemical_formula_sum "Si O2"
_cell_formula_units_Z 32
_cell_length_a 32.663494
_cell_length_b 8.942403
_cell_length_c 12.257825
_cell_angle_alpha 90.000000
_cell_angle_beta 155.551938
_cell_angle_gamma 90.000000
_cell_volume 1481.809432
_symmetry_space_group_name_H-M "P 2/M"
_symmetry_group_IT_number 10
_symmetry_cell_setting 'monoclinic'
loop_
_space_group_symop_operation_xyz
x,y,z
-x,y,-z
-x,-y,-z
x,-y,z
loop_
_atom_site_type_symbol
_atom_site_label
_atom_site_fract_x
_atom_site_fract_y
_atom_site_fract_z
Si Si1 0.068256 0.825261 0.912673
Si Si2 0.109096 0.324853 0.223307
Si Si3 0.839532 0.334688 0.057353
Si Si4 0.329086 0.172630 0.080222
Si Si5 0.293144 0.172239 0.754970
Si Si6 0.386989 0.329609 0.426558
Si Si7 0.478597 0.174913 0.069580
Si Si8 0.125101 0.671101 0.617952
O O1 0.128985 0.792701 0.950263
O O2 0.967192 0.731448 0.673936
O O3 0.045884 0.000000 0.865393
O O4 0.132538 0.769271 0.170886
O O5 0.117553 0.500000 0.220837
O O6 0.195033 0.275572 0.515988
O O7 0.000000 0.280946 0.000000
O O8 0.856168 0.500000 0.045906
O O9 0.903421 0.321141 0.323169
O O10 0.726245 0.311923 0.814303
O O11 0.400418 0.259556 0.337732
O O12 0.338597 0.000000 0.134303
O O13 0.356509 0.202921 0.019754
O O14 0.216153 0.222313 0.815962
O O15 0.258502 0.000000 0.668493
O O16 0.365078 0.209240 0.827642
O O17 0.421050 0.500000 0.501549
O O18 0.450003 0.250277 0.671065
O O19 0.501109 0.000000 0.127901
O O20 0.500000 0.238512 0.000000
O O21 0.148643 0.500000 0.639820
#
# Coordination Sequence:
#
# PCOD8064656 Si02
#       8
#     4   4   4   4   4   4   4   4
#     4  12  24  35  55  84 117 158 204 254 306 368
#     4  11  25  43  63  88 120 162 207 253 309 370
#     4   9  20  37  56  82 118 158 199 251 307 362
#     4  10  20  37  63  91 124 161 202 253 311 373
#     4  10  23  42  64  94 126 162 208 260 316 368
#     4  10  22  40  63  92 125 161 205 255 308 366
#     4  10  23  43  66  92 126 165 208 258 313 374
#     4  10  20  36  57  84 121 160 202 253 308 364
#
# _framework density 21.595220999999999
#
# number of rings (size 3 to 8) (size 9 to 14) (size 15 to 20)
#    0.000    1.750    0.000    4.500    1.750    9.750 
#    0.000    2.500    0.000    0.000    0.000    0.000 
#    0.000    0.000    0.000    0.000    0.000    0.000 
#
# Total GULP energy -396852.509924 kJ/mol
# GULP energy per Si atom -12401.640935 kJ/mol
# Density = 2.154607 g / cm^3
# Si number density = 21.595221 Si / 1000 Ang^3
#
#
#
# Elastic Constant Matrix: (Units=GPa)
#
#
# Indices 1 2 3 4 5 6 
#
# 1 106.2835 44.6088 33.7753 0.0000 -13.4333 0.0000
# 2 44.6088 81.0736 34.7969 0.0000 -12.8325 0.0000
# 3 33.7753 34.7969 88.1934 0.0000 -27.0438 0.0000
# 4 0.0000 0.0000 0.0000 31.9740 0.0000 -4.8522
# 5 -13.4333 -12.8325 -27.0438 0.0000 25.6214 0.0000
# 6 0.0000 0.0000 0.0000 -4.8522 0.0000 25.6089
#
#
#
# Elastic Compliance Matrix: (Units=1/GPa)
#
#
# Indices 1 2 3 4 5 6 
#
# 1 0.012728 -0.005863 -0.002092 0.000000 0.001528 0.000000
# 2 -0.005863 0.017610 -0.004348 0.000000 0.001156 0.000000
# 3 -0.002092 -0.004348 0.019002 0.000000 0.016782 0.000000
# 4 0.000000 0.000000 0.000000 0.032201 0.000000 0.006101
# 5 0.001528 0.001156 0.016782 0.000000 0.058124 0.000000
# 6 0.000000 0.000000 0.000000 0.006101 0.000000 0.040205
#
#
# Mechanical properties :
#
#
# Convention : Reuss Voigt Hill
#
# Bulk Modulus (GPa) = 40.43374 55.76806 48.10090
# Shear Modulus (GPa) = 23.50509 27.46548 25.48528
#
# Velocity S-wave (km/s) = 3.30273 3.57014 3.43904
# Velocity P-wave (km/s) = 5.77132 6.54789 6.17183
#
# Compressibility (1/GPa) = 0.02473182
#
# Stress axis : x y z
#
# Youngs Moduli (GPa) = 78.56855 56.78677 52.62739
#
# Poissons Ratio (x) = 0.33295 0.11012
# Poissons Ratio (y) = 0.46066 0.22882
# Poissons Ratio (z) = 0.16440 0.24690
#
# Static dielectric constant tensor:
#      x y z
#    x 4.075100 0.000000 -0.193230 
#    y 0.000000 3.814050 0.000000 
#    z -0.193230 0.000000 3.829420 
# 
# 
# High freq. dielectric constant tensor:
#      x y z
#    x 1.854040 0.000000 -0.011480 
#    y 0.000000 1.845940 0.000000 
#    z -0.011480 0.000000 1.846400 
# 
# From -- ./inp_files/58265.got.cif
#   From: 2010.06.25/outbox.cif.g09.slc.cpg/sg10_30_cif.got.tgz:58265.got - 2010.06.27 22:07:45.
