data_PCOD8064957
_publ_section_title
;
Structure prediction by ZEFSAII (Michael W. Deem and Ramdas Pophale) SiO2 
 PCOD8064957
Probable space group: P 2/M
;
_chemical_formula_sum "Si O2"
_cell_formula_units_Z 24
_cell_length_a 16.531718
_cell_length_b 7.774290
_cell_length_c 15.268102
_cell_angle_alpha 90.000000
_cell_angle_beta 141.786050
_cell_angle_gamma 90.000000
_cell_volume 1213.873671
_symmetry_space_group_name_H-M "P 2/M"
_symmetry_group_IT_number 10
_symmetry_cell_setting 'monoclinic'
loop_
_space_group_symop_operation_xyz
x,y,z
-x,y,-z
-x,-y,-z
x,-y,z
loop_
_atom_site_type_symbol
_atom_site_label
_atom_site_fract_x
_atom_site_fract_y
_atom_site_fract_z
Si Si1 0.599149 0.694234 0.656286
Si Si2 0.855995 0.796389 0.629283
Si Si3 0.563590 0.802441 0.325261
Si Si4 0.122681 0.802895 0.155243
Si Si5 0.202979 0.500000 0.694545
Si Si6 0.396493 0.805992 0.835489
Si Si7 0.022701 0.500000 0.373471
O O1 0.500000 0.779510 0.500000
O O2 0.626231 0.500000 0.650353
O O3 0.536290 0.697269 0.699305
O O4 0.739822 0.786032 0.778656
O O5 0.712024 0.751447 0.472401
O O6 0.863720 0.729599 0.735499
O O7 0.956781 0.676817 0.662561
O O8 0.888695 0.000000 0.644733
O O9 0.535730 0.758898 0.199829
O O10 0.538320 0.000000 0.326412
O O11 0.086512 0.000000 0.134483
O O12 0.000000 0.712828 0.000000
O O13 0.283958 0.674487 0.762355
O O14 0.113670 0.500000 0.534554
O O15 0.126086 0.500000 0.720659
O O16 0.338095 0.000000 0.779208
O O17 0.500000 0.793000 0.000000
#
# Coordination Sequence:
#
# PCOD8064957 Si02
#       7
#     4   4   4   4   2   4   2
#     4  11  23  35  58  92 122 157 202 253 299 359
#     4  10  21  39  63  86 119 164 204 253 303 354
#     4  10  20  36  61  87 114 156 203 251 300 349
#     4  10  22  41  61  84 122 166 202 247 305 362
#     4  11  23  40  62  91 119 159 195 253 310 365
#     4  10  22  42  65  89 122 160 200 254 313 365
#     4  11  24  38  63  90 121 155 203 253 302 363
#
# _framework density 19.771414
#
# number of rings (size 3 to 8) (size 9 to 14) (size 15 to 20)
#    0.000    1.667    3.333    0.750    3.500    1.667 
#    3.000    1.667    0.000    0.000    0.000    0.000 
#    0.000    0.000    0.000    0.000    0.000    0.000 
#
# Total GULP energy -297567.304115 kJ/mol
# GULP energy per Si atom -12398.637671 kJ/mol
# Density = 1.972641 g / cm^3
# Si number density = 19.771414 Si / 1000 Ang^3
#
#
#
# Elastic Constant Matrix: (Units=GPa)
#
#
# Indices 1 2 3 4 5 6 
#
# 1 160.7158 50.9794 57.7682 0.0000 -5.9244 0.0000
# 2 50.9794 76.3054 20.6137 0.0000 2.3715 0.0000
# 3 57.7682 20.6137 111.0535 0.0000 -13.1541 0.0000
# 4 0.0000 0.0000 0.0000 16.9759 0.0000 2.3159
# 5 -5.9244 2.3715 -13.1541 0.0000 34.6911 0.0000
# 6 0.0000 0.0000 0.0000 2.3159 0.0000 30.8004
#
#
#
# Elastic Compliance Matrix: (Units=1/GPa)
#
#
# Indices 1 2 3 4 5 6 
#
# 1 0.009241 -0.005166 -0.003790 0.000000 0.000494 0.000000
# 2 -0.005166 0.016819 -0.000707 0.000000 -0.002300 0.000000
# 3 -0.003790 -0.000707 0.011555 0.000000 0.003783 0.000000
# 4 0.000000 0.000000 0.000000 0.059518 0.000000 -0.004475
# 5 0.000494 -0.002300 0.003783 0.000000 0.030502 0.000000
# 6 0.000000 0.000000 0.000000 -0.004475 0.000000 0.032804
#
#
# Mechanical properties :
#
#
# Convention : Reuss Voigt Hill
#
# Bulk Modulus (GPa) = 54.67404 67.42193 61.04799
# Shear Modulus (GPa) = 26.90194 31.07437 28.98815
#
# Velocity S-wave (km/s) = 3.69270 3.96874 3.83321
# Velocity P-wave (km/s) = 6.77455 7.42805 7.10881
#
# Compressibility (1/GPa) = 0.01829021
#
# Stress axis : x y z
#
# Youngs Moduli (GPa) = 108.21247 59.45701 86.54005
#
# Poissons Ratio (x) = 0.30713 0.32796
# Poissons Ratio (y) = 0.55897 0.06121
# Poissons Ratio (z) = 0.41009 0.04206
#
# Static dielectric constant tensor:
#      x y z
#    x 3.654940 0.000000 -0.174800 
#    y 0.000000 3.580400 0.000000 
#    z -0.174800 0.000000 3.776530 
# 
# 
# High freq. dielectric constant tensor:
#      x y z
#    x 1.770480 0.000000 -0.014610 
#    y 0.000000 1.773260 0.000000 
#    z -0.014610 0.000000 1.762540 
# 
# From -- ./inp_files/66350.got.cif
#   From: 2010.06.25/outbox.cif.g09.slc.cpg/sg10_34_cif.got.tgz:66350.got - 2010.06.27 22:07:45.
