data_PCOD8064484
_publ_section_title
;
Structure prediction by ZEFSAII (Michael W. Deem and Ramdas Pophale) SiO2 
 PCOD8064484
Probable space group: P 2/M
;
_chemical_formula_sum "Si O2"
_cell_formula_units_Z 28
_cell_length_a 9.861035
_cell_length_b 9.114404
_cell_length_c 25.916806
_cell_angle_alpha 90.000000
_cell_angle_beta 140.972203
_cell_angle_gamma 90.000000
_cell_volume 1466.777089
_symmetry_space_group_name_H-M "P 2/M"
_symmetry_group_IT_number 10
_symmetry_cell_setting 'monoclinic'
loop_
_space_group_symop_operation_xyz
x,y,z
-x,y,-z
-x,-y,-z
x,-y,z
loop_
_atom_site_type_symbol
_atom_site_label
_atom_site_fract_x
_atom_site_fract_y
_atom_site_fract_z
Si Si1 0.200244 0.167922 0.523120
Si Si2 0.438246 0.327984 0.923712
Si Si3 0.623727 0.331276 0.679114
Si Si4 0.032605 0.825665 0.755674
Si Si5 0.500210 0.332102 0.756101
Si Si6 0.916082 0.168101 0.345547
Si Si7 0.759927 0.673791 0.929792
O O1 0.394467 0.277681 0.590641
O O2 0.000000 0.210842 0.500000
O O3 0.131844 0.187944 0.443077
O O4 0.271489 0.000000 0.555166
O O5 0.387759 0.500000 0.903348
O O6 0.225723 0.240154 0.846009
O O7 0.636012 0.280596 0.945334
O O8 0.500000 0.285510 0.000000
O O9 0.655690 0.500000 0.671855
O O10 0.638783 0.315614 0.745288
O O11 0.807591 0.230780 0.710250
O O12 0.049160 0.770006 0.701615
O O13 0.037981 0.000000 0.761331
O O14 0.445676 0.500000 0.752156
O O15 0.275684 0.250638 0.682279
O O16 0.632980 0.262169 0.842895
O O17 0.846397 0.000000 0.322310
O O18 0.776582 0.500000 0.929822
O O19 0.000000 0.742167 0.000000
#
# Coordination Sequence:
#
# PCOD8064484 Si02
#       7
#     4   4   4   4   4   4   4
#     4  10  20  37  61  86 116 153 194 240 294 349
#     4  10  21  37  61  88 117 153 193 238 288 346
#     4  11  24  38  58  89 121 152 196 245 291 347
#     4  11  24  41  60  83 119 160 197 238 290 349
#     4  10  20  35  59  87 115 150 192 241 289 343
#     4  10  21  38  61  85 113 154 197 238 286 351
#     4   9  18  33  56  86 116 146 185 232 285 340
#
# _framework density 19.089472000000001
#
# number of rings (size 3 to 8) (size 9 to 14) (size 15 to 20)
#    0.000    1.857    2.857    0.857    2.000    2.857 
#    0.000    2.857    0.000    0.857    0.000    0.000 
#    0.000    0.000    0.000    0.000    0.000    0.000 
#
# Total GULP energy -347277.130925 kJ/mol
# GULP energy per Si atom -12402.754676 kJ/mol
# Density = 1.904602 g / cm^3
# Si number density = 19.089472 Si / 1000 Ang^3
#
#
#
# Elastic Constant Matrix: (Units=GPa)
#
#
# Indices 1 2 3 4 5 6 
#
# 1 86.0437 27.8183 45.4259 0.0000 -0.0488 0.0000
# 2 27.8183 49.9295 33.5460 0.0000 0.5338 0.0000
# 3 45.4259 33.5460 111.5359 0.0000 -3.5942 0.0000
# 4 0.0000 0.0000 0.0000 31.1107 0.0000 5.0464
# 5 -0.0488 0.5338 -3.5942 0.0000 37.0391 0.0000
# 6 0.0000 0.0000 0.0000 5.0464 0.0000 28.9480
#
#
#
# Elastic Compliance Matrix: (Units=1/GPa)
#
#
# Indices 1 2 3 4 5 6 
#
# 1 0.016002 -0.005671 -0.004823 0.000000 -0.000365 0.000000
# 2 -0.005671 0.027155 -0.005889 0.000000 -0.000970 0.000000
# 3 -0.004823 -0.005889 0.012744 0.000000 0.001315 0.000000
# 4 0.000000 0.000000 0.000000 0.033079 0.000000 -0.005766
# 5 -0.000365 -0.000970 0.001315 0.000000 0.027140 0.000000
# 6 0.000000 0.000000 0.000000 -0.005766 0.000000 0.035550
#
#
# Mechanical properties :
#
#
# Convention : Reuss Voigt Hill
#
# Bulk Modulus (GPa) = 43.22628 51.23218 47.22923
# Shear Modulus (GPa) = 26.02198 28.80081 27.41140
#
# Velocity S-wave (km/s) = 3.69610 3.88845 3.79350
# Velocity P-wave (km/s) = 6.39594 6.85975 6.63191
#
# Compressibility (1/GPa) = 0.02313408
#
# Stress axis : x y z
#
# Youngs Moduli (GPa) = 62.49377 36.82613 78.47042
#
# Poissons Ratio (x) = 0.20883 0.37848
# Poissons Ratio (y) = 0.35439 0.46210
# Poissons Ratio (z) = 0.30142 0.21686
#
# Static dielectric constant tensor:
#      x y z
#    x 3.610800 0.000000 -0.126280 
#    y 0.000000 3.303140 0.000000 
#    z -0.126280 0.000000 3.661990 
# 
# 
# High freq. dielectric constant tensor:
#      x y z
#    x 1.749290 0.000000 -0.008540 
#    y 0.000000 1.723430 0.000000 
#    z -0.008540 0.000000 1.751200 
# 
# From -- ./inp_files/91951.got.cif
#   From: 2010.06.25/outbox.cif.g09.slc.cpg/sg10_46_cif.got.tgz:91951.got - 2010.06.27 22:07:45.
