data_PCOD8064425
_publ_section_title
;
Structure prediction by ZEFSAII (Michael W. Deem and Ramdas Pophale) SiO2 
 PCOD8064425
Probable space group: P 2/M
;
_chemical_formula_sum "Si O2"
_cell_formula_units_Z 28
_cell_length_a 14.969754
_cell_length_b 20.837379
_cell_length_c 10.178965
_cell_angle_alpha 90.000000
_cell_angle_beta 151.687939
_cell_angle_gamma 90.000000
_cell_volume 1505.879683
_symmetry_space_group_name_H-M "P 2/M"
_symmetry_group_IT_number 10
_symmetry_cell_setting 'monoclinic'
loop_
_space_group_symop_operation_xyz
x,y,z
-x,y,-z
-x,-y,-z
x,-y,z
loop_
_atom_site_type_symbol
_atom_site_label
_atom_site_fract_x
_atom_site_fract_y
_atom_site_fract_z
Si Si1 0.605737 0.137065 0.935371
Si Si2 0.773603 0.864048 0.441687
Si Si3 0.652582 0.424153 0.307221
Si Si4 0.964287 0.632477 0.300038
Si Si5 0.113828 0.000000 0.446377
Si Si6 0.430081 0.575336 0.271869
Si Si7 0.917648 0.777661 0.247944
Si Si8 0.281760 0.000000 0.952776
O O1 0.392413 0.161546 0.678970
O O2 0.600827 0.065133 0.868040
O O3 0.711455 0.133737 0.210482
O O4 0.712907 0.188052 0.981002
O O5 0.949636 0.816173 0.681830
O O6 0.826544 0.936205 0.555385
O O7 0.692965 0.500000 0.359390
O O8 0.563673 0.398182 0.328280
O O9 0.848839 0.387765 0.536888
O O10 0.500000 0.405617 0.000000
O O11 0.905586 0.704634 0.184736
O O12 0.000000 0.623971 0.500000
O O13 0.789876 0.588362 0.034572
O O14 0.213451 0.000000 0.715474
O O15 0.890603 0.000000 0.170516
O O16 0.500000 0.605759 0.500000
O O17 0.457637 0.500000 0.309729
O O18 0.000000 0.779693 0.500000
#
# Coordination Sequence:
#
# PCOD8064425 Si02
#       8
#     4   4   4   4   2   4   4   2
#     4   9  15  23  34  49  75 113 159 207 255 303
#     4   9  15  23  33  50  73 112 158 209 255 303
#     4  10  20  35  58  85 109 139 181 222 266 323
#     4  11  21  34  54  78 109 147 182 220 271 325
#     4   9  13  19  33  46  71 103 154 210 255 299
#     4  10  22  39  59  85 113 140 178 228 275 320
#     4   9  18  28  37  58  88 123 165 209 254 306
#     4   9  13  19  33  46  69 107 154 205 253 305
#
# _framework density 18.593782000000001
#
# number of rings (size 3 to 8) (size 9 to 14) (size 15 to 20)
#    0.000    2.429    2.857    0.857    0.000    4.000 
#    2.571    2.143    0.000    0.000    0.000    0.000 
#    0.000    0.000    0.000    2.571    0.000   18.000 
#
# Total GULP energy -347055.688520 kJ/mol
# GULP energy per Si atom -12394.846019 kJ/mol
# Density = 1.855146 g / cm^3
# Si number density = 18.593782 Si / 1000 Ang^3
#
#
#
# Elastic Constant Matrix: (Units=GPa)
#
#
# Indices 1 2 3 4 5 6 
#
# 1 109.8967 40.8916 57.0735 0.0000 29.8512 0.0000
# 2 40.8916 58.2657 19.9678 0.0000 12.3126 0.0000
# 3 57.0735 19.9678 63.5802 0.0000 20.5483 0.0000
# 4 0.0000 0.0000 0.0000 7.4835 0.0000 7.5396
# 5 29.8512 12.3126 20.5483 0.0000 37.2906 0.0000
# 6 0.0000 0.0000 0.0000 7.5396 0.0000 15.5981
#
#
#
# Elastic Compliance Matrix: (Units=1/GPa)
#
#
# Indices 1 2 3 4 5 6 
#
# 1 0.021774 -0.008897 -0.014683 0.000000 -0.006402 0.000000
# 2 -0.008897 0.023291 0.001040 0.000000 -0.001142 0.000000
# 3 -0.014683 0.001040 0.030288 0.000000 -0.005280 0.000000
# 4 0.000000 0.000000 0.000000 0.260481 0.000000 -0.125909
# 5 -0.006402 -0.001142 -0.005280 0.000000 0.035228 0.000000
# 6 0.000000 0.000000 0.000000 -0.125909 0.000000 0.124971
#
#
# Mechanical properties :
#
#
# Convention : Reuss Voigt Hill
#
# Bulk Modulus (GPa) = 33.03017 51.95653 42.49335
# Shear Modulus (GPa) = 9.07109 19.66175 14.36642
#
# Velocity S-wave (km/s) = 2.21114 3.25535 2.78267
# Velocity P-wave (km/s) = 4.93169 6.49102 5.76433
#
# Compressibility (1/GPa) = 0.03027535
#
# Stress axis : x y z
#
# Youngs Moduli (GPa) = 45.92630 42.93455 33.01673
#
# Poissons Ratio (x) = 0.38197 0.48477
# Poissons Ratio (y) = 0.40859 -0.03435
# Poissons Ratio (z) = 0.67432 -0.04467
#
# Static dielectric constant tensor:
#      x y z
#    x 3.394070 0.000000 0.369330 
#    y 0.000000 3.522280 0.000000 
#    z 0.369330 0.000000 3.085120 
# 
# 
# High freq. dielectric constant tensor:
#      x y z
#    x 1.700340 0.000000 0.050510 
#    y 0.000000 1.720300 0.000000 
#    z 0.050510 0.000000 1.682530 
# 
# From -- ./inp_files/54260.got.cif
#   From: 2010.06.25/outbox.cif.g09.slc.cpg/sg10_28_cif.got.tgz:54260.got - 2010.06.27 22:07:45.
