data_PCOD8064097
_publ_section_title
;
Structure prediction by ZEFSAII (Michael W. Deem and Ramdas Pophale) SiO2 
 PCOD8064097
Probable space group: P 2/M
;
_chemical_formula_sum "Si O2"
_cell_formula_units_Z 28
_cell_length_a 26.749993
_cell_length_b 9.246870
_cell_length_c 9.665182
_cell_angle_alpha 90.000000
_cell_angle_beta 38.960456
_cell_angle_gamma 90.000000
_cell_volume 1503.245310
_symmetry_space_group_name_H-M "P 2/M"
_symmetry_group_IT_number 10
_symmetry_cell_setting 'monoclinic'
loop_
_space_group_symop_operation_xyz
x,y,z
-x,y,-z
-x,-y,-z
x,-y,z
loop_
_atom_site_type_symbol
_atom_site_label
_atom_site_fract_x
_atom_site_fract_y
_atom_site_fract_z
Si Si1 0.176831 0.337100 0.869880
Si Si2 0.479610 0.164707 0.384996
Si Si3 0.435069 0.671005 0.027073
Si Si4 0.907205 0.166857 0.721244
Si Si5 0.672340 0.340175 0.262325
Si Si6 0.790844 0.670084 0.775534
Si Si7 0.744124 0.671685 0.573805
O O1 0.141533 0.500000 0.937194
O O2 0.259251 0.340589 0.772309
O O3 0.196399 0.273530 0.674922
O O4 0.114480 0.235617 0.083234
O O5 0.500000 0.181885 0.500000
O O6 0.391674 0.225415 0.549426
O O7 0.481362 0.000000 0.330822
O O8 0.544486 0.254998 0.161812
O O9 0.438241 0.500000 0.999100
O O10 0.346499 0.723949 0.259232
O O11 0.500000 0.721926 0.000000
O O12 0.863671 0.245252 0.687806
O O13 0.000000 0.186555 0.500000
O O14 0.881355 0.000000 0.778277
O O15 0.633076 0.500000 0.339518
O O16 0.709450 0.298084 0.033852
O O17 0.811191 0.500000 0.737818
O O18 0.777733 0.728072 0.648178
O O19 0.743317 0.500000 0.575848
#
# Coordination Sequence:
#
# PCOD8064097 Si02
#       7
#     4   4   4   4   4   4   4
#     4   9  18  34  57  81 103 129 165 208 252 303
#     4  11  23  34  45  68 102 137 174 217 262 305
#     4  10  20  35  55  75  99 136 178 219 263 307
#     4  10  21  37  56  79 107 137 169 204 245 300
#     4   9  17  31  51  73  97 131 175 216 254 300
#     4   9  18  33  55  80 104 133 170 212 257 305
#     4   9  17  32  54  80 106 131 168 217 262 305
#
# _framework density 18.626369
#
# number of rings (size 3 to 8) (size 9 to 14) (size 15 to 20)
#    0.000    2.429    0.000    3.429    0.000    8.286 
#    0.000    2.857    0.000    4.286    0.000    0.000 
#    0.000    0.000    0.000    0.000    0.000    0.000 
#
# Total GULP energy -347175.081723 kJ/mol
# GULP energy per Si atom -12399.110062 kJ/mol
# Density = 1.858397 g / cm^3
# Si number density = 18.626369 Si / 1000 Ang^3
#
#
#
# Elastic Constant Matrix: (Units=GPa)
#
#
# Indices 1 2 3 4 5 6 
#
# 1 70.9864 31.9106 52.6534 0.0000 13.0260 0.0000
# 2 31.9106 64.6524 44.8768 0.0000 -0.8935 0.0000
# 3 52.6534 44.8768 122.4583 0.0000 15.6642 0.0000
# 4 0.0000 0.0000 0.0000 12.9816 0.0000 -2.0945
# 5 13.0260 -0.8935 15.6642 0.0000 33.7842 0.0000
# 6 0.0000 0.0000 0.0000 -2.0945 0.0000 13.2310
#
#
#
# Elastic Compliance Matrix: (Units=1/GPa)
#
#
# Indices 1 2 3 4 5 6 
#
# 1 0.023278 -0.006925 -0.006697 0.000000 -0.006053 0.000000
# 2 -0.006925 0.023417 -0.006405 0.000000 0.006259 0.000000
# 3 -0.006697 -0.006405 0.013909 0.000000 -0.004036 0.000000
# 4 0.000000 0.000000 0.000000 0.079051 0.000000 0.012514
# 5 -0.006053 0.006259 -0.004036 0.000000 0.033970 0.000000
# 6 0.000000 0.000000 0.000000 0.012514 0.000000 0.077561
#
#
# Mechanical properties :
#
#
# Convention : Reuss Voigt Hill
#
# Bulk Modulus (GPa) = 48.65789 57.44208 53.04998
# Shear Modulus (GPa) = 16.77343 20.57646 18.67495
#
# Velocity S-wave (km/s) = 3.00412 3.32730 3.16983
# Velocity P-wave (km/s) = 6.18165 6.75776 6.47612
#
# Compressibility (1/GPa) = 0.02055165
#
# Stress axis : x y z
#
# Youngs Moduli (GPa) = 42.95859 42.70333 71.89572
#
# Poissons Ratio (x) = 0.29570 0.48149
# Poissons Ratio (y) = 0.29747 0.46049
# Poissons Ratio (z) = 0.28769 0.27351
#
# Static dielectric constant tensor:
#      x y z
#    x 3.416600 0.000000 0.299820 
#    y 0.000000 3.319810 0.000000 
#    z 0.299820 0.000000 3.679260 
# 
# 
# High freq. dielectric constant tensor:
#      x y z
#    x 1.713880 0.000000 0.012910 
#    y 0.000000 1.701810 0.000000 
#    z 0.012910 0.000000 1.727530 
# 
# From -- ./inp_files/36922.got.cif
#   From: 2010.06.25/outbox.cif.g09.slc.cpg/sg10_19_cif.got.tgz:36922.got - 2010.06.27 22:07:45.
