data_PCOD8064226
_publ_section_title
;
Structure prediction by ZEFSAII (Michael W. Deem and Ramdas Pophale) SiO2 
 PCOD8064226
Probable space group: P 2/M
;
_chemical_formula_sum "Si O2"
_cell_formula_units_Z 32
_cell_length_a 27.547816
_cell_length_b 9.223120
_cell_length_c 21.503170
_cell_angle_alpha 90.000000
_cell_angle_beta 18.428879
_cell_angle_gamma 90.000000
_cell_volume 1727.147671
_symmetry_space_group_name_H-M "P 2/M"
_symmetry_group_IT_number 10
_symmetry_cell_setting 'monoclinic'
loop_
_space_group_symop_operation_xyz
x,y,z
-x,y,-z
-x,-y,-z
x,-y,z
loop_
_atom_site_type_symbol
_atom_site_label
_atom_site_fract_x
_atom_site_fract_y
_atom_site_fract_z
Si Si1 0.116509 0.662136 0.538669
Si Si2 0.737050 0.828452 0.179449
Si Si3 0.669869 0.170593 0.520627
Si Si4 0.419137 0.171563 0.158973
Si Si5 0.427295 0.829421 0.495261
Si Si6 0.403413 0.831164 0.938135
Si Si7 0.908794 0.665515 0.671328
Si Si8 0.958028 0.330872 0.231401
O O1 0.186695 0.500000 0.453982
O O2 0.245551 0.780010 0.372171
O O3 0.003564 0.681679 0.618802
O O4 0.032788 0.693295 0.705667
O O5 0.600903 0.774209 0.298619
O O6 0.687360 0.788021 0.309905
O O7 0.766886 0.000000 0.136176
O O8 0.891589 0.742115 0.979363
O O9 0.642999 0.231645 0.483515
O O10 0.508987 0.200724 0.750403
O O11 0.806779 0.257293 0.386664
O O12 0.711700 0.000000 0.471544
O O13 0.508746 0.233010 0.109152
O O14 0.420117 0.000000 0.157302
O O15 0.500000 0.236928 0.000000
O O16 0.441018 0.000000 0.472755
O O17 0.369530 0.000000 0.986941
O O18 0.242651 0.753054 0.129218
O O19 0.864389 0.500000 0.711075
O O20 0.000000 0.728061 0.500000
O O21 0.955439 0.500000 0.217044
#
# Coordination Sequence:
#
# PCOD8064226 Si02
#       8
#     4   4   4   4   4   4   4   4
#     4  10  22  38  54  77 109 145 184 221 262 321
#     4   9  18  36  61  85 109 142 181 223 270 319
#     4  10  20  37  58  81 110 144 183 225 269 321
#     4  10  20  35  56  81 108 138 176 223 271 318
#     4   8  17  35  60  87 110 137 182 228 266 318
#     4  10  21  35  54  83 111 137 175 224 273 320
#     4  10  22  39  57  78 106 142 183 224 270 326
#     4  11  23  37  53  80 115 148 183 222 265 319
#
# _framework density 18.527657000000001
#
# number of rings (size 3 to 8) (size 9 to 14) (size 15 to 20)
#    0.000    2.250    1.250    1.875    1.750    3.000 
#    0.000    5.000    0.000    0.000    0.000    0.000 
#    0.000    0.000    0.000    0.000    0.000    0.000 
#
# Total GULP energy -396745.770891 kJ/mol
# GULP energy per Si atom -12398.305340 kJ/mol
# Density = 1.848549 g / cm^3
# Si number density = 18.527657 Si / 1000 Ang^3
#
#
#
# Elastic Constant Matrix: (Units=GPa)
#
#
# Indices 1 2 3 4 5 6 
#
# 1 143.8339 38.2158 53.7466 0.0000 9.6537 0.0000
# 2 38.2158 52.4269 55.2566 0.0000 -1.0942 0.0000
# 3 53.7466 55.2566 135.3581 0.0000 1.2651 0.0000
# 4 0.0000 0.0000 0.0000 154.4662 0.0000 -36.2496
# 5 9.6537 -1.0942 1.2651 0.0000 24.9406 0.0000
# 6 0.0000 0.0000 0.0000 -36.2496 0.0000 83.5728
#
#
#
# Elastic Compliance Matrix: (Units=1/GPa)
#
#
# Indices 1 2 3 4 5 6 
#
# 1 0.009126 -0.005171 -0.001478 0.000000 -0.003684 0.000000
# 2 -0.005171 0.036526 -0.012897 0.000000 0.004258 0.000000
# 3 -0.001478 -0.012897 0.013246 0.000000 -0.000666 0.000000
# 4 0.000000 0.000000 0.000000 0.007208 0.000000 0.003126
# 5 -0.003684 0.004258 -0.000666 0.000000 0.041742 0.000000
# 6 0.000000 0.000000 0.000000 0.003126 0.000000 0.013322
#
#
# Mechanical properties :
#
#
# Convention : Reuss Voigt Hill
#
# Bulk Modulus (GPa) = 50.49341 69.56188 60.02764
# Shear Modulus (GPa) = 29.96449 64.88924 47.42687
#
# Velocity S-wave (km/s) = 4.02591 5.92444 5.06492
# Velocity P-wave (km/s) = 6.99448 9.18831 8.16541
#
# Compressibility (1/GPa) = 0.01980457
#
# Stress axis : x y z
#
# Youngs Moduli (GPa) = 109.57614 27.37780 75.49449
#
# Poissons Ratio (x) = 0.14158 0.11160
# Poissons Ratio (y) = 0.56664 0.97368
# Poissons Ratio (z) = 0.16198 0.35310
#
# Static dielectric constant tensor:
#      x y z
#    x 3.773290 0.000000 0.173050 
#    y 0.000000 3.240500 0.000000 
#    z 0.173050 0.000000 3.342180 
# 
# 
# High freq. dielectric constant tensor:
#      x y z
#    x 1.735500 0.000000 0.004320 
#    y 0.000000 1.698400 0.000000 
#    z 0.004320 0.000000 1.723920 
# 
# From -- ./inp_files/86777.got.cif
#   From: 2010.06.25/outbox.cif.g09.slc.cpg/sg10_44_cif.got.tgz:86777.got - 2010.06.27 22:07:45.
