data_PCOD8064534
_publ_section_title
;
Structure prediction by ZEFSAII (Michael W. Deem and Ramdas Pophale) SiO2 
 PCOD8064534
Probable space group: P 2/M
;
_chemical_formula_sum "Si O2"
_cell_formula_units_Z 24
_cell_length_a 5.784775
_cell_length_b 14.532780
_cell_length_c 13.775483
_cell_angle_alpha 90.000000
_cell_angle_beta 97.447571
_cell_angle_gamma 90.000000
_cell_volume 1148.319412
_symmetry_space_group_name_H-M "P 2/M"
_symmetry_group_IT_number 10
_symmetry_cell_setting 'monoclinic'
loop_
_space_group_symop_operation_xyz
x,y,z
-x,y,-z
-x,-y,-z
x,-y,z
loop_
_atom_site_type_symbol
_atom_site_label
_atom_site_fract_x
_atom_site_fract_y
_atom_site_fract_z
Si Si1 0.592918 0.829590 0.408259
Si Si2 0.170435 0.396668 0.749369
Si Si3 0.739266 0.640078 0.454061
Si Si4 0.194804 0.896028 0.767093
Si Si5 0.532538 0.740656 0.115420
Si Si6 0.195549 0.246569 0.258643
O O1 0.500000 0.882987 0.500000
O O2 0.772185 0.751185 0.454021
O O3 0.702134 0.899687 0.337111
O O4 0.399498 0.766485 0.346046
O O5 0.111258 0.500000 0.781811
O O6 0.312779 0.399530 0.656659
O O7 0.310108 0.344824 0.842085
O O8 0.940842 0.336755 0.714142
O O9 0.500000 0.611140 0.500000
O O10 0.000000 0.601588 0.500000
O O11 0.355958 0.838690 0.849058
O O12 0.944922 0.848828 0.749487
O O13 0.171639 0.000000 0.804267
O O14 0.283021 0.734673 0.153906
O O15 0.500000 0.735229 0.000000
#
# Coordination Sequence:
#
# PCOD8064534 Si02
#       6
#     4   4   4   4   4   4
#     4  10  20  35  62  86 126 173 210 252 314 378
#     4  11  23  39  61  94 127 164 214 264 317 379
#     4  11  22  38  65  95 132 180 224 266 320 385
#     4  10  22  38  61  92 120 156 209 262 321 388
#     4  10  23  44  65  86 120 163 207 263 333 392
#     4  10  20  42  59  87 121 167 203 269 320 388
#
# _framework density 20.900107999999999
#
# number of rings (size 3 to 8) (size 9 to 14) (size 15 to 20)
#    0.000    1.667    5.000    2.000    0.000    7.667 
#    0.000    2.500    0.000    0.500    0.000    0.000 
#    0.000    0.000    0.000    0.000    0.000    0.000 
#
# Total GULP energy -297375.147138 kJ/mol
# GULP energy per Si atom -12390.631131 kJ/mol
# Density = 2.085254 g / cm^3
# Si number density = 20.900108 Si / 1000 Ang^3
#
#
#
# Elastic Constant Matrix: (Units=GPa)
#
#
# Indices 1 2 3 4 5 6 
#
# 1 110.7283 27.2833 32.9991 0.0000 -9.0928 0.0000
# 2 27.2833 136.1507 5.6650 0.0000 -4.3097 0.0000
# 3 32.9991 5.6650 130.5402 0.0000 -20.8630 0.0000
# 4 0.0000 0.0000 0.0000 7.0760 0.0000 -7.9029
# 5 -9.0928 -4.3097 -20.8630 0.0000 18.7439 0.0000
# 6 0.0000 0.0000 0.0000 -7.9029 0.0000 -2.3334
#
#
#
# Elastic Compliance Matrix: (Units=1/GPa)
#
#
# Indices 1 2 3 4 5 6 
#
# 1 0.010329 -0.001911 -0.002187 0.000000 0.002138 0.000000
# 2 -0.001911 0.007753 0.000345 0.000000 0.001239 0.000000
# 3 -0.002187 0.000345 0.009781 0.000000 0.009906 0.000000
# 4 0.000000 0.000000 0.000000 0.029550 0.000000 -0.100078
# 5 0.002138 0.001239 0.009906 0.000000 0.065698 0.000000
# 6 0.000000 0.000000 0.000000 -0.100078 0.000000 -0.089607
#
#
# Mechanical properties :
#
#
# Convention : Reuss Voigt Hill
#
# Bulk Modulus (GPa) = 49.12267 56.59043 52.85655
# Shear Modulus (GPa) = 104.61136 25.46207 65.03671
#
# Velocity S-wave (km/s) = 7.08249 3.49417 5.58439
# Velocity P-wave (km/s) = 9.50983 6.58895 8.18081
#
# Compressibility (1/GPa) = 0.02035720
#
# Stress axis : x y z
#
# Youngs Moduli (GPa) = 96.81291 128.98773 102.23494
#
# Poissons Ratio (x) = 0.24653 0.22354
# Poissons Ratio (y) = 0.18503 -0.03524
# Poissons Ratio (z) = 0.21168 -0.04447
#
# Static dielectric constant tensor:
#      x y z
#    x 4.028450 0.000000 -0.205780 
#    y 0.000000 3.526370 0.000000 
#    z -0.205780 0.000000 3.631690 
# 
# 
# High freq. dielectric constant tensor:
#      x y z
#    x 1.824100 0.000000 -0.006350 
#    y 0.000000 1.798080 0.000000 
#    z -0.006350 0.000000 1.807860 
# 
# From -- ./inp_files/59038.got.cif
#   From: 2010.06.25/outbox.cif.g09.slc.cpg/sg10_30_cif.got.tgz:59038.got - 2010.06.27 22:07:45.
