data_PCOD8064260
_publ_section_title
;
Structure prediction by ZEFSAII (Michael W. Deem and Ramdas Pophale) SiO2 
 PCOD8064260
Probable space group: P 2/M
;
_chemical_formula_sum "Si O2"
_cell_formula_units_Z 28
_cell_length_a 14.044863
_cell_length_b 8.493747
_cell_length_c 16.545222
_cell_angle_alpha 90.000000
_cell_angle_beta 48.236546
_cell_angle_gamma 90.000000
_cell_volume 1472.212880
_symmetry_space_group_name_H-M "P 2/M"
_symmetry_group_IT_number 10
_symmetry_cell_setting 'monoclinic'
loop_
_space_group_symop_operation_xyz
x,y,z
-x,y,-z
-x,-y,-z
x,-y,z
loop_
_atom_site_type_symbol
_atom_site_label
_atom_site_fract_x
_atom_site_fract_y
_atom_site_fract_z
Si Si1 0.947825 0.682392 0.615408
Si Si2 0.513143 0.814114 0.369560
Si Si3 0.233238 0.184859 0.067960
Si Si4 0.686338 0.184895 0.801952
Si Si5 0.037830 0.184061 0.726267
Si Si6 0.691022 0.683360 0.403678
Si Si7 0.552500 0.187163 0.166051
O O1 0.975408 0.500000 0.618115
O O2 0.798032 0.716107 0.697618
O O3 0.000000 0.735605 0.500000
O O4 0.019810 0.786996 0.641336
O O5 0.621936 0.730105 0.360015
O O6 0.373259 0.773229 0.483925
O O7 0.526750 0.748553 0.270601
O O8 0.534200 0.000000 0.361886
O O9 0.315931 0.223415 0.101309
O O10 0.088673 0.252680 0.156085
O O11 0.217672 0.000000 0.068421
O O12 0.311891 0.251427 0.946204
O O13 0.557085 0.244395 0.833179
O O14 0.710200 0.000000 0.773689
O O15 0.160911 0.274415 0.689440
O O16 0.056942 0.000000 0.731393
O O17 0.674086 0.500000 0.428969
O O18 0.554935 0.000000 0.166211
#
# Coordination Sequence:
#
# PCOD8064260 Si02
#       7
#     4   4   4   4   4   4   4
#     4  10  21  34  47  72 109 145 177 215 259 311
#     4  10  20  35  56  83 108 134 177 225 263 313
#     4   8  15  30  52  80 110 137 172 217 263 309
#     4   9  17  30  51  78 106 142 179 214 256 307
#     4  10  20  35  58  80 101 137 179 219 262 312
#     4  11  22  38  57  76 106 142 174 216 274 326
#     4   9  17  30  53  83 109 135 173 223 268 305
#
# _framework density 19.018988
#
# number of rings (size 3 to 8) (size 9 to 14) (size 15 to 20)
#    0.000    2.429    0.000    4.714    2.000    2.857 
#    0.000    1.429    0.000   20.571    0.000    0.000 
#    0.000    0.000    0.000    0.000    0.000    0.000 
#
# Total GULP energy -347119.427724 kJ/mol
# GULP energy per Si atom -12397.122419 kJ/mol
# Density = 1.897570 g / cm^3
# Si number density = 19.018988 Si / 1000 Ang^3
#
#
#
# Elastic Constant Matrix: (Units=GPa)
#
#
# Indices 1 2 3 4 5 6 
#
# 1 107.9998 10.2728 63.2986 0.0000 -16.5211 0.0000
# 2 10.2728 34.9495 10.5992 0.0000 -0.3320 0.0000
# 3 63.2986 10.5992 120.4244 0.0000 2.8184 0.0000
# 4 0.0000 0.0000 0.0000 2.3988 0.0000 1.0028
# 5 -16.5211 -0.3320 2.8184 0.0000 23.5745 0.0000
# 6 0.0000 0.0000 0.0000 1.0028 0.0000 13.6431
#
#
#
# Elastic Compliance Matrix: (Units=1/GPa)
#
#
# Indices 1 2 3 4 5 6 
#
# 1 0.016554 -0.002073 -0.008814 0.000000 0.012626 0.000000
# 2 -0.002073 0.029669 -0.001502 0.000000 -0.000855 0.000000
# 3 -0.008814 -0.001502 0.013251 0.000000 -0.007782 0.000000
# 4 0.000000 0.000000 0.000000 0.430084 0.000000 -0.031612
# 5 0.012626 -0.000855 -0.007782 0.000000 0.052185 0.000000
# 6 0.000000 0.000000 0.000000 -0.031612 0.000000 0.075620
#
#
# Mechanical properties :
#
#
# Convention : Reuss Voigt Hill
#
# Bulk Modulus (GPa) = 28.82104 47.96832 38.39468
# Shear Modulus (GPa) = 7.64868 19.87016 13.75942
#
# Velocity S-wave (km/s) = 2.00757 3.23577 2.69263
# Velocity P-wave (km/s) = 4.53437 6.26389 5.46794
#
# Compressibility (1/GPa) = 0.03469687
#
# Stress axis : x y z
#
# Youngs Moduli (GPa) = 60.40899 33.70486 75.46421
#
# Poissons Ratio (x) = 0.06986 0.66516
# Poissons Ratio (y) = 0.12521 0.11334
# Poissons Ratio (z) = 0.53246 0.05062
#
# Static dielectric constant tensor:
#      x y z
#    x 3.475220 0.000000 -0.129140 
#    y 0.000000 3.209020 0.000000 
#    z -0.129140 0.000000 3.859410 
# 
# 
# High freq. dielectric constant tensor:
#      x y z
#    x 1.731780 0.000000 -0.010850 
#    y 0.000000 1.715120 0.000000 
#    z -0.010850 0.000000 1.743720 
# 
# From -- ./inp_files/63652.got.cif
#   From: 2010.06.25/outbox.cif.g09.slc.cpg/sg10_32_cif.got.tgz:63652.got - 2010.06.27 22:07:45.
