data_PCOD8064739
_publ_section_title
;
Structure prediction by ZEFSAII (Michael W. Deem and Ramdas Pophale) SiO2 
 PCOD8064739
Probable space group: P 2/M
;
_chemical_formula_sum "Si O2"
_cell_formula_units_Z 32
_cell_length_a 25.653032
_cell_length_b 8.879291
_cell_length_c 14.593992
_cell_angle_alpha 90.000000
_cell_angle_beta 149.938151
_cell_angle_gamma 90.000000
_cell_volume 1665.221799
_symmetry_space_group_name_H-M "P 2/M"
_symmetry_group_IT_number 10
_symmetry_cell_setting 'monoclinic'
loop_
_space_group_symop_operation_xyz
x,y,z
-x,y,-z
-x,-y,-z
x,-y,z
loop_
_atom_site_type_symbol
_atom_site_label
_atom_site_fract_x
_atom_site_fract_y
_atom_site_fract_z
Si Si1 0.554429 0.678068 0.844429
Si Si2 0.187218 0.823732 0.449035
Si Si3 0.761323 0.822766 0.825557
Si Si4 0.954193 0.325398 0.521441
Si Si5 0.730998 0.675323 0.248916
Si Si6 0.021685 0.320508 0.819202
Si Si7 0.398743 0.678059 0.288418
Si Si8 0.339549 0.825713 0.518491
O O1 0.555648 0.500000 0.843429
O O2 0.587236 0.738013 0.793871
O O3 0.440859 0.732518 0.700230
O O4 0.633583 0.736843 0.042583
O O5 0.258357 0.768257 0.641545
O O6 0.247219 0.785100 0.447180
O O7 0.077397 0.737922 0.274380
O O8 0.165922 0.000000 0.427862
O O9 0.703371 0.757464 0.826248
O O10 0.694314 0.779669 0.634835
O O11 0.776341 0.000000 0.859057
O O12 0.873124 0.747212 0.980828
O O13 0.982744 0.500000 0.561724
O O14 0.008235 0.259502 0.694688
O O15 0.000000 0.245226 0.500000
O O16 0.831015 0.299035 0.336777
O O17 0.719456 0.500000 0.257506
O O18 0.023432 0.500000 0.827664
O O19 0.500000 0.726479 0.500000
O O20 0.380737 0.500000 0.265374
O O21 0.368915 0.000000 0.569156
#
# Coordination Sequence:
#
# PCOD8064739 Si02
#       8
#     4   4   4   4   4   4   4   4
#     4  10  21  36  58  86 116 149 187 235 281 333
#     4  10  21  40  61  80 110 149 189 236 284 333
#     4  11  23  38  57  83 116 152 190 231 280 338
#     4   8  15  29  52  78 105 140 178 218 267 326
#     4   9  19  35  55  83 114 145 185 229 282 334
#     4  10  21  37  59  85 113 145 186 234 283 335
#     4  10  20  36  58  84 115 150 189 232 281 332
#     4  10  23  40  58  80 110 152 194 232 281 339
#
# _framework density 19.216660000000001
#
# number of rings (size 3 to 8) (size 9 to 14) (size 15 to 20)
#    0.000    2.250    1.250    1.875    1.750    3.750 
#    0.000    5.000    0.000    1.875    0.000    0.000 
#    0.000    0.000    0.000    0.000    0.000    0.000 
#
# Total GULP energy -396854.512513 kJ/mol
# GULP energy per Si atom -12401.703516 kJ/mol
# Density = 1.917292 g / cm^3
# Si number density = 19.216660 Si / 1000 Ang^3
#
#
#
# Elastic Constant Matrix: (Units=GPa)
#
#
# Indices 1 2 3 4 5 6 
#
# 1 81.8300 25.5047 14.5064 0.0000 12.8466 0.0000
# 2 25.5047 50.6792 32.3844 0.0000 5.6210 0.0000
# 3 14.5064 32.3844 103.7410 0.0000 15.7882 0.0000
# 4 0.0000 0.0000 0.0000 27.9927 0.0000 3.4202
# 5 12.8466 5.6210 15.7882 0.0000 18.8219 0.0000
# 6 0.0000 0.0000 0.0000 3.4202 0.0000 28.5250
#
#
#
# Elastic Compliance Matrix: (Units=1/GPa)
#
#
# Indices 1 2 3 4 5 6 
#
# 1 0.015996 -0.008100 0.001817 0.000000 -0.010023 0.000000
# 2 -0.008100 0.028768 -0.008462 0.000000 0.004035 0.000000
# 3 0.001817 -0.008462 0.013562 0.000000 -0.010089 0.000000
# 4 0.000000 0.000000 0.000000 0.036255 0.000000 -0.004347
# 5 -0.010023 0.004035 -0.010089 0.000000 0.067229 0.000000
# 6 0.000000 0.000000 0.000000 -0.004347 0.000000 0.035578
#
#
# Mechanical properties :
#
#
# Convention : Reuss Voigt Hill
#
# Bulk Modulus (GPa) = 34.67686 42.33791 38.50739
# Shear Modulus (GPa) = 21.14251 25.99156 23.56703
#
# Velocity S-wave (km/s) = 3.32055 3.68170 3.50578
# Velocity P-wave (km/s) = 5.72589 6.33663 6.03899
#
# Compressibility (1/GPa) = 0.02883767
#
# Stress axis : x y z
#
# Youngs Moduli (GPa) = 62.51381 34.76099 73.73382
#
# Poissons Ratio (x) = 0.28156 -0.13398
# Poissons Ratio (y) = 0.50635 0.62392
# Poissons Ratio (z) = -0.11359 0.29414
#
# Static dielectric constant tensor:
#      x y z
#    x 3.648980 0.000000 -0.086020 
#    y 0.000000 3.309860 0.000000 
#    z -0.086020 0.000000 3.575280 
# 
# 
# High freq. dielectric constant tensor:
#      x y z
#    x 1.752350 0.000000 0.002670 
#    y 0.000000 1.730200 0.000000 
#    z 0.002670 0.000000 1.752700 
# 
# From -- ./inp_files/66611.got.cif
#   From: 2010.06.25/outbox.cif.g09.slc.cpg/sg10_34_cif.got.tgz:66611.got - 2010.06.27 22:07:45.
