data_PCOD8064629
_publ_section_title
;
Structure prediction by ZEFSAII (Michael W. Deem and Ramdas Pophale) SiO2 
 PCOD8064629
Probable space group: P 2/M
;
_chemical_formula_sum "Si O2"
_cell_formula_units_Z 32
_cell_length_a 26.212760
_cell_length_b 9.340027
_cell_length_c 15.566028
_cell_angle_alpha 90.000000
_cell_angle_beta 27.094999
_cell_angle_gamma 90.000000
_cell_volume 1735.784482
_symmetry_space_group_name_H-M "P 2/M"
_symmetry_group_IT_number 10
_symmetry_cell_setting 'monoclinic'
loop_
_space_group_symop_operation_xyz
x,y,z
-x,y,-z
-x,-y,-z
x,-y,z
loop_
_atom_site_type_symbol
_atom_site_label
_atom_site_fract_x
_atom_site_fract_y
_atom_site_fract_z
Si Si1 0.045770 0.334104 0.339798
Si Si2 0.503230 0.665897 0.682589
Si Si3 0.060811 0.832085 0.995962
Si Si4 0.073643 0.830872 0.632521
Si Si5 0.324649 0.830946 0.256419
Si Si6 0.492217 0.169202 0.149364
Si Si7 0.284576 0.334143 0.917949
Si Si8 0.735511 0.334145 0.242469
O O1 0.016129 0.500000 0.368345
O O2 0.000000 0.281086 0.500000
O O3 0.991542 0.241736 0.346815
O O4 0.179306 0.308653 0.138403
O O5 0.483805 0.500000 0.734576
O O6 0.522187 0.751366 0.740505
O O7 0.395066 0.732613 0.796089
O O8 0.609874 0.688231 0.462826
O O9 0.179073 0.751711 0.825270
O O10 0.086144 0.000000 0.955770
O O11 0.000000 0.782281 0.000000
O O12 0.982255 0.789205 0.193480
O O13 0.199641 0.767740 0.443569
O O14 0.071907 0.000000 0.619800
O O15 0.392142 0.775062 0.238149
O O16 0.319750 0.000000 0.271069
O O17 0.389405 0.787952 0.072013
O O18 0.485135 0.000000 0.175261
O O19 0.309929 0.500000 0.863921
O O20 0.259346 0.268382 0.861700
O O21 0.771472 0.500000 0.190682
#
# Coordination Sequence:
#
# PCOD8064629 Si02
#       8
#     4   4   4   4   4   4   4   4
#     4  10  21  36  56  82 109 141 182 224 270 322
#     4  10  21  34  54  82 106 134 177 222 269 316
#     4  10  22  37  56  83 112 144 181 223 273 323
#     4  10  20  36  57  81 110 144 180 222 270 323
#     4   8  17  34  55  76 104 142 179 210 257 320
#     4   9  18  35  56  78 104 139 178 217 259 313
#     4   9  18  36  56  74 104 141 174 214 265 320
#     4  10  20  37  58  78 104 141 182 221 263 320
#
# _framework density 18.435466999999999
#
# number of rings (size 3 to 8) (size 9 to 14) (size 15 to 20)
#    0.000    2.500    1.250    1.125    3.500    2.500 
#    0.000    3.125    0.000    1.500    0.000    0.000 
#    0.000    0.000    0.000    0.000    0.000    0.000 
#
# Total GULP energy -396803.930760 kJ/mol
# GULP energy per Si atom -12400.122836 kJ/mol
# Density = 1.839351 g / cm^3
# Si number density = 18.435467 Si / 1000 Ang^3
#
#
#
# Elastic Constant Matrix: (Units=GPa)
#
#
# Indices 1 2 3 4 5 6 
#
# 1 88.0110 32.5948 41.0321 0.0000 14.8621 0.0000
# 2 32.5948 32.4127 29.3659 0.0000 1.9110 0.0000
# 3 41.0321 29.3659 108.4834 0.0000 -1.1765 0.0000
# 4 0.0000 0.0000 0.0000 20.4588 0.0000 -2.3779
# 5 14.8621 1.9110 -1.1765 0.0000 36.0483 0.0000
# 6 0.0000 0.0000 0.0000 -2.3779 0.0000 25.3473
#
#
#
# Elastic Compliance Matrix: (Units=1/GPa)
#
#
# Indices 1 2 3 4 5 6 
#
# 1 0.020557 -0.017359 -0.003160 0.000000 -0.007658 0.000000
# 2 -0.017359 0.055767 -0.008488 0.000000 0.003923 0.000000
# 3 -0.003160 -0.008488 0.012734 0.000000 0.002168 0.000000
# 4 0.000000 0.000000 0.000000 0.049417 0.000000 0.004636
# 5 -0.007658 0.003923 0.002168 0.000000 0.030761 0.000000
# 6 0.000000 0.000000 0.000000 0.004636 0.000000 0.039887
#
#
# Mechanical properties :
#
#
# Convention : Reuss Voigt Hill
#
# Bulk Modulus (GPa) = 32.20981 48.32143 40.26562
# Shear Modulus (GPa) = 18.01904 24.76515 21.39210
#
# Velocity S-wave (km/s) = 3.12975 3.66914 3.41013
# Velocity P-wave (km/s) = 5.52902 6.64967 6.11507
#
# Compressibility (1/GPa) = 0.03104645
#
# Stress axis : x y z
#
# Youngs Moduli (GPa) = 48.64446 17.93179 78.52897
#
# Poissons Ratio (x) = 0.31127 0.24812
# Poissons Ratio (y) = 0.84441 0.66652
# Poissons Ratio (z) = 0.15370 0.15220
#
# Static dielectric constant tensor:
#      x y z
#    x 3.493530 0.000000 -0.088850 
#    y 0.000000 3.065650 0.000000 
#    z -0.088850 0.000000 3.754180 
# 
# 
# High freq. dielectric constant tensor:
#      x y z
#    x 1.722500 0.000000 -0.001300 
#    y 0.000000 1.679200 0.000000 
#    z -0.001300 0.000000 1.731200 
# 
# From -- ./inp_files/71466.got.cif
#   From: 2010.06.25/outbox.cif.g09.slc.cpg/sg10_36_cif.got.tgz:71466.got - 2010.06.27 22:07:45.
