data_PCOD8064594
_publ_section_title
;
Structure prediction by ZEFSAII (Michael W. Deem and Ramdas Pophale) SiO2 
 PCOD8064594
Probable space group: P 2/M
;
_chemical_formula_sum "Si O2"
_cell_formula_units_Z 18
_cell_length_a 18.358576
_cell_length_b 8.226708
_cell_length_c 5.273091
_cell_angle_alpha 90.000000
_cell_angle_beta 87.773633
_cell_angle_gamma 90.000000
_cell_volume 795.797164
_symmetry_space_group_name_H-M "P 2/M"
_symmetry_group_IT_number 10
_symmetry_cell_setting 'monoclinic'
loop_
_space_group_symop_operation_xyz
x,y,z
-x,y,-z
-x,-y,-z
x,-y,z
loop_
_atom_site_type_symbol
_atom_site_label
_atom_site_fract_x
_atom_site_fract_y
_atom_site_fract_z
Si Si1 0.295169 0.689534 0.753818
Si Si2 0.543810 0.809346 0.244787
Si Si3 0.951681 0.000000 0.251276
Si Si4 0.223482 0.313500 0.261829
Si Si5 0.083829 0.322546 0.563340
O O1 0.277366 0.500000 0.746953
O O2 0.380536 0.716062 0.771126
O O3 0.264154 0.768908 0.498649
O O4 0.251421 0.770040 0.998113
O O5 0.500000 0.753895 0.500000
O O6 0.559609 0.000000 0.247639
O O7 0.500000 0.757793 0.000000
O O8 0.903886 0.832919 0.253416
O O9 0.000000 0.000000 0.500000
O O10 0.000000 0.000000 0.000000
O O11 0.247787 0.500000 0.244280
O O12 0.135863 0.295818 0.311086
O O13 0.104425 0.500000 0.686752
O O14 0.000000 0.329545 0.500000
#
# Coordination Sequence:
#
# PCOD8064594 Si02
#       5
#     4   4   2   4   4
#     4  10  20  36  56  81 113 144 181 231 279 333
#     4  10  21  37  56  80 111 143 180 226 271 330
#     4  10  22  38  56  84 116 144 192 250 292 348
#     4   9  19  35  55  81 113 145 184 233 281 333
#     4   9  19  38  62  86 117 160 202 247 302 350
#
# _framework density 22.618827
#
# number of rings (size 3 to 8) (size 9 to 14) (size 15 to 20)
#    0.000    2.444    0.000    1.333    0.000    4.889 
#    4.000    6.667    0.000    0.000    0.000    0.000 
#    0.000    0.000    0.000    0.000    0.000    0.000 
#
# Total GULP energy -223013.423288 kJ/mol
# GULP energy per Si atom -12389.634627 kJ/mol
# Density = 2.256735 g / cm^3
# Si number density = 22.618827 Si / 1000 Ang^3
#
#
#
# Elastic Constant Matrix: (Units=GPa)
#
#
# Indices 1 2 3 4 5 6 
#
# 1 127.5044 -4.4046 50.8729 0.0000 -16.9688 0.0000
# 2 -4.4046 104.8250 20.2886 0.0000 -17.5284 0.0000
# 3 50.8729 20.2886 179.2113 0.0000 -21.8172 0.0000
# 4 0.0000 0.0000 0.0000 8.5274 0.0000 4.1613
# 5 -16.9688 -17.5284 -21.8172 0.0000 43.4053 0.0000
# 6 0.0000 0.0000 0.0000 4.1613 0.0000 -51.5568
#
#
#
# Elastic Compliance Matrix: (Units=1/GPa)
#
#
# Indices 1 2 3 4 5 6 
#
# 1 0.009246 0.001349 -0.002419 0.000000 0.002944 0.000000
# 2 0.001349 0.010510 -0.001057 0.000000 0.004241 0.000000
# 3 -0.002419 -0.001057 0.006625 0.000000 0.001957 0.000000
# 4 0.000000 0.000000 0.000000 0.112825 0.000000 0.009106
# 5 0.002944 0.004241 0.001957 0.000000 0.026886 0.000000
# 6 0.000000 0.000000 0.000000 0.009106 0.000000 -0.018661
#
#
# Mechanical properties :
#
#
# Convention : Reuss Voigt Hill
#
# Bulk Modulus (GPa) = 45.19247 60.56159 52.87703
# Shear Modulus (GPa) = 31.43473 23.06077 27.24775
#
# Velocity S-wave (km/s) = 3.73199 3.19649 3.47457
# Velocity P-wave (km/s) = 6.21239 6.36053 6.28690
#
# Compressibility (1/GPa) = 0.02212758
#
# Stress axis : x y z
#
# Youngs Moduli (GPa) = 108.14987 95.14787 150.95163
#
# Poissons Ratio (x) = -0.12835 0.36518
# Poissons Ratio (y) = -0.14589 0.15948
# Poissons Ratio (z) = 0.26163 0.10053
#
# Static dielectric constant tensor:
#      x y z
#    x 3.855670 0.000000 -0.146010 
#    y 0.000000 4.857840 0.000000 
#    z -0.146010 0.000000 4.459190 
# 
# 
# High freq. dielectric constant tensor:
#      x y z
#    x 1.890260 0.000000 -0.017810 
#    y 0.000000 1.870740 0.000000 
#    z -0.017810 0.000000 1.893440 
# 
# From -- ./inp_files/10375.got.cif
#   From: 2010.06.25/outbox.cif.g09.slc.cpg/sg10_6_cif.got.tgz:10375.got - 2010.06.27 22:07:45.
