data_PCOD8064632
_publ_section_title
;
Structure prediction by ZEFSAII (Michael W. Deem and Ramdas Pophale) SiO2 
 PCOD8064632
Probable space group: P 2/M
;
_chemical_formula_sum "Si O2"
_cell_formula_units_Z 28
_cell_length_a 12.481062
_cell_length_b 8.494057
_cell_length_c 14.980318
_cell_angle_alpha 90.000000
_cell_angle_beta 74.657709
_cell_angle_gamma 90.000000
_cell_volume 1531.538812
_symmetry_space_group_name_H-M "P 2/M"
_symmetry_group_IT_number 10
_symmetry_cell_setting 'monoclinic'
loop_
_space_group_symop_operation_xyz
x,y,z
-x,y,-z
-x,-y,-z
x,-y,z
loop_
_atom_site_type_symbol
_atom_site_label
_atom_site_fract_x
_atom_site_fract_y
_atom_site_fract_z
Si Si1 0.109279 0.815287 0.295719
Si Si2 0.303563 0.318563 0.722334
Si Si3 0.751313 0.318876 0.581548
Si Si4 0.839001 0.813624 0.098654
Si Si5 0.078616 0.814178 0.105481
Si Si6 0.856333 0.181562 0.386135
Si Si7 0.520392 0.182804 0.596910
O O1 0.196752 0.718033 0.333897
O O2 0.124254 0.754493 0.190434
O O3 0.985738 0.775536 0.356618
O O4 0.134726 0.000000 0.299032
O O5 0.337509 0.500000 0.710725
O O6 0.261719 0.274624 0.830531
O O7 0.207663 0.286170 0.671567
O O8 0.411149 0.214248 0.678649
O O9 0.770474 0.500000 0.552565
O O10 0.810281 0.211024 0.494854
O O11 0.620909 0.282794 0.615279
O O12 0.954140 0.750878 0.116070
O O13 0.824918 0.000000 0.114433
O O14 0.839033 0.765697 0.993544
O O15 0.066782 0.000000 0.110216
O O16 0.837373 0.000000 0.364220
O O17 0.500000 0.237589 0.500000
O O18 0.551835 0.000000 0.594077
#
# Coordination Sequence:
#
# PCOD8064632 Si02
#       7
#     4   4   4   4   4   4   4
#     4  10  20  36  57  81 111 150 192 227 264 319
#     4  12  23  34  54  84 118 146 175 225 285 331
#     4  12  25  38  54  80 115 148 181 226 281 331
#     4   9  16  32  56  82 110 144 186 227 270 320
#     4   8  15  30  56  83 108 143 188 231 264 311
#     4  11  21  36  57  80 109 150 192 226 263 319
#     4  11  23  40  62  80 101 142 192 231 268 321
#
# _framework density 18.282266
#
# number of rings (size 3 to 8) (size 9 to 14) (size 15 to 20)
#    0.000    1.571    2.857    4.714    0.000    3.429 
#    0.000    2.143    0.000    0.857    0.000    6.000 
#    0.000    0.000    0.000    0.000    0.000    0.000 
#
# Total GULP energy -347273.830221 kJ/mol
# GULP energy per Si atom -12402.636794 kJ/mol
# Density = 1.824065 g / cm^3
# Si number density = 18.282266 Si / 1000 Ang^3
#
#
#
# Elastic Constant Matrix: (Units=GPa)
#
#
# Indices 1 2 3 4 5 6 
#
# 1 94.7814 23.4109 47.6362 0.0000 -0.8530 0.0000
# 2 23.4109 49.2043 14.8664 0.0000 0.5067 0.0000
# 3 47.6362 14.8664 130.5544 0.0000 -7.1331 0.0000
# 4 0.0000 0.0000 0.0000 15.8066 0.0000 3.5796
# 5 -0.8530 0.5067 -7.1331 0.0000 23.1755 0.0000
# 6 0.0000 0.0000 0.0000 3.5796 0.0000 16.9862
#
#
#
# Elastic Compliance Matrix: (Units=1/GPa)
#
#
# Indices 1 2 3 4 5 6 
#
# 1 0.014180 -0.005347 -0.004608 0.000000 -0.000779 0.000000
# 2 -0.005347 0.023097 -0.000730 0.000000 -0.000926 0.000000
# 3 -0.004608 -0.000730 0.009577 0.000000 0.002794 0.000000
# 4 0.000000 0.000000 0.000000 0.066435 0.000000 -0.014000
# 5 -0.000779 -0.000926 0.002794 0.000000 0.044000 0.000000
# 6 0.000000 0.000000 0.000000 -0.014000 0.000000 0.061822
#
#
# Mechanical properties :
#
#
# Convention : Reuss Voigt Hill
#
# Bulk Modulus (GPa) = 39.23771 49.59632 44.41702
# Shear Modulus (GPa) = 20.08237 23.76878 21.92558
#
# Velocity S-wave (km/s) = 3.31790 3.60960 3.46682
# Velocity P-wave (km/s) = 6.01554 6.67528 6.35398
#
# Compressibility (1/GPa) = 0.02548568
#
# Stress axis : x y z
#
# Youngs Moduli (GPa) = 70.52215 43.29504 104.42069
#
# Poissons Ratio (x) = 0.23148 0.48114
# Poissons Ratio (y) = 0.37705 0.07622
# Poissons Ratio (z) = 0.32494 0.03160
#
# Static dielectric constant tensor:
#      x y z
#    x 3.218850 0.000000 0.062840 
#    y 0.000000 3.209860 0.000000 
#    z 0.062840 0.000000 3.693570 
# 
# 
# High freq. dielectric constant tensor:
#      x y z
#    x 1.686470 0.000000 -0.003610 
#    y 0.000000 1.696820 0.000000 
#    z -0.003610 0.000000 1.714820 
# 
# From -- ./inp_files/49196.got.cif
#   From: 2010.06.25/outbox.cif.g09.slc.cpg/sg10_25_cif.got.tgz:49196.got - 2010.06.27 22:07:45.
