data_PCOD8064908
_publ_section_title
;
Structure prediction by ZEFSAII (Michael W. Deem and Ramdas Pophale) SiO2 
 PCOD8064908
Probable space group: P 2/M
;
_chemical_formula_sum "Si O2"
_cell_formula_units_Z 24
_cell_length_a 24.653263
_cell_length_b 8.621793
_cell_length_c 17.275724
_cell_angle_alpha 90.000000
_cell_angle_beta 160.581955
_cell_angle_gamma 90.000000
_cell_volume 1220.802130
_symmetry_space_group_name_H-M "P 2/M"
_symmetry_group_IT_number 10
_symmetry_cell_setting 'monoclinic'
loop_
_space_group_symop_operation_xyz
x,y,z
-x,y,-z
-x,-y,-z
x,-y,z
loop_
_atom_site_type_symbol
_atom_site_label
_atom_site_fract_x
_atom_site_fract_y
_atom_site_fract_z
Si Si1 0.416450 0.182918 0.308182
Si Si2 0.894685 0.821731 0.784414
Si Si3 0.449722 0.818648 0.046332
Si Si4 0.044368 0.821156 0.821788
Si Si5 0.261882 0.319318 0.659286
Si Si6 0.449192 0.679753 0.665732
O O1 0.500000 0.238327 0.500000
O O2 0.508786 0.267078 0.363490
O O3 0.436772 0.000000 0.325127
O O4 0.228184 0.234065 0.054229
O O5 0.007155 0.793040 0.861605
O O6 0.739716 0.711136 0.571316
O O7 0.834927 0.000000 0.709313
O O8 0.000000 0.774492 0.000000
O O9 0.628440 0.776566 0.253783
O O10 0.439439 0.771442 0.122329
O O11 0.419133 0.000000 0.995801
O O12 0.309772 0.727824 0.810974
O O13 0.926927 0.719748 0.609235
O O14 0.020620 0.000000 0.767258
O O15 0.295516 0.500000 0.691858
O O16 0.485708 0.500000 0.725168
#
# Coordination Sequence:
#
# PCOD8064908 Si02
#       6
#     4   4   4   4   4   4
#     4  10  22  42  65  87 116 162 210 249 293 354
#     4  10  20  36  60  87 115 152 200 251 295 350
#     4  11  21  37  61  87 118 157 202 246 292 354
#     4  10  20  36  60  88 118 156 203 247 294 355
#     4  11  21  35  58  90 125 155 190 243 308 362
#     4  12  24  38  58  89 124 158 196 247 307 358
#
# _framework density 19.659205
#
# number of rings (size 3 to 8) (size 9 to 14) (size 15 to 20)
#    0.000    1.333    1.667    6.500    0.000    4.000 
#    0.000    2.500    0.000    5.000    0.000    0.000 
#    0.000    0.000    0.000    0.000    0.000    0.000 
#
# Total GULP energy -297748.116252 kJ/mol
# GULP energy per Si atom -12406.171511 kJ/mol
# Density = 1.961446 g / cm^3
# Si number density = 19.659205 Si / 1000 Ang^3
#
#
#
# Elastic Constant Matrix: (Units=GPa)
#
#
# Indices 1 2 3 4 5 6 
#
# 1 80.5693 19.7109 14.8652 0.0000 -18.7416 0.0000
# 2 19.7109 74.1442 19.2806 0.0000 -7.4920 0.0000
# 3 14.8652 19.2806 87.2896 0.0000 -18.8301 0.0000
# 4 0.0000 0.0000 0.0000 16.3755 0.0000 -1.6353
# 5 -18.7416 -7.4920 -18.8301 0.0000 33.1290 0.0000
# 6 0.0000 0.0000 0.0000 -1.6353 0.0000 18.8764
#
#
#
# Elastic Compliance Matrix: (Units=1/GPa)
#
#
# Indices 1 2 3 4 5 6 
#
# 1 0.015004 -0.003162 -0.000205 0.000000 0.007656 0.000000
# 2 -0.003162 0.015054 -0.002779 0.000000 0.000036 0.000000
# 3 -0.000205 -0.002779 0.013613 0.000000 0.006993 0.000000
# 4 0.000000 0.000000 0.000000 0.061600 0.000000 0.005337
# 5 0.007656 0.000036 0.006993 0.000000 0.038499 0.000000
# 6 0.000000 0.000000 0.000000 0.005337 0.000000 0.053439
#
#
# Mechanical properties :
#
#
# Convention : Reuss Voigt Hill
#
# Bulk Modulus (GPa) = 31.86747 38.85739 35.36243
# Shear Modulus (GPa) = 22.73130 26.21926 24.47528
#
# Velocity S-wave (km/s) = 3.40408 3.65593 3.53225
# Velocity P-wave (km/s) = 5.62988 6.13429 5.88749
#
# Compressibility (1/GPa) = 0.03137997
#
# Stress axis : x y z
#
# Youngs Moduli (GPa) = 66.64880 66.42725 73.45679
#
# Poissons Ratio (x) = 0.21003 0.01507
# Poissons Ratio (y) = 0.21073 0.20413
# Poissons Ratio (z) = 0.01367 0.18459
#
# Static dielectric constant tensor:
#      x y z
#    x 3.592030 0.000000 -0.221990 
#    y 0.000000 3.510200 0.000000 
#    z -0.221990 0.000000 3.602600 
# 
# 
# High freq. dielectric constant tensor:
#      x y z
#    x 1.763480 0.000000 -0.020910 
#    y 0.000000 1.762780 0.000000 
#    z -0.020910 0.000000 1.765990 
# 
# From -- ./inp_files/80119.got.cif
#   From: 2010.06.25/outbox.cif.g09.slc.cpg/sg10_41_cif.got.tgz:80119.got - 2010.06.27 22:07:45.
