data_PCOD8064683
_publ_section_title
;
Structure prediction by ZEFSAII (Michael W. Deem and Ramdas Pophale) SiO2 
 PCOD8064683
Probable space group: P 2/M
;
_chemical_formula_sum "Si O2"
_cell_formula_units_Z 32
_cell_length_a 14.539489
_cell_length_b 9.323933
_cell_length_c 12.827443
_cell_angle_alpha 90.000000
_cell_angle_beta 79.364778
_cell_angle_gamma 90.000000
_cell_volume 1709.083519
_symmetry_space_group_name_H-M "P 2/M"
_symmetry_group_IT_number 10
_symmetry_cell_setting 'monoclinic'
loop_
_space_group_symop_operation_xyz
x,y,z
-x,y,-z
-x,-y,-z
x,-y,z
loop_
_atom_site_type_symbol
_atom_site_label
_atom_site_fract_x
_atom_site_fract_y
_atom_site_fract_z
Si Si1 0.859881 0.660215 0.279759
Si Si2 0.898116 0.329707 0.045779
Si Si3 0.712769 0.332996 0.977215
Si Si4 0.909030 0.831577 0.458591
Si Si5 0.379029 0.170343 0.191948
Si Si6 0.565665 0.332551 0.188572
Si Si7 0.646889 0.340162 0.389409
Si Si8 0.703508 0.832128 0.568246
O O1 0.902477 0.500000 0.275301
O O2 0.869086 0.729988 0.164347
O O3 0.918077 0.759742 0.344554
O O4 0.752595 0.656752 0.331299
O O5 0.901677 0.500000 0.049546
O O6 0.819745 0.285267 0.977929
O O7 0.000000 0.264086 0.000000
O O8 0.705381 0.500000 0.946473
O O9 0.653131 0.304779 0.094292
O O10 0.681316 0.234211 0.888978
O O11 0.812448 0.785137 0.535954
O O12 0.000000 0.775702 0.500000
O O13 0.912081 0.000000 0.442083
O O14 0.481685 0.237101 0.163151
O O15 0.331105 0.215176 0.310863
O O16 0.385399 0.000000 0.178210
O O17 0.537991 0.500000 0.192405
O O18 0.587824 0.282660 0.302650
O O19 0.613258 0.500000 0.426807
O O20 0.637695 0.241708 0.494064
O O21 0.692073 0.000000 0.552548
#
# Coordination Sequence:
#
# PCOD8064683 Si02
#       8
#     4   4   4   4   4   4   4   4
#     4   9  16  30  51  76 104 131 166 214 261 305
#     4   9  17  31  54  83 110 137 170 213 268 321
#     4  10  20  37  58  79 108 144 180 218 265 320
#     4   9  18  33  53  74  98 136 179 212 254 315
#     4  11  24  38  52  76 111 146 179 222 270 315
#     4  10  20  36  58  81 105 139 181 222 268 319
#     4   9  17  32  56  80 102 132 173 221 262 308
#     4   9  20  37  52  72 107 143 173 214 270 318
#
# _framework density 18.723486000000001
#
# number of rings (size 3 to 8) (size 9 to 14) (size 15 to 20)
#    0.000    2.500    1.250    0.750    0.000    5.250 
#    0.000    3.125    0.000    0.750    0.000    0.000 
#    0.000    0.000    0.000    0.000    0.000    0.000 
#
# Total GULP energy -396720.442853 kJ/mol
# GULP energy per Si atom -12397.513839 kJ/mol
# Density = 1.868087 g / cm^3
# Si number density = 18.723486 Si / 1000 Ang^3
#
#
#
# Elastic Constant Matrix: (Units=GPa)
#
#
# Indices 1 2 3 4 5 6 
#
# 1 105.8577 37.9769 51.9535 0.0000 22.1222 0.0000
# 2 37.9769 46.2362 47.0971 0.0000 7.6468 0.0000
# 3 51.9535 47.0971 123.4338 0.0000 18.3660 0.0000
# 4 0.0000 0.0000 0.0000 -242.6072 0.0000 -191.8076
# 5 22.1222 7.6468 18.3660 0.0000 30.8306 0.0000
# 6 0.0000 0.0000 0.0000 -191.8076 0.0000 -122.2568
#
#
#
# Elastic Compliance Matrix: (Units=1/GPa)
#
#
# Indices 1 2 3 4 5 6 
#
# 1 0.015297 -0.009652 -0.001623 0.000000 -0.007616 0.000000
# 2 -0.009652 0.041487 -0.012362 0.000000 0.004000 0.000000
# 3 -0.001623 -0.012362 0.014124 0.000000 -0.004183 0.000000
# 4 0.000000 0.000000 0.000000 0.017147 0.000000 -0.026902
# 5 -0.007616 0.004000 -0.004183 0.000000 0.039400 0.000000
# 6 0.000000 0.000000 0.000000 -0.026902 0.000000 0.034027
#
#
# Mechanical properties :
#
#
# Convention : Reuss Voigt Hill
#
# Bulk Modulus (GPa) = 42.31227 61.06474 51.68850
# Shear Modulus (GPa) = 23.08025 -57.57334 -17.24654
#
# Velocity S-wave (km/s) = 3.51478 -5.55122 -3.03829
# Velocity P-wave (km/s) = 6.25453 2.89883 3.91892
#
# Compressibility (1/GPa) = 0.02363381
#
# Stress axis : x y z
#
# Youngs Moduli (GPa) = 65.37058 24.10387 70.80257
#
# Poissons Ratio (x) = 0.23266 0.11488
# Poissons Ratio (y) = 0.63099 0.87528
# Poissons Ratio (z) = 0.10607 0.29798
#
# Static dielectric constant tensor:
#      x y z
#    x 3.555920 0.000000 0.077390 
#    y 0.000000 3.324550 0.000000 
#    z 0.077390 0.000000 3.608760 
# 
# 
# High freq. dielectric constant tensor:
#      x y z
#    x 1.727630 0.000000 0.006420 
#    y 0.000000 1.703700 0.000000 
#    z 0.006420 0.000000 1.734570 
# 
# From -- ./inp_files/49920.got.cif
#   From: 2010.06.25/outbox.cif.g09.slc.cpg/sg10_25_cif.got.tgz:49920.got - 2010.06.27 22:07:45.
