data_PCOD8064220
_publ_section_title
;
Structure prediction by ZEFSAII (Michael W. Deem and Ramdas Pophale) SiO2 
 PCOD8064220
Probable space group: P 2/M
;
_chemical_formula_sum "Si O2"
_cell_formula_units_Z 30
_cell_length_a 12.315728
_cell_length_b 13.795210
_cell_length_c 8.829254
_cell_angle_alpha 90.000000
_cell_angle_beta 96.570529
_cell_angle_gamma 90.000000
_cell_volume 1490.220224
_symmetry_space_group_name_H-M "P 2/M"
_symmetry_group_IT_number 10
_symmetry_cell_setting 'monoclinic'
loop_
_space_group_symop_operation_xyz
x,y,z
-x,y,-z
-x,-y,-z
x,-y,z
loop_
_atom_site_type_symbol
_atom_site_label
_atom_site_fract_x
_atom_site_fract_y
_atom_site_fract_z
Si Si1 0.827823 0.390741 0.633948
Si Si2 0.353117 0.264760 0.264649
Si Si3 0.379871 0.891132 0.021926
Si Si4 0.458726 0.389897 0.823755
Si Si5 0.686542 0.895650 0.323964
Si Si6 0.500000 0.156056 0.500000
Si Si7 0.044180 0.388304 0.842700
Si Si8 0.230603 0.305030 0.688512
O O1 0.791682 0.500000 0.668048
O O2 0.760767 0.317240 0.727140
O O3 0.807434 0.374717 0.452896
O O4 0.953782 0.375530 0.697507
O O5 0.330623 0.186448 0.130274
O O6 0.444315 0.346021 0.257315
O O7 0.394520 0.213087 0.422965
O O8 0.380401 0.000000 0.093121
O O9 0.500000 0.854407 0.000000
O O10 0.312385 0.890534 0.857288
O O11 0.436712 0.500000 0.770450
O O12 0.349592 0.328921 0.775681
O O13 0.500000 0.382185 0.000000
O O14 0.560632 0.898732 0.370372
O O15 0.763538 0.804510 0.379714
O O16 0.738767 0.000000 0.381342
O O17 0.084289 0.500000 0.858777
O O18 0.145313 0.319475 0.812344
O O19 0.000000 0.355119 0.000000
#
# Coordination Sequence:
#
# PCOD8064220 Si02
#       8
#     4   4   4   4   4   2   4   4
#     4  11  24  41  63  92 126 164 204 254 308 370
#     4  12  21  37  56  89 126 162 199 248 303 374
#     4  10  20  35  56  80 115 160 207 251 294 351
#     4  11  23  35  56  89 126 168 203 246 306 373
#     4  11  23  38  59  90 123 161 207 256 306 365
#     4  12  21  36  57  88 126 164 201 242 305 364
#     4  10  24  43  67  94 118 157 214 266 309 362
#     4  12  22  42  65  89 123 166 207 256 313 369
#
# _framework density 20.131252
#
# number of rings (size 3 to 8) (size 9 to 14) (size 15 to 20)
#    0.000    0.933    4.000    3.400    3.733    1.600 
#    0.000    2.000    0.000    2.800    0.000    0.000 
#    0.000    0.000    0.000    0.000    0.000    0.000 
#
# Total GULP energy -371865.087422 kJ/mol
# GULP energy per Si atom -12395.502914 kJ/mol
# Density = 2.008543 g / cm^3
# Si number density = 20.131252 Si / 1000 Ang^3
#
#
#
# Elastic Constant Matrix: (Units=GPa)
#
#
# Indices 1 2 3 4 5 6 
#
# 1 66.6824 31.8911 20.2454 0.0000 -15.3172 0.0000
# 2 31.8911 119.4458 26.0252 0.0000 -14.8928 0.0000
# 3 20.2454 26.0252 83.3228 0.0000 -8.1857 0.0000
# 4 0.0000 0.0000 0.0000 10.0174 0.0000 7.2716
# 5 -15.3172 -14.8928 -8.1857 0.0000 36.5686 0.0000
# 6 0.0000 0.0000 0.0000 7.2716 0.0000 9.8705
#
#
#
# Elastic Compliance Matrix: (Units=1/GPa)
#
#
# Indices 1 2 3 4 5 6 
#
# 1 0.018979 -0.003718 -0.002881 0.000000 0.005791 0.000000
# 2 -0.003718 0.010069 -0.002036 0.000000 0.002088 0.000000
# 3 -0.002881 -0.002036 0.013433 0.000000 0.000971 0.000000
# 4 0.000000 0.000000 0.000000 0.214573 0.000000 -0.158075
# 5 0.005791 0.002088 0.000971 0.000000 0.030839 0.000000
# 6 0.000000 0.000000 0.000000 -0.158075 0.000000 0.217766
#
#
# Mechanical properties :
#
#
# Convention : Reuss Voigt Hill
#
# Bulk Modulus (GPa) = 39.66678 47.30826 43.48752
# Shear Modulus (GPa) = 9.41030 24.04391 16.72711
#
# Velocity S-wave (km/s) = 2.16440 3.45970 2.88566
# Velocity P-wave (km/s) = 5.09834 6.28572 5.72290
#
# Compressibility (1/GPa) = 0.02521001
#
# Stress axis : x y z
#
# Youngs Moduli (GPa) = 52.68880 99.31924 74.44310
#
# Poissons Ratio (x) = 0.36922 0.21451
# Poissons Ratio (y) = 0.19587 0.15160
# Poissons Ratio (z) = 0.15182 0.20226
#
# Static dielectric constant tensor:
#      x y z
#    x 3.322360 0.000000 -0.059360 
#    y 0.000000 3.942810 0.000000 
#    z -0.059360 0.000000 3.691010 
# 
# 
# High freq. dielectric constant tensor:
#      x y z
#    x 1.752520 0.000000 -0.005500 
#    y 0.000000 1.791940 0.000000 
#    z -0.005500 0.000000 1.798310 
# 
# From -- ./inp_files/25008.got.cif
#   From: 2010.06.25/outbox.cif.g09.slc.cpg/sg10_13_cif.got.tgz:25008.got - 2010.06.27 22:07:45.
