data_PCOD8064964
_publ_section_title
;
Structure prediction by ZEFSAII (Michael W. Deem and Ramdas Pophale) SiO2 
 PCOD8064964
Probable space group: P 2/M
;
_chemical_formula_sum "Si O2"
_cell_formula_units_Z 28
_cell_length_a 9.806902
_cell_length_b 23.147393
_cell_length_c 10.200389
_cell_angle_alpha 90.000000
_cell_angle_beta 40.125761
_cell_angle_gamma 90.000000
_cell_volume 1492.284628
_symmetry_space_group_name_H-M "P 2/M"
_symmetry_group_IT_number 10
_symmetry_cell_setting 'monoclinic'
loop_
_space_group_symop_operation_xyz
x,y,z
-x,y,-z
-x,-y,-z
x,-y,z
loop_
_atom_site_type_symbol
_atom_site_label
_atom_site_fract_x
_atom_site_fract_y
_atom_site_fract_z
Si Si1 0.816066 0.655897 0.527399
Si Si2 0.897432 0.354553 0.932124
Si Si3 0.551235 0.063858 0.603524
Si Si4 0.375056 0.135333 0.966107
Si Si5 0.978019 0.064232 0.664965
Si Si6 0.541429 0.730044 0.116622
Si Si7 0.474524 0.565801 0.864118
O O1 0.672949 0.714390 0.645349
O O2 0.662624 0.601126 0.657617
O O3 0.000000 0.656359 0.500000
O O4 0.913826 0.652004 0.311137
O O5 0.743536 0.299609 0.033834
O O6 0.757129 0.411522 0.008029
O O7 0.000000 0.357599 0.000000
O O8 0.500000 0.090090 0.500000
O O9 0.799534 0.058760 0.430671
O O10 0.448448 0.000000 0.696480
O O11 0.459694 0.107551 0.773809
O O12 0.138094 0.113549 0.165252
O O13 0.500000 0.111677 0.000000
O O14 0.402224 0.203124 0.928964
O O15 0.000000 0.086319 0.500000
O O16 0.868137 0.000000 0.747755
O O17 0.500000 0.705951 0.000000
O O18 0.494032 0.500000 0.802537
O O19 0.500000 0.571665 0.000000
#
# Coordination Sequence:
#
# PCOD8064964 Si02
#       7
#     4   4   4   4   4   4   4
#     4  11  19  39  67  84 115 167 203 239 295 350
#     4  11  23  41  61  89 123 160 200 250 301 344
#     4  10  22  40  59  86 121 155 192 240 301 365
#     4  11  22  38  60  88 116 152 197 251 298 348
#     4  10  20  36  61  88 115 152 195 237 294 363
#     4  10  22  40  59  88 114 152 209 248 289 359
#     4  10  21  37  62  97 128 156 205 247 282 358
#
# _framework density 18.763176000000001
#
# number of rings (size 3 to 8) (size 9 to 14) (size 15 to 20)
#    0.000    1.571    4.286    1.286    0.000    5.714 
#    5.143    2.857    0.000    0.000    0.000    0.000 
#    0.000    0.000    0.000    0.000    0.000    0.000 
#
# Total GULP energy -347142.897629 kJ/mol
# GULP energy per Si atom -12397.960630 kJ/mol
# Density = 1.872047 g / cm^3
# Si number density = 18.763176 Si / 1000 Ang^3
#
#
#
# Elastic Constant Matrix: (Units=GPa)
#
#
# Indices 1 2 3 4 5 6 
#
# 1 134.3289 41.2607 52.6401 0.0000 13.6396 0.0000
# 2 41.2607 119.4395 62.5116 0.0000 -0.2739 0.0000
# 3 52.6401 62.5116 135.8612 0.0000 -2.3008 0.0000
# 4 0.0000 0.0000 0.0000 20.9181 0.0000 -6.6396
# 5 13.6396 -0.2739 -2.3008 0.0000 29.6658 0.0000
# 6 0.0000 0.0000 0.0000 -6.6396 0.0000 19.4430
#
#
#
# Elastic Compliance Matrix: (Units=1/GPa)
#
#
# Indices 1 2 3 4 5 6 
#
# 1 0.009639 -0.001771 -0.002999 0.000000 -0.004681 0.000000
# 2 -0.001771 0.011356 -0.004529 0.000000 0.000568 0.000000
# 3 -0.002999 -0.004529 0.010643 0.000000 0.002163 0.000000
# 4 0.000000 0.000000 0.000000 0.053617 0.000000 0.018310
# 5 -0.004681 0.000568 0.002163 0.000000 0.036034 0.000000
# 6 0.000000 0.000000 0.000000 0.018310 0.000000 0.057685
#
#
# Mechanical properties :
#
#
# Convention : Reuss Voigt Hill
#
# Bulk Modulus (GPa) = 76.69039 78.05048 77.37044
# Shear Modulus (GPa) = 24.76240 29.55319 27.15780
#
# Velocity S-wave (km/s) = 3.63676 3.97301 3.80860
# Velocity P-wave (km/s) = 7.65482 7.92051 7.78879
#
# Compressibility (1/GPa) = 0.01303944
#
# Stress axis : x y z
#
# Youngs Moduli (GPa) = 103.74628 88.05900 93.95757
#
# Poissons Ratio (x) = 0.15594 0.28179
# Poissons Ratio (y) = 0.18372 0.42556
# Poissons Ratio (z) = 0.31115 0.39885
#
# Static dielectric constant tensor:
#      x y z
#    x 3.470320 0.000000 -0.063990 
#    y 0.000000 3.485510 0.000000 
#    z -0.063990 0.000000 3.495950 
# 
# 
# High freq. dielectric constant tensor:
#      x y z
#    x 1.727380 0.000000 -0.005150 
#    y 0.000000 1.727660 0.000000 
#    z -0.005150 0.000000 1.731290 
# 
# From -- ./inp_files/20823.got.cif
#   From: 2010.06.25/outbox.cif.g09.slc.cpg/sg10_11_cif.got.tgz:20823.got - 2010.06.27 22:07:45.
