data_PCOD8064392
_publ_section_title
;
Structure prediction by ZEFSAII (Michael W. Deem and Ramdas Pophale) SiO2 
 PCOD8064392
Probable space group: P 2/M
;
_chemical_formula_sum "Si O2"
_cell_formula_units_Z 32
_cell_length_a 17.640392
_cell_length_b 14.261781
_cell_length_c 12.115769
_cell_angle_alpha 90.000000
_cell_angle_beta 150.077847
_cell_angle_gamma 90.000000
_cell_volume 1520.475220
_symmetry_space_group_name_H-M "P 2/M"
_symmetry_group_IT_number 10
_symmetry_cell_setting 'monoclinic'
loop_
_space_group_symop_operation_xyz
x,y,z
-x,y,-z
-x,-y,-z
x,-y,z
loop_
_atom_site_type_symbol
_atom_site_label
_atom_site_fract_x
_atom_site_fract_y
_atom_site_fract_z
Si Si1 0.233123 0.894420 0.288719
Si Si2 0.668304 0.392754 0.690074
Si Si3 0.052832 0.228344 0.444659
Si Si4 0.374696 0.757231 0.764723
Si Si5 0.183967 0.109862 0.973347
Si Si6 0.185589 0.293003 0.328655
Si Si7 0.471883 0.105423 0.204511
Si Si8 0.956004 0.392220 0.182465
O O1 0.144771 0.817300 0.253409
O O2 0.408657 0.891039 0.544513
O O3 0.166256 0.000000 0.225562
O O4 0.224630 0.865777 0.150363
O O5 0.500000 0.354293 0.500000
O O6 0.661958 0.500000 0.642154
O O7 0.736048 0.331792 0.679283
O O8 0.774633 0.383308 0.933099
O O9 0.232893 0.209436 0.661555
O O10 0.000000 0.204039 0.500000
O O11 0.971840 0.161112 0.254391
O O12 0.007255 0.335476 0.355846
O O13 0.305758 0.693027 0.580796
O O14 0.467865 0.842554 0.828078
O O15 0.500000 0.704020 0.000000
O O16 0.161039 0.000000 0.928381
O O17 0.316721 0.148116 0.059661
O O18 0.034473 0.349266 0.170887
O O19 0.442190 0.000000 0.127936
O O20 0.005142 0.500000 0.260392
#
# Coordination Sequence:
#
# PCOD8064392 Si02
#       8
#     4   4   4   4   4   4   4   4
#     4   9  18  33  56  89 124 154 190 233 280 339
#     4  10  21  36  58  90 120 147 185 232 283 342
#     4  11  24  40  60  83 112 150 195 244 293 344
#     4  10  22  38  55  78 107 145 193 239 284 336
#     4  10  20  35  57  86 121 157 193 236 281 333
#     4  10  20  35  61  87 115 154 190 232 288 344
#     4   9  18  34  57  83 113 153 196 236 281 332
#     4  10  22  41  63  87 116 149 188 234 289 351
#
# _framework density 21.046050999999999
#
# number of rings (size 3 to 8) (size 9 to 14) (size 15 to 20)
#    0.000    2.125    0.000    2.625    0.000    9.750 
#    0.000    3.750    0.000   25.125    0.000    0.000 
#    0.000    0.000    0.000    0.000    0.000    0.000 
#
# Total GULP energy -396686.978791 kJ/mol
# GULP energy per Si atom -12396.468087 kJ/mol
# Density = 2.099815 g / cm^3
# Si number density = 21.046051 Si / 1000 Ang^3
#
#
#
# Elastic Constant Matrix: (Units=GPa)
#
#
# Indices 1 2 3 4 5 6 
#
# 1 68.3560 19.5788 38.9933 0.0000 -3.7536 0.0000
# 2 19.5788 73.7644 29.4748 0.0000 -1.1116 0.0000
# 3 38.9933 29.4748 117.8006 0.0000 9.8644 0.0000
# 4 0.0000 0.0000 0.0000 20.9589 0.0000 2.3140
# 5 -3.7536 -1.1116 9.8644 0.0000 34.5938 0.0000
# 6 0.0000 0.0000 0.0000 2.3140 0.0000 23.6109
#
#
#
# Elastic Compliance Matrix: (Units=1/GPa)
#
#
# Indices 1 2 3 4 5 6 
#
# 1 0.018960 -0.002608 -0.005931 0.000000 0.003665 0.000000
# 2 -0.002608 0.015508 -0.003109 0.000000 0.001102 0.000000
# 3 -0.005931 -0.003109 0.011568 0.000000 -0.004042 0.000000
# 4 0.000000 0.000000 0.000000 0.048234 0.000000 -0.004727
# 5 0.003665 0.001102 -0.004042 0.000000 0.030493 0.000000
# 6 0.000000 0.000000 0.000000 -0.004727 0.000000 0.042817
#
#
# Mechanical properties :
#
#
# Convention : Reuss Voigt Hill
#
# Bulk Modulus (GPa) = 43.97190 48.44608 46.20899
# Shear Modulus (GPa) = 25.19452 27.29098 26.24275
#
# Velocity S-wave (km/s) = 3.46369 3.60492 3.53501
# Velocity P-wave (km/s) = 6.07739 6.35581 6.21816
#
# Compressibility (1/GPa) = 0.02274180
#
# Stress axis : x y z
#
# Youngs Moduli (GPa) = 52.74132 64.48353 86.44186
#
# Poissons Ratio (x) = 0.16815 0.51265
# Poissons Ratio (y) = 0.13753 0.26878
# Poissons Ratio (z) = 0.31279 0.20050
#
# Static dielectric constant tensor:
#      x y z
#    x 3.734280 0.000000 0.091750 
#    y 0.000000 3.815790 0.000000 
#    z 0.091750 0.000000 3.950350 
# 
# 
# High freq. dielectric constant tensor:
#      x y z
#    x 1.819680 0.000000 0.006090 
#    y 0.000000 1.809690 0.000000 
#    z 0.006090 0.000000 1.833290 
# 
# From -- ./inp_files/54061.got.cif
#   From: 2010.06.25/outbox.cif.g09.slc.cpg/sg10_28_cif.got.tgz:54061.got - 2010.06.27 22:07:45.
