data_PCOD8064638
_publ_section_title
;
Structure prediction by ZEFSAII (Michael W. Deem and Ramdas Pophale) SiO2 
 PCOD8064638
Probable space group: P 2/M
;
_chemical_formula_sum "Si O2"
_cell_formula_units_Z 30
_cell_length_a 13.299366
_cell_length_b 12.086238
_cell_length_c 23.951795
_cell_angle_alpha 90.000000
_cell_angle_beta 157.479716
_cell_angle_gamma 90.000000
_cell_volume 1474.588377
_symmetry_space_group_name_H-M "P 2/M"
_symmetry_group_IT_number 10
_symmetry_cell_setting 'monoclinic'
loop_
_space_group_symop_operation_xyz
x,y,z
-x,y,-z
-x,-y,-z
x,-y,z
loop_
_atom_site_type_symbol
_atom_site_label
_atom_site_fract_x
_atom_site_fract_y
_atom_site_fract_z
Si Si1 0.778338 0.232682 0.042564
Si Si2 0.187892 0.622823 0.049826
Si Si3 0.796919 0.227986 0.262245
Si Si4 0.325415 0.124916 0.319204
Si Si5 0.500000 0.289940 0.500000
Si Si6 0.059447 0.627469 0.770557
Si Si7 0.735726 0.680437 0.349205
Si Si8 0.731189 0.124810 0.435317
O O1 0.790058 0.316017 0.100806
O O2 0.011308 0.143057 0.161617
O O3 0.816212 0.301228 0.005766
O O4 0.491270 0.172454 0.897995
O O5 0.092627 0.500000 0.984260
O O6 0.471725 0.614063 0.225918
O O7 0.000000 0.675787 0.000000
O O8 0.878306 0.305653 0.253219
O O9 0.744035 0.305178 0.287545
O O10 0.030060 0.142961 0.397440
O O11 0.478256 0.211308 0.435575
O O12 0.449827 0.141600 0.321486
O O13 0.379273 0.000000 0.367477
O O14 0.748608 0.369442 0.621724
O O15 0.150182 0.500000 0.811531
O O16 0.745141 0.795419 0.389147
O O17 0.000000 0.612024 0.500000
O O18 0.754310 0.000000 0.424424
#
# Coordination Sequence:
#
# PCOD8064638 Si02
#       8
#     4   4   4   4   2   4   4   4
#     4  10  22  37  58  85 122 154 194 242 288 347
#     4  10  20  36  57  81 113 154 192 235 290 344
#     4  10  21  37  55  85 117 151 186 244 291 343
#     4  10  20  36  61  86 115 154 194 239 292 344
#     4  10  20  38  60  84 120 146 194 248 288 346
#     4  11  22  38  61  87 116 156 201 242 292 347
#     4   9  20  36  57  81 114 146 189 241 289 342
#     4  10  20  38  63  86 113 155 199 242 294 349
#
# _framework density 20.344660000000001
#
# number of rings (size 3 to 8) (size 9 to 14) (size 15 to 20)
#    0.000    2.000    1.333    2.000    0.000    6.400 
#    0.000    4.000    0.000    9.600    0.000    0.000 
#    0.000    0.000    0.000    0.000    0.000    0.000 
#
# Total GULP energy -371750.138544 kJ/mol
# GULP energy per Si atom -12391.671285 kJ/mol
# Density = 2.029835 g / cm^3
# Si number density = 20.344660 Si / 1000 Ang^3
#
#
#
# Elastic Constant Matrix: (Units=GPa)
#
#
# Indices 1 2 3 4 5 6 
#
# 1 108.4952 25.4197 16.7902 0.0000 -4.3638 0.0000
# 2 25.4197 60.4831 -8.4829 0.0000 -6.8804 0.0000
# 3 16.7902 -8.4829 80.0594 0.0000 2.6039 0.0000
# 4 0.0000 0.0000 0.0000 7.2527 0.0000 -12.2053
# 5 -4.3638 -6.8804 2.6039 0.0000 30.3153 0.0000
# 6 0.0000 0.0000 0.0000 -12.2053 0.0000 35.1845
#
#
#
# Elastic Compliance Matrix: (Units=1/GPa)
#
#
# Indices 1 2 3 4 5 6 
#
# 1 0.010818 -0.004861 -0.002807 0.000000 0.000695 0.000000
# 2 -0.004861 0.019384 0.002961 0.000000 0.003445 0.000000
# 3 -0.002807 0.002961 0.013422 0.000000 -0.000885 0.000000
# 4 0.000000 0.000000 0.000000 0.331263 0.000000 0.114913
# 5 0.000695 0.003445 -0.000885 0.000000 0.033945 0.000000
# 6 0.000000 0.000000 0.000000 0.114913 0.000000 0.068284
#
#
# Mechanical properties :
#
#
# Convention : Reuss Voigt Hill
#
# Bulk Modulus (GPa) = 29.23023 35.16573 32.19798
# Shear Modulus (GPa) = 10.04152 28.90456 19.47304
#
# Velocity S-wave (km/s) = 2.22405 3.77337 3.09715
# Velocity P-wave (km/s) = 4.58191 6.02552 5.35261
#
# Compressibility (1/GPa) = 0.03421115
#
# Stress axis : x y z
#
# Youngs Moduli (GPa) = 92.43660 51.58927 74.50534
#
# Poissons Ratio (x) = 0.25079 0.20910
# Poissons Ratio (y) = 0.44935 -0.22063
# Poissons Ratio (z) = 0.25942 -0.15277
#
# Static dielectric constant tensor:
#      x y z
#    x 3.743720 0.000000 0.236060 
#    y 0.000000 3.301050 0.000000 
#    z 0.236060 0.000000 4.318290 
# 
# 
# High freq. dielectric constant tensor:
#      x y z
#    x 1.808530 0.000000 0.014540 
#    y 0.000000 1.765290 0.000000 
#    z 0.014540 0.000000 1.811340 
# 
# From -- ./inp_files/93289.got.cif
#   From: 2010.06.25/outbox.cif.g09.slc.cpg/sg10_47_cif.got.tgz:93289.got - 2010.06.27 22:07:45.
