data_PCOD8064573
_publ_section_title
;
Structure prediction by ZEFSAII (Michael W. Deem and Ramdas Pophale) SiO2 
 PCOD8064573
Probable space group: P 2/M
;
_chemical_formula_sum "Si O2"
_cell_formula_units_Z 32
_cell_length_a 16.647497
_cell_length_b 16.145666
_cell_length_c 11.875521
_cell_angle_alpha 90.000000
_cell_angle_beta 149.599091
_cell_angle_gamma 90.000000
_cell_volume 1615.283736
_symmetry_space_group_name_H-M "P 2/M"
_symmetry_group_IT_number 10
_symmetry_cell_setting 'monoclinic'
loop_
_space_group_symop_operation_xyz
x,y,z
-x,y,-z
-x,-y,-z
x,-y,z
loop_
_atom_site_type_symbol
_atom_site_label
_atom_site_fract_x
_atom_site_fract_y
_atom_site_fract_z
Si Si1 0.847190 0.404945 0.434211
Si Si2 0.319585 0.319957 0.585427
Si Si3 0.983475 0.230849 0.845326
Si Si4 0.755455 0.092661 0.221856
Si Si5 0.034526 0.909105 0.733526
Si Si6 0.646433 0.734038 0.060187
Si Si7 0.168602 0.660594 0.904336
Si Si8 0.517195 0.592718 0.644112
O O1 0.823722 0.500000 0.363550
O O2 0.777444 0.396067 0.476153
O O3 0.747140 0.336310 0.246426
O O4 0.035095 0.382016 0.661951
O O5 0.200282 0.245743 0.409217
O O6 0.400516 0.349856 0.571077
O O7 0.460033 0.288394 0.837594
O O8 0.041434 0.149250 0.850651
O O9 0.090792 0.305228 0.925260
O O10 0.000000 0.222873 0.000000
O O11 0.890656 0.110139 0.476153
O O12 0.643111 0.172223 0.103931
O O13 0.812012 0.096148 0.160727
O O14 0.679858 0.000000 0.151216
O O15 0.018921 0.000000 0.767447
O O16 0.735388 0.733232 0.045769
O O17 0.299929 0.592348 0.094476
O O18 0.500000 0.630018 0.500000
O O19 0.452300 0.500000 0.571872
#
# Coordination Sequence:
#
# PCOD8064573 Si02
#       8
#     4   4   4   4   4   4   4   4
#     4  11  23  36  54  82 117 152 184 229 289 343
#     4  10  23  37  52  79 113 147 184 226 285 345
#     4  11  21  37  58  80 111 147 187 235 284 331
#     4   9  17  33  59  86 113 144 184 232 279 335
#     4   9  18  32  56  86 111 141 185 228 277 335
#     4  11  21  35  57  81 114 149 184 228 277 346
#     4  10  21  35  54  79 108 142 192 235 274 330
#     4  10  20  36  56  75 100 141 193 241 279 322
#
# _framework density 19.810759999999998
#
# number of rings (size 3 to 8) (size 9 to 14) (size 15 to 20)
#    0.000    1.875    1.250    4.500    1.750    4.250 
#    0.000    0.625    0.000    9.000    0.000    1.750 
#    0.000    0.000    0.000    0.000    0.000    0.000 
#
# Total GULP energy -396442.069585 kJ/mol
# GULP energy per Si atom -12388.814675 kJ/mol
# Density = 1.976567 g / cm^3
# Si number density = 19.810760 Si / 1000 Ang^3
#
#
#
# Elastic Constant Matrix: (Units=GPa)
#
#
# Indices 1 2 3 4 5 6 
#
# 1 56.6502 20.0240 18.6853 0.0000 5.4107 0.0000
# 2 20.0240 116.5587 18.5950 0.0000 -0.6128 0.0000
# 3 18.6853 18.5950 75.8307 0.0000 7.2311 0.0000
# 4 0.0000 0.0000 0.0000 23.7410 0.0000 -5.5783
# 5 5.4107 -0.6128 7.2311 0.0000 34.2212 0.0000
# 6 0.0000 0.0000 0.0000 -5.5783 0.0000 19.7283
#
#
#
# Elastic Compliance Matrix: (Units=1/GPa)
#
#
# Indices 1 2 3 4 5 6 
#
# 1 0.020223 -0.002839 -0.004059 0.000000 -0.002391 0.000000
# 2 -0.002839 0.009341 -0.001684 0.000000 0.000972 0.000000
# 3 -0.004059 -0.001684 0.014841 0.000000 -0.002524 0.000000
# 4 0.000000 0.000000 0.000000 0.045119 0.000000 0.012758
# 5 -0.002391 0.000972 -0.002524 0.000000 0.030150 0.000000
# 6 0.000000 0.000000 0.000000 0.012758 0.000000 0.054296
#
#
# Mechanical properties :
#
#
# Convention : Reuss Voigt Hill
#
# Bulk Modulus (GPa) = 36.70900 40.40535 38.55717
# Shear Modulus (GPa) = 24.97332 28.32045 26.64688
#
# Velocity S-wave (km/s) = 3.55434 3.78504 3.67150
# Velocity P-wave (km/s) = 5.95100 6.28824 6.12194
#
# Compressibility (1/GPa) = 0.02724128
#
# Stress axis : x y z
#
# Youngs Moduli (GPa) = 49.44905 107.05692 67.38094
#
# Poissons Ratio (x) = 0.30396 0.27349
# Poissons Ratio (y) = 0.14040 0.11344
# Poissons Ratio (z) = 0.20071 0.18024
#
# Static dielectric constant tensor:
#      x y z
#    x 3.831340 0.000000 0.080320 
#    y 0.000000 3.619220 0.000000 
#    z 0.080320 0.000000 3.492570 
# 
# 
# High freq. dielectric constant tensor:
#      x y z
#    x 1.785040 0.000000 0.005510 
#    y 0.000000 1.766720 0.000000 
#    z 0.005510 0.000000 1.752200 
# 
# From -- ./inp_files/54152.got.cif
#   From: 2010.06.25/outbox.cif.g09.slc.cpg/sg10_28_cif.got.tgz:54152.got - 2010.06.27 22:07:45.
