data_PCOD8064661
_publ_section_title
;
Structure prediction by ZEFSAII (Michael W. Deem and Ramdas Pophale) SiO2 
 PCOD8064661
Probable space group: P 2/M
;
_chemical_formula_sum "Si O2"
_cell_formula_units_Z 24
_cell_length_a 12.097583
_cell_length_b 11.662034
_cell_length_c 17.040726
_cell_angle_alpha 90.000000
_cell_angle_beta 147.250291
_cell_angle_gamma 90.000000
_cell_volume 1300.571848
_symmetry_space_group_name_H-M "P 2/M"
_symmetry_group_IT_number 10
_symmetry_cell_setting 'monoclinic'
loop_
_space_group_symop_operation_xyz
x,y,z
-x,y,-z
-x,-y,-z
x,-y,z
loop_
_atom_site_type_symbol
_atom_site_label
_atom_site_fract_x
_atom_site_fract_y
_atom_site_fract_z
Si Si1 0.134346 0.635573 0.655422
Si Si2 0.935502 0.247465 0.222853
Si Si3 0.533842 0.000000 0.139001
Si Si4 0.288487 0.366849 0.339103
Si Si5 0.152909 0.000000 0.798407
Si Si6 0.562004 0.752639 0.886695
Si Si7 0.238285 0.628079 0.133509
O O1 0.124369 0.500000 0.658623
O O2 0.045873 0.688877 0.682793
O O3 0.367282 0.672989 0.783646
O O4 0.000000 0.675382 0.500000
O O5 0.101310 0.294311 0.261075
O O6 0.981327 0.112672 0.264165
O O7 0.709215 0.261879 0.050386
O O8 0.763847 0.000000 0.241198
O O9 0.507771 0.883119 0.172416
O O10 0.358493 0.000000 0.970259
O O11 0.500000 0.323560 0.500000
O O12 0.241375 0.500000 0.328854
O O13 0.329685 0.344858 0.272553
O O14 0.679021 0.718350 0.878449
O O15 0.296702 0.500000 0.139883
O O16 0.000000 0.641646 0.000000
#
# Coordination Sequence:
#
# PCOD8064661 Si02
#       7
#     4   4   2   4   2   4   4
#     4  11  25  38  55  87 122 151 187 244 301 347
#     4  11  21  39  63  86 113 154 203 236 288 351
#     4   9  18  36  58  87 115 153 195 237 296 340
#     4  10  22  38  59  84 117 158 192 234 295 355
#     4   9  18  36  60  84 115 152 193 248 289 332
#     4  11  21  38  63  86 115 154 198 242 286 346
#     4  10  20  36  57  85 116 148 193 243 289 339
#
# _framework density 18.453422
#
# number of rings (size 3 to 8) (size 9 to 14) (size 15 to 20)
#    0.000    1.667    3.333    1.500    2.333    2.667 
#    0.000    3.333    0.000    0.000    0.000    0.000 
#    0.000    0.000    0.000    0.000    0.000    0.000 
#
# Total GULP energy -297549.774805 kJ/mol
# GULP energy per Si atom -12397.907284 kJ/mol
# Density = 1.841142 g / cm^3
# Si number density = 18.453422 Si / 1000 Ang^3
#
#
#
# Elastic Constant Matrix: (Units=GPa)
#
#
# Indices 1 2 3 4 5 6 
#
# 1 89.6739 54.2354 15.7743 0.0000 -14.4024 0.0000
# 2 54.2354 118.6146 28.9855 0.0000 -8.1254 0.0000
# 3 15.7743 28.9855 83.8770 0.0000 -16.1155 0.0000
# 4 0.0000 0.0000 0.0000 15.9833 0.0000 -2.3209
# 5 -14.4024 -8.1254 -16.1155 0.0000 43.3736 0.0000
# 6 0.0000 0.0000 0.0000 -2.3209 0.0000 23.7223
#
#
#
# Elastic Compliance Matrix: (Units=1/GPa)
#
#
# Indices 1 2 3 4 5 6 
#
# 1 0.016079 -0.007127 0.000224 0.000000 0.004087 0.000000
# 2 -0.007127 0.012381 -0.003174 0.000000 -0.001226 0.000000
# 3 0.000224 -0.003174 0.013867 0.000000 0.004632 0.000000
# 4 0.000000 0.000000 0.000000 0.063467 0.000000 0.006209
# 5 0.004087 -0.001226 0.004632 0.000000 0.025904 0.000000
# 6 0.000000 0.000000 0.000000 0.006209 0.000000 0.042762
#
#
# Mechanical properties :
#
#
# Convention : Reuss Voigt Hill
#
# Bulk Modulus (GPa) = 45.09802 54.46177 49.77989
# Shear Modulus (GPa) = 24.75206 29.49384 27.12295
#
# Velocity S-wave (km/s) = 3.66639 4.00219 3.83796
# Velocity P-wave (km/s) = 6.51269 7.13680 6.83187
#
# Compressibility (1/GPa) = 0.02217392
#
# Stress axis : x y z
#
# Youngs Moduli (GPa) = 62.19367 80.76995 72.11470
#
# Poissons Ratio (x) = 0.57562 -0.01617
# Poissons Ratio (y) = 0.44323 0.22888
# Poissons Ratio (z) = -0.01395 0.25635
#
# Static dielectric constant tensor:
#      x y z
#    x 2.912530 0.000000 0.008140 
#    y 0.000000 3.573560 0.000000 
#    z 0.008140 0.000000 3.409680 
# 
# 
# High freq. dielectric constant tensor:
#      x y z
#    x 1.717500 0.000000 -0.002720 
#    y 0.000000 1.716120 0.000000 
#    z -0.002720 0.000000 1.710060 
# 
# From -- ./inp_files/42039.got.cif
#   From: 2010.06.25/outbox.cif.g09.slc.cpg/sg10_22_cif.got.tgz:42039.got - 2010.06.27 22:07:45.
