data_PCOD8064486
_publ_section_title
;
Structure prediction by ZEFSAII (Michael W. Deem and Ramdas Pophale) SiO2 
 PCOD8064486
Probable space group: P 2/M
;
_chemical_formula_sum "Si O2"
_cell_formula_units_Z 28
_cell_length_a 12.257625
_cell_length_b 9.267795
_cell_length_c 13.536378
_cell_angle_alpha 90.000000
_cell_angle_beta 64.115559
_cell_angle_gamma 90.000000
_cell_volume 1383.475692
_symmetry_space_group_name_H-M "P 2/M"
_symmetry_group_IT_number 10
_symmetry_cell_setting 'monoclinic'
loop_
_space_group_symop_operation_xyz
x,y,z
-x,y,-z
-x,-y,-z
x,-y,z
loop_
_atom_site_type_symbol
_atom_site_label
_atom_site_fract_x
_atom_site_fract_y
_atom_site_fract_z
Si Si1 0.662543 0.667610 0.212827
Si Si2 0.136811 0.172419 0.178942
Si Si3 0.099851 0.340597 0.387127
Si Si4 0.244731 0.345226 0.515399
Si Si5 0.631059 0.331668 0.995434
Si Si6 0.534218 0.846843 0.595452
Si Si7 0.900429 0.333144 0.233807
O O1 0.652743 0.500000 0.238815
O O2 0.637030 0.702878 0.109120
O O3 0.556630 0.739501 0.316270
O O4 0.793941 0.721599 0.201203
O O5 0.128233 0.221186 0.295275
O O6 0.022184 0.240126 0.164553
O O7 0.134552 0.000000 0.170130
O O8 0.265037 0.232995 0.091653
O O9 0.062757 0.500000 0.356333
O O10 0.212015 0.366255 0.414266
O O11 0.000000 0.276148 0.500000
O O12 0.300525 0.500000 0.529645
O O13 0.334644 0.215593 0.474206
O O14 0.136597 0.307907 0.636167
O O15 0.658946 0.500000 0.963054
O O16 0.500000 0.290579 0.000000
O O17 0.500000 0.884320 0.500000
O O18 0.540064 0.000000 0.652184
O O19 0.930457 0.500000 0.199716
#
# Coordination Sequence:
#
# PCOD8064486 Si02
#       7
#     4   4   4   4   4   4   4
#     4  10  22  41  67  93 117 160 217 265 306 353
#     4  12  26  41  62  93 129 166 201 249 314 376
#     4  10  20  38  62  89 121 162 208 251 302 357
#     4  10  20  35  59  87 121 164 207 256 301 353
#     4  10  24  47  70  91 118 157 209 262 308 362
#     4  11  23  36  55  89 133 170 196 240 311 378
#     4  10  20  39  65  92 123 159 209 262 302 358
#
# _framework density 20.238880999999999
#
# number of rings (size 3 to 8) (size 9 to 14) (size 15 to 20)
#    0.000    1.571    2.857    1.714    2.000    4.000 
#    0.000    2.857    0.000    0.000    0.000    0.000 
#    0.000    0.000    0.000    0.000    0.000    0.000 
#
# Total GULP energy -346895.467297 kJ/mol
# GULP energy per Si atom -12389.123832 kJ/mol
# Density = 2.019282 g / cm^3
# Si number density = 20.238881 Si / 1000 Ang^3
#
#
#
# Elastic Constant Matrix: (Units=GPa)
#
#
# Indices 1 2 3 4 5 6 
#
# 1 90.6824 53.9325 38.8488 0.0000 -11.0514 0.0000
# 2 53.9325 101.0491 59.9725 0.0000 -18.1908 0.0000
# 3 38.8488 59.9725 94.0479 0.0000 -11.6182 0.0000
# 4 0.0000 0.0000 0.0000 2.5537 0.0000 7.0572
# 5 -11.0514 -18.1908 -11.6182 0.0000 39.6415 0.0000
# 6 0.0000 0.0000 0.0000 7.0572 0.0000 16.4207
#
#
#
# Elastic Compliance Matrix: (Units=1/GPa)
#
#
# Indices 1 2 3 4 5 6 
#
# 1 0.016379 -0.007508 -0.001909 0.000000 0.000561 0.000000
# 2 -0.007508 0.020174 -0.009212 0.000000 0.004465 0.000000
# 3 -0.001909 -0.009212 0.017335 0.000000 0.000321 0.000000
# 4 0.000000 0.000000 0.000000 -2.086143 0.000000 0.896576
# 5 0.000561 0.004465 0.000321 0.000000 0.027526 0.000000
# 6 0.000000 0.000000 0.000000 0.896576 0.000000 -0.324429
#
#
# Mechanical properties :
#
#
# Convention : Reuss Voigt Hill
#
# Bulk Modulus (GPa) = 60.12702 65.69855 62.91278
# Shear Modulus (GPa) = -2.18688 20.59157 9.20234
#
# Velocity S-wave (km/s) = -1.04062 3.19317 2.13465
# Velocity P-wave (km/s) = 5.32253 6.79170 6.10149
#
# Compressibility (1/GPa) = 0.01663146
#
# Stress axis : x y z
#
# Youngs Moduli (GPa) = 61.05422 49.56792 57.68601
#
# Poissons Ratio (x) = 0.37215 0.11010
# Poissons Ratio (y) = 0.45839 0.53140
# Poissons Ratio (z) = 0.11653 0.45661
#
# Static dielectric constant tensor:
#      x y z
#    x 4.064810 0.000000 0.301340 
#    y 0.000000 5.274830 0.000000 
#    z 0.301340 0.000000 3.757340 
# 
# 
# High freq. dielectric constant tensor:
#      x y z
#    x 1.803250 0.000000 0.001290 
#    y 0.000000 1.780030 0.000000 
#    z 0.001290 0.000000 1.780200 
# 
# From -- ./inp_files/63621.got.cif
#   From: 2010.06.25/outbox.cif.g09.slc.cpg/sg10_32_cif.got.tgz:63621.got - 2010.06.27 22:07:45.
