data_PCOD8064325
_publ_section_title
;
Structure prediction by ZEFSAII (Michael W. Deem and Ramdas Pophale) SiO2 
 PCOD8064325
Probable space group: P 2/M
;
_chemical_formula_sum "Si O2"
_cell_formula_units_Z 32
_cell_length_a 28.076517
_cell_length_b 9.210381
_cell_length_c 21.753610
_cell_angle_alpha 90.000000
_cell_angle_beta 162.040389
_cell_angle_gamma 90.000000
_cell_volume 1734.567421
_symmetry_space_group_name_H-M "P 2/M"
_symmetry_group_IT_number 10
_symmetry_cell_setting 'monoclinic'
loop_
_space_group_symop_operation_xyz
x,y,z
-x,y,-z
-x,-y,-z
x,-y,z
loop_
_atom_site_type_symbol
_atom_site_label
_atom_site_fract_x
_atom_site_fract_y
_atom_site_fract_z
Si Si1 0.393590 0.328004 0.959668
Si Si2 0.282113 0.328728 0.694872
Si Si3 0.960860 0.329616 0.700015
Si Si4 0.825987 0.829726 0.772202
Si Si5 0.555774 0.329526 0.501803
Si Si6 0.417315 0.170720 0.109615
Si Si7 0.230861 0.169259 0.436064
Si Si8 0.308098 0.330211 0.095297
O O1 0.386778 0.500000 0.964067
O O2 0.565070 0.273038 0.152352
O O3 0.340050 0.243273 0.954801
O O4 0.280479 0.280340 0.764523
O O5 0.291573 0.500000 0.706249
O O6 0.130748 0.272233 0.473114
O O7 0.934668 0.500000 0.676050
O O8 0.896410 0.253551 0.681348
O O9 0.139156 0.289439 0.912459
O O10 0.716525 0.748854 0.685789
O O11 0.783186 0.778725 0.651259
O O12 0.800431 0.000000 0.749526
O O13 0.000000 0.782825 0.000000
O O14 0.500000 0.277191 0.500000
O O15 0.586198 0.500000 0.538231
O O16 0.428230 0.283739 0.295218
O O17 0.598541 0.208760 0.331476
O O18 0.337478 0.237437 0.071024
O O19 0.386969 0.000000 0.072212
O O20 0.194577 0.000000 0.397625
O O21 0.321052 0.500000 0.094930
#
# Coordination Sequence:
#
# PCOD8064325 Si02
#       8
#     4   4   4   4   4   4   4   4
#     4   9  16  30  54  80 107 140 178 222 273 322
#     4   8  15  29  51  80 109 137 175 225 271 318
#     4  10  20  35  57  83 108 140 184 227 271 321
#     4  10  22  40  59  82 111 144 184 225 264 319
#     4  10  22  39  57  81 114 145 178 223 273 323
#     4  11  21  35  55  80 109 144 184 224 267 318
#     4  10  21  36  54  80 111 140 178 226 271 316
#     4  10  22  38  56  79 109 146 184 221 266 325
#
# _framework density 18.448402999999999
#
# number of rings (size 3 to 8) (size 9 to 14) (size 15 to 20)
#    0.000    2.250    2.500    1.125    1.750    2.000 
#    0.000    2.500    0.000    3.750    0.000    0.000 
#    0.000    0.000    0.000    0.000    0.000    0.000 
#
# Total GULP energy -396835.106959 kJ/mol
# GULP energy per Si atom -12401.097092 kJ/mol
# Density = 1.840641 g / cm^3
# Si number density = 18.448403 Si / 1000 Ang^3
#
#
#
# Elastic Constant Matrix: (Units=GPa)
#
#
# Indices 1 2 3 4 5 6 
#
# 1 153.9886 53.0369 50.0741 0.0000 0.5315 0.0000
# 2 53.0369 45.9594 27.4476 0.0000 8.1026 0.0000
# 3 50.0741 27.4476 85.0369 0.0000 5.9702 0.0000
# 4 0.0000 0.0000 0.0000 19.4711 0.0000 2.7606
# 5 0.5315 8.1026 5.9702 0.0000 30.9357 0.0000
# 6 0.0000 0.0000 0.0000 2.7606 0.0000 18.2162
#
#
#
# Elastic Compliance Matrix: (Units=1/GPa)
#
#
# Indices 1 2 3 4 5 6 
#
# 1 0.011760 -0.012294 -0.003212 0.000000 0.003638 0.000000
# 2 -0.012294 0.040746 -0.005249 0.000000 -0.009448 0.000000
# 3 -0.003212 -0.005249 0.015454 0.000000 -0.001553 0.000000
# 4 0.000000 0.000000 0.000000 0.052486 0.000000 -0.007954
# 5 0.003638 -0.009448 -0.001553 0.000000 0.035037 0.000000
# 6 0.000000 0.000000 0.000000 -0.007954 0.000000 0.056102
#
#
# Mechanical properties :
#
#
# Convention : Reuss Voigt Hill
#
# Bulk Modulus (GPa) = 37.80721 60.67803 49.24262
# Shear Modulus (GPa) = 19.09028 24.01970 21.55499
#
# Velocity S-wave (km/s) = 3.22031 3.61223 3.42188
# Velocity P-wave (km/s) = 5.86218 7.09645 6.50864
#
# Compressibility (1/GPa) = 0.02644998
#
# Stress axis : x y z
#
# Youngs Moduli (GPa) = 85.03067 24.54200 64.70669
#
# Poissons Ratio (x) = 0.30173 0.20785
# Poissons Ratio (y) = 1.04541 0.33964
# Poissons Ratio (z) = 0.27314 0.12882
#
# Static dielectric constant tensor:
#      x y z
#    x 3.422440 0.000000 -0.229860 
#    y 0.000000 3.160790 0.000000 
#    z -0.229860 0.000000 3.587170 
# 
# 
# High freq. dielectric constant tensor:
#      x y z
#    x 1.723330 0.000000 -0.013090 
#    y 0.000000 1.695380 0.000000 
#    z -0.013090 0.000000 1.713240 
# 
# From -- ./inp_files/86984.got.cif
#   From: 2010.06.25/outbox.cif.g09.slc.cpg/sg10_44_cif.got.tgz:86984.got - 2010.06.27 22:07:45.
