data_PCOD8064041
_publ_section_title
;
Structure prediction by ZEFSAII (Michael W. Deem and Ramdas Pophale) SiO2 
 PCOD8064041
Probable space group: P 2/M
;
_chemical_formula_sum "Si O2"
_cell_formula_units_Z 32
_cell_length_a 21.015695
_cell_length_b 9.084940
_cell_length_c 28.727997
_cell_angle_alpha 90.000000
_cell_angle_beta 19.074205
_cell_angle_gamma 90.000000
_cell_volume 1792.433993
_symmetry_space_group_name_H-M "P 2/M"
_symmetry_group_IT_number 10
_symmetry_cell_setting 'monoclinic'
loop_
_space_group_symop_operation_xyz
x,y,z
-x,y,-z
-x,-y,-z
x,-y,z
loop_
_atom_site_type_symbol
_atom_site_label
_atom_site_fract_x
_atom_site_fract_y
_atom_site_fract_z
Si Si1 0.369242 0.666799 0.208388
Si Si2 0.174206 0.175447 0.911549
Si Si3 0.768493 0.822318 0.926735
Si Si4 0.359654 0.247116 0.317711
Si Si5 0.444910 0.338934 0.358052
Si Si6 0.018128 0.674727 0.676007
Si Si7 0.221631 0.159946 0.978818
Si Si8 0.055912 0.833520 0.366953
O O1 0.381263 0.500000 0.181051
O O2 0.345631 0.658001 0.280410
O O3 0.182672 0.749626 0.317374
O O4 0.557578 0.756405 0.060602
O O5 0.381807 0.228155 0.748127
O O6 0.145399 0.240490 0.984300
O O7 0.178396 0.000000 0.909549
O O8 0.000000 0.236086 0.000000
O O9 0.926221 0.755454 0.783478
O O10 0.760630 0.000000 0.929542
O O11 0.831244 0.764396 0.935339
O O12 0.398498 0.351610 0.335107
O O13 0.544028 0.138632 0.185831
O O14 0.163576 0.155798 0.461996
O O15 0.509174 0.500000 0.330731
O O16 0.247940 0.289067 0.520256
O O17 0.977793 0.500000 0.704373
O O18 0.925175 0.743954 0.694026
O O19 0.124168 0.000000 0.046574
O O20 0.131613 0.000000 0.306957
#
# Coordination Sequence:
#
# PCOD8064041 Si02
#       8
#     4   4   4   4   4   4   4   4
#     4  11  22  34  49  70  99 132 165 206 258 307
#     4   9  17  30  51  80 111 137 159 189 234 287
#     4  10  20  35  54  73  94 125 169 213 252 295
#     4   9  18  31  50  72  98 128 163 203 247 299
#     4   9  18  32  51  75 101 129 162 200 240 288
#     4  10  21  37  54  72  96 127 167 211 254 298
#     4   8  15  29  49  74 101 127 158 198 240 285
#     4  11  22  34  50  72  98 129 167 210 256 303
#
# _framework density 17.852817999999999
#
# number of rings (size 3 to 8) (size 9 to 14) (size 15 to 20)
#    0.000    2.375    0.000    2.625    0.000    8.250 
#    0.000    3.125    0.000    0.750    0.000    5.250 
#    0.000    0.000    0.000    0.000    0.000    0.000 
#
# Total GULP energy -396535.877450 kJ/mol
# GULP energy per Si atom -12391.746170 kJ/mol
# Density = 1.781218 g / cm^3
# Si number density = 17.852818 Si / 1000 Ang^3
#
#
#
# Elastic Constant Matrix: (Units=GPa)
#
#
# Indices 1 2 3 4 5 6 
#
# 1 109.4477 34.1836 69.5592 0.0000 -4.5509 0.0000
# 2 34.1836 91.3488 35.7030 0.0000 -1.6099 0.0000
# 3 69.5592 35.7030 100.4567 0.0000 7.2931 0.0000
# 4 0.0000 0.0000 0.0000 25.2980 0.0000 -0.2193
# 5 -4.5509 -1.6099 7.2931 0.0000 32.3680 0.0000
# 6 0.0000 0.0000 0.0000 -0.2193 0.0000 17.0296
#
#
#
# Elastic Compliance Matrix: (Units=1/GPa)
#
#
# Indices 1 2 3 4 5 6 
#
# 1 0.017383 -0.001824 -0.011751 0.000000 0.005001 0.000000
# 2 -0.001824 0.012995 -0.003440 0.000000 0.001165 0.000000
# 3 -0.011751 -0.003440 0.019770 0.000000 -0.006278 0.000000
# 4 0.000000 0.000000 0.000000 0.039533 0.000000 0.000509
# 5 0.005001 0.001165 -0.006278 0.000000 0.033070 0.000000
# 6 0.000000 0.000000 0.000000 0.000509 0.000000 0.058728
#
#
# Mechanical properties :
#
#
# Convention : Reuss Voigt Hill
#
# Bulk Modulus (GPa) = 62.04640 64.46054 63.25347
# Shear Modulus (GPa) = 22.63661 25.72631 24.18146
#
# Velocity S-wave (km/s) = 3.56470 3.80020 3.68433
# Velocity P-wave (km/s) = 7.19532 7.44583 7.32165
#
# Compressibility (1/GPa) = 0.01611697
#
# Stress axis : x y z
#
# Youngs Moduli (GPa) = 57.52803 76.95499 50.58205
#
# Poissons Ratio (x) = 0.14035 0.59440
# Poissons Ratio (y) = 0.10492 0.17401
# Poissons Ratio (z) = 0.67603 0.26473
#
# Static dielectric constant tensor:
#      x y z
#    x 3.411940 0.000000 0.042590 
#    y 0.000000 3.147730 0.000000 
#    z 0.042590 0.000000 3.217700 
# 
# 
# High freq. dielectric constant tensor:
#      x y z
#    x 1.681050 0.000000 0.006510 
#    y 0.000000 1.685820 0.000000 
#    z 0.006510 0.000000 1.675790 
# 
# From -- ./inp_files/95657.got.cif
#   From: 2010.06.25/outbox.cif.g09.slc.cpg/sg10_48_cif.got.tgz:95657.got - 2010.06.27 22:07:45.
