data_PCOD8064822
_publ_section_title
;
Structure prediction by ZEFSAII (Michael W. Deem and Ramdas Pophale) SiO2 
 PCOD8064822
Probable space group: P 2/M
;
_chemical_formula_sum "Si O2"
_cell_formula_units_Z 32
_cell_length_a 19.964919
_cell_length_b 8.859113
_cell_length_c 25.728967
_cell_angle_alpha 90.000000
_cell_angle_beta 158.824331
_cell_angle_gamma 90.000000
_cell_volume 1643.850418
_symmetry_space_group_name_H-M "P 2/M"
_symmetry_group_IT_number 10
_symmetry_cell_setting 'monoclinic'
loop_
_space_group_symop_operation_xyz
x,y,z
-x,y,-z
-x,-y,-z
x,-y,z
loop_
_atom_site_type_symbol
_atom_site_label
_atom_site_fract_x
_atom_site_fract_y
_atom_site_fract_z
Si Si1 0.301834 0.178102 0.338259
Si Si2 0.953370 0.676023 0.136143
Si Si3 0.394320 0.176880 0.829473
Si Si4 0.781264 0.673364 0.120462
Si Si5 0.628211 0.678290 0.826076
Si Si6 0.079946 0.325382 0.666647
Si Si7 0.707997 0.177239 0.361284
Si Si8 0.213642 0.823400 0.158892
O O1 0.500000 0.239614 0.500000
O O2 0.278949 0.230145 0.262532
O O3 0.145144 0.244960 0.261739
O O4 0.287096 0.000000 0.332523
O O5 0.976993 0.500000 0.142988
O O6 0.908348 0.713477 0.163172
O O7 0.788622 0.740559 0.980483
O O8 0.271507 0.272386 0.780139
O O9 0.341354 0.225439 0.732895
O O10 0.361329 0.000000 0.814891
O O11 0.606496 0.216248 0.994595
O O12 0.711203 0.500000 0.066762
O O13 0.906669 0.700615 0.261864
O O14 0.616178 0.500000 0.819991
O O15 0.430591 0.742796 0.699481
O O16 0.667457 0.730361 0.796164
O O17 0.044878 0.500000 0.628035
O O18 0.915772 0.226907 0.524126
O O19 0.689986 0.000000 0.355925
O O20 0.246002 0.000000 0.172353
O O21 0.000000 0.779146 0.000000
#
# Coordination Sequence:
#
# PCOD8064822 Si02
#       8
#     4   4   4   4   4   4   4   4
#     4  10  22  39  59  86 119 154 192 234 288 350
#     4  10  21  38  61  86 116 152 192 242 291 345
#     4  11  23  39  62  90 119 157 203 247 296 355
#     4  10  22  41  62  88 121 157 200 245 298 357
#     4  11  22  37  62  90 116 151 199 247 293 349
#     4  11  24  40  61  88 122 160 198 247 302 354
#     4  11  24  41  61  87 121 158 199 247 300 356
#     4  10  20  36  59  85 116 152 190 237 287 340
#
# _framework density 19.466491999999999
#
# number of rings (size 3 to 8) (size 9 to 14) (size 15 to 20)
#    0.000    1.500    2.500    2.250    0.000    8.500 
#    0.000    2.500    0.000    0.000    0.000    0.000 
#    0.000    0.000    0.000    0.000    0.000    0.000 
#
# Total GULP energy -397013.043574 kJ/mol
# GULP energy per Si atom -12406.657612 kJ/mol
# Density = 1.942219 g / cm^3
# Si number density = 19.466492 Si / 1000 Ang^3
#
#
#
# Elastic Constant Matrix: (Units=GPa)
#
#
# Indices 1 2 3 4 5 6 
#
# 1 121.5342 39.1621 33.5352 0.0000 5.4959 0.0000
# 2 39.1621 47.6331 25.4806 0.0000 1.9027 0.0000
# 3 33.5352 25.4806 93.7235 0.0000 -2.4469 0.0000
# 4 0.0000 0.0000 0.0000 32.9032 0.0000 6.5897
# 5 5.4959 1.9027 -2.4469 0.0000 28.8828 0.0000
# 6 0.0000 0.0000 0.0000 6.5897 0.0000 31.9844
#
#
#
# Elastic Compliance Matrix: (Units=1/GPa)
#
#
# Indices 1 2 3 4 5 6 
#
# 1 0.011539 -0.008404 -0.001891 0.000000 -0.001802 0.000000
# 2 -0.008404 0.030825 -0.005397 0.000000 -0.000889 0.000000
# 3 -0.001891 -0.005397 0.012861 0.000000 0.001805 0.000000
# 4 0.000000 0.000000 0.000000 0.031700 0.000000 -0.006531
# 5 -0.001802 -0.000889 0.001805 0.000000 0.035177 0.000000
# 6 0.000000 0.000000 0.000000 -0.006531 0.000000 0.032611
#
#
# Mechanical properties :
#
#
# Convention : Reuss Voigt Hill
#
# Bulk Modulus (GPa) = 41.94248 51.02741 46.48495
# Shear Modulus (GPa) = 25.76733 29.73497 27.75115
#
# Velocity S-wave (km/s) = 3.64218 3.91256 3.77979
# Velocity P-wave (km/s) = 6.26738 6.83233 6.55594
#
# Compressibility (1/GPa) = 0.02384217
#
# Stress axis : x y z
#
# Youngs Moduli (GPa) = 86.65975 32.44087 77.75587
#
# Poissons Ratio (x) = 0.27262 0.14706
# Poissons Ratio (y) = 0.72825 0.41964
# Poissons Ratio (z) = 0.16390 0.17508
#
# Static dielectric constant tensor:
#      x y z
#    x 3.653490 0.000000 -0.112190 
#    y 0.000000 3.477210 0.000000 
#    z -0.112190 0.000000 3.556160 
# 
# 
# High freq. dielectric constant tensor:
#      x y z
#    x 1.772660 0.000000 -0.001040 
#    y 0.000000 1.756890 0.000000 
#    z -0.001040 0.000000 1.759840 
# 
# From -- ./inp_files/93800.got.cif
#   From: 2010.06.25/outbox.cif.g09.slc.cpg/sg10_47_cif.got.tgz:93800.got - 2010.06.27 22:07:45.
