data_PCOD8064413
_publ_section_title
;
Structure prediction by ZEFSAII (Michael W. Deem and Ramdas Pophale) SiO2 
 PCOD8064413
Probable space group: P 2/M
;
_chemical_formula_sum "Si O2"
_cell_formula_units_Z 28
_cell_length_a 14.359010
_cell_length_b 17.064236
_cell_length_c 9.288448
_cell_angle_alpha 90.000000
_cell_angle_beta 140.221830
_cell_angle_gamma 90.000000
_cell_volume 1456.163800
_symmetry_space_group_name_H-M "P 2/M"
_symmetry_group_IT_number 10
_symmetry_cell_setting 'monoclinic'
loop_
_space_group_symop_operation_xyz
x,y,z
-x,y,-z
-x,-y,-z
x,-y,z
loop_
_atom_site_type_symbol
_atom_site_label
_atom_site_fract_x
_atom_site_fract_y
_atom_site_fract_z
Si Si1 0.640000 0.247507 0.834214
Si Si2 0.397900 0.591933 0.092610
Si Si3 0.935990 0.794235 0.268692
Si Si4 0.923969 0.672625 0.763063
Si Si5 0.296677 0.411895 0.670179
Si Si6 0.676007 0.208887 0.548522
Si Si7 0.092598 0.091354 0.251838
O O1 0.651046 0.343759 0.845946
O O2 0.662171 0.214138 0.702186
O O3 0.483512 0.219859 0.710971
O O4 0.761038 0.203039 0.075023
O O5 0.360631 0.500000 0.089746
O O6 0.571480 0.603129 0.283435
O O7 0.320640 0.626910 0.855775
O O8 0.000000 0.776610 0.500000
O O9 0.959416 0.721528 0.188129
O O10 0.008975 0.872256 0.289871
O O11 0.860494 0.602869 0.589658
O O12 0.782297 0.724369 0.619545
O O13 0.000000 0.642106 0.000000
O O14 0.302985 0.500000 0.727781
O O15 0.745870 0.126456 0.580255
O O16 0.108867 0.000000 0.300375
O O17 0.000000 0.111310 0.000000
#
# Coordination Sequence:
#
# PCOD8064413 Si02
#       7
#     4   4   4   4   4   4   4
#     4  11  19  35  56  84 114 145 191 242 277 317
#     4   9  18  33  53  76 110 149 191 238 289 336
#     4  11  22  36  58  89 117 146 188 231 284 341
#     4  11  19  36  54  76 113 151 190 233 282 342
#     4   9  18  33  52  77 104 148 199 237 284 337
#     4  10  20  35  58  83 110 144 192 234 268 335
#     4  10  20  41  64  84 115 154 187 219 280 350
#
# _framework density 19.228605000000002
#
# number of rings (size 3 to 8) (size 9 to 14) (size 15 to 20)
#    0.000    1.857    4.286    2.571    0.000    0.571 
#    0.000    5.000    0.000    3.429    0.000    0.000 
#    0.000    0.000    0.000    0.000    0.000    0.000 
#
# Total GULP energy -346937.127814 kJ/mol
# GULP energy per Si atom -12390.611708 kJ/mol
# Density = 1.918484 g / cm^3
# Si number density = 19.228605 Si / 1000 Ang^3
#
#
#
# Elastic Constant Matrix: (Units=GPa)
#
#
# Indices 1 2 3 4 5 6 
#
# 1 58.3303 33.0328 32.7190 0.0000 18.9565 0.0000
# 2 33.0328 79.8258 30.3928 0.0000 9.0744 0.0000
# 3 32.7190 30.3928 132.2171 0.0000 17.7217 0.0000
# 4 0.0000 0.0000 0.0000 19.7303 0.0000 -0.0346
# 5 18.9565 9.0744 17.7217 0.0000 27.6722 0.0000
# 6 0.0000 0.0000 0.0000 -0.0346 0.0000 8.9006
#
#
#
# Elastic Compliance Matrix: (Units=1/GPa)
#
#
# Indices 1 2 3 4 5 6 
#
# 1 0.028808 -0.009074 -0.003060 0.000000 -0.014800 0.000000
# 2 -0.009074 0.016776 -0.001867 0.000000 0.001910 0.000000
# 3 -0.003060 -0.001867 0.009174 0.000000 -0.003167 0.000000
# 4 0.000000 0.000000 0.000000 0.050684 0.000000 0.000197
# 5 -0.014800 0.001910 -0.003167 0.000000 0.047678 0.000000
# 6 0.000000 0.000000 0.000000 0.000197 0.000000 0.112352
#
#
# Mechanical properties :
#
#
# Convention : Reuss Voigt Hill
#
# Bulk Modulus (GPa) = 37.37252 51.40695 44.38973
# Shear Modulus (GPa) = 16.53485 22.87586 19.70536
#
# Velocity S-wave (km/s) = 2.93560 3.45291 3.20471
# Velocity P-wave (km/s) = 5.56493 6.53372 6.06869
#
# Compressibility (1/GPa) = 0.02675763
#
# Stress axis : x y z
#
# Youngs Moduli (GPa) = 34.71227 59.60980 109.00280
#
# Poissons Ratio (x) = 0.54089 0.33349
# Poissons Ratio (y) = 0.31498 0.20349
# Poissons Ratio (z) = 0.10620 0.11128
#
# Static dielectric constant tensor:
#      x y z
#    x 3.632790 0.000000 0.320170 
#    y 0.000000 3.347910 0.000000 
#    z 0.320170 0.000000 3.785700 
# 
# 
# High freq. dielectric constant tensor:
#      x y z
#    x 1.738580 0.000000 0.010090 
#    y 0.000000 1.722860 0.000000 
#    z 0.010090 0.000000 1.753730 
# 
# From -- ./inp_files/30094.got.cif
#   From: 2010.06.25/outbox.cif.g09.slc.cpg/sg10_16_cif.got.tgz:30094.got - 2010.06.27 22:07:45.
