data_PCOD8064386
_publ_section_title
;
Structure prediction by ZEFSAII (Michael W. Deem and Ramdas Pophale) SiO2 
 PCOD8064386
Probable space group: P 2/M
;
_chemical_formula_sum "Si O2"
_cell_formula_units_Z 32
_cell_length_a 25.637490
_cell_length_b 9.036514
_cell_length_c 14.792524
_cell_angle_alpha 90.000000
_cell_angle_beta 150.062393
_cell_angle_gamma 90.000000
_cell_volume 1710.285230
_symmetry_space_group_name_H-M "P 2/M"
_symmetry_group_IT_number 10
_symmetry_cell_setting 'monoclinic'
loop_
_space_group_symop_operation_xyz
x,y,z
-x,y,-z
-x,-y,-z
x,-y,z
loop_
_atom_site_type_symbol
_atom_site_label
_atom_site_fract_x
_atom_site_fract_y
_atom_site_fract_z
Si Si1 0.601581 0.824782 0.703161
Si Si2 0.986371 0.672931 0.215556
Si Si3 0.216349 0.331692 0.500002
Si Si4 0.061507 0.168591 0.500000
Si Si5 0.438087 0.824390 0.154503
Si Si6 0.675330 0.174427 0.500000
Si Si7 0.729185 0.672931 0.215555
Si Si8 0.783585 0.824390 0.845498
O O1 0.500000 0.756749 0.500000
O O2 0.604971 0.773180 0.812291
O O3 0.707320 0.773178 0.812290
O O4 0.591938 0.000000 0.683874
O O5 0.967720 0.500000 0.203526
O O6 0.093178 0.701705 0.321563
O O7 0.991070 0.750885 0.319650
O O8 0.893408 0.742235 0.018212
O O9 0.235986 0.500000 0.500000
O O10 0.265545 0.226228 0.500003
O O11 0.271617 0.298297 0.678440
O O12 0.171421 0.249114 0.680351
O O13 0.000000 0.175533 0.500000
O O14 0.081763 0.000000 0.499999
O O15 0.556694 0.768310 0.322957
O O16 0.427519 0.000000 0.125983
O O17 0.375196 0.742235 0.981790
O O18 0.733738 0.231689 0.677044
O O19 0.674646 0.000000 0.499999
O O20 0.735806 0.500000 0.203524
O O21 0.801537 0.000000 0.874019
#
# Coordination Sequence:
#
# PCOD8064386 Si02
#       8
#     4   4   4   4   4   4   4   4
#     4   9  16  32  57  80 111 150 183 223 276 334
#     4  10  22  39  57  81 114 150 186 230 282 334
#     4   9  21  41  59  75 106 151 190 228 285 344
#     4  10  21  37  58  83 110 145 188 231 278 334
#     4  10  20  35  57  86 115 147 188 231 279 336
#     4  10  21  36  58  86 113 144 189 243 287 323
#     4  10  22  39  57  81 114 150 186 230 282 334
#     4  10  20  35  57  86 115 147 188 231 279 336
#
# _framework density 18.710331
#
# number of rings (size 3 to 8) (size 9 to 14) (size 15 to 20)
#    0.000    2.250    1.250    1.875    1.750    6.000 
#    0.000    5.000    0.000    0.750    0.000    0.000 
#    0.000    0.000    0.000    0.000    0.000    0.000 
#
# Total GULP energy -396871.556900 kJ/mol
# GULP energy per Si atom -12402.236153 kJ/mol
# Density = 1.866775 g / cm^3
# Si number density = 18.710331 Si / 1000 Ang^3
#
#
#
# Elastic Constant Matrix: (Units=GPa)
#
#
# Indices 1 2 3 4 5 6 
#
# 1 104.9984 35.0121 61.4749 0.0000 1.0225 0.0000
# 2 35.0121 66.5870 57.2475 0.0000 -1.5355 0.0000
# 3 61.4749 57.2475 172.0077 0.0000 -5.6515 0.0000
# 4 0.0000 0.0000 0.0000 6.8673 0.0000 0.3829
# 5 1.0225 -1.5355 -5.6515 0.0000 14.8144 0.0000
# 6 0.0000 0.0000 0.0000 0.3829 0.0000 12.4138
#
#
#
# Elastic Compliance Matrix: (Units=1/GPa)
#
#
# Indices 1 2 3 4 5 6 
#
# 1 0.012823 -0.003907 -0.003367 0.000000 -0.002575 0.000000
# 2 -0.003907 0.022232 -0.005993 0.000000 0.000288 0.000000
# 3 -0.003367 -0.005993 0.009113 0.000000 0.003088 0.000000
# 4 0.000000 0.000000 0.000000 0.145867 0.000000 -0.004499
# 5 -0.002575 0.000288 0.003088 0.000000 0.068887 0.000000
# 6 0.000000 0.000000 0.000000 -0.004499 0.000000 0.080694
#
#
# Mechanical properties :
#
#
# Convention : Reuss Voigt Hill
#
# Bulk Modulus (GPa) = 56.71177 72.34022 64.52600
# Shear Modulus (GPa) = 13.43976 19.47635 16.45805
#
# Velocity S-wave (km/s) = 2.68303 3.22986 2.96906
# Velocity P-wave (km/s) = 6.32253 7.25648 6.80555
#
# Compressibility (1/GPa) = 0.01763302
#
# Stress axis : x y z
#
# Youngs Moduli (GPa) = 77.98299 44.98101 109.72993
#
# Poissons Ratio (x) = 0.17574 0.36949
# Poissons Ratio (y) = 0.30468 0.65765
# Poissons Ratio (z) = 0.26259 0.26958
#
# Static dielectric constant tensor:
#      x y z
#    x 3.400100 0.000000 -0.013450 
#    y 0.000000 3.296940 0.000000 
#    z -0.013450 0.000000 3.594890 
# 
# 
# High freq. dielectric constant tensor:
#      x y z
#    x 1.727940 0.000000 -0.000620 
#    y 0.000000 1.712520 0.000000 
#    z -0.000620 0.000000 1.736940 
# 
# From -- ./inp_files/71706.got.cif
#   From: 2010.06.25/outbox.cif.g09.slc.cpg/sg10_36_cif.got.tgz:71706.got - 2010.06.27 22:07:45.
