data_PCOD8064704
_publ_section_title
;
Structure prediction by ZEFSAII (Michael W. Deem and Ramdas Pophale) SiO2 
 PCOD8064704
Probable space group: P 2/M
;
_chemical_formula_sum "Si O2"
_cell_formula_units_Z 28
_cell_length_a 28.402300
_cell_length_b 8.356884
_cell_length_c 8.139333
_cell_angle_alpha 90.000000
_cell_angle_beta 135.722310
_cell_angle_gamma 90.000000
_cell_volume 1348.736402
_symmetry_space_group_name_H-M "P 2/M"
_symmetry_group_IT_number 10
_symmetry_cell_setting 'monoclinic'
loop_
_space_group_symop_operation_xyz
x,y,z
-x,y,-z
-x,-y,-z
x,-y,z
loop_
_atom_site_type_symbol
_atom_site_label
_atom_site_fract_x
_atom_site_fract_y
_atom_site_fract_z
Si Si1 0.837576 0.309578 0.783154
Si Si2 0.302784 0.183014 0.601442
Si Si3 0.923748 0.309610 0.311040
Si Si4 0.565953 0.180360 0.562192
Si Si5 0.309661 0.318378 0.960405
Si Si6 0.429205 0.681101 0.758116
Si Si7 0.841480 0.688695 0.418138
O O1 0.830513 0.500000 0.766205
O O2 0.766721 0.231200 0.662085
O O3 0.857820 0.249802 0.646875
O O4 0.889859 0.251726 0.054604
O O5 0.312554 0.308066 0.772097
O O6 0.367129 0.204169 0.646241
O O7 0.299152 0.000000 0.652712
O O8 0.920934 0.500000 0.311093
O O9 0.889106 0.240003 0.392183
O O10 0.000000 0.245439 0.500000
O O11 0.500000 0.219820 0.500000
O O12 0.566448 0.315377 0.425972
O O13 0.562137 0.000000 0.482588
O O14 0.634863 0.196321 0.835366
O O15 0.325023 0.500000 0.054013
O O16 0.234500 0.264957 0.826415
O O17 0.417758 0.500000 0.791755
O O18 0.500000 0.751288 0.000000
O O19 0.850050 0.500000 0.444778
#
# Coordination Sequence:
#
# PCOD8064704 Si02
#       7
#     4   4   4   4   4   4   4
#     4   9  18  33  54  79 112 150 190 237 289 351
#     4  11  22  37  58  83 112 145 186 240 296 350
#     4   9  17  29  50  82 116 148 187 240 296 347
#     4  11  24  39  56  82 116 151 188 235 289 342
#     4  10  20  36  58  82 110 147 191 238 287 345
#     4  11  24  40  59  82 110 148 193 238 287 347
#     4   8  16  30  48  77 111 145 187 235 286 339
#
# _framework density 20.760173000000002
#
# number of rings (size 3 to 8) (size 9 to 14) (size 15 to 20)
#    0.000    2.143    0.000    4.286    2.000    5.143 
#    0.000    2.857    0.000    0.429    0.000    4.000 
#    0.000    0.000    0.000    0.000    0.000    0.000 
#
# Total GULP energy -347015.917657 kJ/mol
# GULP energy per Si atom -12393.425631 kJ/mol
# Density = 2.071292 g / cm^3
# Si number density = 20.760173 Si / 1000 Ang^3
#
#
#
# Elastic Constant Matrix: (Units=GPa)
#
#
# Indices 1 2 3 4 5 6 
#
# 1 153.3535 22.4066 80.5830 0.0000 15.0721 0.0000
# 2 22.4066 35.1889 18.1065 0.0000 7.6519 0.0000
# 3 80.5830 18.1065 162.4082 0.0000 13.2311 0.0000
# 4 0.0000 0.0000 0.0000 18.4114 0.0000 1.2266
# 5 15.0721 7.6519 13.2311 0.0000 28.7774 0.0000
# 6 0.0000 0.0000 0.0000 1.2266 0.0000 20.1113
#
#
#
# Elastic Compliance Matrix: (Units=1/GPa)
#
#
# Indices 1 2 3 4 5 6 
#
# 1 0.009383 -0.003401 -0.004103 0.000000 -0.002123 0.000000
# 2 -0.003401 0.032687 -0.001448 0.000000 -0.006244 0.000000
# 3 -0.004103 -0.001448 0.008465 0.000000 -0.001358 0.000000
# 4 0.000000 0.000000 0.000000 0.054536 0.000000 -0.003326
# 5 -0.002123 -0.006244 -0.001358 0.000000 0.038146 0.000000
# 6 0.000000 0.000000 0.000000 -0.003326 0.000000 0.049926
#
#
# Mechanical properties :
#
#
# Convention : Reuss Voigt Hill
#
# Bulk Modulus (GPa) = 30.64682 65.90475 48.27579
# Shear Modulus (GPa) = 22.53020 28.78365 25.65693
#
# Velocity S-wave (km/s) = 3.29790 3.72759 3.51931
# Velocity P-wave (km/s) = 5.41257 7.09516 6.31020
#
# Compressibility (1/GPa) = 0.03262981
#
# Stress axis : x y z
#
# Youngs Moduli (GPa) = 106.57914 30.59349 118.12903
#
# Poissons Ratio (x) = 0.10406 0.48472
# Poissons Ratio (y) = 0.36252 0.17102
# Poissons Ratio (z) = 0.43732 0.04429
#
# Static dielectric constant tensor:
#      x y z
#    x 3.990480 0.000000 -0.052710 
#    y 0.000000 3.245420 0.000000 
#    z -0.052710 0.000000 2.956670 
# 
# 
# High freq. dielectric constant tensor:
#      x y z
#    x 1.814050 0.000000 0.002070 
#    y 0.000000 1.778510 0.000000 
#    z 0.002070 0.000000 1.814940 
# 
# From -- ./inp_files/37278.got.cif
#   From: 2010.06.25/outbox.cif.g09.slc.cpg/sg10_19_cif.got.tgz:37278.got - 2010.06.27 22:07:45.
