data_PCOD8064513
_publ_section_title
;
Structure prediction by ZEFSAII (Michael W. Deem and Ramdas Pophale) SiO2 
 PCOD8064513
Probable space group: P 2/M
;
_chemical_formula_sum "Si O2"
_cell_formula_units_Z 32
_cell_length_a 10.027263
_cell_length_b 10.285730
_cell_length_c 14.740996
_cell_angle_alpha 90.000000
_cell_angle_beta 91.905926
_cell_angle_gamma 90.000000
_cell_volume 1519.511628
_symmetry_space_group_name_H-M "P 2/M"
_symmetry_group_IT_number 10
_symmetry_cell_setting 'monoclinic'
loop_
_space_group_symop_operation_xyz
x,y,z
-x,y,-z
-x,-y,-z
x,-y,z
loop_
_atom_site_type_symbol
_atom_site_label
_atom_site_fract_x
_atom_site_fract_y
_atom_site_fract_z
Si Si1 0.645683 0.353644 0.966840
Si Si2 0.209161 0.146878 0.914430
Si Si3 0.983036 0.645064 0.342012
Si Si4 0.612305 0.855885 0.253782
Si Si5 0.271154 0.646759 0.399103
Si Si6 0.693578 0.349610 0.400960
Si Si7 0.041302 0.857223 0.197044
Si Si8 0.668281 0.773214 0.787307
O O1 0.684881 0.500000 0.996853
O O2 0.649022 0.345650 0.857365
O O3 0.500000 0.316983 0.000000
O O4 0.750768 0.250988 0.009105
O O5 0.283466 0.182433 0.821904
O O6 0.049103 0.156360 0.895589
O O7 0.248642 0.000000 0.946068
O O8 0.980432 0.500000 0.299121
O O9 0.851645 0.671221 0.396698
O O10 0.991100 0.746008 0.261506
O O11 0.111720 0.660675 0.409237
O O12 0.615753 0.746975 0.332545
O O13 0.463086 0.862175 0.208846
O O14 0.646380 0.000000 0.292970
O O15 0.311149 0.500000 0.376860
O O16 0.341635 0.687132 0.495440
O O17 0.320985 0.732067 0.317009
O O18 0.654148 0.500000 0.378761
O O19 0.198285 0.848382 0.178414
O O20 0.014367 0.000000 0.239647
#
# Coordination Sequence:
#
# PCOD8064513 Si02
#       8
#     4   4   4   4   4   4   4   4
#     4  11  24  42  66  96 124 156 203 255 304 359
#     4  10  22  41  65  92 121 159 202 247 301 364
#     4   9  17  32  58  89 122 159 202 250 300 353
#     4  11  23  40  62  89 123 162 203 249 301 361
#     4   9  19  36  58  87 124 162 201 246 304 365
#     4  10  20  35  60  91 121 161 208 250 294 356
#     4  10  21  39  63  91 124 159 202 249 299 359
#     4  11  23  41  62  89 123 162 199 250 310 362
#
# _framework density 21.059396
#
# number of rings (size 3 to 8) (size 9 to 14) (size 15 to 20)
#    0.000    1.875    2.500    1.125    0.000    6.250 
#    0.000    6.875    0.000    3.750    0.000    0.000 
#    0.000    0.000    0.000    0.000    0.000    0.000 
#
# Total GULP energy -396632.861747 kJ/mol
# GULP energy per Si atom -12394.776930 kJ/mol
# Density = 2.101146 g / cm^3
# Si number density = 21.059396 Si / 1000 Ang^3
#
#
#
# Elastic Constant Matrix: (Units=GPa)
#
#
# Indices 1 2 3 4 5 6 
#
# 1 99.4433 24.3266 22.5352 0.0000 8.3326 0.0000
# 2 24.3266 111.7683 47.9625 0.0000 11.2075 0.0000
# 3 22.5352 47.9625 93.3780 0.0000 3.7317 0.0000
# 4 0.0000 0.0000 0.0000 -68.2435 0.0000 38.4941
# 5 8.3326 11.2075 3.7317 0.0000 19.2907 0.0000
# 6 0.0000 0.0000 0.0000 38.4941 0.0000 8.0583
#
#
#
# Elastic Compliance Matrix: (Units=1/GPa)
#
#
# Indices 1 2 3 4 5 6 
#
# 1 0.011098 -0.001228 -0.001899 0.000000 -0.003713 0.000000
# 2 -0.001228 0.012239 -0.005772 0.000000 -0.005464 0.000000
# 3 -0.001899 -0.005772 0.014074 0.000000 0.001451 0.000000
# 4 0.000000 0.000000 0.000000 -0.003966 0.000000 0.018947
# 5 -0.003713 -0.005464 0.001451 0.000000 0.056336 0.000000
# 6 0.000000 0.000000 0.000000 0.018947 0.000000 0.033589
#
#
# Mechanical properties :
#
#
# Convention : Reuss Voigt Hill
#
# Bulk Modulus (GPa) = 50.98651 54.91535 52.95093
# Shear Modulus (GPa) = 33.85122 5.80545 19.82833
#
# Velocity S-wave (km/s) = 4.01361 1.66213 3.07179
# Velocity P-wave (km/s) = 6.76329 5.46046 6.14649
#
# Compressibility (1/GPa) = 0.01961303
#
# Stress axis : x y z
#
# Youngs Moduli (GPa) = 90.10715 81.70565 71.05286
#
# Poissons Ratio (x) = 0.10036 0.13493
# Poissons Ratio (y) = 0.11068 0.41009
# Poissons Ratio (z) = 0.17112 0.47158
#
# Static dielectric constant tensor:
#      x y z
#    x 4.043570 0.000000 0.021250 
#    y 0.000000 3.688880 0.000000 
#    z 0.021250 0.000000 3.597320 
# 
# 
# High freq. dielectric constant tensor:
#      x y z
#    x 1.840320 0.000000 0.000090 
#    y 0.000000 1.816200 0.000000 
#    z 0.000090 0.000000 1.810020 
# 
# From -- ./inp_files/63812.got.cif
#   From: 2010.06.25/outbox.cif.g09.slc.cpg/sg10_32_cif.got.tgz:63812.got - 2010.06.27 22:07:45.
