data_PCOD8064772
_publ_section_title
;
Structure prediction by ZEFSAII (Michael W. Deem and Ramdas Pophale) SiO2 
 PCOD8064772
Probable space group: P 2/M
;
_chemical_formula_sum "Si O2"
_cell_formula_units_Z 28
_cell_length_a 26.899250
_cell_length_b 7.687424
_cell_length_c 9.035200
_cell_angle_alpha 90.000000
_cell_angle_beta 132.447572
_cell_angle_gamma 90.000000
_cell_volume 1378.648252
_symmetry_space_group_name_H-M "P 2/M"
_symmetry_group_IT_number 10
_symmetry_cell_setting 'monoclinic'
loop_
_space_group_symop_operation_xyz
x,y,z
-x,y,-z
-x,-y,-z
x,-y,z
loop_
_atom_site_type_symbol
_atom_site_label
_atom_site_fract_x
_atom_site_fract_y
_atom_site_fract_z
Si Si1 0.428208 0.500000 0.280172
Si Si2 0.060510 0.302833 0.523144
Si Si3 0.195639 0.793414 0.303975
Si Si4 0.329349 0.800154 0.732759
Si Si5 0.429285 0.500000 0.935861
Si Si6 0.672027 0.801688 0.924054
Si Si7 0.066160 0.801931 0.204707
Si Si8 0.809934 0.795656 0.043212
O O1 0.500000 0.500000 0.500000
O O2 0.441257 0.500000 0.133400
O O3 0.387586 0.673266 0.246597
O O4 0.042168 0.500000 0.445922
O O5 0.066095 0.199848 0.381569
O O6 0.130387 0.298536 0.750818
O O7 0.000000 0.221050 0.500000
O O8 0.264911 0.728050 0.515124
O O9 0.133355 0.712924 0.272513
O O10 0.195771 0.000000 0.312198
O O11 0.190447 0.727214 0.125524
O O12 0.347727 0.000000 0.728516
O O13 0.390609 0.675438 0.809623
O O14 0.312570 0.782619 0.871872
O O15 0.500000 0.500000 0.000000
O O16 0.651172 0.000000 0.842042
O O17 0.739209 0.744783 0.974092
O O18 0.067061 0.000000 0.152068
O O19 0.000000 0.710773 0.000000
O O20 0.823100 0.000000 0.078883
#
# Coordination Sequence:
#
# PCOD8064772 Si02
#       8
#     2   4   4   4   2   4   4   4
#     4  10  22  38  58  84 117 152 185 232 280 336
#     4  11  24  38  52  76 113 151 187 231 283 338
#     4   9  18  34  56  84 112 138 180 233 284 336
#     4   9  18  36  57  80 114 149 185 232 280 332
#     4  10  22  38  56  84 113 144 191 226 274 342
#     4   9  19  36  59  84 113 151 191 233 283 338
#     4  10  20  36  59  82 106 143 189 236 282 333
#     4  10  20  36  59  84 109 142 186 235 283 336
#
# _framework density 20.309749
#
# number of rings (size 3 to 8) (size 9 to 14) (size 15 to 20)
#    0.000    2.286    0.000    2.143    1.000    6.571 
#    5.143    0.000    0.000    0.000    0.000    0.000 
#    0.000    0.000    0.000    0.000    0.000    0.000 
#
# Total GULP energy -347226.572097 kJ/mol
# GULP energy per Si atom -12400.949003 kJ/mol
# Density = 2.026352 g / cm^3
# Si number density = 20.309749 Si / 1000 Ang^3
#
#
#
# Elastic Constant Matrix: (Units=GPa)
#
#
# Indices 1 2 3 4 5 6 
#
# 1 168.6632 41.3269 71.8398 0.0000 21.9488 0.0000
# 2 41.3269 71.8669 39.2514 0.0000 15.9219 0.0000
# 3 71.8398 39.2514 160.9313 0.0000 21.1554 0.0000
# 4 0.0000 0.0000 0.0000 14.3875 0.0000 7.5536
# 5 21.9488 15.9219 21.1554 0.0000 34.8249 0.0000
# 6 0.0000 0.0000 0.0000 7.5536 0.0000 17.2313
#
#
#
# Elastic Compliance Matrix: (Units=1/GPa)
#
#
# Indices 1 2 3 4 5 6 
#
# 1 0.007990 -0.002669 -0.002623 0.000000 -0.002221 0.000000
# 2 -0.002669 0.017934 -0.002528 0.000000 -0.004981 0.000000
# 3 -0.002623 -0.002528 0.008295 0.000000 -0.002230 0.000000
# 4 0.000000 0.000000 0.000000 0.090283 0.000000 -0.039577
# 5 -0.002221 -0.004981 -0.002230 0.000000 0.033747 0.000000
# 6 0.000000 0.000000 0.000000 -0.039577 0.000000 0.075383
#
#
# Mechanical properties :
#
#
# Convention : Reuss Voigt Hill
#
# Bulk Modulus (GPa) = 53.83027 78.47752 66.15390
# Shear Modulus (GPa) = 19.57216 29.89162 24.73189
#
# Velocity S-wave (km/s) = 3.10769 3.84055 3.49339
# Velocity P-wave (km/s) = 6.28006 7.64138 6.99392
#
# Compressibility (1/GPa) = 0.01857691
#
# Stress axis : x y z
#
# Youngs Moduli (GPa) = 125.16355 55.76078 120.56128
#
# Poissons Ratio (x) = 0.14885 0.31629
# Poissons Ratio (y) = 0.33411 0.30473
# Poissons Ratio (z) = 0.32836 0.14094
#
# Static dielectric constant tensor:
#      x y z
#    x 3.778470 0.000000 0.012560 
#    y 0.000000 3.615040 0.000000 
#    z 0.012560 0.000000 3.686930 
# 
# 
# High freq. dielectric constant tensor:
#      x y z
#    x 1.795410 0.000000 0.000870 
#    y 0.000000 1.784490 0.000000 
#    z 0.000870 0.000000 1.792380 
# 
# From -- ./inp_files/37370.got.cif
#   From: 2010.06.25/outbox.cif.g09.slc.cpg/sg10_19_cif.got.tgz:37370.got - 2010.06.27 22:07:45.
