data_PCOD8064327
_publ_section_title
;
Structure prediction by ZEFSAII (Michael W. Deem and Ramdas Pophale) SiO2 
 PCOD8064327
Probable space group: P 2/M
;
_chemical_formula_sum "Si O2"
_cell_formula_units_Z 28
_cell_length_a 9.009948
_cell_length_b 9.165592
_cell_length_c 25.306824
_cell_angle_alpha 90.000000
_cell_angle_beta 44.598442
_cell_angle_gamma 90.000000
_cell_volume 1467.372119
_symmetry_space_group_name_H-M "P 2/M"
_symmetry_group_IT_number 10
_symmetry_cell_setting 'monoclinic'
loop_
_space_group_symop_operation_xyz
x,y,z
-x,y,-z
-x,-y,-z
x,-y,z
loop_
_atom_site_type_symbol
_atom_site_label
_atom_site_fract_x
_atom_site_fract_y
_atom_site_fract_z
Si Si1 0.898110 0.328595 0.715552
Si Si2 0.344208 0.831755 0.413049
Si Si3 0.996333 0.831755 0.586970
Si Si4 0.760287 0.671405 0.284469
Si Si5 0.667467 0.173471 0.999988
Si Si6 0.875029 0.831126 0.149432
Si Si7 0.527298 0.831127 0.149410
O O1 0.870762 0.500000 0.716514
O O2 0.670145 0.258052 0.779610
O O3 0.009528 0.268741 0.634824
O O4 0.041175 0.286923 0.729412
O O5 0.205936 0.802061 0.500012
O O6 0.548825 0.731265 0.365203
O O7 0.210294 0.791670 0.394863
O O8 0.414389 0.000000 0.392587
O O9 0.984641 0.000000 0.607438
O O10 0.736775 0.500000 0.283512
O O11 0.788492 0.741947 0.220423
O O12 0.600171 0.232332 0.074413
O O13 0.673223 0.000000 0.999984
O O14 0.500000 0.233132 0.000000
O O15 0.897845 0.232339 0.925552
O O16 0.720487 0.808786 0.139760
O O17 0.890841 0.000000 0.162074
O O18 0.460915 0.000000 0.162050
#
# Coordination Sequence:
#
# PCOD8064327 Si02
#       7
#     4   4   4   4   4   4   4
#     4  11  24  38  52  76 111 147 182 221 266 317
#     4   9  19  37  60  84 108 136 175 222 269 319
#     4   9  19  37  60  84 108 136 175 222 269 319
#     4  11  24  38  52  76 111 147 182 221 266 317
#     4   9  17  31  54  83 112 141 174 216 268 321
#     4  10  20  35  57  83 109 139 179 225 269 316
#     4  10  20  35  57  83 109 139 179 225 269 316
#
# _framework density 19.081731000000001
#
# number of rings (size 3 to 8) (size 9 to 14) (size 15 to 20)
#    0.000    2.143    0.000    3.857    0.000   10.857 
#    0.000    5.000    0.000    4.286    0.000    0.000 
#    0.000    0.000    0.000    0.000    0.000    0.000 
#
# Total GULP energy -347309.130127 kJ/mol
# GULP energy per Si atom -12403.897505 kJ/mol
# Density = 1.903830 g / cm^3
# Si number density = 19.081731 Si / 1000 Ang^3
#
#
#
# Elastic Constant Matrix: (Units=GPa)
#
#
# Indices 1 2 3 4 5 6 
#
# 1 92.5700 45.0817 49.7371 0.0000 1.9013 0.0000
# 2 45.0817 59.1555 41.7499 0.0000 -0.2623 0.0000
# 3 49.7371 41.7499 115.4973 0.0000 -0.1607 0.0000
# 4 0.0000 0.0000 0.0000 -5.5899 0.0000 -2.6290
# 5 1.9013 -0.2623 -0.1607 0.0000 33.6868 0.0000
# 6 0.0000 0.0000 0.0000 -2.6290 0.0000 28.5263
#
#
#
# Elastic Compliance Matrix: (Units=1/GPa)
#
#
# Indices 1 2 3 4 5 6 
#
# 1 0.018399 -0.011322 -0.003832 0.000000 -0.001145 0.000000
# 2 -0.011322 0.029662 -0.005845 0.000000 0.000842 0.000000
# 3 -0.003832 -0.005845 0.012422 0.000000 0.000230 0.000000
# 4 0.000000 0.000000 0.000000 -0.171463 0.000000 -0.015802
# 5 -0.001145 0.000842 0.000230 0.000000 0.029758 0.000000
# 6 0.000000 0.000000 0.000000 -0.015802 0.000000 0.033599
#
#
# Mechanical properties :
#
#
# Convention : Reuss Voigt Hill
#
# Bulk Modulus (GPa) = 54.10177 60.04001 57.07089
# Shear Modulus (GPa) = 9312.35821 20.03493 4666.19657
#
# Velocity S-wave (km/s) = 69.93456 3.24381 49.50437
# Velocity P-wave (km/s) = 80.92921 6.75002 57.42430
#
# Compressibility (1/GPa) = 0.01848368
#
# Stress axis : x y z
#
# Youngs Moduli (GPa) = 54.35074 33.71282 80.50379
#
# Poissons Ratio (x) = 0.38170 0.30850
# Poissons Ratio (y) = 0.61537 0.47058
# Poissons Ratio (z) = 0.20828 0.19707
#
# Static dielectric constant tensor:
#      x y z
#    x 3.576190 0.000000 0.002300 
#    y 0.000000 3.269230 0.000000 
#    z 0.002300 0.000000 3.606360 
# 
# 
# High freq. dielectric constant tensor:
#      x y z
#    x 1.751460 0.000000 0.000510 
#    y 0.000000 1.717730 0.000000 
#    z 0.000510 0.000000 1.758080 
# 
# From -- ./inp_files/36958.got.cif
#   From: 2010.06.25/outbox.cif.g09.slc.cpg/sg10_19_cif.got.tgz:36958.got - 2010.06.27 22:07:45.
