data_PCOD8064538
_publ_section_title
;
Structure prediction by ZEFSAII (Michael W. Deem and Ramdas Pophale) SiO2 
 PCOD8064538
Probable space group: P 2/M
;
_chemical_formula_sum "Si O2"
_cell_formula_units_Z 28
_cell_length_a 25.674855
_cell_length_b 9.000486
_cell_length_c 20.037314
_cell_angle_alpha 90.000000
_cell_angle_beta 159.301239
_cell_angle_gamma 90.000000
_cell_volume 1636.617237
_symmetry_space_group_name_H-M "P 2/M"
_symmetry_group_IT_number 10
_symmetry_cell_setting 'monoclinic'
loop_
_space_group_symop_operation_xyz
x,y,z
-x,y,-z
-x,-y,-z
x,-y,z
loop_
_atom_site_type_symbol
_atom_site_label
_atom_site_fract_x
_atom_site_fract_y
_atom_site_fract_z
Si Si1 0.965435 0.324964 0.383630
Si Si2 0.065337 0.325312 0.008221
Si Si3 0.566953 0.176022 0.385605
Si Si4 0.180279 0.675506 0.391619
Si Si5 0.365730 0.175740 0.384524
Si Si6 0.939777 0.168734 0.625440
Si Si7 0.749334 0.831969 0.041891
O O1 0.978676 0.500000 0.390073
O O2 0.000000 0.274961 0.500000
O O3 0.082984 0.244109 0.475024
O O4 0.799357 0.270690 0.164732
O O5 0.092969 0.500000 0.042502
O O6 0.218840 0.245480 0.177936
O O7 0.000000 0.269115 0.000000
O O8 0.952926 0.276513 0.816050
O O9 0.669080 0.254605 0.454012
O O10 0.608867 0.232329 0.509607
O O11 0.399611 0.227226 0.170374
O O12 0.585594 0.000000 0.402272
O O13 0.198473 0.500000 0.416559
O O14 0.149750 0.737500 0.428228
O O15 0.500000 0.231524 0.500000
O O16 0.351014 0.000000 0.364310
O O17 0.880292 0.000000 0.553447
O O18 0.117119 0.172511 0.852771
O O19 0.726942 0.000000 0.041300
#
# Coordination Sequence:
#
# PCOD8064538 Si02
#       7
#     4   4   4   4   4   4   4
#     4   9  17  31  54  84 114 140 170 209 253 304
#     4  10  21  38  53  71 101 136 178 220 266 319
#     4  10  20  36  52  73 104 138 175 217 266 315
#     4  11  22  35  53  76 104 139 179 223 266 317
#     4  10  22  35  52  76 100 130 174 224 268 313
#     4   9  19  34  54  80 106 138 174 214 258 306
#     4   8  18  33  52  77 105 137 174 211 253 308
#
# _framework density 17.108460999999998
#
# number of rings (size 3 to 8) (size 9 to 14) (size 15 to 20)
#    0.857    1.571    1.429    0.857    2.000    3.429 
#    0.000    0.000    0.000    0.857    0.000    6.000 
#    0.000    0.000    0.000    0.000    0.000    0.000 
#
# Total GULP energy -347073.373805 kJ/mol
# GULP energy per Si atom -12395.477636 kJ/mol
# Density = 1.706952 g / cm^3
# Si number density = 17.108461 Si / 1000 Ang^3
#
#
#
# Elastic Constant Matrix: (Units=GPa)
#
#
# Indices 1 2 3 4 5 6 
#
# 1 113.4518 30.6552 22.2219 0.0000 3.0763 0.0000
# 2 30.6552 42.7096 19.0638 0.0000 -0.7356 0.0000
# 3 22.2219 19.0638 45.8176 0.0000 8.3704 0.0000
# 4 0.0000 0.0000 0.0000 22.5926 0.0000 0.0200
# 5 3.0763 -0.7356 8.3704 0.0000 28.4688 0.0000
# 6 0.0000 0.0000 0.0000 0.0200 0.0000 21.6241
#
#
#
# Elastic Compliance Matrix: (Units=1/GPa)
#
#
# Indices 1 2 3 4 5 6 
#
# 1 0.011186 -0.006969 -0.002401 0.000000 -0.000683 0.000000
# 2 -0.006969 0.033653 -0.011538 0.000000 0.005015 0.000000
# 3 -0.002401 -0.011538 0.029376 0.000000 -0.008676 0.000000
# 4 0.000000 0.000000 0.000000 0.044262 0.000000 -0.000041
# 5 -0.000683 0.005015 -0.008676 0.000000 0.037880 0.000000
# 6 0.000000 0.000000 0.000000 -0.000041 0.000000 0.046245
#
#
# Mechanical properties :
#
#
# Convention : Reuss Voigt Hill
#
# Bulk Modulus (GPa) = 30.86599 38.42899 34.64749
# Shear Modulus (GPa) = 19.59104 23.20631 21.39868
#
# Velocity S-wave (km/s) = 3.38762 3.68696 3.54045
# Velocity P-wave (km/s) = 5.77770 6.37461 6.08348
#
# Compressibility (1/GPa) = 0.03239812
#
# Stress axis : x y z
#
# Youngs Moduli (GPa) = 89.39606 29.71528 34.04131
#
# Poissons Ratio (x) = 0.20709 0.08173
# Poissons Ratio (y) = 0.62301 0.39278
# Poissons Ratio (z) = 0.21463 0.34287
#
# Static dielectric constant tensor:
#      x y z
#    x 3.111590 0.000000 0.005050 
#    y 0.000000 3.107450 0.000000 
#    z 0.005050 0.000000 3.078720 
# 
# 
# High freq. dielectric constant tensor:
#      x y z
#    x 1.653060 0.000000 0.003500 
#    y 0.000000 1.662830 0.000000 
#    z 0.003500 0.000000 1.642490 
# 
# From -- ./inp_files/86706.got.cif
#   From: 2010.06.25/outbox.cif.g09.slc.cpg/sg10_44_cif.got.tgz:86706.got - 2010.06.27 22:07:45.
