data_PCOD8064793
_publ_section_title
;
Structure prediction by ZEFSAII (Michael W. Deem and Ramdas Pophale) SiO2 
 PCOD8064793
Probable space group: P 2/M
;
_chemical_formula_sum "Si O2"
_cell_formula_units_Z 32
_cell_length_a 27.015243
_cell_length_b 8.954484
_cell_length_c 20.502258
_cell_angle_alpha 90.000000
_cell_angle_beta 19.648894
_cell_angle_gamma 90.000000
_cell_volume 1667.709325
_symmetry_space_group_name_H-M "P 2/M"
_symmetry_group_IT_number 10
_symmetry_cell_setting 'monoclinic'
loop_
_space_group_symop_operation_xyz
x,y,z
-x,y,-z
-x,-y,-z
x,-y,z
loop_
_atom_site_type_symbol
_atom_site_label
_atom_site_fract_x
_atom_site_fract_y
_atom_site_fract_z
Si Si1 0.192601 0.174071 0.882026
Si Si2 0.157089 0.171949 0.431948
Si Si3 0.844741 0.323261 0.819907
Si Si4 0.677237 0.828104 0.909599
Si Si5 0.925820 0.668546 0.162309
Si Si6 0.583107 0.331434 0.828666
Si Si7 0.328240 0.174657 0.851436
Si Si8 0.665152 0.825100 0.428449
O O1 0.281862 0.215441 0.835765
O O2 0.290818 0.228534 0.698952
O O3 0.160343 0.000000 0.917072
O O4 0.033571 0.253970 0.080776
O O5 0.226344 0.186757 0.274749
O O6 0.266994 0.237637 0.350105
O O7 0.011203 0.268588 0.614944
O O8 0.122803 0.000000 0.491520
O O9 0.841713 0.500000 0.816060
O O10 0.763238 0.250894 0.860319
O O11 0.766832 0.275388 0.982938
O O12 0.649890 0.000000 0.961875
O O13 0.519100 0.749364 0.097798
O O14 0.901156 0.500000 0.215463
O O15 0.766743 0.747280 0.357017
O O16 0.000000 0.682019 0.000000
O O17 0.618585 0.500000 0.761534
O O18 0.500000 0.334031 0.000000
O O19 0.497815 0.219916 0.649983
O O20 0.302374 0.000000 0.898504
O O21 0.689480 0.000000 0.404728
#
# Coordination Sequence:
#
# PCOD8064793 Si02
#       8
#     4   4   4   4   4   4   4   4
#     4   9  17  32  56  82 105 133 172 217 263 312
#     4  10  20  36  59  84 109 140 179 221 266 318
#     4  12  25  38  53  76 109 146 183 224 270 318
#     4  10  20  36  59  84 109 140 179 221 266 318
#     4   9  17  29  48  77 110 139 168 208 258 311
#     4   9  17  31  54  85 116 141 170 214 266 317
#     4  10  21  37  55  76 105 139 177 220 266 318
#     4   9  17  32  56  82 105 133 172 217 263 312
#
# _framework density 19.187996999999999
#
# number of rings (size 3 to 8) (size 9 to 14) (size 15 to 20)
#    0.000    2.250    0.000    3.375    0.000    8.500 
#    0.000    1.250    0.000    8.250    0.000    0.000 
#    0.000    0.000    0.000    0.000    0.000    0.000 
#
# Total GULP energy -396862.768309 kJ/mol
# GULP energy per Si atom -12401.961510 kJ/mol
# Density = 1.914432 g / cm^3
# Si number density = 19.187997 Si / 1000 Ang^3
#
#
#
# Elastic Constant Matrix: (Units=GPa)
#
#
# Indices 1 2 3 4 5 6 
#
# 1 38.2241 22.9493 25.6175 0.0000 -16.3367 0.0000
# 2 22.9493 88.4011 29.6405 0.0000 -2.4111 0.0000
# 3 25.6175 29.6405 101.6095 0.0000 -23.3112 0.0000
# 4 0.0000 0.0000 0.0000 25.2871 0.0000 -3.3777
# 5 -16.3367 -2.4111 -23.3112 0.0000 27.3168 0.0000
# 6 0.0000 0.0000 0.0000 -3.3777 0.0000 23.7770
#
#
#
# Elastic Compliance Matrix: (Units=1/GPa)
#
#
# Indices 1 2 3 4 5 6 
#
# 1 0.043719 -0.009736 -0.002960 0.000000 0.022760 0.000000
# 2 -0.009736 0.014846 -0.003620 0.000000 -0.007602 0.000000
# 3 -0.002960 -0.003620 0.013882 0.000000 0.009757 0.000000
# 4 0.000000 0.000000 0.000000 0.040311 0.000000 0.005726
# 5 0.022760 -0.007602 0.009757 0.000000 0.057874 0.000000
# 6 0.000000 0.000000 0.000000 0.005726 0.000000 0.042871
#
#
# Mechanical properties :
#
#
# Convention : Reuss Voigt Hill
#
# Bulk Modulus (GPa) = 25.11697 42.73882 33.92790
# Shear Modulus (GPa) = 19.27469 25.27800 22.27634
#
# Velocity S-wave (km/s) = 3.17285 3.63352 3.41097
# Velocity P-wave (km/s) = 5.15180 6.31865 5.76482
#
# Compressibility (1/GPa) = 0.03981371
#
# Stress axis : x y z
#
# Youngs Moduli (GPa) = 22.87354 67.35780 72.03384
#
# Poissons Ratio (x) = 0.65581 0.21326
# Poissons Ratio (y) = 0.22270 0.26076
# Poissons Ratio (z) = 0.06772 0.24384
#
# Static dielectric constant tensor:
#      x y z
#    x 3.461230 0.000000 -0.259560 
#    y 0.000000 3.614000 0.000000 
#    z -0.259560 0.000000 3.515840 
# 
# 
# High freq. dielectric constant tensor:
#      x y z
#    x 1.737830 0.000000 -0.027810 
#    y 0.000000 1.750800 0.000000 
#    z -0.027810 0.000000 1.739410 
# 
# From -- ./inp_files/86782.got.cif
#   From: 2010.06.25/outbox.cif.g09.slc.cpg/sg10_44_cif.got.tgz:86782.got - 2010.06.27 22:07:45.
