data_PCOD8064870
_publ_section_title
;
Structure prediction by ZEFSAII (Michael W. Deem and Ramdas Pophale) SiO2 
 PCOD8064870
Probable space group: P 2/M
;
_chemical_formula_sum "Si O2"
_cell_formula_units_Z 32
_cell_length_a 11.762832
_cell_length_b 8.673010
_cell_length_c 15.239691
_cell_angle_alpha 90.000000
_cell_angle_beta 92.828151
_cell_angle_gamma 90.000000
_cell_volume 1552.846818
_symmetry_space_group_name_H-M "P 2/M"
_symmetry_group_IT_number 10
_symmetry_cell_setting 'monoclinic'
loop_
_space_group_symop_operation_xyz
x,y,z
-x,y,-z
-x,-y,-z
x,-y,z
loop_
_atom_site_type_symbol
_atom_site_label
_atom_site_fract_x
_atom_site_fract_y
_atom_site_fract_z
Si Si1 0.486860 0.681906 0.402099
Si Si2 0.262834 0.822769 0.836127
Si Si3 0.752941 0.682268 0.678158
Si Si4 0.127290 0.181567 0.479672
Si Si5 0.502741 0.320858 0.102277
Si Si6 0.126771 0.681791 0.981233
Si Si7 0.727386 0.180738 0.858475
Si Si8 0.711923 0.176739 0.358011
O O1 0.500000 0.752813 0.500000
O O2 0.480258 0.500000 0.406646
O O3 0.370942 0.745248 0.355480
O O4 0.593963 0.730879 0.347997
O O5 0.375182 0.723598 0.856147
O O6 0.225239 0.804200 0.733172
O O7 0.288479 0.000000 0.860864
O O8 0.159327 0.761294 0.890820
O O9 0.754980 0.500000 0.692466
O O10 0.843739 0.728865 0.608095
O O11 0.785827 0.764879 0.770329
O O12 0.207831 0.241352 0.561724
O O13 0.000000 0.226458 0.500000
O O14 0.140848 0.000000 0.464671
O O15 0.479450 0.500000 0.120053
O O16 0.405978 0.223601 0.148269
O O17 0.500000 0.281351 0.000000
O O18 0.134307 0.500000 0.969011
O O19 0.214312 0.731004 0.059295
O O20 0.000000 0.736535 0.000000
O O21 0.744551 0.000000 0.871759
O O22 0.682049 0.000000 0.375505
#
# Coordination Sequence:
#
# PCOD8064870 Si02
#       8
#     4   4   4   4   4   4   4   4
#     4  10  20  36  59  89 122 158 197 243 301 364
#     4  11  23  39  62  93 126 162 206 252 307 370
#     4  11  23  40  63  91 125 160 202 252 305 367
#     4  10  22  41  62  86 120 162 207 254 303 356
#     4  11  22  38  63  92 126 163 200 249 310 369
#     4  11  25  45  66  90 122 161 208 258 307 361
#     4  12  25  41  65  94 126 162 204 252 308 372
#     4  10  22  38  59  89 122 157 198 247 299 358
#
# _framework density 20.607312
#
# number of rings (size 3 to 8) (size 9 to 14) (size 15 to 20)
#    0.000    1.250    2.500    3.375    0.000    7.000 
#    0.000    1.250    0.000    0.000    0.000    0.000 
#    0.000    0.000    0.000    0.000    0.000    0.000 
#
# Total GULP energy -396995.147344 kJ/mol
# GULP energy per Si atom -12406.098354 kJ/mol
# Density = 2.056041 g / cm^3
# Si number density = 20.607312 Si / 1000 Ang^3
#
#
#
# Elastic Constant Matrix: (Units=GPa)
#
#
# Indices 1 2 3 4 5 6 
#
# 1 91.1727 10.9474 20.1042 0.0000 -22.6203 0.0000
# 2 10.9474 37.5715 25.9015 0.0000 -5.2615 0.0000
# 3 20.1042 25.9015 109.0991 0.0000 -27.4018 0.0000
# 4 0.0000 0.0000 0.0000 27.3420 0.0000 -11.3834
# 5 -22.6203 -5.2615 -27.4018 0.0000 24.8790 0.0000
# 6 0.0000 0.0000 0.0000 -11.3834 0.0000 26.8114
#
#
#
# Elastic Compliance Matrix: (Units=1/GPa)
#
#
# Indices 1 2 3 4 5 6 
#
# 1 0.014584 -0.003439 0.001765 0.000000 0.014476 0.000000
# 2 -0.003439 0.032723 -0.008547 0.000000 -0.005619 0.000000
# 3 0.001765 -0.008547 0.014956 0.000000 0.016270 0.000000
# 4 0.000000 0.000000 0.000000 0.044427 0.000000 0.018862
# 5 0.014476 -0.005619 0.016270 0.000000 0.070088 0.000000
# 6 0.000000 0.000000 0.000000 0.018862 0.000000 0.045306
#
#
# Mechanical properties :
#
#
# Convention : Reuss Voigt Hill
#
# Bulk Modulus (GPa) = 23.91090 39.08328 31.49709
# Shear Modulus (GPa) = 19.49583 27.86581 23.68082
#
# Velocity S-wave (km/s) = 3.07915 3.68126 3.39358
# Velocity P-wave (km/s) = 4.92645 6.08899 5.53830
#
# Compressibility (1/GPa) = 0.04182192
#
# Stress axis : x y z
#
# Youngs Moduli (GPa) = 68.57055 30.55961 66.86152
#
# Poissons Ratio (x) = 0.10509 -0.11801
# Poissons Ratio (y) = 0.23580 0.57144
# Poissons Ratio (z) = -0.12102 0.26118
#
# Static dielectric constant tensor:
#      x y z
#    x 3.690950 0.000000 -0.048720 
#    y 0.000000 3.631600 0.000000 
#    z -0.048720 0.000000 4.006430 
# 
# 
# High freq. dielectric constant tensor:
#      x y z
#    x 1.797820 0.000000 -0.006990 
#    y 0.000000 1.803940 0.000000 
#    z -0.006990 0.000000 1.822370 
# 
# From -- ./inp_files/63788.got.cif
#   From: 2010.06.25/outbox.cif.g09.slc.cpg/sg10_32_cif.got.tgz:63788.got - 2010.06.27 22:07:45.
