data_PCOD8064394
_publ_section_title
;
Structure prediction by ZEFSAII (Michael W. Deem and Ramdas Pophale) SiO2 
 PCOD8064394
Probable space group: P 2/M
;
_chemical_formula_sum "Si O2"
_cell_formula_units_Z 28
_cell_length_a 7.754280
_cell_length_b 14.064926
_cell_length_c 17.863400
_cell_angle_alpha 90.000000
_cell_angle_beta 127.465070
_cell_angle_gamma 90.000000
_cell_volume 1546.367598
_symmetry_space_group_name_H-M "P 2/M"
_symmetry_group_IT_number 10
_symmetry_cell_setting 'monoclinic'
loop_
_space_group_symop_operation_xyz
x,y,z
-x,y,-z
-x,-y,-z
x,-y,z
loop_
_atom_site_type_symbol
_atom_site_label
_atom_site_fract_x
_atom_site_fract_y
_atom_site_fract_z
Si Si1 0.159384 0.112584 0.201517
Si Si2 0.311989 0.393467 0.139010
Si Si3 0.701479 0.887547 0.599837
Si Si4 0.529240 0.791975 0.220670
Si Si5 0.901605 0.110098 0.393621
Si Si6 0.836386 0.392668 0.066884
Si Si7 0.299659 0.206423 0.897154
O O1 0.285162 0.145609 0.310554
O O2 0.295934 0.155687 0.168216
O O3 0.914694 0.150652 0.134139
O O4 0.150412 0.000000 0.192337
O O5 0.404875 0.500000 0.170013
O O6 0.492874 0.321232 0.217538
O O7 0.096017 0.383682 0.131891
O O8 0.261553 0.366968 0.039886
O O9 0.500000 0.841932 0.500000
O O10 0.925040 0.855102 0.621245
O O11 0.678602 0.000000 0.589345
O O12 0.686844 0.826651 0.328393
O O13 0.641370 0.818986 0.172142
O O14 0.000000 0.128979 0.500000
O O15 0.835978 0.000000 0.365886
O O16 0.770740 0.500000 0.073211
O O17 0.739249 0.319878 0.101971
O O18 0.500000 0.170582 0.000000
#
# Coordination Sequence:
#
# PCOD8064394 Si02
#       7
#     4   4   4   4   4   4   4
#     4  11  24  40  55  77 115 157 197 239 285 337
#     4   9  18  34  60  86 112 146 186 235 292 349
#     4   9  17  33  56  80 108 141 182 238 293 332
#     4  12  22  36  61  85 116 148 193 241 291 339
#     4  10  20  35  57  87 115 145 193 242 285 338
#     4   9  18  36  59  84 113 145 186 240 294 339
#     4  12  24  37  58  83 115 154 197 239 279 348
#
# _framework density 18.106949
#
# number of rings (size 3 to 8) (size 9 to 14) (size 15 to 20)
#    0.000    1.714    4.286    2.143    0.000    4.571 
#    0.000    0.714    0.000    0.429    0.000    0.000 
#    0.000    5.143    0.000    0.000    0.000    0.000 
#
# Total GULP energy -347187.370149 kJ/mol
# GULP energy per Si atom -12399.548934 kJ/mol
# Density = 1.806574 g / cm^3
# Si number density = 18.106949 Si / 1000 Ang^3
#
#
#
# Elastic Constant Matrix: (Units=GPa)
#
#
# Indices 1 2 3 4 5 6 
#
# 1 107.7046 39.6573 49.1816 0.0000 -1.8265 0.0000
# 2 39.6573 93.8398 54.7350 0.0000 6.1496 0.0000
# 3 49.1816 54.7350 62.8994 0.0000 30.7120 0.0000
# 4 0.0000 0.0000 0.0000 20.1288 0.0000 6.6291
# 5 -1.8265 6.1496 30.7120 0.0000 22.4178 0.0000
# 6 0.0000 0.0000 0.0000 6.6291 0.0000 28.3976
#
#
#
# Elastic Compliance Matrix: (Units=1/GPa)
#
#
# Indices 1 2 3 4 5 6 
#
# 1 0.002018 -0.013932 0.025973 0.000000 -0.031597 0.000000
# 2 -0.013932 0.003860 0.025994 0.000000 -0.037805 0.000000
# 3 0.025973 0.025994 -0.074249 0.000000 0.096705 0.000000
# 4 0.000000 0.000000 0.000000 0.053818 0.000000 -0.012563
# 5 -0.031597 -0.037805 0.096705 0.000000 -0.080081 0.000000
# 6 0.000000 0.000000 0.000000 -0.012563 0.000000 0.038147
#
#
# Mechanical properties :
#
#
# Convention : Reuss Voigt Hill
#
# Bulk Modulus (GPa) = 129.86872 61.28794 95.57833
# Shear Modulus (GPa) = -38.46461 22.24682 -8.10890
#
# Velocity S-wave (km/s) = -4.61401 3.50899 -2.11850
# Velocity P-wave (km/s) = 6.59495 7.09497 6.84952
#
# Compressibility (1/GPa) = 0.00770008
#
# Stress axis : x y z
#
# Youngs Moduli (GPa) = 495.43344 259.07197 -13.46828
#
# Poissons Ratio (x) = 3.60941 0.34981
# Poissons Ratio (y) = 6.90242 0.35009
# Poissons Ratio (z) = -12.86801 -6.73431
#
# Static dielectric constant tensor:
#      x y z
#    x 3.584790 0.000000 0.060460 
#    y 0.000000 3.206510 0.000000 
#    z 0.060460 0.000000 3.238940 
# 
# 
# High freq. dielectric constant tensor:
#      x y z
#    x 1.722780 0.000000 0.009030 
#    y 0.000000 1.676940 0.000000 
#    z 0.009030 0.000000 1.680710 
# 
# From -- ./inp_files/75330.got.cif
#   From: 2010.06.25/outbox.cif.g09.slc.cpg/sg10_38_cif.got.tgz:75330.got - 2010.06.27 22:07:45.
