data_PCOD8064221
_publ_section_title
;
Structure prediction by ZEFSAII (Michael W. Deem and Ramdas Pophale) SiO2 
 PCOD8064221
Probable space group: P 2/M
;
_chemical_formula_sum "Si O2"
_cell_formula_units_Z 24
_cell_length_a 8.989947
_cell_length_b 10.878124
_cell_length_c 25.848949
_cell_angle_alpha 90.000000
_cell_angle_beta 151.345848
_cell_angle_gamma 90.000000
_cell_volume 1212.165914
_symmetry_space_group_name_H-M "P 2/M"
_symmetry_group_IT_number 10
_symmetry_cell_setting 'monoclinic'
loop_
_space_group_symop_operation_xyz
x,y,z
-x,y,-z
-x,-y,-z
x,-y,z
loop_
_atom_site_type_symbol
_atom_site_label
_atom_site_fract_x
_atom_site_fract_y
_atom_site_fract_z
Si Si1 0.716526 0.500000 0.852227
Si Si2 0.836590 0.355857 0.622528
Si Si3 0.111433 0.139667 0.163190
Si Si4 0.560157 0.500000 0.924545
Si Si5 0.375692 0.138403 0.074842
Si Si6 0.110702 0.279895 0.808688
Si Si7 0.551434 0.744979 0.231161
O O1 0.562213 0.500000 0.862913
O O2 0.582088 0.620609 0.784407
O O3 0.080379 0.500000 0.951599
O O4 0.500000 0.317458 0.500000
O O5 0.903972 0.500000 0.633142
O O6 0.856319 0.326279 0.689615
O O7 0.082068 0.269370 0.666960
O O8 0.462496 0.152493 0.247040
O O9 0.060795 0.244583 0.190862
O O10 0.064021 0.000000 0.169004
O O11 0.878368 0.172163 0.045417
O O12 0.384055 0.382225 0.895287
O O13 0.718902 0.153485 0.155647
O O14 0.357640 0.227911 0.119018
O O15 0.332472 0.000000 0.081722
#
# Coordination Sequence:
#
# PCOD8064221 Si02
#       7
#     2   4   4   2   4   4   4
#     4  11  20  33  56  87 119 148 186 236 293 335
#     4  10  20  40  66  86 109 144 193 246 298 352
#     4  11  24  37  56  86 122 162 195 230 278 340
#     4  11  20  33  54  84 119 152 183 227 290 349
#     4  10  20  35  56  80 115 165 206 228 263 333
#     4  11  20  38  56  84 122 152 189 237 287 342
#     4  11  20  37  58  86 119 150 196 244 284 340
#
# _framework density 19.799271000000001
#
# number of rings (size 3 to 8) (size 9 to 14) (size 15 to 20)
#    0.000    1.333    5.000    3.000    2.333    3.333 
#    0.000    4.167    0.000   21.000    0.000    0.000 
#    0.000    0.000    0.000    0.000    0.000    0.000 
#
# Total GULP energy -297346.948561 kJ/mol
# GULP energy per Si atom -12389.456190 kJ/mol
# Density = 1.975421 g / cm^3
# Si number density = 19.799271 Si / 1000 Ang^3
#
#
#
# Elastic Constant Matrix: (Units=GPa)
#
#
# Indices 1 2 3 4 5 6 
#
# 1 126.5330 43.0371 45.4127 0.0000 11.5261 0.0000
# 2 43.0371 86.2656 37.8412 0.0000 3.2623 0.0000
# 3 45.4127 37.8412 97.2972 0.0000 18.9344 0.0000
# 4 0.0000 0.0000 0.0000 20.1092 0.0000 2.0261
# 5 11.5261 3.2623 18.9344 0.0000 12.2490 0.0000
# 6 0.0000 0.0000 0.0000 2.0261 0.0000 31.0983
#
#
#
# Elastic Compliance Matrix: (Units=1/GPa)
#
#
# Indices 1 2 3 4 5 6 
#
# 1 0.010607 -0.004064 -0.002343 0.000000 -0.005277 0.000000
# 2 -0.004064 0.015929 -0.006031 0.000000 0.008905 0.000000
# 3 -0.002343 -0.006031 0.018558 0.000000 -0.024875 0.000000
# 4 0.000000 0.000000 0.000000 0.050057 0.000000 -0.003261
# 5 -0.005277 0.008905 -0.024875 0.000000 0.122685 0.000000
# 6 0.000000 0.000000 0.000000 -0.003261 0.000000 0.032369
#
#
# Mechanical properties :
#
#
# Convention : Reuss Voigt Hill
#
# Bulk Modulus (GPa) = 49.46433 62.51976 55.99205
# Shear Modulus (GPa) = 17.74182 24.94496 21.34339
#
# Velocity S-wave (km/s) = 2.99671 3.55335 3.28684
# Velocity P-wave (km/s) = 6.08366 6.96279 6.53801
#
# Compressibility (1/GPa) = 0.02021659
#
# Stress axis : x y z
#
# Youngs Moduli (GPa) = 94.27647 62.78036 53.88546
#
# Poissons Ratio (x) = 0.25516 0.12626
# Poissons Ratio (y) = 0.38317 0.32498
# Poissons Ratio (z) = 0.22091 0.37862
#
# Static dielectric constant tensor:
#      x y z
#    x 3.630980 0.000000 0.148600 
#    y 0.000000 3.719550 0.000000 
#    z 0.148600 0.000000 3.234970 
# 
# 
# High freq. dielectric constant tensor:
#      x y z
#    x 1.775070 0.000000 0.015930 
#    y 0.000000 1.783160 0.000000 
#    z 0.015930 0.000000 1.718090 
# 
# From -- ./inp_files/88138.got.cif
#   From: 2010.06.25/outbox.cif.g09.slc.cpg/sg10_45_cif.got.tgz:88138.got - 2010.06.27 22:07:45.
