data_PCOD8064210
_publ_section_title
;
Structure prediction by ZEFSAII (Michael W. Deem and Ramdas Pophale) SiO2 
 PCOD8064210
Probable space group: P 2/M
;
_chemical_formula_sum "Si O2"
_cell_formula_units_Z 28
_cell_length_a 9.398578
_cell_length_b 8.932481
_cell_length_c 24.501219
_cell_angle_alpha 90.000000
_cell_angle_beta 134.440176
_cell_angle_gamma 90.000000
_cell_volume 1468.619005
_symmetry_space_group_name_H-M "P 2/M"
_symmetry_group_IT_number 10
_symmetry_cell_setting 'monoclinic'
loop_
_space_group_symop_operation_xyz
x,y,z
-x,y,-z
-x,-y,-z
x,-y,z
loop_
_atom_site_type_symbol
_atom_site_label
_atom_site_fract_x
_atom_site_fract_y
_atom_site_fract_z
Si Si1 0.764261 0.672071 0.280835
Si Si2 0.194888 0.324428 0.582998
Si Si3 0.411094 0.164991 0.324876
Si Si4 0.998175 0.328503 0.062817
Si Si5 0.616709 0.836277 0.809249
Si Si6 0.273484 0.176013 0.927664
Si Si7 0.003484 0.674511 0.763683
O O1 0.695056 0.500000 0.260429
O O2 0.833150 0.715341 0.360432
O O3 0.577425 0.773316 0.212151
O O4 0.937958 0.701894 0.283676
O O5 0.219086 0.500000 0.581032
O O6 0.387362 0.252196 0.604772
O O7 0.000000 0.262428 0.500000
O O8 0.429790 0.143934 0.265955
O O9 0.212199 0.253150 0.287221
O O10 0.405290 0.000000 0.350985
O O11 0.948836 0.500000 0.064023
O O12 0.214461 0.288033 0.142474
O O13 0.838732 0.219718 0.047199
O O14 0.000000 0.295972 0.000000
O O15 0.673993 0.000000 0.849577
O O16 0.172062 0.257227 0.848805
O O17 0.255721 0.000000 0.912470
O O18 0.500000 0.226286 0.000000
O O19 0.987760 0.500000 0.773724
#
# Coordination Sequence:
#
# PCOD8064210 Si02
#       7
#     4   4   4   4   4   4   4
#     4   9  20  36  56  85 115 145 189 234 280 336
#     4   9  18  36  62  88 116 150 188 232 280 336
#     4  10  20  35  57  84 113 147 187 231 279 339
#     4  11  24  39  57  81 109 144 189 237 285 338
#     4  10  20  35  56  80 107 144 187 233 283 334
#     4  11  25  42  58  81 113 151 192 239 293 345
#     4  11  22  37  59  83 113 152 191 238 286 339
#
# _framework density 19.065531
#
# number of rings (size 3 to 8) (size 9 to 14) (size 15 to 20)
#    0.000    1.857    1.429    2.143    2.000    4.857 
#    0.000    0.714    0.000    4.286    0.000    0.000 
#    0.000    0.000    0.000    0.000    0.000    0.000 
#
# Total GULP energy -347114.347183 kJ/mol
# GULP energy per Si atom -12396.940971 kJ/mol
# Density = 1.902214 g / cm^3
# Si number density = 19.065531 Si / 1000 Ang^3
#
#
#
# Elastic Constant Matrix: (Units=GPa)
#
#
# Indices 1 2 3 4 5 6 
#
# 1 114.2225 53.1516 58.0530 0.0000 19.6500 0.0000
# 2 53.1516 87.6824 51.9532 0.0000 12.1815 0.0000
# 3 58.0530 51.9532 119.2345 0.0000 29.6756 0.0000
# 4 0.0000 0.0000 0.0000 25.3389 0.0000 6.8147
# 5 19.6500 12.1815 29.6756 0.0000 29.0959 0.0000
# 6 0.0000 0.0000 0.0000 6.8147 0.0000 26.2783
#
#
#
# Elastic Compliance Matrix: (Units=1/GPa)
#
#
# Indices 1 2 3 4 5 6 
#
# 1 0.013770 -0.005937 -0.003245 0.000000 -0.003504 0.000000
# 2 -0.005937 0.017940 -0.005434 0.000000 0.002041 0.000000
# 3 -0.003245 -0.005434 0.015041 0.000000 -0.010874 0.000000
# 4 0.000000 0.000000 0.000000 0.042424 0.000000 -0.011002
# 5 -0.003504 0.002041 -0.010874 0.000000 0.046971 0.000000
# 6 0.000000 0.000000 0.000000 -0.011002 0.000000 0.040907
#
#
# Mechanical properties :
#
#
# Convention : Reuss Voigt Hill
#
# Bulk Modulus (GPa) = 57.08584 71.93945 64.51264
# Shear Modulus (GPa) = 23.57087 26.67473 25.12280
#
# Velocity S-wave (km/s) = 3.51993 3.74452 3.63396
# Velocity P-wave (km/s) = 6.82106 7.51731 7.17763
#
# Compressibility (1/GPa) = 0.01751748
#
# Stress axis : x y z
#
# Youngs Moduli (GPa) = 72.62247 55.74064 66.48514
#
# Poissons Ratio (x) = 0.33096 0.21575
# Poissons Ratio (y) = 0.43119 0.36129
# Poissons Ratio (z) = 0.23567 0.30291
#
# Static dielectric constant tensor:
#      x y z
#    x 3.514590 0.000000 0.092150 
#    y 0.000000 3.801580 0.000000 
#    z 0.092150 0.000000 3.438230 
# 
# 
# High freq. dielectric constant tensor:
#      x y z
#    x 1.740860 0.000000 0.012360 
#    y 0.000000 1.753510 0.000000 
#    z 0.012360 0.000000 1.727660 
# 
# From -- ./inp_files/85666.got.cif
#   From: 2010.06.25/outbox.cif.g09.slc.cpg/sg10_43_cif.got.tgz:85666.got - 2010.06.27 22:07:45.
