data_PCOD8064365
_publ_section_title
;
Structure prediction by ZEFSAII (Michael W. Deem and Ramdas Pophale) SiO2 
 PCOD8064365
Probable space group: P 2/M
;
_chemical_formula_sum "Si O2"
_cell_formula_units_Z 32
_cell_length_a 9.454332
_cell_length_b 12.605766
_cell_length_c 32.404627
_cell_angle_alpha 90.000000
_cell_angle_beta 27.830845
_cell_angle_gamma 90.000000
_cell_volume 1803.002681
_symmetry_space_group_name_H-M "P 2/M"
_symmetry_group_IT_number 10
_symmetry_cell_setting 'monoclinic'
loop_
_space_group_symop_operation_xyz
x,y,z
-x,y,-z
-x,-y,-z
x,-y,z
loop_
_atom_site_type_symbol
_atom_site_label
_atom_site_fract_x
_atom_site_fract_y
_atom_site_fract_z
Si Si1 0.156343 0.377355 0.501591
Si Si2 0.146957 0.624239 0.171649
Si Si3 0.338468 0.881547 0.395953
Si Si4 0.185993 0.375508 0.828519
Si Si5 0.827850 0.121697 0.394894
Si Si6 0.842881 0.625169 0.998971
Si Si7 0.253115 0.243317 0.340020
Si Si8 0.744510 0.258821 0.341238
O O1 0.089135 0.500000 0.522499
O O2 0.513829 0.355534 0.409003
O O3 0.000000 0.332180 0.500000
O O4 0.012303 0.324005 0.578827
O O5 0.105473 0.500000 0.193435
O O6 0.495181 0.660059 0.084228
O O7 0.015355 0.647477 0.160126
O O8 0.988691 0.697983 0.246278
O O9 0.410983 0.804408 0.339502
O O10 0.561045 0.844941 0.374418
O O11 0.000000 0.874245 0.500000
O O12 0.421628 0.000000 0.361363
O O13 0.266906 0.500000 0.809834
O O14 0.494258 0.308192 0.749930
O O15 0.009735 0.335644 0.914537
O O16 0.500000 0.139006 0.500000
O O17 0.896188 0.212706 0.343290
O O18 0.099829 0.144045 0.356514
O O19 0.858013 0.000000 0.371403
O O20 0.864392 0.500000 0.995678
O O21 0.000000 0.673261 0.000000
#
# Coordination Sequence:
#
# PCOD8064365 Si02
#       8
#     4   4   4   4   4   4   4   4
#     4  11  20  33  52  79 115 149 181 217 266 327
#     4  10  20  35  57  84 116 149 182 223 272 330
#     4  11  20  34  56  79 106 141 193 242 273 313
#     4  10  20  35  57  84 116 149 182 223 272 330
#     4  11  24  40  56  75 110 151 191 242 287 323
#     4   9  19  35  55  83 114 147 186 225 264 319
#     4  12  20  36  53  82 108 148 186 227 278 331
#     4  12  20  36  53  82 108 148 186 227 278 331
#
# _framework density 17.748170999999999
#
# number of rings (size 3 to 8) (size 9 to 14) (size 15 to 20)
#    0.000    1.250    5.000    1.875    1.750    5.500 
#    0.000    2.500    0.000    0.000    0.000    5.250 
#    0.000    0.000    0.000    0.000    0.000    0.000 
#
# Total GULP energy -396739.750630 kJ/mol
# GULP energy per Si atom -12398.117207 kJ/mol
# Density = 1.770778 g / cm^3
# Si number density = 17.748171 Si / 1000 Ang^3
#
#
#
# Elastic Constant Matrix: (Units=GPa)
#
#
# Indices 1 2 3 4 5 6 
#
# 1 71.3157 16.3370 32.5534 0.0000 3.5063 0.0000
# 2 16.3370 63.8585 31.9839 0.0000 4.5511 0.0000
# 3 32.5534 31.9839 124.3782 0.0000 5.4625 0.0000
# 4 0.0000 0.0000 0.0000 18.0241 0.0000 -1.7767
# 5 3.5063 4.5511 5.4625 0.0000 30.1306 0.0000
# 6 0.0000 0.0000 0.0000 -1.7767 0.0000 44.2586
#
#
#
# Elastic Compliance Matrix: (Units=1/GPa)
#
#
# Indices 1 2 3 4 5 6 
#
# 1 0.016243 -0.002275 -0.003627 0.000000 -0.000889 0.000000
# 2 -0.002275 0.018401 -0.004058 0.000000 -0.001779 0.000000
# 3 -0.003627 -0.004058 0.010068 0.000000 -0.000790 0.000000
# 4 0.000000 0.000000 0.000000 0.055702 0.000000 0.002236
# 5 -0.000889 -0.001779 -0.000790 0.000000 0.033704 0.000000
# 6 0.000000 0.000000 0.000000 0.002236 0.000000 0.022684
#
#
# Mechanical properties :
#
#
# Convention : Reuss Voigt Hill
#
# Bulk Modulus (GPa) = 40.33868 46.81122 43.57495
# Shear Modulus (GPa) = 27.02906 30.39454 28.71180
#
# Velocity S-wave (km/s) = 3.90670 4.14278 4.02647
# Velocity P-wave (km/s) = 6.56714 7.02254 6.79865
#
# Compressibility (1/GPa) = 0.02479011
#
# Stress axis : x y z
#
# Youngs Moduli (GPa) = 61.56599 54.34464 99.32898
#
# Poissons Ratio (x) = 0.12366 0.36027
# Poissons Ratio (y) = 0.14009 0.40309
# Poissons Ratio (z) = 0.22330 0.22054
#
# Static dielectric constant tensor:
#      x y z
#    x 3.254560 0.000000 0.099560 
#    y 0.000000 3.138990 0.000000 
#    z 0.099560 0.000000 3.179240 
# 
# 
# High freq. dielectric constant tensor:
#      x y z
#    x 1.693880 0.000000 0.002960 
#    y 0.000000 1.671140 0.000000 
#    z 0.002960 0.000000 1.673550 
# 
# From -- ./inp_files/70787.got.cif
#   From: 2010.06.25/outbox.cif.g09.slc.cpg/sg10_36_cif.got.tgz:70787.got - 2010.06.27 22:07:45.
