data_PCOD8064057
_publ_section_title
;
Structure prediction by ZEFSAII (Michael W. Deem and Ramdas Pophale) SiO2 
 PCOD8064057
Probable space group: P 2/M
;
_chemical_formula_sum "Si O2"
_cell_formula_units_Z 32
_cell_length_a 14.190697
_cell_length_b 8.977355
_cell_length_c 20.740156
_cell_angle_alpha 90.000000
_cell_angle_beta 42.991327
_cell_angle_gamma 90.000000
_cell_volume 1801.677135
_symmetry_space_group_name_H-M "P 2/M"
_symmetry_group_IT_number 10
_symmetry_cell_setting 'monoclinic'
loop_
_space_group_symop_operation_xyz
x,y,z
-x,y,-z
-x,-y,-z
x,-y,z
loop_
_atom_site_type_symbol
_atom_site_label
_atom_site_fract_x
_atom_site_fract_y
_atom_site_fract_z
Si Si1 0.159546 0.174600 0.654479
Si Si2 0.569493 0.175348 0.281333
Si Si3 0.144497 0.174247 0.805216
Si Si4 0.842473 0.173373 0.963068
Si Si5 0.845830 0.169860 0.810539
Si Si6 0.414611 0.323991 0.103540
Si Si7 0.579379 0.676136 0.145736
Si Si8 0.419089 0.675291 0.475638
O O1 0.177925 0.239849 0.717756
O O2 0.261503 0.268329 0.558216
O O3 0.002490 0.203973 0.710264
O O4 0.197087 0.000000 0.631248
O O5 0.732844 0.212693 0.207158
O O6 0.518655 0.249474 0.240651
O O7 0.487347 0.243238 0.381548
O O8 0.542763 0.000000 0.292746
O O9 0.996479 0.228945 0.906746
O O10 0.126044 0.000000 0.802045
O O11 0.825006 0.204697 0.896159
O O12 0.817749 0.000000 0.992431
O O13 0.736029 0.272127 0.056197
O O14 0.743270 0.270129 0.819697
O O15 0.808323 0.000000 0.814919
O O16 0.416234 0.500000 0.100242
O O17 0.484674 0.267007 0.134242
O O18 0.500000 0.258224 0.000000
O O19 0.575576 0.500000 0.155389
O O20 0.500000 0.721161 0.500000
O O21 0.422637 0.500000 0.461904
#
# Coordination Sequence:
#
# PCOD8064057 Si02
#       8
#     4   4   4   4   4   4   4   4
#     4   9  17  33  55  81 109 138 175 219 267 313
#     4  11  22  37  57  77 103 145 186 222 265 316
#     4   8  16  31  52  76 104 139 180 217 254 309
#     4   9  17  32  52  76 105 140 180 218 259 311
#     4   9  18  31  54  84 109 133 174 229 267 304
#     4  10  20  35  54  76 106 145 181 215 269 329
#     4  11  23  37  51  74 110 145 179 224 269 319
#     4  11  22  35  54  83 113 141 176 220 265 312
#
# _framework density 17.761227999999999
#
# number of rings (size 3 to 8) (size 9 to 14) (size 15 to 20)
#    0.000    2.250    2.500    2.625    0.000    2.750 
#    0.000    5.625    0.000    0.750    0.000    5.250 
#    0.000    0.000    0.000    0.000    0.000    0.000 
#
# Total GULP energy -396785.528402 kJ/mol
# GULP energy per Si atom -12399.547763 kJ/mol
# Density = 1.772080 g / cm^3
# Si number density = 17.761228 Si / 1000 Ang^3
#
#
#
# Elastic Constant Matrix: (Units=GPa)
#
#
# Indices 1 2 3 4 5 6 
#
# 1 101.4922 42.0916 55.3825 0.0000 7.5324 0.0000
# 2 42.0916 56.5523 43.8210 0.0000 5.3363 0.0000
# 3 55.3825 43.8210 101.7839 0.0000 5.2107 0.0000
# 4 0.0000 0.0000 0.0000 24.1998 0.0000 6.1059
# 5 7.5324 5.3363 5.2107 0.0000 24.5615 0.0000
# 6 0.0000 0.0000 0.0000 6.1059 0.0000 18.8855
#
#
#
# Elastic Compliance Matrix: (Units=1/GPa)
#
#
# Indices 1 2 3 4 5 6 
#
# 1 0.016104 -0.007622 -0.005371 0.000000 -0.002143 0.000000
# 2 -0.007622 0.030422 -0.008828 0.000000 -0.002399 0.000000
# 3 -0.005371 -0.008828 0.016545 0.000000 0.000055 0.000000
# 4 0.000000 0.000000 0.000000 0.044993 0.000000 -0.014547
# 5 -0.002143 -0.002399 0.000055 0.000000 0.041881 0.000000
# 6 0.000000 0.000000 0.000000 -0.014547 0.000000 0.057654
#
#
# Mechanical properties :
#
#
# Convention : Reuss Voigt Hill
#
# Bulk Modulus (GPa) = 51.46729 60.26872 55.86801
# Shear Modulus (GPa) = 19.40106 21.43159 20.41633
#
# Velocity S-wave (km/s) = 3.30862 3.47746 3.39409
# Velocity P-wave (km/s) = 6.60577 7.08025 6.84712
#
# Compressibility (1/GPa) = 0.01942981
#
# Stress axis : x y z
#
# Youngs Moduli (GPa) = 62.09611 32.87044 60.44034
#
# Poissons Ratio (x) = 0.25053 0.32465
# Poissons Ratio (y) = 0.47328 0.53356
# Poissons Ratio (z) = 0.33354 0.29017
#
# Static dielectric constant tensor:
#      x y z
#    x 3.298750 0.000000 -0.118020 
#    y 0.000000 3.100500 0.000000 
#    z -0.118020 0.000000 3.239250 
# 
# 
# High freq. dielectric constant tensor:
#      x y z
#    x 1.676250 0.000000 -0.010430 
#    y 0.000000 1.674760 0.000000 
#    z -0.010430 0.000000 1.680360 
# 
# From -- ./inp_files/84699.got.cif
#   From: 2010.06.25/outbox.cif.g09.slc.cpg/sg10_43_cif.got.tgz:84699.got - 2010.06.27 22:07:45.
