data_PCOD8064932
_publ_section_title
;
Structure prediction by ZEFSAII (Michael W. Deem and Ramdas Pophale) SiO2 
 PCOD8064932
Probable space group: P 2/M
;
_chemical_formula_sum "Si O2"
_cell_formula_units_Z 28
_cell_length_a 12.560251
_cell_length_b 8.888519
_cell_length_c 14.576624
_cell_angle_alpha 90.000000
_cell_angle_beta 120.287620
_cell_angle_gamma 90.000000
_cell_volume 1405.236114
_symmetry_space_group_name_H-M "P 2/M"
_symmetry_group_IT_number 10
_symmetry_cell_setting 'monoclinic'
loop_
_space_group_symop_operation_xyz
x,y,z
-x,y,-z
-x,-y,-z
x,-y,z
loop_
_atom_site_type_symbol
_atom_site_label
_atom_site_fract_x
_atom_site_fract_y
_atom_site_fract_z
Si Si1 0.287280 0.326443 0.789431
Si Si2 0.593073 0.321124 0.616599
Si Si3 0.136649 0.328848 0.317330
Si Si4 0.468569 0.325819 0.207589
Si Si5 0.947247 0.670675 0.072959
Si Si6 0.035229 0.175742 0.617871
Si Si7 0.300445 0.176869 0.983099
O O1 0.264589 0.500000 0.803420
O O2 0.386984 0.304773 0.752212
O O3 0.158141 0.259985 0.701470
O O4 0.340609 0.248178 0.903743
O O5 0.500000 0.255330 0.500000
O O6 0.587349 0.500000 0.615650
O O7 0.728952 0.264782 0.649113
O O8 0.554912 0.261169 0.700670
O O9 0.144121 0.500000 0.357608
O O10 0.057990 0.320998 0.191626
O O11 0.079771 0.223736 0.370259
O O12 0.429593 0.500000 0.183176
O O13 0.386842 0.233411 0.101534
O O14 0.896143 0.500000 0.041721
O O15 0.840393 0.780920 0.058587
O O16 0.000000 0.729399 0.000000
O O17 0.000000 0.221379 0.500000
O O18 0.059910 0.000000 0.639517
O O19 0.313568 0.000000 0.980223
#
# Coordination Sequence:
#
# PCOD8064932 Si02
#       7
#     4   4   4   4   4   4   4
#     4  11  23  40  65  94 121 157 207 258 305 359
#     4   9  19  37  63  94 123 153 198 255 307 352
#     4  10  20  36  63  92 120 157 200 248 299 359
#     4  10  22  40  63  91 123 160 205 256 306 361
#     4  10  20  36  60  89 121 160 204 251 302 356
#     4  11  25  42  61  88 125 166 202 247 308 366
#     4  12  24  38  59  89 126 165 202 246 306 372
#
# _framework density 19.925477999999998
#
# number of rings (size 3 to 8) (size 9 to 14) (size 15 to 20)
#    0.000    1.571    1.429    3.429    2.000    6.571 
#    0.000    2.143    0.000    0.857    0.000    0.000 
#    0.000    0.000    0.000    0.000    0.000    0.000 
#
# Total GULP energy -347332.846486 kJ/mol
# GULP energy per Si atom -12404.744517 kJ/mol
# Density = 1.988013 g / cm^3
# Si number density = 19.925478 Si / 1000 Ang^3
#
#
#
# Elastic Constant Matrix: (Units=GPa)
#
#
# Indices 1 2 3 4 5 6 
#
# 1 142.0882 41.3116 72.7949 0.0000 -1.3796 0.0000
# 2 41.3116 84.8079 55.5949 0.0000 -3.0870 0.0000
# 3 72.7949 55.5949 138.0154 0.0000 -15.2953 0.0000
# 4 0.0000 0.0000 0.0000 26.1107 0.0000 -5.0385
# 5 -1.3796 -3.0870 -15.2953 0.0000 25.9512 0.0000
# 6 0.0000 0.0000 0.0000 -5.0385 0.0000 6.8178
#
#
#
# Elastic Compliance Matrix: (Units=1/GPa)
#
#
# Indices 1 2 3 4 5 6 
#
# 1 0.010015 -0.001799 -0.004839 0.000000 -0.002533 0.000000
# 2 -0.001799 0.016446 -0.005852 0.000000 -0.001588 0.000000
# 3 -0.004839 -0.005852 0.012891 0.000000 0.006645 0.000000
# 4 0.000000 0.000000 0.000000 0.044668 0.000000 0.033011
# 5 -0.002533 -0.001588 0.006645 0.000000 0.042126 0.000000
# 6 0.000000 0.000000 0.000000 0.033011 0.000000 0.171070
#
#
# Mechanical properties :
#
#
# Convention : Reuss Voigt Hill
#
# Bulk Modulus (GPa) = 69.57184 78.25717 73.91450
# Shear Modulus (GPa) = 15.29113 24.78997 20.04055
#
# Velocity S-wave (km/s) = 2.77323 3.53106 3.17484
# Velocity P-wave (km/s) = 6.72653 7.48229 7.11445
#
# Compressibility (1/GPa) = 0.01437363
#
# Stress axis : x y z
#
# Youngs Moduli (GPa) = 99.84809 60.80509 77.57223
#
# Poissons Ratio (x) = 0.10939 0.37534
# Poissons Ratio (y) = 0.17963 0.45394
# Poissons Ratio (z) = 0.48312 0.35582
#
# Static dielectric constant tensor:
#      x y z
#    x 3.812240 0.000000 -0.163370 
#    y 0.000000 3.463690 0.000000 
#    z -0.163370 0.000000 3.600850 
# 
# 
# High freq. dielectric constant tensor:
#      x y z
#    x 1.793590 0.000000 -0.002940 
#    y 0.000000 1.754610 0.000000 
#    z -0.002940 0.000000 1.787830 
# 
# From -- ./inp_files/49537.got.cif
#   From: 2010.06.25/outbox.cif.g09.slc.cpg/sg10_25_cif.got.tgz:49537.got - 2010.06.27 22:07:45.
