data_PCOD8064427
_publ_section_title
;
Structure prediction by ZEFSAII (Michael W. Deem and Ramdas Pophale) SiO2 
 PCOD8064427
Probable space group: P 2/M
;
_chemical_formula_sum "Si O2"
_cell_formula_units_Z 32
_cell_length_a 23.774800
_cell_length_b 8.961995
_cell_length_c 25.163415
_cell_angle_alpha 90.000000
_cell_angle_beta 162.194079
_cell_angle_gamma 90.000000
_cell_volume 1639.531177
_symmetry_space_group_name_H-M "P 2/M"
_symmetry_group_IT_number 10
_symmetry_cell_setting 'monoclinic'
loop_
_space_group_symop_operation_xyz
x,y,z
-x,y,-z
-x,-y,-z
x,-y,z
loop_
_atom_site_type_symbol
_atom_site_label
_atom_site_fract_x
_atom_site_fract_y
_atom_site_fract_z
Si Si1 0.204577 0.823129 0.020902
Si Si2 0.199096 0.673313 0.199765
Si Si3 0.686047 0.171756 0.296957
Si Si4 0.296479 0.823177 0.986887
Si Si5 0.459261 0.674708 0.335543
Si Si6 0.698926 0.323844 0.198207
Si Si7 0.796180 0.823979 0.686293
Si Si8 0.927564 0.828242 0.314820
O O1 0.357928 0.746552 0.194619
O O2 0.229749 0.000000 0.047533
O O3 0.232969 0.761561 0.986731
O O4 0.002818 0.773591 0.858355
O O5 0.200195 0.500000 0.217231
O O6 0.346327 0.709397 0.287200
O O7 0.254045 0.769977 0.299954
O O8 0.000000 0.723179 0.000000
O O9 0.739086 0.262712 0.292562
O O10 0.851623 0.189188 0.488215
O O11 0.658028 0.000000 0.255156
O O12 0.500873 0.236185 0.157080
O O13 0.154930 0.765393 0.814564
O O14 0.295099 0.000000 0.988120
O O15 0.479351 0.500000 0.343546
O O16 0.660133 0.747533 0.521645
O O17 0.711825 0.500000 0.211467
O O18 0.851949 0.264256 0.296065
O O19 0.500000 0.267771 0.000000
O O20 0.771361 0.000000 0.659899
O O21 0.869177 0.000000 0.270322
#
# Coordination Sequence:
#
# PCOD8064427 Si02
#       8
#     4   4   4   4   4   4   4   4
#     4  10  22  40  61  86 115 151 193 240 291 338
#     4  10  20  37  60  85 116 155 194 234 285 347
#     4  10  20  35  59  86 109 142 185 229 274 330
#     4   9  19  37  59  82 110 144 185 234 279 323
#     4  11  23  39  61  86 116 155 195 236 285 345
#     4  11  22  35  54  81 114 150 181 220 278 336
#     4  11  23  37  59  90 122 152 188 239 293 346
#     4  10  20  35  58  85 109 140 184 227 275 332
#
# _framework density 19.517776000000001
#
# number of rings (size 3 to 8) (size 9 to 14) (size 15 to 20)
#    0.000    1.750    2.500    1.875    0.000    6.750 
#    0.000    5.000    0.000    1.500    0.000    0.000 
#    0.000    0.000    0.000    0.000    0.000    0.000 
#
# Total GULP energy -396932.607065 kJ/mol
# GULP energy per Si atom -12404.143971 kJ/mol
# Density = 1.947335 g / cm^3
# Si number density = 19.517776 Si / 1000 Ang^3
#
#
#
# Elastic Constant Matrix: (Units=GPa)
#
#
# Indices 1 2 3 4 5 6 
#
# 1 114.3333 28.5556 47.9692 0.0000 -21.9352 0.0000
# 2 28.5556 46.5224 33.0647 0.0000 -8.4829 0.0000
# 3 47.9692 33.0647 143.5943 0.0000 -17.0337 0.0000
# 4 0.0000 0.0000 0.0000 23.9396 0.0000 9.0613
# 5 -21.9352 -8.4829 -17.0337 0.0000 16.7799 0.0000
# 6 0.0000 0.0000 0.0000 9.0613 0.0000 -7.2094
#
#
#
# Elastic Compliance Matrix: (Units=1/GPa)
#
#
# Indices 1 2 3 4 5 6 
#
# 1 0.013112 -0.004367 -0.001823 0.000000 0.013082 0.000000
# 2 -0.004367 0.028122 -0.004556 0.000000 0.003883 0.000000
# 3 -0.001823 -0.004556 0.009170 0.000000 0.004623 0.000000
# 4 0.000000 0.000000 0.000000 0.028306 0.000000 0.035577
# 5 0.013082 0.003883 0.004623 0.000000 0.083352 0.000000
# 6 0.000000 0.000000 0.000000 0.035577 0.000000 -0.093992
#
#
# Mechanical properties :
#
#
# Convention : Reuss Voigt Hill
#
# Bulk Modulus (GPa) = 34.58751 58.18099 46.38425
# Shear Modulus (GPa) = 50.40404 19.69272 35.04838
#
# Velocity S-wave (km/s) = 5.08731 3.17986 4.24219
# Velocity P-wave (km/s) = 7.22960 6.58453 6.91459
#
# Compressibility (1/GPa) = 0.02891217
#
# Stress axis : x y z
#
# Youngs Moduli (GPa) = 76.26825 35.55979 109.04610
#
# Poissons Ratio (x) = 0.15530 0.19875
# Poissons Ratio (y) = 0.33308 0.49680
# Poissons Ratio (z) = 0.13901 0.16201
#
# Static dielectric constant tensor:
#      x y z
#    x 3.574890 0.000000 0.010560 
#    y 0.000000 3.347750 0.000000 
#    z 0.010560 0.000000 3.795840 
# 
# 
# High freq. dielectric constant tensor:
#      x y z
#    x 1.753220 0.000000 -0.000780 
#    y 0.000000 1.741580 0.000000 
#    z -0.000780 0.000000 1.780060 
# 
# From -- ./inp_files/90663.got.cif
#   From: 2010.06.25/outbox.cif.g09.slc.cpg/sg10_46_cif.got.tgz:90663.got - 2010.06.27 22:07:45.
