data_PCOD8064495
_publ_section_title
;
Structure prediction by ZEFSAII (Michael W. Deem and Ramdas Pophale) SiO2 
 PCOD8064495
Probable space group: P 2/M
;
_chemical_formula_sum "Si O2"
_cell_formula_units_Z 28
_cell_length_a 14.454759
_cell_length_b 8.827563
_cell_length_c 12.398468
_cell_angle_alpha 90.000000
_cell_angle_beta 120.409322
_cell_angle_gamma 90.000000
_cell_volume 1364.407913
_symmetry_space_group_name_H-M "P 2/M"
_symmetry_group_IT_number 10
_symmetry_cell_setting 'monoclinic'
loop_
_space_group_symop_operation_xyz
x,y,z
-x,y,-z
-x,-y,-z
x,-y,z
loop_
_atom_site_type_symbol
_atom_site_label
_atom_site_fract_x
_atom_site_fract_y
_atom_site_fract_z
Si Si1 0.724414 0.678494 0.000028
Si Si2 0.877991 0.177674 0.913879
Si Si3 0.886663 0.325432 0.473856
Si Si4 0.424800 0.329425 0.557673
Si Si5 0.502354 0.824840 0.812488
Si Si6 0.806859 0.673827 0.656246
Si Si7 0.276658 0.176237 0.777738
O O1 0.732666 0.500000 0.003568
O O2 0.802262 0.740125 0.954160
O O3 0.602227 0.725634 0.908094
O O4 0.762979 0.738426 0.138748
O O5 0.842935 0.217258 0.772623
O O6 0.866785 0.000000 0.926323
O O7 0.000000 0.233072 0.000000
O O8 0.871498 0.500000 0.431356
O O9 0.887307 0.306531 0.603322
O O10 0.789818 0.232512 0.364318
O O11 0.000000 0.260893 0.500000
O O12 0.500000 0.326827 0.500000
O O13 0.417309 0.500000 0.601795
O O14 0.471133 0.215001 0.672385
O O15 0.309049 0.272486 0.452335
O O16 0.402425 0.791123 0.832161
O O17 0.536023 0.000000 0.837696
O O18 0.803873 0.500000 0.695536
O O19 0.255217 0.000000 0.781441
#
# Coordination Sequence:
#
# PCOD8064495 Si02
#       7
#     4   4   4   4   4   4   4
#     4  12  26  43  67  94 126 170 217 264 317 377
#     4  11  26  46  67  94 129 168 212 264 321 380
#     4  10  22  40  64  96 129 167 215 262 314 374
#     4  10  20  35  59  90 124 163 208 255 307 370
#     4  11  23  40  63  94 130 166 207 259 320 384
#     4  10  21  39  63  93 130 166 209 262 310 372
#     4  11  24  42  65  96 132 169 212 263 323 382
#
# _framework density 20.521723000000001
#
# number of rings (size 3 to 8) (size 9 to 14) (size 15 to 20)
#    0.000    1.286    1.429    3.857    2.000    7.429 
#    0.000    0.000    0.000    0.000    0.000    0.000 
#    0.000    0.000    0.000    0.000    0.000    0.000 
#
# Total GULP energy -347372.140349 kJ/mol
# GULP energy per Si atom -12406.147870 kJ/mol
# Density = 2.047501 g / cm^3
# Si number density = 20.521723 Si / 1000 Ang^3
#
#
#
# Elastic Constant Matrix: (Units=GPa)
#
#
# Indices 1 2 3 4 5 6 
#
# 1 109.5454 47.9738 31.7982 0.0000 -6.1948 0.0000
# 2 47.9738 99.6354 40.9631 0.0000 -3.3463 0.0000
# 3 31.7982 40.9631 93.4418 0.0000 -13.8196 0.0000
# 4 0.0000 0.0000 0.0000 33.9980 0.0000 3.6808
# 5 -6.1948 -3.3463 -13.8196 0.0000 29.9739 0.0000
# 6 0.0000 0.0000 0.0000 3.6808 0.0000 19.7442
#
#
#
# Elastic Compliance Matrix: (Units=1/GPa)
#
#
# Indices 1 2 3 4 5 6 
#
# 1 0.011863 -0.004980 -0.001688 0.000000 0.001117 0.000000
# 2 -0.004980 0.014374 -0.004852 0.000000 -0.001662 0.000000
# 3 -0.001688 -0.004852 0.014243 0.000000 0.005676 0.000000
# 4 0.000000 0.000000 0.000000 0.030019 0.000000 -0.005596
# 5 0.001117 -0.001662 0.005676 0.000000 0.036025 0.000000
# 6 0.000000 0.000000 0.000000 -0.005596 0.000000 0.051691
#
#
# Mechanical properties :
#
#
# Convention : Reuss Voigt Hill
#
# Bulk Modulus (GPa) = 57.34633 60.45478 58.90055
# Shear Modulus (GPa) = 26.72809 28.86905 27.79857
#
# Velocity S-wave (km/s) = 3.61283 3.75474 3.68447
# Velocity P-wave (km/s) = 6.73857 6.95128 6.84575
#
# Compressibility (1/GPa) = 0.01743791
#
# Stress axis : x y z
#
# Youngs Moduli (GPa) = 84.29596 69.57212 70.21001
#
# Poissons Ratio (x) = 0.34649 0.11855
# Poissons Ratio (y) = 0.41981 0.34067
# Poissons Ratio (z) = 0.14233 0.33757
#
# Static dielectric constant tensor:
#      x y z
#    x 3.892720 0.000000 -0.010260 
#    y 0.000000 3.720460 0.000000 
#    z -0.010260 0.000000 3.675950 
# 
# 
# High freq. dielectric constant tensor:
#      x y z
#    x 1.817730 0.000000 -0.004400 
#    y 0.000000 1.800600 0.000000 
#    z -0.004400 0.000000 1.808550 
# 
# From -- ./inp_files/50032.got.cif
#   From: 2010.06.25/outbox.cif.g09.slc.cpg/sg10_26_cif.got.tgz:50032.got - 2010.06.27 22:07:45.
