data_PCOD8064818
_publ_section_title
;
Structure prediction by ZEFSAII (Michael W. Deem and Ramdas Pophale) SiO2 
 PCOD8064818
Probable space group: P 2/M
;
_chemical_formula_sum "Si O2"
_cell_formula_units_Z 20
_cell_length_a 15.907192
_cell_length_b 10.238399
_cell_length_c 13.349644
_cell_angle_alpha 90.000000
_cell_angle_beta 155.563128
_cell_angle_gamma 90.000000
_cell_volume 899.436908
_symmetry_space_group_name_H-M "P 2/M"
_symmetry_group_IT_number 10
_symmetry_cell_setting 'monoclinic'
loop_
_space_group_symop_operation_xyz
x,y,z
-x,y,-z
-x,-y,-z
x,-y,z
loop_
_atom_site_type_symbol
_atom_site_label
_atom_site_fract_x
_atom_site_fract_y
_atom_site_fract_z
Si Si1 0.127801 0.851207 0.236687
Si Si2 0.449445 0.353047 0.647169
Si Si3 0.738296 0.355155 0.346271
Si Si4 0.866527 0.252795 0.129963
Si Si5 0.233704 0.859211 0.779139
O O1 0.317605 0.752071 0.442677
O O2 0.983712 0.835264 0.176722
O O3 0.209789 0.000000 0.324161
O O4 0.000000 0.818559 0.000000
O O5 0.382874 0.500000 0.543470
O O6 0.413527 0.331977 0.726424
O O7 0.689501 0.336844 0.883926
O O8 0.713600 0.500000 0.273754
O O9 0.670465 0.252924 0.187274
O O10 0.971376 0.343252 0.636426
O O11 0.746153 0.165172 0.080284
O O12 0.000000 0.866783 0.500000
O O13 0.336600 0.000000 0.867020
#
# Coordination Sequence:
#
# PCOD8064818 Si02
#       5
#     4   4   4   4   4
#     4  10  23  43  64  86 114 149 191 241 295 350
#     4  10  22  39  61  89 118 152 193 237 288 345
#     4   9  19  35  55  81 116 155 193 233 277 331
#     4  10  20  36  59  85 115 151 193 238 286 340
#     4   9  18  32  52  79 113 153 193 232 278 331
#
# _framework density 22.236134
#
# number of rings (size 3 to 8) (size 9 to 14) (size 15 to 20)
#    0.000    2.400    0.000    1.200    0.000   13.600 
#    0.000    6.000    0.000    0.000    0.000    0.000 
#    0.000    0.000    0.000    0.000    0.000    0.000 
#
# Total GULP energy -247938.091971 kJ/mol
# GULP energy per Si atom -12396.904599 kJ/mol
# Density = 2.218552 g / cm^3
# Si number density = 22.236134 Si / 1000 Ang^3
#
#
#
# Elastic Constant Matrix: (Units=GPa)
#
#
# Indices 1 2 3 4 5 6 
#
# 1 33.8804 29.3970 33.2991 0.0000 -5.3521 0.0000
# 2 29.3970 150.9322 39.2785 0.0000 -6.8685 0.0000
# 3 33.2991 39.2785 99.4631 0.0000 8.2142 0.0000
# 4 0.0000 0.0000 0.0000 -3.7569 0.0000 -12.0318
# 5 -5.3521 -6.8685 8.2142 0.0000 39.4651 0.0000
# 6 0.0000 0.0000 0.0000 -12.0318 0.0000 20.4998
#
#
#
# Elastic Compliance Matrix: (Units=1/GPa)
#
#
# Indices 1 2 3 4 5 6 
#
# 1 0.051190 -0.005449 -0.015752 0.000000 0.009272 0.000000
# 2 -0.005449 0.008111 -0.001459 0.000000 0.000976 0.000000
# 3 -0.015752 -0.001459 0.016383 0.000000 -0.005800 0.000000
# 4 0.000000 0.000000 0.000000 -0.092434 0.000000 -0.054251
# 5 0.009272 0.000976 -0.005800 0.000000 0.027973 0.000000
# 6 0.000000 0.000000 0.000000 -0.054251 0.000000 0.016940
#
#
# Mechanical properties :
#
#
# Convention : Reuss Voigt Hill
#
# Bulk Modulus (GPa) = 32.93450 54.24723 43.59086
# Shear Modulus (GPa) = 59.80525 23.39501 41.60013
#
# Velocity S-wave (km/s) = 5.19172 3.24715 4.33001
# Velocity P-wave (km/s) = 7.12615 6.20545 6.68168
#
# Compressibility (1/GPa) = 0.03036330
#
# Stress axis : x y z
#
# Youngs Moduli (GPa) = 19.53514 123.28872 61.03956
#
# Poissons Ratio (x) = 0.67181 0.96148
# Poissons Ratio (y) = 0.10645 0.08908
# Poissons Ratio (z) = 0.30771 0.17993
#
# Static dielectric constant tensor:
#      x y z
#    x 3.879510 0.000000 -0.000170 
#    y 0.000000 4.226490 0.000000 
#    z -0.000170 0.000000 3.846760 
# 
# 
# High freq. dielectric constant tensor:
#      x y z
#    x 1.860490 0.000000 0.012340 
#    y 0.000000 1.877920 0.000000 
#    z 0.012340 0.000000 1.875170 
# 
# From -- ./inp_files/51122.got.cif
#   From: 2010.06.25/outbox.cif.g09.slc.cpg/sg10_26_cif.got.tgz:51122.got - 2010.06.27 22:07:45.
