data_PCOD8064122
_publ_section_title
;
Structure prediction by ZEFSAII (Michael W. Deem and Ramdas Pophale) SiO2 
 PCOD8064122
Probable space group: P 2/M
;
_chemical_formula_sum "Si O2"
_cell_formula_units_Z 32
_cell_length_a 14.103366
_cell_length_b 9.179679
_cell_length_c 22.233416
_cell_angle_alpha 90.000000
_cell_angle_beta 36.128445
_cell_angle_gamma 90.000000
_cell_volume 1697.117996
_symmetry_space_group_name_H-M "P 2/M"
_symmetry_group_IT_number 10
_symmetry_cell_setting 'monoclinic'
loop_
_space_group_symop_operation_xyz
x,y,z
-x,y,-z
-x,-y,-z
x,-y,z
loop_
_atom_site_type_symbol
_atom_site_label
_atom_site_fract_x
_atom_site_fract_y
_atom_site_fract_z
Si Si1 0.533198 0.335174 0.913441
Si Si2 0.313777 0.170812 0.590731
Si Si3 0.123552 0.674454 0.793784
Si Si4 0.769289 0.674131 0.005333
Si Si5 0.206218 0.830189 0.284805
Si Si6 0.164854 0.830774 0.540129
Si Si7 0.809823 0.335764 0.589716
Si Si8 0.186158 0.341397 0.890208
O O1 0.570585 0.500000 0.872705
O O2 0.685048 0.232535 0.824071
O O3 0.500000 0.331963 0.000000
O O4 0.377130 0.270112 0.960001
O O5 0.500000 0.214759 0.500000
O O6 0.213681 0.255875 0.691775
O O7 0.248974 0.218641 0.558641
O O8 0.287990 0.000000 0.614541
O O9 0.136064 0.500000 0.783593
O O10 0.205030 0.734016 0.814785
O O11 0.936969 0.725729 0.889241
O O12 0.773883 0.500000 0.007635
O O13 0.742066 0.740155 0.087366
O O14 0.263399 0.752323 0.316916
O O15 0.024001 0.795607 0.359337
O O16 0.234983 0.000000 0.278699
O O17 0.243147 0.739924 0.445429
O O18 0.195259 0.000000 0.511122
O O19 0.742642 0.500000 0.624440
O O20 0.000000 0.332373 0.500000
O O21 0.268403 0.500000 0.842650
O O22 0.000000 0.362434 0.000000
#
# Coordination Sequence:
#
# PCOD8064122 Si02
#       8
#     4   4   4   4   4   4   4   4
#     4  10  21  34  49  75 112 146 178 218 263 307
#     4  10  22  39  54  73 106 142 172 213 270 322
#     4   9  17  31  56  81  99 129 175 220 260 310
#     4   8  15  30  51  76 106 138 169 210 263 310
#     4  10  20  35  55  78 106 142 182 219 258 313
#     4   9  19  36  57  77 102 142 181 213 261 322
#     4   9  17  32  56  84 107 130 169 221 269 311
#     4   7  11  24  48  75  99 125 162 206 252 303
#
# _framework density 18.855495000000001
#
# number of rings (size 3 to 8) (size 9 to 14) (size 15 to 20)
#    0.000    3.000    0.000    2.250    1.750    3.000 
#    2.250    0.625    0.000    3.375    0.000    0.000 
#    0.000    0.000    0.000    0.000    0.000    0.000 
#
# Total GULP energy -396567.328637 kJ/mol
# GULP energy per Si atom -12392.729020 kJ/mol
# Density = 1.881258 g / cm^3
# Si number density = 18.855495 Si / 1000 Ang^3
#
#
#
# Elastic Constant Matrix: (Units=GPa)
#
#
# Indices 1 2 3 4 5 6 
#
# 1 138.3556 38.2962 47.1677 0.0000 18.7648 0.0000
# 2 38.2962 61.2028 41.9118 0.0000 7.0071 0.0000
# 3 47.1677 41.9118 77.8290 0.0000 12.3139 0.0000
# 4 0.0000 0.0000 0.0000 20.8612 0.0000 -0.3272
# 5 18.7648 7.0071 12.3139 0.0000 26.6096 0.0000
# 6 0.0000 0.0000 0.0000 -0.3272 0.0000 14.7955
#
#
#
# Elastic Compliance Matrix: (Units=1/GPa)
#
#
# Indices 1 2 3 4 5 6 
#
# 1 0.009960 -0.003281 -0.003555 0.000000 -0.004515 0.000000
# 2 -0.003281 0.026969 -0.012708 0.000000 0.001092 0.000000
# 3 -0.003555 -0.012708 0.022573 0.000000 -0.004593 0.000000
# 4 0.000000 0.000000 0.000000 0.047953 0.000000 0.001061
# 5 -0.004515 0.001092 -0.004593 0.000000 0.042602 0.000000
# 6 0.000000 0.000000 0.000000 0.001061 0.000000 0.067611
#
#
# Mechanical properties :
#
#
# Convention : Reuss Voigt Hill
#
# Bulk Modulus (GPa) = 48.98368 59.12654 54.05511
# Shear Modulus (GPa) = 18.97095 22.45406 20.71251
#
# Velocity S-wave (km/s) = 3.17539 3.45461 3.31794
# Velocity P-wave (km/s) = 6.28323 6.88028 6.58852
#
# Compressibility (1/GPa) = 0.02041496
#
# Stress axis : x y z
#
# Youngs Moduli (GPa) = 100.39927 37.07929 44.30036
#
# Poissons Ratio (x) = 0.12165 0.15750
# Poissons Ratio (y) = 0.32940 0.56296
# Poissons Ratio (z) = 0.35695 0.47119
#
# Static dielectric constant tensor:
#      x y z
#    x 3.751040 0.000000 0.203860 
#    y 0.000000 3.176110 0.000000 
#    z 0.203860 0.000000 3.341020 
# 
# 
# High freq. dielectric constant tensor:
#      x y z
#    x 1.738040 0.000000 0.017380 
#    y 0.000000 1.697350 0.000000 
#    z 0.017380 0.000000 1.726000 
# 
# From -- ./inp_files/84713.got.cif
#   From: 2010.06.25/outbox.cif.g09.slc.cpg/sg10_43_cif.got.tgz:84713.got - 2010.06.27 22:07:45.
