data_PCOD8064468
_publ_section_title
;
Structure prediction by ZEFSAII (Michael W. Deem and Ramdas Pophale) SiO2 
 PCOD8064468
Probable space group: P 2/M
;
_chemical_formula_sum "Si O2"
_cell_formula_units_Z 26
_cell_length_a 26.815932
_cell_length_b 11.198302
_cell_length_c 9.288907
_cell_angle_alpha 90.000000
_cell_angle_beta 152.363171
_cell_angle_gamma 90.000000
_cell_volume 1293.903339
_symmetry_space_group_name_H-M "P 2/M"
_symmetry_group_IT_number 10
_symmetry_cell_setting 'monoclinic'
loop_
_space_group_symop_operation_xyz
x,y,z
-x,y,-z
-x,-y,-z
x,-y,z
loop_
_atom_site_type_symbol
_atom_site_label
_atom_site_fract_x
_atom_site_fract_y
_atom_site_fract_z
Si Si1 0.210110 0.757610 0.226338
Si Si2 0.394698 0.252518 0.142935
Si Si3 0.337726 0.500000 0.276885
Si Si4 0.412714 0.861308 0.886251
Si Si5 0.410646 0.500000 0.071331
Si Si6 0.711047 0.500000 0.530263
Si Si7 0.769182 0.253122 0.052651
Si Si8 0.986775 0.865685 0.634769
O O1 0.293251 0.829073 0.535218
O O2 0.213230 0.617556 0.275909
O O3 0.239441 0.789755 0.135042
O O4 0.093261 0.805774 0.972895
O O5 0.500000 0.273216 0.500000
O O6 0.352480 0.383595 0.987497
O O7 0.428447 0.177581 0.090227
O O8 0.308512 0.187735 0.028877
O O9 0.463599 0.500000 0.557461
O O10 0.353090 0.500000 0.486305
O O11 0.267802 0.390291 0.038527
O O12 0.431462 0.000000 0.928264
O O13 0.500000 0.800214 0.000000
O O14 0.382038 0.500000 0.828306
O O15 0.888495 0.224676 0.416692
O O16 0.000000 0.877406 0.500000
O O17 0.968078 0.000000 0.650599
#
# Coordination Sequence:
#
# PCOD8064468 Si02
#       8
#     4   4   2   4   2   2   4   4
#     4  10  20  40  63  90 122 157 204 248 303 360
#     4  12  23  38  61  89 124 158 198 246 309 366
#     4  10  20  35  58  94 125 161 196 244 301 368
#     4  11  25  41  59  85 120 163 207 252 299 356
#     4  12  21  36  60  88 127 162 198 239 305 377
#     4  10  21  32  61  95 119 155 201 252 297 357
#     4  10  21  36  60  93 122 154 200 252 300 357
#     4   9  19  37  63  88 116 160 208 253 298 352
#
# _framework density 20.094235999999999
#
# number of rings (size 3 to 8) (size 9 to 14) (size 15 to 20)
#    0.000    1.538    3.077    2.308    2.154    2.154 
#    0.000    3.846    0.000    2.769    0.000    0.000 
#    0.000    0.000    0.000    0.000    0.000    0.000 
#
# Total GULP energy -322129.899706 kJ/mol
# GULP energy per Si atom -12389.611527 kJ/mol
# Density = 2.004850 g / cm^3
# Si number density = 20.094236 Si / 1000 Ang^3
#
#
#
# Elastic Constant Matrix: (Units=GPa)
#
#
# Indices 1 2 3 4 5 6 
#
# 1 95.9323 32.7422 41.3987 0.0000 -4.6815 0.0000
# 2 32.7422 89.1325 42.7949 0.0000 -0.6134 0.0000
# 3 41.3987 42.7949 104.9784 0.0000 1.8649 0.0000
# 4 0.0000 0.0000 0.0000 17.0102 0.0000 12.0734
# 5 -4.6815 -0.6134 1.8649 0.0000 24.8842 0.0000
# 6 0.0000 0.0000 0.0000 12.0734 0.0000 -1.2879
#
#
#
# Elastic Compliance Matrix: (Units=1/GPa)
#
#
# Indices 1 2 3 4 5 6 
#
# 1 0.013326 -0.002897 -0.004123 0.000000 0.002745 0.000000
# 2 -0.002897 0.014594 -0.004810 0.000000 0.000175 0.000000
# 3 -0.004123 -0.004810 0.013146 0.000000 -0.001879 0.000000
# 4 0.000000 0.000000 0.000000 0.007681 0.000000 0.072005
# 5 0.002745 0.000175 -0.001879 0.000000 0.040848 0.000000
# 6 0.000000 0.000000 0.000000 0.072005 0.000000 -0.101447
#
#
# Mechanical properties :
#
#
# Convention : Reuss Voigt Hill
#
# Bulk Modulus (GPa) = 57.45085 58.21274 57.83179
# Shear Modulus (GPa) = 283.94827 19.66178 151.80503
#
# Velocity S-wave (km/s) = 11.90021 3.13146 8.70118
# Velocity P-wave (km/s) = 14.74696 6.48903 11.39255
#
# Compressibility (1/GPa) = 0.01740618
#
# Stress axis : x y z
#
# Youngs Moduli (GPa) = 75.04199 68.52133 76.06910
#
# Poissons Ratio (x) = 0.19849 0.31363
# Poissons Ratio (y) = 0.21737 0.36590
# Poissons Ratio (z) = 0.30940 0.32959
#
# Static dielectric constant tensor:
#      x y z
#    x 4.060940 0.000000 0.006390 
#    y 0.000000 3.811210 0.000000 
#    z 0.006390 0.000000 3.634280 
# 
# 
# High freq. dielectric constant tensor:
#      x y z
#    x 1.779870 0.000000 -0.005930 
#    y 0.000000 1.780360 0.000000 
#    z -0.005930 0.000000 1.779020 
# 
# From -- ./inp_files/37562.got.cif
#   From: 2010.06.25/outbox.cif.g09.slc.cpg/sg10_19_cif.got.tgz:37562.got - 2010.06.27 22:07:45.
