data_PCOD8064959
_publ_section_title
;
Structure prediction by ZEFSAII (Michael W. Deem and Ramdas Pophale) SiO2 
 PCOD8064959
Probable space group: P 2/M
;
_chemical_formula_sum "Si O2"
_cell_formula_units_Z 20
_cell_length_a 12.977250
_cell_length_b 7.926013
_cell_length_c 18.606262
_cell_angle_alpha 90.000000
_cell_angle_beta 152.349399
_cell_angle_gamma 90.000000
_cell_volume 888.153518
_symmetry_space_group_name_H-M "P 2/M"
_symmetry_group_IT_number 10
_symmetry_cell_setting 'monoclinic'
loop_
_space_group_symop_operation_xyz
x,y,z
-x,y,-z
-x,-y,-z
x,-y,z
loop_
_atom_site_type_symbol
_atom_site_label
_atom_site_fract_x
_atom_site_fract_y
_atom_site_fract_z
Si Si1 0.502373 0.692169 0.277458
Si Si2 0.384773 0.191949 0.356600
Si Si3 0.099265 0.306319 0.927813
Si Si4 0.758177 0.318466 0.143406
Si Si5 0.709351 0.000000 0.182031
Si Si6 0.257105 0.000000 0.639662
O O1 0.571990 0.500000 0.298508
O O2 0.468890 0.696395 0.342236
O O3 0.686333 0.829078 0.368287
O O4 0.272371 0.744016 0.096851
O O5 0.500000 0.264025 0.500000
O O6 0.119418 0.194742 0.199429
O O7 0.460270 0.000000 0.390175
O O8 0.027704 0.500000 0.891709
O O9 0.212044 0.269865 0.921043
O O10 0.874363 0.500000 0.232592
O O11 0.855620 0.168366 0.254199
O O12 0.500000 0.336921 0.000000
O O13 0.618128 0.000000 0.206495
O O14 0.500000 0.000000 0.000000
O O15 0.000000 0.000000 0.500000
#
# Coordination Sequence:
#
# PCOD8064959 Si02
#       6
#     4   4   4   4   2   2
#     4  11  24  46  72  98 133 177 226 278 335 396
#     4  11  25  43  66  99 139 177 221 277 340 405
#     4  10  22  39  67 103 133 174 231 277 328 399
#     4   9  18  34  57  92 130 162 208 266 317 373
#     4  10  20  36  61  87 118 165 212 257 314 372
#     4  12  28  46  65  99 139 173 225 275 334 404
#
# _framework density 22.518629000000001
#
# number of rings (size 3 to 8) (size 9 to 14) (size 15 to 20)
#    0.000    1.600    1.000    3.600    2.800    8.400 
#    0.000    2.000    0.000    0.000    0.000    0.000 
#    0.000    0.000    0.000    0.000    0.000    0.000 
#
# Total GULP energy -247943.358395 kJ/mol
# GULP energy per Si atom -12397.167920 kJ/mol
# Density = 2.246738 g / cm^3
# Si number density = 22.518629 Si / 1000 Ang^3
#
#
#
# Elastic Constant Matrix: (Units=GPa)
#
#
# Indices 1 2 3 4 5 6 
#
# 1 155.1783 54.5963 47.1380 0.0000 -13.3218 0.0000
# 2 54.5963 151.0668 27.2538 0.0000 0.2762 0.0000
# 3 47.1380 27.2538 85.1998 0.0000 7.5614 0.0000
# 4 0.0000 0.0000 0.0000 1.6042 0.0000 -15.4897
# 5 -13.3218 0.2762 7.5614 0.0000 30.5344 0.0000
# 6 0.0000 0.0000 0.0000 -15.4897 0.0000 25.2750
#
#
#
# Elastic Compliance Matrix: (Units=1/GPa)
#
#
# Indices 1 2 3 4 5 6 
#
# 1 0.009213 -0.002479 -0.004768 0.000000 0.005223 0.000000
# 2 -0.002479 0.007700 -0.001011 0.000000 -0.000901 0.000000
# 3 -0.004768 -0.001011 0.015217 0.000000 -0.005839 0.000000
# 4 0.000000 0.000000 0.000000 -0.126765 0.000000 -0.077688
# 5 0.005223 -0.000901 -0.005839 0.000000 0.036483 0.000000
# 6 0.000000 0.000000 0.000000 -0.077688 0.000000 -0.008046
#
#
# Mechanical properties :
#
#
# Convention : Reuss Voigt Hill
#
# Bulk Modulus (GPa) = 64.04965 72.15790 68.10377
# Shear Modulus (GPa) = -112.41462 28.97985 -41.71738
#
# Velocity S-wave (km/s) = -7.07312 3.59127 -4.30882
# Velocity P-wave (km/s) = 6.18068 7.02207 2.35677
#
# Compressibility (1/GPa) = 0.01561289
#
# Stress axis : x y z
#
# Youngs Moduli (GPa) = 108.54176 129.87607 65.71717
#
# Poissons Ratio (x) = 0.32197 0.31332
# Poissons Ratio (y) = 0.26908 0.06647
# Poissons Ratio (z) = 0.51750 0.13136
#
# Static dielectric constant tensor:
#      x y z
#    x 6.386120 0.000000 -1.505190 
#    y 0.000000 8.194610 0.000000 
#    z -1.505190 0.000000 4.450870 
# 
# 
# High freq. dielectric constant tensor:
#      x y z
#    x 1.896560 0.000000 -0.011040 
#    y 0.000000 1.906060 0.000000 
#    z -0.011040 0.000000 1.854940 
# 
# From -- ./inp_files/76278.got.cif
#   From: 2010.06.25/outbox.cif.g09.slc.cpg/sg10_39_cif.got.tgz:76278.got - 2010.06.27 22:07:45.
