data_PCOD8064537
_publ_section_title
;
Structure prediction by ZEFSAII (Michael W. Deem and Ramdas Pophale) SiO2 
 PCOD8064537
Probable space group: P 2/M
;
_chemical_formula_sum "Si O2"
_cell_formula_units_Z 24
_cell_length_a 19.918540
_cell_length_b 10.306900
_cell_length_c 13.476928
_cell_angle_alpha 90.000000
_cell_angle_beta 152.604582
_cell_angle_gamma 90.000000
_cell_volume 1273.080525
_symmetry_space_group_name_H-M "P 2/M"
_symmetry_group_IT_number 10
_symmetry_cell_setting 'monoclinic'
loop_
_space_group_symop_operation_xyz
x,y,z
-x,y,-z
-x,-y,-z
x,-y,z
loop_
_atom_site_type_symbol
_atom_site_label
_atom_site_fract_x
_atom_site_fract_y
_atom_site_fract_z
Si Si1 0.331388 0.350198 0.784407
Si Si2 0.672263 0.000000 0.724569
Si Si3 0.145002 0.249756 0.367875
Si Si4 0.844509 0.649748 0.252893
Si Si5 0.813280 0.251379 0.999903
Si Si6 0.671737 0.500000 0.717101
Si Si7 0.160141 0.000000 0.256947
Si Si8 0.841352 0.500000 0.744150
O O1 0.303794 0.500000 0.717863
O O2 0.241219 0.256321 0.593629
O O3 0.280051 0.326413 0.829323
O O4 0.500000 0.312485 0.000000
O O5 0.500000 0.000000 0.500000
O O6 0.729174 0.875940 0.857550
O O7 0.722980 0.000000 0.677413
O O8 0.187638 0.124320 0.361117
O O9 0.181885 0.373939 0.351525
O O10 0.976538 0.245612 0.174261
O O11 0.850235 0.500000 0.225563
O O12 0.000000 0.691923 0.500000
O O13 0.809302 0.740197 0.113450
O O14 0.734267 0.374174 0.851061
O O15 0.500000 0.500000 0.500000
O O16 0.714451 0.500000 0.658401
O O17 0.000000 0.000000 0.000000
O O18 0.000000 0.500000 0.000000
#
# Coordination Sequence:
#
# PCOD8064537 Si02
#       8
#     4   2   4   4   4   2   2   2
#     4  10  22  39  61  96 132 161 203 264 321 370
#     4  12  28  46  64  91 133 170 206 261 323 377
#     4  12  22  40  68  94 120 168 220 252 311 379
#     4  10  20  35  64  93 124 161 205 256 317 368
#     4  12  22  42  66  92 123 170 213 256 315 379
#     4  12  26  38  58  95 127 154 212 275 315 361
#     4  12  24  44  66  92 125 172 213 257 312 377
#     4  12  22  36  64  92 121 160 213 271 302 371
#
# _framework density 18.851911999999999
#
# number of rings (size 3 to 8) (size 9 to 14) (size 15 to 20)
#    0.000    0.667    6.667    2.000    0.000    2.667 
#    0.000    1.667    0.000    0.000    0.000    0.000 
#    0.000    0.000    0.000    0.000    0.000    0.000 
#
# Total GULP energy -297741.101234 kJ/mol
# GULP energy per Si atom -12405.879218 kJ/mol
# Density = 1.880900 g / cm^3
# Si number density = 18.851912 Si / 1000 Ang^3
#
#
#
# Elastic Constant Matrix: (Units=GPa)
#
#
# Indices 1 2 3 4 5 6 
#
# 1 159.3248 64.5444 82.2091 0.0000 6.2759 0.0000
# 2 64.5444 150.0358 67.9486 0.0000 -13.6645 0.0000
# 3 82.2091 67.9486 128.4328 0.0000 10.7568 0.0000
# 4 0.0000 0.0000 0.0000 48.7413 0.0000 -6.7598
# 5 6.2759 -13.6645 10.7568 0.0000 42.5593 0.0000
# 6 0.0000 0.0000 0.0000 -6.7598 0.0000 33.5499
#
#
#
# Elastic Compliance Matrix: (Units=1/GPa)
#
#
# Indices 1 2 3 4 5 6 
#
# 1 0.009748 -0.001926 -0.005157 0.000000 -0.000752 0.000000
# 2 -0.001926 0.009896 -0.004385 0.000000 0.004570 0.000000
# 3 -0.005157 -0.004385 0.013753 0.000000 -0.004123 0.000000
# 4 0.000000 0.000000 0.000000 0.021106 0.000000 0.004253
# 5 -0.000752 0.004570 -0.004123 0.000000 0.026117 0.000000
# 6 0.000000 0.000000 0.000000 0.004253 0.000000 0.030663
#
#
# Mechanical properties :
#
#
# Convention : Reuss Voigt Hill
#
# Bulk Modulus (GPa) = 95.61445 96.35527 95.98486
# Shear Modulus (GPa) = 36.30915 39.84285 38.07600
#
# Velocity S-wave (km/s) = 4.39341 4.60223 4.49903
# Velocity P-wave (km/s) = 8.75013 8.91422 8.83256
#
# Compressibility (1/GPa) = 0.01045867
#
# Stress axis : x y z
#
# Youngs Moduli (GPa) = 102.59038 101.05150 72.71285
#
# Poissons Ratio (x) = 0.19465 0.37500
# Poissons Ratio (y) = 0.19761 0.31887
# Poissons Ratio (z) = 0.52908 0.44314
#
# Static dielectric constant tensor:
#      x y z
#    x 3.695280 0.000000 -0.010130 
#    y 0.000000 3.420820 0.000000 
#    z -0.010130 0.000000 3.381280 
# 
# 
# High freq. dielectric constant tensor:
#      x y z
#    x 1.751940 0.000000 -0.002690 
#    y 0.000000 1.723920 0.000000 
#    z -0.002690 0.000000 1.735880 
# 
# From -- ./inp_files/53758.got.cif
#   From: 2010.06.25/outbox.cif.g09.slc.cpg/sg10_27_cif.got.tgz:53758.got - 2010.06.27 22:07:45.
