data_PCOD8064143
_publ_section_title
;
Structure prediction by ZEFSAII (Michael W. Deem and Ramdas Pophale) SiO2 
 PCOD8064143
Probable space group: P 2/M
;
_chemical_formula_sum "Si O2"
_cell_formula_units_Z 28
_cell_length_a 9.021351
_cell_length_b 21.218483
_cell_length_c 15.109326
_cell_angle_alpha 90.000000
_cell_angle_beta 30.441410
_cell_angle_gamma 90.000000
_cell_volume 1465.362440
_symmetry_space_group_name_H-M "P 2/M"
_symmetry_group_IT_number 10
_symmetry_cell_setting 'monoclinic'
loop_
_space_group_symop_operation_xyz
x,y,z
-x,y,-z
-x,-y,-z
x,-y,z
loop_
_atom_site_type_symbol
_atom_site_label
_atom_site_fract_x
_atom_site_fract_y
_atom_site_fract_z
Si Si1 0.171913 0.000000 0.639752
Si Si2 0.358356 0.798616 0.166658
Si Si3 0.668375 0.118921 0.137600
Si Si4 0.298886 0.651679 0.184283
Si Si5 0.280367 0.572934 0.537445
Si Si6 0.651074 0.568190 0.687541
Si Si7 0.650222 0.000000 0.021316
Si Si8 0.870044 0.891196 0.474391
O O1 0.500000 0.000000 0.500000
O O2 0.088421 0.940289 0.624790
O O3 0.994836 0.000000 0.822893
O O4 0.596944 0.817754 0.118750
O O5 0.280373 0.725599 0.210099
O O6 0.045852 0.830428 0.349160
O O7 0.500000 0.818461 0.000000
O O8 0.473378 0.120531 0.327908
O O9 0.577876 0.061099 0.118555
O O10 0.000000 0.115864 0.000000
O O11 0.451690 0.621828 0.192321
O O12 0.986623 0.621365 0.324430
O O13 0.500000 0.633804 0.000000
O O14 0.500000 0.593981 0.500000
O O15 0.173226 0.500000 0.603240
O O16 0.466259 0.580935 0.350951
O O17 0.541249 0.500000 0.778802
O O18 0.000000 0.567851 0.500000
O O19 0.500000 0.000000 0.000000
O O20 0.000000 0.916581 0.500000
#
# Coordination Sequence:
#
# PCOD8064143 Si02
#       8
#     2   4   4   4   4   4   2   4
#     4  12  22  34  54  82 108 135 176 223 272 325
#     4  10  22  40  56  76 109 148 189 227 273 336
#     4  11  22  38  58  84 112 139 181 236 284 327
#     4  10  20  35  55  80 109 144 188 231 273 333
#     4   9  18  34  56  83 114 146 183 230 279 326
#     4   8  15  29  52  78 105 140 178 215 261 322
#     4  12  22  36  60  82 111 149 178 223 286 339
#     4  10  21  37  57  78 104 141 180 217 271 334
#
# _framework density 19.107900000000001
#
# number of rings (size 3 to 8) (size 9 to 14) (size 15 to 20)
#    0.000    2.000    0.000    6.000    0.000    6.286 
#    0.000    7.143    0.000    2.571    0.000    0.000 
#    0.000    0.000    0.000    0.000    0.000    0.000 
#
# Total GULP energy -346990.047549 kJ/mol
# GULP energy per Si atom -12392.501698 kJ/mol
# Density = 1.906441 g / cm^3
# Si number density = 19.107900 Si / 1000 Ang^3
#
#
#
# Elastic Constant Matrix: (Units=GPa)
#
#
# Indices 1 2 3 4 5 6 
#
# 1 107.1806 58.2696 37.6175 0.0000 4.5689 0.0000
# 2 58.2696 102.1436 55.3355 0.0000 10.0819 0.0000
# 3 37.6175 55.3355 116.5783 0.0000 14.1000 0.0000
# 4 0.0000 0.0000 0.0000 25.0195 0.0000 16.2459
# 5 4.5689 10.0819 14.1000 0.0000 34.9411 0.0000
# 6 0.0000 0.0000 0.0000 16.2459 0.0000 6.4978
#
#
#
# Elastic Compliance Matrix: (Units=1/GPa)
#
#
# Indices 1 2 3 4 5 6 
#
# 1 0.013620 -0.007287 -0.001025 0.000000 0.000735 0.000000
# 2 -0.007287 0.017138 -0.005573 0.000000 -0.001743 0.000000
# 3 -0.001025 -0.005573 0.011925 0.000000 -0.003070 0.000000
# 4 0.000000 0.000000 0.000000 -0.064108 0.000000 0.160283
# 5 0.000735 -0.001743 -0.003070 0.000000 0.030265 0.000000
# 6 0.000000 0.000000 0.000000 0.160283 0.000000 -0.246845
#
#
# Mechanical properties :
#
#
# Convention : Reuss Voigt Hill
#
# Bulk Modulus (GPa) = 67.05073 69.81641 68.43357
# Shear Modulus (GPa) = -24.35899 24.93700 0.28900
#
# Velocity S-wave (km/s) = -3.57433 3.61648 0.38933
# Velocity P-wave (km/s) = 4.25821 7.35227 6.00784
#
# Compressibility (1/GPa) = 0.01491408
#
# Stress axis : x y z
#
# Youngs Moduli (GPa) = 73.42064 58.34906 83.85665
#
# Poissons Ratio (x) = 0.42520 0.08595
# Poissons Ratio (y) = 0.53503 0.46730
# Poissons Ratio (z) = 0.07525 0.32516
#
# Static dielectric constant tensor:
#      x y z
#    x 3.883780 0.000000 0.385550 
#    y 0.000000 3.414680 0.000000 
#    z 0.385550 0.000000 3.700950 
# 
# 
# High freq. dielectric constant tensor:
#      x y z
#    x 1.743470 0.000000 0.019680 
#    y 0.000000 1.735920 0.000000 
#    z 0.019680 0.000000 1.743930 
# 
# From -- ./inp_files/62587.got.cif
#   From: 2010.06.25/outbox.cif.g09.slc.cpg/sg10_32_cif.got.tgz:62587.got - 2010.06.27 22:07:45.
