data_PCOD8064720
_publ_section_title
;
Structure prediction by ZEFSAII (Michael W. Deem and Ramdas Pophale) SiO2 
 PCOD8064720
Probable space group: P 2/M
;
_chemical_formula_sum "Si O2"
_cell_formula_units_Z 28
_cell_length_a 8.926099
_cell_length_b 9.043224
_cell_length_c 28.734952
_cell_angle_alpha 90.000000
_cell_angle_beta 38.714887
_cell_angle_gamma 90.000000
_cell_volume 1450.724264
_symmetry_space_group_name_H-M "P 2/M"
_symmetry_group_IT_number 10
_symmetry_cell_setting 'monoclinic'
loop_
_space_group_symop_operation_xyz
x,y,z
-x,y,-z
-x,-y,-z
x,-y,z
loop_
_atom_site_type_symbol
_atom_site_label
_atom_site_fract_x
_atom_site_fract_y
_atom_site_fract_z
Si Si1 0.832113 0.830019 0.636803
Si Si2 0.218582 0.170269 0.073503
Si Si3 0.485319 0.173701 0.636377
Si Si4 0.908780 0.674612 0.072246
Si Si5 0.675869 0.674377 0.498388
Si Si6 0.593116 0.171972 0.793427
Si Si7 0.046916 0.175514 0.215221
O O1 0.645643 0.787942 0.641943
O O2 0.706290 0.799768 0.715998
O O3 0.058846 0.724880 0.578487
O O4 0.915677 0.000000 0.612053
O O5 0.095781 0.268207 0.064448
O O6 0.137977 0.232152 0.143230
O O7 0.139037 0.000000 0.086564
O O8 0.500000 0.188323 0.000000
O O9 0.595040 0.253339 0.565699
O O10 0.219299 0.236139 0.710422
O O11 0.480167 0.000000 0.627433
O O12 0.894086 0.500000 0.079036
O O13 0.649752 0.739008 0.144849
O O14 0.000000 0.728392 0.000000
O O15 0.500000 0.726754 0.500000
O O16 0.672151 0.500000 0.505571
O O17 0.774877 0.234840 0.788208
O O18 0.537026 0.000000 0.815335
O O19 0.043920 0.000000 0.216755
#
# Coordination Sequence:
#
# PCOD8064720 Si02
#       7
#     4   4   4   4   4   4   4
#     4  10  21  37  60  88 113 142 182 229 281 334
#     4  10  20  36  60  87 113 144 187 236 281 328
#     4  10  20  36  58  83 112 144 182 228 278 333
#     4  11  24  39  55  80 116 154 189 227 275 331
#     4  11  24  39  55  79 112 149 189 230 273 327
#     4  10  20  37  62  87 111 143 185 230 276 328
#     4   9  18  34  58  87 113 140 180 231 282 330
#
# _framework density 19.300702999999999
#
# number of rings (size 3 to 8) (size 9 to 14) (size 15 to 20)
#    0.000    1.857    0.000    3.857    0.000   10.000 
#    0.000    3.571    0.000    0.000    0.000    0.000 
#    0.000    0.000    0.000    0.000    0.000    0.000 
#
# Total GULP energy -347329.759090 kJ/mol
# GULP energy per Si atom -12404.634253 kJ/mol
# Density = 1.925677 g / cm^3
# Si number density = 19.300703 Si / 1000 Ang^3
#
#
#
# Elastic Constant Matrix: (Units=GPa)
#
#
# Indices 1 2 3 4 5 6 
#
# 1 134.9840 38.2526 63.5222 0.0000 16.7679 0.0000
# 2 38.2526 43.1413 38.4275 0.0000 4.4888 0.0000
# 3 63.5222 38.4275 107.2254 0.0000 7.7208 0.0000
# 4 0.0000 0.0000 0.0000 15.3058 0.0000 2.5944
# 5 16.7679 4.4888 7.7208 0.0000 41.5775 0.0000
# 6 0.0000 0.0000 0.0000 2.5944 0.0000 25.2968
#
#
#
# Elastic Compliance Matrix: (Units=1/GPa)
#
#
# Indices 1 2 3 4 5 6 
#
# 1 0.011618 -0.005939 -0.004524 0.000000 -0.003204 0.000000
# 2 -0.005939 0.037168 -0.009817 0.000000 0.000205 0.000000
# 3 -0.004524 -0.009817 0.015524 0.000000 0.000001 0.000000
# 4 0.000000 0.000000 0.000000 0.066491 0.000000 -0.006819
# 5 -0.003204 0.000205 0.000001 0.000000 0.025321 0.000000
# 6 0.000000 0.000000 0.000000 -0.006819 0.000000 0.040230
#
#
# Mechanical properties :
#
#
# Convention : Reuss Voigt Hill
#
# Bulk Modulus (GPa) = 42.10204 62.86169 52.48187
# Shear Modulus (GPa) = 20.42242 26.11258 23.26750
#
# Velocity S-wave (km/s) = 3.25640 3.68222 3.47584
# Velocity P-wave (km/s) = 6.00000 7.12170 6.58478
#
# Compressibility (1/GPa) = 0.02375182
#
# Stress axis : x y z
#
# Youngs Moduli (GPa) = 86.07256 26.90455 64.41563
#
# Poissons Ratio (x) = 0.15978 0.29140
# Poissons Ratio (y) = 0.51116 0.63237
# Poissons Ratio (z) = 0.38937 0.26412
#
# Static dielectric constant tensor:
#      x y z
#    x 3.800170 0.000000 0.047570 
#    y 0.000000 3.325330 0.000000 
#    z 0.047570 0.000000 3.711270 
# 
# 
# High freq. dielectric constant tensor:
#      x y z
#    x 1.772250 0.000000 0.001710 
#    y 0.000000 1.726730 0.000000 
#    z 0.001710 0.000000 1.770910 
# 
# From -- ./inp_files/36833.got.cif
#   From: 2010.06.25/outbox.cif.g09.slc.cpg/sg10_19_cif.got.tgz:36833.got - 2010.06.27 22:07:45.
