data_PCOD8064607
_publ_section_title
;
Structure prediction by ZEFSAII (Michael W. Deem and Ramdas Pophale) SiO2 
 PCOD8064607
Probable space group: P 2/M
;
_chemical_formula_sum "Si O2"
_cell_formula_units_Z 20
_cell_length_a 9.035369
_cell_length_b 12.798153
_cell_length_c 9.485713
_cell_angle_alpha 90.000000
_cell_angle_beta 64.935727
_cell_angle_gamma 90.000000
_cell_volume 993.599523
_symmetry_space_group_name_H-M "P 2/M"
_symmetry_group_IT_number 10
_symmetry_cell_setting 'monoclinic'
loop_
_space_group_symop_operation_xyz
x,y,z
-x,y,-z
-x,-y,-z
x,-y,z
loop_
_atom_site_type_symbol
_atom_site_label
_atom_site_fract_x
_atom_site_fract_y
_atom_site_fract_z
Si Si1 0.184953 0.116234 0.972157
Si Si2 0.316120 0.275672 0.130976
Si Si3 0.681456 0.120941 0.378635
Si Si4 0.659830 0.500000 0.532526
Si Si5 0.183154 0.713318 0.480505
Si Si6 0.666450 0.500000 0.855113
O O1 0.302258 0.145015 0.794046
O O2 0.228207 0.000000 0.009417
O O3 0.205130 0.195114 0.092362
O O4 0.000000 0.121999 0.000000
O O5 0.304174 0.254109 0.303001
O O6 0.239823 0.393187 0.140643
O O7 0.500000 0.266335 0.000000
O O8 0.500000 0.150646 0.500000
O O9 0.809690 0.192680 0.410518
O O10 0.723871 0.000000 0.393021
O O11 0.500000 0.500000 0.500000
O O12 0.764196 0.605521 0.462820
O O13 0.612128 0.500000 0.714793
O O14 0.000000 0.699309 0.500000
O O15 0.500000 0.500000 0.000000
#
# Coordination Sequence:
#
# PCOD8064607 Si02
#       6
#     4   4   4   2   4   2
#     4  10  21  37  55  78 110 144 179 223 273 320
#     4  10  20  36  57  78 107 144 181 221 267 323
#     4  10  21  37  56  80 111 146 186 228 269 321
#     4  10  21  37  58  81 109 146 183 220 270 329
#     4  11  22  36  56  84 114 142 180 229 277 323
#     4   8  18  35  53  79 107 134 172 222 264 305
#
# _framework density 20.128834999999999
#
# number of rings (size 3 to 8) (size 9 to 14) (size 15 to 20)
#    0.000    2.000    0.000    3.300    0.000    4.800 
#    0.000    0.500    0.000    0.000    0.000    0.000 
#    0.000    0.000    0.000    0.000    0.000    0.000 
#
# Total GULP energy -247911.268389 kJ/mol
# GULP energy per Si atom -12395.563419 kJ/mol
# Density = 2.008302 g / cm^3
# Si number density = 20.128835 Si / 1000 Ang^3
#
#
#
# Elastic Constant Matrix: (Units=GPa)
#
#
# Indices 1 2 3 4 5 6 
#
# 1 85.3255 46.8315 12.2758 0.0000 10.0806 0.0000
# 2 46.8315 153.7685 48.3568 0.0000 35.4677 0.0000
# 3 12.2758 48.3568 65.0715 0.0000 0.2333 0.0000
# 4 0.0000 0.0000 0.0000 43.8790 0.0000 24.6803
# 5 10.0806 35.4677 0.2333 0.0000 31.5644 0.0000
# 6 0.0000 0.0000 0.0000 24.6803 0.0000 46.7673
#
#
#
# Elastic Compliance Matrix: (Units=1/GPa)
#
#
# Indices 1 2 3 4 5 6 
#
# 1 0.014111 -0.004769 0.000879 0.000000 0.000846 0.000000
# 2 -0.004769 0.014372 -0.009729 0.000000 -0.014555 0.000000
# 3 0.000879 -0.009729 0.022394 0.000000 0.010486 0.000000
# 4 0.000000 0.000000 0.000000 0.032410 0.000000 -0.017104
# 5 0.000846 -0.014555 0.010486 0.000000 0.047688 0.000000
# 6 0.000000 0.000000 0.000000 -0.017104 0.000000 0.030409
#
#
# Mechanical properties :
#
#
# Convention : Reuss Voigt Hill
#
# Bulk Modulus (GPa) = 42.30166 57.67708 49.98937
# Shear Modulus (GPa) = 25.44506 37.55556 31.50031
#
# Velocity S-wave (km/s) = 3.55929 4.32413 3.96022
# Velocity P-wave (km/s) = 6.16056 7.32441 6.76755
#
# Compressibility (1/GPa) = 0.02363973
#
# Stress axis : x y z
#
# Youngs Moduli (GPa) = 70.86654 69.57799 44.65482
#
# Poissons Ratio (x) = 0.33183 -0.03925
# Poissons Ratio (y) = 0.33797 0.43443
# Poissons Ratio (z) = -0.06229 0.67690
#
# Static dielectric constant tensor:
#      x y z
#    x 3.248600 0.000000 -0.184530 
#    y 0.000000 5.147360 0.000000 
#    z -0.184530 0.000000 3.868240 
# 
# 
# High freq. dielectric constant tensor:
#      x y z
#    x 1.760700 0.000000 -0.014080 
#    y 0.000000 1.804290 0.000000 
#    z -0.014080 0.000000 1.793020 
# 
# From -- ./inp_files/17817.got.cif
#   From: 2010.06.25/outbox.cif.g09.slc.cpg/sg10_9_cif.got.tgz:17817.got - 2010.06.27 22:07:45.
