data_PCOD8064899
_publ_section_title
;
Structure prediction by ZEFSAII (Michael W. Deem and Ramdas Pophale) SiO2 
 PCOD8064899
Probable space group: P 2/M
;
_chemical_formula_sum "Si O2"
_cell_formula_units_Z 32
_cell_length_a 13.986678
_cell_length_b 9.055929
_cell_length_c 12.594653
_cell_angle_alpha 90.000000
_cell_angle_beta 85.952615
_cell_angle_gamma 90.000000
_cell_volume 1591.289939
_symmetry_space_group_name_H-M "P 2/M"
_symmetry_group_IT_number 10
_symmetry_cell_setting 'monoclinic'
loop_
_space_group_symop_operation_xyz
x,y,z
-x,y,-z
-x,-y,-z
x,-y,z
loop_
_atom_site_type_symbol
_atom_site_label
_atom_site_fract_x
_atom_site_fract_y
_atom_site_fract_z
Si Si1 0.593860 0.170666 0.718088
Si Si2 0.294000 0.670332 0.112881
Si Si3 0.943812 0.174089 0.108004
Si Si4 0.094017 0.332507 0.221788
Si Si5 0.602114 0.674533 0.320168
Si Si6 0.709183 0.829480 0.498332
Si Si7 0.742447 0.329690 0.120403
Si Si8 0.105499 0.330531 0.465363
O O1 0.634848 0.226470 0.826928
O O2 0.502450 0.266023 0.695911
O O3 0.673517 0.192899 0.621236
O O4 0.564533 0.000000 0.731437
O O5 0.311415 0.500000 0.144652
O O6 0.184029 0.715705 0.143189
O O7 0.312683 0.696492 0.986643
O O8 0.837091 0.233504 0.120590
O O9 0.003015 0.229740 0.205294
O O10 0.938597 0.000000 0.110485
O O11 0.000000 0.233063 0.000000
O O12 0.063255 0.500000 0.199644
O O13 0.125869 0.313399 0.339952
O O14 0.597094 0.500000 0.334757
O O15 0.637479 0.745030 0.426563
O O16 0.671731 0.720906 0.218914
O O17 0.815849 0.763793 0.477498
O O18 0.711451 0.000000 0.465260
O O19 0.772460 0.500000 0.129394
O O20 0.114265 0.500000 0.502827
O O21 0.000000 0.268830 0.500000
#
# Coordination Sequence:
#
# PCOD8064899 Si02
#       8
#     4   4   4   4   4   4   4   4
#     4  11  24  42  65  92 122 156 197 250 310 367
#     4  10  20  38  65  91 118 157 206 251 294 354
#     4  11  23  36  56  87 123 161 199 241 293 355
#     4  10  20  36  60  86 117 161 205 247 295 350
#     4  11  25  43  65  90 119 158 205 255 305 358
#     4  11  24  42  64  91 125 161 199 247 304 366
#     4  10  23  42  62  88 122 161 205 253 301 353
#     4  10  22  39  60  90 124 158 200 248 296 352
#
# _framework density 20.109472
#
# number of rings (size 3 to 8) (size 9 to 14) (size 15 to 20)
#    0.000    1.500    2.500    1.875    1.750    6.750 
#    0.000    2.500    0.000    0.000    0.000    0.000 
#    0.000    0.000    0.000    0.000    0.000    0.000 
#
# Total GULP energy -396983.823321 kJ/mol
# GULP energy per Si atom -12405.744479 kJ/mol
# Density = 2.006370 g / cm^3
# Si number density = 20.109472 Si / 1000 Ang^3
#
#
#
# Elastic Constant Matrix: (Units=GPa)
#
#
# Indices 1 2 3 4 5 6 
#
# 1 108.9048 55.7874 17.6883 0.0000 14.4454 0.0000
# 2 55.7874 90.4387 28.7634 0.0000 8.0477 0.0000
# 3 17.6883 28.7634 50.7889 0.0000 12.0247 0.0000
# 4 0.0000 0.0000 0.0000 10.8079 0.0000 -28.1793
# 5 14.4454 8.0477 12.0247 0.0000 33.6417 0.0000
# 6 0.0000 0.0000 0.0000 -28.1793 0.0000 -28.8616
#
#
#
# Elastic Compliance Matrix: (Units=1/GPa)
#
#
# Indices 1 2 3 4 5 6 
#
# 1 0.013974 -0.008553 0.000998 0.000000 -0.004311 0.000000
# 2 -0.008553 0.018731 -0.008125 0.000000 0.002096 0.000000
# 3 0.000998 -0.008125 0.025765 0.000000 -0.007694 0.000000
# 4 0.000000 0.000000 0.000000 0.026095 0.000000 -0.025478
# 5 -0.004311 0.002096 -0.007694 0.000000 0.033825 0.000000
# 6 0.000000 0.000000 0.000000 -0.025478 0.000000 -0.009772
#
#
# Mechanical properties :
#
#
# Convention : Reuss Voigt Hill
#
# Bulk Modulus (GPa) = 36.88919 50.51229 43.70074
# Shear Modulus (GPa) = 33.55357 12.97717 23.26537
#
# Velocity S-wave (km/s) = 4.08922 2.54308 3.40507
# Velocity P-wave (km/s) = 6.37805 5.81345 6.10229
#
# Compressibility (1/GPa) = 0.02710821
#
# Stress axis : x y z
#
# Youngs Moduli (GPa) = 71.56355 53.38702 38.81227
#
# Poissons Ratio (x) = 0.45665 -0.03874
# Poissons Ratio (y) = 0.61212 0.31537
# Poissons Ratio (z) = -0.07143 0.43379
#
# Static dielectric constant tensor:
#      x y z
#    x 3.563590 0.000000 -0.041820 
#    y 0.000000 3.603000 0.000000 
#    z -0.041820 0.000000 3.790120 
# 
# 
# High freq. dielectric constant tensor:
#      x y z
#    x 1.788730 0.000000 0.004100 
#    y 0.000000 1.782680 0.000000 
#    z 0.004100 0.000000 1.790290 
# 
# From -- ./inp_files/49838.got.cif
#   From: 2010.06.25/outbox.cif.g09.slc.cpg/sg10_25_cif.got.tgz:49838.got - 2010.06.27 22:07:45.
