data_PCOD8064535
_publ_section_title
;
Structure prediction by ZEFSAII (Michael W. Deem and Ramdas Pophale) SiO2 
 PCOD8064535
Probable space group: P 2/M
;
_chemical_formula_sum "Si O2"
_cell_formula_units_Z 26
_cell_length_a 9.479989
_cell_length_b 20.117291
_cell_length_c 9.032597
_cell_angle_alpha 90.000000
_cell_angle_beta 128.999870
_cell_angle_gamma 90.000000
_cell_volume 1338.731117
_symmetry_space_group_name_H-M "P 2/M"
_symmetry_group_IT_number 10
_symmetry_cell_setting 'monoclinic'
loop_
_space_group_symop_operation_xyz
x,y,z
-x,y,-z
-x,-y,-z
x,-y,z
loop_
_atom_site_type_symbol
_atom_site_label
_atom_site_fract_x
_atom_site_fract_y
_atom_site_fract_z
Si Si1 0.797764 0.574504 0.419692
Si Si2 0.748824 0.302002 0.957531
Si Si3 0.675481 0.813552 0.529673
Si Si4 0.790979 0.924895 0.826569
Si Si5 0.426993 0.837468 0.114415
Si Si6 0.500000 0.382324 0.000000
Si Si7 0.150230 0.681239 0.306523
O O1 0.788091 0.500000 0.479671
O O2 0.656506 0.576361 0.188106
O O3 0.756813 0.626879 0.524247
O O4 0.000000 0.590847 0.500000
O O5 0.713769 0.223338 0.951496
O O6 0.582213 0.337492 0.925523
O O7 0.756109 0.324650 0.791889
O O8 0.933638 0.326401 0.156894
O O9 0.500000 0.785308 0.500000
O O10 0.749734 0.879266 0.657966
O O11 0.616421 0.830060 0.325353
O O12 0.822876 0.755643 0.615191
O O13 0.678255 0.902290 0.896574
O O14 0.734636 0.000000 0.749681
O O15 0.000000 0.919207 0.000000
O O16 0.500000 0.847493 0.000000
#
# Coordination Sequence:
#
# PCOD8064535 Si02
#       7
#     4   4   4   4   4   2   4
#     4  11  25  45  65  94 131 169 209 260 326 386
#     4  11  22  38  64  94 127 159 213 265 314 371
#     4  10  20  35  62  90 122 160 206 255 305 374
#     4  10  21  40  62  86 122 168 209 252 311 377
#     4  11  22  36  57  93 125 157 202 261 315 362
#     4  12  23  42  66  94 125 170 208 266 319 380
#     4  11  22  40  64  93 123 166 212 263 309 379
#
# _framework density 19.421375000000001
#
# number of rings (size 3 to 8) (size 9 to 14) (size 15 to 20)
#    0.000    1.231    5.385    2.077    0.000    3.077 
#    0.000    6.154    0.000    1.846    0.000    0.000 
#    0.000    0.000    0.000    0.000    0.000    0.000 
#
# Total GULP energy -322331.132370 kJ/mol
# GULP energy per Si atom -12397.351245 kJ/mol
# Density = 1.937717 g / cm^3
# Si number density = 19.421375 Si / 1000 Ang^3
#
#
#
# Elastic Constant Matrix: (Units=GPa)
#
#
# Indices 1 2 3 4 5 6 
#
# 1 91.5154 42.2369 49.7502 0.0000 -9.8433 0.0000
# 2 42.2369 130.3413 53.4884 0.0000 -10.9092 0.0000
# 3 49.7502 53.4884 133.4378 0.0000 -12.4721 0.0000
# 4 0.0000 0.0000 0.0000 22.2573 0.0000 -10.2375
# 5 -9.8433 -10.9092 -12.4721 0.0000 29.7688 0.0000
# 6 0.0000 0.0000 0.0000 -10.2375 0.0000 18.8470
#
#
#
# Elastic Compliance Matrix: (Units=1/GPa)
#
#
# Indices 1 2 3 4 5 6 
#
# 1 0.014740 -0.002905 -0.004137 0.000000 0.002076 0.000000
# 2 -0.002905 0.009859 -0.002728 0.000000 0.001510 0.000000
# 3 -0.004137 -0.002728 0.010313 0.000000 0.001953 0.000000
# 4 0.000000 0.000000 0.000000 0.059894 0.000000 0.032534
# 5 0.002076 0.001510 0.001953 0.000000 0.035650 0.000000
# 6 0.000000 0.000000 0.000000 0.032534 0.000000 0.070731
#
#
# Mechanical properties :
#
#
# Convention : Reuss Voigt Hill
#
# Bulk Modulus (GPa) = 65.05322 71.80505 68.42914
# Shear Modulus (GPa) = 22.13848 28.16254 25.15051
#
# Velocity S-wave (km/s) = 3.37991 3.81212 3.60250
# Velocity P-wave (km/s) = 6.98571 7.51191 7.25358
#
# Compressibility (1/GPa) = 0.01537203
#
# Stress axis : x y z
#
# Youngs Moduli (GPa) = 67.84159 101.42665 96.96853
#
# Poissons Ratio (x) = 0.29465 0.40117
# Poissons Ratio (y) = 0.19708 0.26452
# Poissons Ratio (z) = 0.28067 0.27668
#
# Static dielectric constant tensor:
#      x y z
#    x 3.431670 0.000000 0.228770 
#    y 0.000000 3.518700 0.000000 
#    z 0.228770 0.000000 3.810600 
# 
# 
# High freq. dielectric constant tensor:
#      x y z
#    x 1.747570 0.000000 0.007460 
#    y 0.000000 1.749130 0.000000 
#    z 0.007460 0.000000 1.773040 
# 
# From -- ./inp_files/20435.got.cif
#   From: 2010.06.25/outbox.cif.g09.slc.cpg/sg10_11_cif.got.tgz:20435.got - 2010.06.27 22:07:45.
