data_PCOD8064757
_publ_section_title
;
Structure prediction by ZEFSAII (Michael W. Deem and Ramdas Pophale) SiO2 
 PCOD8064757
Probable space group: P 2/M
;
_chemical_formula_sum "Si O2"
_cell_formula_units_Z 32
_cell_length_a 14.950191
_cell_length_b 8.985430
_cell_length_c 23.773054
_cell_angle_alpha 90.000000
_cell_angle_beta 151.056871
_cell_angle_gamma 90.000000
_cell_volume 1545.479404
_symmetry_space_group_name_H-M "P 2/M"
_symmetry_group_IT_number 10
_symmetry_cell_setting 'monoclinic'
loop_
_space_group_symop_operation_xyz
x,y,z
-x,y,-z
-x,-y,-z
x,-y,z
loop_
_atom_site_type_symbol
_atom_site_label
_atom_site_fract_x
_atom_site_fract_y
_atom_site_fract_z
Si Si1 0.477190 0.825205 0.240459
Si Si2 0.903564 0.162619 0.805067
Si Si3 0.474933 0.328155 0.118776
Si Si4 0.144294 0.328874 0.732165
Si Si5 0.224561 0.176225 0.505352
Si Si6 0.163557 0.660628 0.131418
Si Si7 0.196966 0.826155 0.879551
Si Si8 0.517312 0.166405 0.449860
O O1 0.458220 0.737882 0.171877
O O2 0.671523 0.787764 0.378693
O O3 0.313038 0.778562 0.191962
O O4 0.460570 0.000000 0.219358
O O5 0.953436 0.282797 0.879095
O O6 0.684264 0.160283 0.686315
O O7 0.993842 0.203118 0.794613
O O8 0.980976 0.000000 0.865168
O O9 0.412493 0.500000 0.085490
O O10 0.686226 0.311934 0.216850
O O11 0.349180 0.240584 0.005173
O O12 0.097556 0.500000 0.719050
O O13 0.199203 0.251804 0.820717
O O14 0.973635 0.253429 0.605941
O O15 0.345306 0.241820 0.519458
O O16 0.199632 0.000000 0.485236
O O17 0.259678 0.500000 0.196825
O O18 0.000000 0.632815 0.000000
O O19 0.238749 0.000000 0.893571
O O20 0.500000 0.254079 0.500000
O O21 0.594271 0.000000 0.504311
#
# Coordination Sequence:
#
# PCOD8064757 Si02
#       8
#     4   4   4   4   4   4   4   4
#     4  11  23  41  65  92 124 164 212 265 316 369
#     4  10  20  36  58  87 120 156 197 241 297 358
#     4  11  25  44  64  89 125 167 209 260 324 384
#     4  11  25  43  64  90 125 168 208 258 324 384
#     4  10  21  39  63  91 124 163 210 263 311 365
#     4  11  23  37  56  85 123 165 203 245 300 364
#     4  11  23  40  67  98 126 161 209 265 316 371
#     4   9  16  31  56  84 117 155 193 239 296 355
#
# _framework density 20.705548
#
# number of rings (size 3 to 8) (size 9 to 14) (size 15 to 20)
#    0.000    1.500    1.250    3.750    0.000   11.000 
#    0.000    2.500    0.000    1.500    0.000    0.000 
#    0.000    0.000    0.000    0.000    0.000    0.000 
#
# Total GULP energy -396659.197685 kJ/mol
# GULP energy per Si atom -12395.599928 kJ/mol
# Density = 2.065842 g / cm^3
# Si number density = 20.705548 Si / 1000 Ang^3
#
#
#
# Elastic Constant Matrix: (Units=GPa)
#
#
# Indices 1 2 3 4 5 6 
#
# 1 75.5886 33.9622 11.8577 0.0000 -4.8761 0.0000
# 2 33.9622 92.3388 34.6930 0.0000 -7.2093 0.0000
# 3 11.8577 34.6930 82.2824 0.0000 -3.7875 0.0000
# 4 0.0000 0.0000 0.0000 27.5148 0.0000 0.7221
# 5 -4.8761 -7.2093 -3.7875 0.0000 36.7131 0.0000
# 6 0.0000 0.0000 0.0000 0.7221 0.0000 39.3638
#
#
#
# Elastic Compliance Matrix: (Units=1/GPa)
#
#
# Indices 1 2 3 4 5 6 
#
# 1 0.015886 -0.005850 0.000222 0.000000 0.000984 0.000000
# 2 -0.005850 0.015167 -0.005476 0.000000 0.001636 0.000000
# 3 0.000222 -0.005476 0.014451 0.000000 0.000445 0.000000
# 4 0.000000 0.000000 0.000000 0.036362 0.000000 -0.000667
# 5 0.000984 0.001636 0.000445 0.000000 0.027736 0.000000
# 6 0.000000 0.000000 0.000000 -0.000667 0.000000 0.025416
#
#
# Mechanical properties :
#
#
# Convention : Reuss Voigt Hill
#
# Bulk Modulus (GPa) = 42.92553 45.69285 44.30919
# Shear Modulus (GPa) = 30.30476 32.03147 31.16811
#
# Velocity S-wave (km/s) = 3.82986 3.93746 3.88403
# Velocity P-wave (km/s) = 6.35087 6.54120 6.44674
#
# Compressibility (1/GPa) = 0.02329616
#
# Stress axis : x y z
#
# Youngs Moduli (GPa) = 62.94687 65.93473 69.20065
#
# Poissons Ratio (x) = 0.38570 -0.01539
# Poissons Ratio (y) = 0.36822 0.37897
# Poissons Ratio (z) = -0.01400 0.36108
#
# Static dielectric constant tensor:
#      x y z
#    x 7.228370 0.000000 0.684940 
#    y 0.000000 4.115750 0.000000 
#    z 0.684940 0.000000 3.918640 
# 
# 
# High freq. dielectric constant tensor:
#      x y z
#    x 1.820830 0.000000 -0.002940 
#    y 0.000000 1.801670 0.000000 
#    z -0.002940 0.000000 1.813880 
# 
# From -- ./inp_files/89605.got.cif
#   From: 2010.06.25/outbox.cif.g09.slc.cpg/sg10_45_cif.got.tgz:89605.got - 2010.06.27 22:07:45.
