data_PCOD8064945
_publ_section_title
;
Structure prediction by ZEFSAII (Michael W. Deem and Ramdas Pophale) SiO2 
 PCOD8064945
Probable space group: P 2/M
;
_chemical_formula_sum "Si O2"
_cell_formula_units_Z 26
_cell_length_a 14.325293
_cell_length_b 7.384278
_cell_length_c 12.241148
_cell_angle_alpha 90.000000
_cell_angle_beta 70.793190
_cell_angle_gamma 90.000000
_cell_volume 1222.815214
_symmetry_space_group_name_H-M "P 2/M"
_symmetry_group_IT_number 10
_symmetry_cell_setting 'monoclinic'
loop_
_space_group_symop_operation_xyz
x,y,z
-x,y,-z
-x,-y,-z
x,-y,z
loop_
_atom_site_type_symbol
_atom_site_label
_atom_site_fract_x
_atom_site_fract_y
_atom_site_fract_z
Si Si1 0.879914 0.000000 0.832830
Si Si2 0.205304 0.708622 0.510764
Si Si3 0.539673 0.712439 0.871564
Si Si4 0.349196 0.288434 0.812979
Si Si5 0.605200 0.290257 0.438687
Si Si6 0.893063 0.000000 0.300680
Si Si7 0.238614 0.285999 0.252356
Si Si8 0.803449 0.000000 0.091905
O O1 0.825319 0.819555 0.811876
O O2 0.989869 0.000000 0.745729
O O3 0.883665 0.000000 0.963699
O O4 0.177817 0.500000 0.543860
O O5 0.321546 0.744162 0.489154
O O6 0.139196 0.824025 0.618503
O O7 0.191990 0.759856 0.389243
O O8 0.550253 0.500000 0.881908
O O9 0.459235 0.761479 0.810947
O O10 0.648058 0.786104 0.797578
O O11 0.500000 0.798664 0.000000
O O12 0.325811 0.500000 0.839469
O O13 0.343875 0.217243 0.690604
O O14 0.263658 0.176987 0.905427
O O15 0.500000 0.192913 0.500000
O O16 0.584327 0.500000 0.424336
O O17 0.853408 0.000000 0.191901
O O18 0.231956 0.500000 0.231265
#
# Coordination Sequence:
#
# PCOD8064945 Si02
#       8
#     2   4   4   4   4   2   4   2
#     4  12  28  45  65  88 118 163 216 272 318 366
#     4  10  21  40  67  94 126 161 199 256 318 377
#     4   9  17  32  57  89 127 168 204 241 292 360
#     4  10  20  36  60  91 127 164 202 246 301 369
#     4   9  16  30  56  90 125 161 196 234 291 362
#     4  12  26  46  65  89 121 159 213 272 324 365
#     4  10  22  42  66  96 129 163 205 254 312 375
#     4  12  25  43  64  89 121 164 215 263 314 369
#
# _framework density 21.262412000000001
#
# number of rings (size 3 to 8) (size 9 to 14) (size 15 to 20)
#    0.000    1.846    1.538    2.538    0.000    8.000 
#    0.000    6.154    0.000    2.769    0.000    0.000 
#    0.000    0.000    0.000    0.000    0.000    0.000 
#
# Total GULP energy -322307.830905 kJ/mol
# GULP energy per Si atom -12396.455035 kJ/mol
# Density = 2.121402 g / cm^3
# Si number density = 21.262412 Si / 1000 Ang^3
#
#
#
# Elastic Constant Matrix: (Units=GPa)
#
#
# Indices 1 2 3 4 5 6 
#
# 1 90.8838 35.8629 43.0377 0.0000 -7.8081 0.0000
# 2 35.8629 86.6077 41.9232 0.0000 -1.7199 0.0000
# 3 43.0377 41.9232 135.4435 0.0000 -1.0826 0.0000
# 4 0.0000 0.0000 0.0000 22.4532 0.0000 0.7187
# 5 -7.8081 -1.7199 -1.0826 0.0000 36.9106 0.0000
# 6 0.0000 0.0000 0.0000 0.7187 0.0000 20.6797
#
#
#
# Elastic Compliance Matrix: (Units=1/GPa)
#
#
# Indices 1 2 3 4 5 6 
#
# 1 0.014500 -0.004387 -0.003228 0.000000 0.002768 0.000000
# 2 -0.004387 0.014918 -0.003226 0.000000 -0.000328 0.000000
# 3 -0.003228 -0.003226 0.009403 0.000000 -0.000557 0.000000
# 4 0.000000 0.000000 0.000000 0.044587 0.000000 -0.001550
# 5 0.002768 -0.000328 -0.000557 0.000000 0.027647 0.000000
# 6 0.000000 0.000000 0.000000 -0.001550 0.000000 0.048410
#
#
# Mechanical properties :
#
#
# Convention : Reuss Voigt Hill
#
# Bulk Modulus (GPa) = 58.34367 61.62032 59.98199
# Shear Modulus (GPa) = 26.75803 28.81611 27.78707
#
# Velocity S-wave (km/s) = 3.55134 3.68538 3.61898
# Velocity P-wave (km/s) = 6.65698 6.86682 6.76271
#
# Compressibility (1/GPa) = 0.01713982
#
# Stress axis : x y z
#
# Youngs Moduli (GPa) = 68.96344 67.03278 106.35109
#
# Poissons Ratio (x) = 0.29408 0.34325
# Poissons Ratio (y) = 0.30255 0.34310
# Poissons Ratio (z) = 0.22258 0.21626
#
# Static dielectric constant tensor:
#      x y z
#    x 3.671440 0.000000 0.026890 
#    y 0.000000 3.684900 0.000000 
#    z 0.026890 0.000000 3.972180 
# 
# 
# High freq. dielectric constant tensor:
#      x y z
#    x 1.819440 0.000000 0.008040 
#    y 0.000000 1.826310 0.000000 
#    z 0.008040 0.000000 1.841300 
# 
# From -- ./inp_files/49021.got.cif
#   From: 2010.06.25/outbox.cif.g09.slc.cpg/sg10_25_cif.got.tgz:49021.got - 2010.06.27 22:07:45.
