data_PCOD8064595
_publ_section_title
;
Structure prediction by ZEFSAII (Michael W. Deem and Ramdas Pophale) SiO2 
 PCOD8064595
Probable space group: P 2/M
;
_chemical_formula_sum "Si O2"
_cell_formula_units_Z 32
_cell_length_a 14.766084
_cell_length_b 8.868844
_cell_length_c 11.944786
_cell_angle_alpha 90.000000
_cell_angle_beta 85.777329
_cell_angle_gamma 90.000000
_cell_volume 1560.020099
_symmetry_space_group_name_H-M "P 2/M"
_symmetry_group_IT_number 10
_symmetry_cell_setting 'monoclinic'
loop_
_space_group_symop_operation_xyz
x,y,z
-x,y,-z
-x,-y,-z
x,-y,z
loop_
_atom_site_type_symbol
_atom_site_label
_atom_site_fract_x
_atom_site_fract_y
_atom_site_fract_z
Si Si1 0.679390 0.825682 0.424941
Si Si2 0.997662 0.820979 0.626755
Si Si3 0.164988 0.824491 0.760761
Si Si4 0.173299 0.178593 0.213198
Si Si5 0.524913 0.676275 0.318507
Si Si6 0.784629 0.678845 0.016633
Si Si7 0.580495 0.678985 0.069483
Si Si8 0.685428 0.323812 0.647362
O O1 0.740978 0.795262 0.311526
O O2 0.578402 0.764874 0.410226
O O3 0.722809 0.736884 0.525709
O O4 0.676251 0.000000 0.458037
O O5 0.907811 0.764888 0.699112
O O6 0.000000 0.753900 0.500000
O O7 0.084193 0.763693 0.689195
O O8 0.999739 0.000000 0.619106
O O9 0.151381 0.000000 0.790874
O O10 0.165758 0.730665 0.874813
O O11 0.160841 0.248330 0.091231
O O12 0.267166 0.238277 0.255212
O O13 0.174707 0.000000 0.202784
O O14 0.542464 0.500000 0.336159
O O15 0.562837 0.733437 0.196723
O O16 0.419989 0.716706 0.335004
O O17 0.789593 0.500000 0.007977
O O18 0.679807 0.736301 0.022482
O O19 0.576772 0.500000 0.062821
O O20 0.500000 0.747832 0.000000
O O21 0.704605 0.500000 0.657966
#
# Coordination Sequence:
#
# PCOD8064595 Si02
#       8
#     4   4   4   4   4   4   4   4
#     4  11  22  36  58  87 121 155 195 251 304 349
#     4   9  19  39  66  91 116 154 200 241 292 360
#     4  10  21  39  63  89 119 157 203 249 296 355
#     4  11  23  40  63  89 119 152 195 250 300 349
#     4  10  20  36  56  81 115 158 205 242 287 357
#     4  11  22  38  61  87 121 159 198 246 298 356
#     4   9  17  32  55  79 108 153 204 244 280 336
#     4  11  23  38  59  85 118 159 201 244 296 360
#
# _framework density 20.512556
#
# number of rings (size 3 to 8) (size 9 to 14) (size 15 to 20)
#    0.000    1.750    1.250    3.375    0.000    7.500 
#    0.000    3.750    0.000    4.500    0.000    0.000 
#    0.000    0.000    0.000    0.000    0.000    0.000 
#
# Total GULP energy -396914.560733 kJ/mol
# GULP energy per Si atom -12403.580023 kJ/mol
# Density = 2.046587 g / cm^3
# Si number density = 20.512556 Si / 1000 Ang^3
#
#
#
# Elastic Constant Matrix: (Units=GPa)
#
#
# Indices 1 2 3 4 5 6 
#
# 1 103.2933 40.6191 57.5691 0.0000 10.9266 0.0000
# 2 40.6191 59.1421 44.2735 0.0000 -4.0396 0.0000
# 3 57.5691 44.2735 149.0231 0.0000 2.1478 0.0000
# 4 0.0000 0.0000 0.0000 33.0821 0.0000 2.0326
# 5 10.9266 -4.0396 2.1478 0.0000 36.9468 0.0000
# 6 0.0000 0.0000 0.0000 2.0326 0.0000 22.8628
#
#
#
# Elastic Compliance Matrix: (Units=1/GPa)
#
#
# Indices 1 2 3 4 5 6 
#
# 1 0.015444 -0.008436 -0.003384 0.000000 -0.005293 0.000000
# 2 -0.008436 0.026636 -0.004736 0.000000 0.005682 0.000000
# 3 -0.003384 -0.004736 0.009426 0.000000 -0.000065 0.000000
# 4 0.000000 0.000000 0.000000 0.030394 0.000000 -0.002702
# 5 -0.005293 0.005682 -0.000065 0.000000 0.029256 0.000000
# 6 0.000000 0.000000 0.000000 -0.002702 0.000000 0.043979
#
#
# Mechanical properties :
#
#
# Convention : Reuss Voigt Hill
#
# Bulk Modulus (GPa) = 54.36546 66.26465 60.31505
# Shear Modulus (GPa) = 25.72303 29.84479 27.78391
#
# Velocity S-wave (km/s) = 3.54505 3.81852 3.68432
# Velocity P-wave (km/s) = 6.58160 7.19834 6.89687
#
# Compressibility (1/GPa) = 0.01839403
#
# Stress axis : x y z
#
# Youngs Moduli (GPa) = 64.74914 37.54344 106.09332
#
# Poissons Ratio (x) = 0.31670 0.35900
# Poissons Ratio (y) = 0.54620 0.50250
# Poissons Ratio (z) = 0.21910 0.17782
#
# Static dielectric constant tensor:
#      x y z
#    x 3.780870 0.000000 -0.005660 
#    y 0.000000 3.402010 0.000000 
#    z -0.005660 0.000000 3.896330 
# 
# 
# High freq. dielectric constant tensor:
#      x y z
#    x 1.803770 0.000000 0.002680 
#    y 0.000000 1.773940 0.000000 
#    z 0.002680 0.000000 1.819160 
# 
# From -- ./inp_files/49802.got.cif
#   From: 2010.06.25/outbox.cif.g09.slc.cpg/sg10_25_cif.got.tgz:49802.got - 2010.06.27 22:07:45.
