data_PCOD8064887
_publ_section_title
;
Structure prediction by ZEFSAII (Michael W. Deem and Ramdas Pophale) SiO2 
 PCOD8064887
Probable space group: P 2/M
;
_chemical_formula_sum "Si O2"
_cell_formula_units_Z 32
_cell_length_a 19.739131
_cell_length_b 9.367220
_cell_length_c 25.101915
_cell_angle_alpha 90.000000
_cell_angle_beta 158.680492
_cell_angle_gamma 90.000000
_cell_volume 1687.453327
_symmetry_space_group_name_H-M "P 2/M"
_symmetry_group_IT_number 10
_symmetry_cell_setting 'monoclinic'
loop_
_space_group_symop_operation_xyz
x,y,z
-x,y,-z
-x,-y,-z
x,-y,z
loop_
_atom_site_type_symbol
_atom_site_label
_atom_site_fract_x
_atom_site_fract_y
_atom_site_fract_z
Si Si1 0.292562 0.830691 0.356749
Si Si2 0.855099 0.164158 0.637633
Si Si3 0.731821 0.836039 0.032660
Si Si4 0.679135 0.333201 0.888496
Si Si5 0.737626 0.334046 0.450431
Si Si6 0.025688 0.165300 0.956585
Si Si7 0.954569 0.669057 0.407710
Si Si8 0.409878 0.839789 0.876768
O O1 0.500000 0.766580 0.500000
O O2 0.213143 0.776656 0.355128
O O3 0.155645 0.779553 0.208908
O O4 0.301740 0.000000 0.363060
O O5 0.754749 0.252276 0.518293
O O6 0.077085 0.182526 0.794602
O O7 0.795554 0.000000 0.587203
O O8 0.712181 0.000000 0.999018
O O9 0.740423 0.732494 0.989132
O O10 0.562000 0.788545 0.945467
O O11 0.724647 0.500000 0.922126
O O12 0.462773 0.302376 0.721017
O O13 0.795091 0.258047 0.926985
O O14 0.768224 0.500000 0.484689
O O15 0.886601 0.277376 0.516452
O O16 0.064602 0.000000 0.971281
O O17 0.000000 0.188886 0.000000
O O18 0.937945 0.500000 0.395046
O O19 0.759529 0.731854 0.246821
O O20 0.000000 0.725789 0.500000
O O21 0.340986 0.000000 0.812987
O O22 0.500000 0.835337 0.000000
#
# Coordination Sequence:
#
# PCOD8064887 Si02
#       8
#     4   4   4   4   4   4   4   4
#     4   9  18  34  57  87 116 143 182 229 276 330
#     4  10  20  36  60  85 114 149 188 236 284 337
#     4  10  20  37  59  84 114 148 189 237 285 343
#     4  11  23  39  59  83 116 155 194 235 282 334
#     4  10  23  39  55  81 116 152 191 237 283 338
#     4  10  21  38  62  88 116 149 189 235 282 335
#     4  10  21  39  59  79 110 151 195 238 284 339
#     4  10  21  36  57  85 116 146 183 236 294 343
#
# _framework density 18.963488000000002
#
# number of rings (size 3 to 8) (size 9 to 14) (size 15 to 20)
#    0.000    2.000    1.250    1.875    1.750    5.250 
#    0.000    0.000    0.000    0.750    0.000    0.000 
#    0.000    0.000    0.000    0.000    0.000    0.000 
#
# Total GULP energy -396900.693580 kJ/mol
# GULP energy per Si atom -12403.146674 kJ/mol
# Density = 1.892033 g / cm^3
# Si number density = 18.963488 Si / 1000 Ang^3
#
#
#
# Elastic Constant Matrix: (Units=GPa)
#
#
# Indices 1 2 3 4 5 6 
#
# 1 108.2145 31.7371 29.7500 0.0000 5.5292 0.0000
# 2 31.7371 44.5890 24.7544 0.0000 2.6290 0.0000
# 3 29.7500 24.7544 69.0260 0.0000 13.5568 0.0000
# 4 0.0000 0.0000 0.0000 38.4266 0.0000 -5.2844
# 5 5.5292 2.6290 13.5568 0.0000 39.6677 0.0000
# 6 0.0000 0.0000 0.0000 -5.2844 0.0000 23.6242
#
#
#
# Elastic Compliance Matrix: (Units=1/GPa)
#
#
# Indices 1 2 3 4 5 6 
#
# 1 0.012058 -0.007134 -0.002574 0.000000 -0.000328 0.000000
# 2 -0.007134 0.032329 -0.008891 0.000000 0.001890 0.000000
# 3 -0.002574 -0.008891 0.019937 0.000000 -0.005866 0.000000
# 4 0.000000 0.000000 0.000000 0.026850 0.000000 0.006006
# 5 -0.000328 0.001890 -0.005866 0.000000 0.027135 0.000000
# 6 0.000000 0.000000 0.000000 0.006006 0.000000 0.043673
#
#
# Mechanical properties :
#
#
# Convention : Reuss Voigt Hill
#
# Bulk Modulus (GPa) = 36.86369 43.81250 40.33810
# Shear Modulus (GPa) = 24.01312 29.38291 26.69801
#
# Velocity S-wave (km/s) = 3.56235 3.94057 3.75622
# Velocity P-wave (km/s) = 6.03340 6.62253 6.33482
#
# Compressibility (1/GPa) = 0.02712696
#
# Stress axis : x y z
#
# Youngs Moduli (GPa) = 82.93581 30.93193 50.15795
#
# Poissons Ratio (x) = 0.22066 0.12910
# Poissons Ratio (y) = 0.59165 0.44593
# Poissons Ratio (z) = 0.21347 0.27500
#
# Static dielectric constant tensor:
#      x y z
#    x 3.689480 0.000000 0.149450 
#    y 0.000000 3.304410 0.000000 
#    z 0.149450 0.000000 3.534820 
# 
# 
# High freq. dielectric constant tensor:
#      x y z
#    x 1.750880 0.000000 0.003910 
#    y 0.000000 1.715100 0.000000 
#    z 0.003910 0.000000 1.745980 
# 
# From -- ./inp_files/93760.got.cif
#   From: 2010.06.25/outbox.cif.g09.slc.cpg/sg10_47_cif.got.tgz:93760.got - 2010.06.27 22:07:45.
