data_PCOD8064307
_publ_section_title
;
Structure prediction by ZEFSAII (Michael W. Deem and Ramdas Pophale) SiO2 
 PCOD8064307
Probable space group: P 2/M
;
_chemical_formula_sum "Si O2"
_cell_formula_units_Z 32
_cell_length_a 20.226749
_cell_length_b 9.176369
_cell_length_c 26.769820
_cell_angle_alpha 90.000000
_cell_angle_beta 19.316498
_cell_angle_gamma 90.000000
_cell_volume 1643.575698
_symmetry_space_group_name_H-M "P 2/M"
_symmetry_group_IT_number 10
_symmetry_cell_setting 'monoclinic'
loop_
_space_group_symop_operation_xyz
x,y,z
-x,y,-z
-x,-y,-z
x,-y,z
loop_
_atom_site_type_symbol
_atom_site_label
_atom_site_fract_x
_atom_site_fract_y
_atom_site_fract_z
Si Si1 0.287309 0.829395 0.673937
Si Si2 0.219482 0.172378 0.834514
Si Si3 0.548163 0.827954 0.676624
Si Si4 0.937140 0.168185 0.338188
Si Si5 0.989716 0.672265 0.814813
Si Si6 0.280713 0.169045 0.169413
Si Si7 0.538627 0.670243 0.159675
Si Si8 0.808555 0.329295 0.667330
O O1 0.500000 0.785807 0.500000
O O2 0.296091 0.783278 0.725365
O O3 0.112696 0.738615 0.772774
O O4 0.240512 0.000000 0.700182
O O5 0.371533 0.234519 0.767379
O O6 0.211388 0.000000 0.845713
O O7 0.000000 0.240034 0.000000
O O8 0.758149 0.784797 0.502181
O O9 0.534850 0.754745 0.739585
O O10 0.530040 0.000000 0.696872
O O11 0.926907 0.264868 0.296196
O O12 0.144954 0.196815 0.217902
O O13 0.912953 0.000000 0.339368
O O14 0.016400 0.500000 0.795253
O O15 0.759982 0.718785 0.986007
O O16 0.187338 0.252298 0.282448
O O17 0.289842 0.000000 0.177330
O O18 0.500000 0.230247 0.000000
O O19 0.527281 0.500000 0.179964
O O20 0.393127 0.712673 0.218038
O O21 0.823643 0.500000 0.666505
O O22 0.000000 0.273580 0.500000
#
# Coordination Sequence:
#
# PCOD8064307 Si02
#       8
#     4   4   4   4   4   4   4   4
#     4  10  20  36  58  80 106 142 181 225 274 320
#     4   9  17  30  50  76 102 129 167 213 259 310
#     4  10  20  35  57  82 105 136 180 225 270 322
#     4  10  21  37  56  80 110 142 181 228 275 327
#     4  11  23  37  55  81 113 148 185 224 269 327
#     4  10  21  36  55  81 110 140 179 228 278 326
#     4  10  22  38  54  79 114 147 182 225 274 329
#     4  10  21  37  57  80 108 145 187 228 273 329
#
# _framework density 19.469745
#
# number of rings (size 3 to 8) (size 9 to 14) (size 15 to 20)
#    0.000    2.000    0.000    3.375    0.000    6.250 
#    0.000    0.625    0.000    2.250    0.000    0.000 
#    0.000    0.000    0.000    0.000    0.000    0.000 
#
# Total GULP energy -396956.128656 kJ/mol
# GULP energy per Si atom -12404.879020 kJ/mol
# Density = 1.942543 g / cm^3
# Si number density = 19.469745 Si / 1000 Ang^3
#
#
#
# Elastic Constant Matrix: (Units=GPa)
#
#
# Indices 1 2 3 4 5 6 
#
# 1 46.6125 16.5491 -1.7621 0.0000 3.3478 0.0000
# 2 16.5491 36.5337 16.0648 0.0000 3.6470 0.0000
# 3 -1.7621 16.0648 87.1374 0.0000 -1.9808 0.0000
# 4 0.0000 0.0000 0.0000 -55.1068 0.0000 -164.6774
# 5 3.3478 3.6470 -1.9808 0.0000 42.1254 0.0000
# 6 0.0000 0.0000 0.0000 -164.6774 0.0000 -346.7487
#
#
#
# Elastic Compliance Matrix: (Units=1/GPa)
#
#
# Indices 1 2 3 4 5 6 
#
# 1 0.026277 -0.013110 0.002930 0.000000 -0.000816 0.000000
# 2 -0.013110 0.036671 -0.007082 0.000000 -0.002466 0.000000
# 3 0.002930 -0.007082 0.012863 0.000000 0.000985 0.000000
# 4 0.000000 0.000000 0.000000 0.043287 0.000000 -0.020558
# 5 -0.000816 -0.002466 0.000985 0.000000 0.024063 0.000000
# 6 0.000000 0.000000 0.000000 -0.020558 0.000000 0.006879
#
#
# Mechanical properties :
#
#
# Convention : Reuss Voigt Hill
#
# Bulk Modulus (GPa) = 24.22048 25.77637 24.99843
# Shear Modulus (GPa) = 25.21075 -62.65058 -18.71992
#
# Velocity S-wave (km/s) = 3.60233 -5.67876 -3.10415
# Velocity P-wave (km/s) = 5.45614 5.45250 0.14084
#
# Compressibility (1/GPa) = 0.04128737
#
# Stress axis : x y z
#
# Youngs Moduli (GPa) = 38.05558 27.26963 77.73999
#
# Poissons Ratio (x) = 0.35751 -0.22777
# Poissons Ratio (y) = 0.49891 0.55054
# Poissons Ratio (z) = -0.11150 0.19312
#
# Static dielectric constant tensor:
#      x y z
#    x 3.577360 0.000000 -0.148380 
#    y 0.000000 3.304840 0.000000 
#    z -0.148380 0.000000 3.805770 
# 
# 
# High freq. dielectric constant tensor:
#      x y z
#    x 1.771270 0.000000 -0.003660 
#    y 0.000000 1.732380 0.000000 
#    z -0.003660 0.000000 1.776860 
# 
# From -- ./inp_files/93613.got.cif
#   From: 2010.06.25/outbox.cif.g09.slc.cpg/sg10_47_cif.got.tgz:93613.got - 2010.06.27 22:07:45.
