data_PCOD8064862
_publ_section_title
;
Structure prediction by ZEFSAII (Michael W. Deem and Ramdas Pophale) SiO2 
 PCOD8064862
Probable space group: P 2/M
;
_chemical_formula_sum "Si O2"
_cell_formula_units_Z 32
_cell_length_a 14.936620
_cell_length_b 9.043859
_cell_length_c 22.381336
_cell_angle_alpha 90.000000
_cell_angle_beta 31.633395
_cell_angle_gamma 90.000000
_cell_volume 1585.706899
_symmetry_space_group_name_H-M "P 2/M"
_symmetry_group_IT_number 10
_symmetry_cell_setting 'monoclinic'
loop_
_space_group_symop_operation_xyz
x,y,z
-x,y,-z
-x,-y,-z
x,-y,z
loop_
_atom_site_type_symbol
_atom_site_label
_atom_site_fract_x
_atom_site_fract_y
_atom_site_fract_z
Si Si1 0.995973 0.673089 0.240977
Si Si2 0.411688 0.831385 0.718640
Si Si3 0.761086 0.168732 0.575480
Si Si4 0.945642 0.671875 0.656297
Si Si5 0.328031 0.172494 0.631063
Si Si6 0.361246 0.826343 0.224265
Si Si7 0.166622 0.671585 0.943133
Si Si8 0.250046 0.824856 0.013730
O O1 0.012708 0.500000 0.218189
O O2 0.984078 0.707272 0.317893
O O3 0.163874 0.754961 0.121067
O O4 0.826501 0.732381 0.305984
O O5 0.615813 0.812865 0.607465
O O6 0.351176 0.788706 0.687229
O O7 0.329508 0.721722 0.812863
O O8 0.360881 0.000000 0.763895
O O9 0.685831 0.220859 0.681661
O O10 0.922815 0.267296 0.467363
O O11 0.824718 0.000000 0.542799
O O12 0.922792 0.500000 0.658091
O O13 0.761902 0.746954 0.752721
O O14 0.500000 0.220079 0.500000
O O15 0.288361 0.000000 0.643450
O O16 0.343238 0.000000 0.225557
O O17 0.553314 0.774698 0.100916
O O18 0.184770 0.500000 0.948820
O O19 0.149785 0.764205 0.013205
O O20 0.000000 0.707034 0.000000
O O21 0.229989 0.000000 0.026963
#
# Coordination Sequence:
#
# PCOD8064862 Si02
#       8
#     4   4   4   4   4   4   4   4
#     4  11  25  43  60  86 127 167 205 251 307 365
#     4  10  20  36  59  88 120 155 198 248 299 353
#     4  10  20  39  64  91 124 157 198 253 308 362
#     4  11  25  41  60  89 123 162 204 249 306 369
#     4  10  21  38  63  92 121 161 211 257 301 353
#     4  10  22  41  65  92 120 155 200 255 313 361
#     4  11  23  37  56  86 122 159 197 239 296 361
#     4  11  23  42  66  90 119 157 206 256 305 360
#
# _framework density 20.180273
#
# number of rings (size 3 to 8) (size 9 to 14) (size 15 to 20)
#    0.000    1.500    1.250    3.375    0.000   10.750 
#    0.000    2.500    0.000    0.000    0.000    0.000 
#    0.000    0.000    0.000    0.000    0.000    0.000 
#
# Total GULP energy -397001.181824 kJ/mol
# GULP energy per Si atom -12406.286932 kJ/mol
# Density = 2.013434 g / cm^3
# Si number density = 20.180273 Si / 1000 Ang^3
#
#
#
# Elastic Constant Matrix: (Units=GPa)
#
#
# Indices 1 2 3 4 5 6 
#
# 1 84.5234 38.0195 24.1978 0.0000 -14.9765 0.0000
# 2 38.0195 67.6782 43.4899 0.0000 -5.3498 0.0000
# 3 24.1978 43.4899 114.2511 0.0000 -3.6848 0.0000
# 4 0.0000 0.0000 0.0000 15.0367 0.0000 6.7766
# 5 -14.9765 -5.3498 -3.6848 0.0000 31.3230 0.0000
# 6 0.0000 0.0000 0.0000 6.7766 0.0000 31.9459
#
#
#
# Elastic Compliance Matrix: (Units=1/GPa)
#
#
# Indices 1 2 3 4 5 6 
#
# 1 0.017086 -0.009117 0.000065 0.000000 0.006620 0.000000
# 2 -0.009117 0.024618 -0.007473 0.000000 -0.001034 0.000000
# 3 0.000065 -0.007473 0.011587 0.000000 0.000118 0.000000
# 4 0.000000 0.000000 0.000000 0.073534 0.000000 -0.015599
# 5 0.006620 -0.001034 0.000118 0.000000 0.034928 0.000000
# 6 0.000000 0.000000 0.000000 -0.015599 0.000000 0.034612
#
#
# Mechanical properties :
#
#
# Convention : Reuss Voigt Hill
#
# Bulk Modulus (GPa) = 49.40401 53.09636 51.25019
# Shear Modulus (GPa) = 21.17178 26.37748 23.77463
#
# Velocity S-wave (km/s) = 3.24255 3.61930 3.43609
# Velocity P-wave (km/s) = 6.20913 6.62072 6.41822
#
# Compressibility (1/GPa) = 0.02024127
#
# Stress axis : x y z
#
# Youngs Moduli (GPa) = 58.52615 40.62031 86.30074
#
# Poissons Ratio (x) = 0.37034 -0.00562
# Poissons Ratio (y) = 0.53359 0.64495
# Poissons Ratio (z) = -0.00381 0.30357
#
# Static dielectric constant tensor:
#      x y z
#    x 3.765480 0.000000 -0.017820 
#    y 0.000000 3.597110 0.000000 
#    z -0.017820 0.000000 3.710160 
# 
# 
# High freq. dielectric constant tensor:
#      x y z
#    x 1.796770 0.000000 -0.004010 
#    y 0.000000 1.784820 0.000000 
#    z -0.004010 0.000000 1.795370 
# 
# From -- ./inp_files/89501.got.cif
#   From: 2010.06.25/outbox.cif.g09.slc.cpg/sg10_45_cif.got.tgz:89501.got - 2010.06.27 22:07:45.
