data_PCOD8064699
_publ_section_title
;
Structure prediction by ZEFSAII (Michael W. Deem and Ramdas Pophale) SiO2 
 PCOD8064699
Probable space group: P 2/M
;
_chemical_formula_sum "Si O2"
_cell_formula_units_Z 28
_cell_length_a 21.542779
_cell_length_b 8.533736
_cell_length_c 22.847630
_cell_angle_alpha 90.000000
_cell_angle_beta 19.922061
_cell_angle_gamma 90.000000
_cell_volume 1431.222674
_symmetry_space_group_name_H-M "P 2/M"
_symmetry_group_IT_number 10
_symmetry_cell_setting 'monoclinic'
loop_
_space_group_symop_operation_xyz
x,y,z
-x,y,-z
-x,-y,-z
x,-y,z
loop_
_atom_site_type_symbol
_atom_site_label
_atom_site_fract_x
_atom_site_fract_y
_atom_site_fract_z
Si Si1 0.741872 0.315494 0.829313
Si Si2 0.306349 0.813569 0.693916
Si Si3 0.127942 0.814365 0.517873
Si Si4 0.291043 0.813309 0.495385
Si Si5 0.939761 0.186239 0.191773
Si Si6 0.317717 0.813717 0.814377
Si Si7 0.630474 0.185313 0.805885
O O1 0.720674 0.500000 0.847884
O O2 0.733150 0.254446 0.770848
O O3 0.932215 0.266217 0.688429
O O4 0.577316 0.244798 0.013856
O O5 0.500000 0.752829 0.500000
O O6 0.154478 0.748240 0.783823
O O7 0.276890 0.747952 0.785479
O O8 0.299309 0.000000 0.701062
O O9 0.221718 0.754291 0.494178
O O10 0.258223 0.759341 0.349638
O O11 0.099620 0.000000 0.542171
O O12 0.157578 0.745958 0.664087
O O13 0.493931 0.745793 0.326761
O O14 0.293605 0.000000 0.494731
O O15 0.922040 0.000000 0.207932
O O16 0.151343 0.238548 0.003853
O O17 0.332315 0.000000 0.798194
O O18 0.628401 0.000000 0.813430
#
# Coordination Sequence:
#
# PCOD8064699 Si02
#       7
#     4   4   4   4   4   4   4
#     4  11  22  36  57  83 109 136 170 215 262 308
#     4   9  13  19  31  47  73 108 150 202 250 291
#     4  10  21  35  53  76 105 141 178 214 258 310
#     4   9  17  28  39  57  85 120 163 206 243 290
#     4   9  15  22  34  51  75 112 155 203 249 294
#     4   9  15  22  33  50  75 111 158 202 246 293
#     4  10  20  36  58  82 109 139 172 212 258 308
#
# _framework density 19.563690999999999
#
# number of rings (size 3 to 8) (size 9 to 14) (size 15 to 20)
#    0.000    2.429    1.429    3.429    0.000    5.714 
#    0.000    4.286    0.000    0.000    0.000    0.000 
#    0.000    0.000    0.000    2.571    0.000   15.143 
#
# Total GULP energy -347124.300238 kJ/mol
# GULP energy per Si atom -12397.296437 kJ/mol
# Density = 1.951916 g / cm^3
# Si number density = 19.563691 Si / 1000 Ang^3
#
#
#
# Elastic Constant Matrix: (Units=GPa)
#
#
# Indices 1 2 3 4 5 6 
#
# 1 133.7528 14.0660 87.0961 0.0000 -12.7512 0.0000
# 2 14.0660 34.8677 16.8382 0.0000 -3.8590 0.0000
# 3 87.0961 16.8382 176.6008 0.0000 -8.7200 0.0000
# 4 0.0000 0.0000 0.0000 3.6444 0.0000 0.1502
# 5 -12.7512 -3.8590 -8.7200 0.0000 22.6950 0.0000
# 6 0.0000 0.0000 0.0000 0.1502 0.0000 -2.7749
#
#
#
# Elastic Compliance Matrix: (Units=1/GPa)
#
#
# Indices 1 2 3 4 5 6 
#
# 1 0.011502 -0.001615 -0.005314 0.000000 0.004146 0.000000
# 2 -0.001615 0.030668 -0.001952 0.000000 0.003557 0.000000
# 3 -0.005314 -0.001952 0.008466 0.000000 -0.000065 0.000000
# 4 0.000000 0.000000 0.000000 0.273782 0.000000 0.014821
# 5 0.004146 0.003557 -0.000065 0.000000 0.046972 0.000000
# 6 0.000000 0.000000 0.000000 0.014821 0.000000 -0.359568
#
#
# Mechanical properties :
#
#
# Convention : Reuss Voigt Hill
#
# Bulk Modulus (GPa) = 30.41902 64.58022 47.49962
# Shear Modulus (GPa) = 123.33249 19.86097 71.59673
#
# Velocity S-wave (km/s) = 7.94848 3.18967 6.05609
# Velocity P-wave (km/s) = 9.99101 6.82988 8.55767
#
# Compressibility (1/GPa) = 0.03287417
#
# Stress axis : x y z
#
# Youngs Moduli (GPa) = 86.94347 32.60761 118.11902
#
# Poissons Ratio (x) = 0.05266 0.62765
# Poissons Ratio (y) = 0.14041 0.23056
# Poissons Ratio (z) = 0.46199 0.06365
#
# Static dielectric constant tensor:
#      x y z
#    x 3.739820 0.000000 0.053150 
#    y 0.000000 2.921020 0.000000 
#    z 0.053150 0.000000 3.851740 
# 
# 
# High freq. dielectric constant tensor:
#      x y z
#    x 1.761540 0.000000 0.000550 
#    y 0.000000 1.696140 0.000000 
#    z 0.000550 0.000000 1.781330 
# 
# From -- ./inp_files/90360.got.cif
#   From: 2010.06.25/outbox.cif.g09.slc.cpg/sg10_46_cif.got.tgz:90360.got - 2010.06.27 22:07:45.
