data_PCOD8064983
_publ_section_title
;
Structure prediction by ZEFSAII (Michael W. Deem and Ramdas Pophale) SiO2 
 PCOD8064983
Probable space group: P 2/M
;
_chemical_formula_sum "Si O2"
_cell_formula_units_Z 28
_cell_length_a 10.987108
_cell_length_b 13.640559
_cell_length_c 9.536717
_cell_angle_alpha 90.000000
_cell_angle_beta 67.459787
_cell_angle_gamma 90.000000
_cell_volume 1320.089636
_symmetry_space_group_name_H-M "P 2/M"
_symmetry_group_IT_number 10
_symmetry_cell_setting 'monoclinic'
loop_
_space_group_symop_operation_xyz
x,y,z
-x,y,-z
-x,-y,-z
x,-y,z
loop_
_atom_site_type_symbol
_atom_site_label
_atom_site_fract_x
_atom_site_fract_y
_atom_site_fract_z
Si Si1 0.761803 0.699404 0.280827
Si Si2 0.602239 0.384532 0.115311
Si Si3 0.639842 0.614474 0.591304
Si Si4 0.657447 0.108297 0.917174
Si Si5 0.739901 0.304256 0.801573
Si Si6 0.153896 0.111689 0.897430
Si Si7 0.978633 0.612555 0.848627
O O1 0.730116 0.651364 0.144136
O O2 0.646896 0.678675 0.446208
O O3 0.797255 0.814269 0.246697
O O4 0.884548 0.637602 0.289508
O O5 0.597098 0.500000 0.108404
O O6 0.480431 0.344352 0.260731
O O7 0.615828 0.345257 0.949744
O O8 0.627640 0.500000 0.556868
O O9 0.759539 0.637342 0.646159
O O10 0.712368 0.189102 0.784364
O O11 0.687899 0.000000 0.844231
O O12 0.500000 0.121654 0.000000
O O13 0.740200 0.125009 0.023845
O O14 0.871163 0.316130 0.832118
O O15 0.162043 0.000000 0.837471
O O16 0.000000 0.135827 0.000000
O O17 0.936165 0.500000 0.846548
O O18 0.000000 0.641716 0.000000
#
# Coordination Sequence:
#
# PCOD8064983 Si02
#       7
#     4   4   4   4   4   4   4
#     4  12  22  38  60  87 122 163 203 249 315 375
#     4  11  21  37  60  83 116 162 212 254 300 370
#     4  11  25  39  55  87 129 168 205 254 316 376
#     4  10  20  36  61  91 120 155 206 265 319 369
#     4  12  22  38  61  88 120 162 210 263 315 371
#     4  10  21  40  67  98 126 160 214 271 322 379
#     4  11  21  35  59  88 117 155 207 258 302 368
#
# _framework density 21.21068
#
# number of rings (size 3 to 8) (size 9 to 14) (size 15 to 20)
#    0.000    1.000    2.857    5.571    0.000    2.857 
#    0.000    2.143    0.000    2.571    0.000    5.000 
#    0.000    0.000    0.000    0.000    0.000    0.000 
#
# Total GULP energy -347016.614802 kJ/mol
# GULP energy per Si atom -12393.450529 kJ/mol
# Density = 2.116240 g / cm^3
# Si number density = 21.210680 Si / 1000 Ang^3
#
#
#
# Elastic Constant Matrix: (Units=GPa)
#
#
# Indices 1 2 3 4 5 6 
#
# 1 78.0262 12.7906 -0.2002 0.0000 3.5090 0.0000
# 2 12.7906 108.6737 24.3752 0.0000 1.5218 0.0000
# 3 -0.2002 24.3752 81.7565 0.0000 7.1831 0.0000
# 4 0.0000 0.0000 0.0000 27.4584 0.0000 -5.6421
# 5 3.5090 1.5218 7.1831 0.0000 25.4387 0.0000
# 6 0.0000 0.0000 0.0000 -5.6421 0.0000 30.5603
#
#
#
# Elastic Compliance Matrix: (Units=1/GPa)
#
#
# Indices 1 2 3 4 5 6 
#
# 1 0.013180 -0.001682 0.000702 0.000000 -0.001916 0.000000
# 2 -0.001682 0.010077 -0.003052 0.000000 0.000491 0.000000
# 3 0.000702 -0.003052 0.013470 0.000000 -0.003718 0.000000
# 4 0.000000 0.000000 0.000000 0.037855 0.000000 0.006989
# 5 -0.001916 0.000491 -0.003718 0.000000 0.040595 0.000000
# 6 0.000000 0.000000 0.000000 0.006989 0.000000 0.034013
#
#
# Mechanical properties :
#
#
# Convention : Reuss Voigt Hill
#
# Bulk Modulus (GPa) = 34.88732 38.04309 36.46520
# Shear Modulus (GPa) = 29.97479 32.12420 31.04949
#
# Velocity S-wave (km/s) = 3.76332 3.89592 3.83019
# Velocity P-wave (km/s) = 5.94703 6.18161 6.06546
#
# Compressibility (1/GPa) = 0.02866371
#
# Stress axis : x y z
#
# Youngs Moduli (GPa) = 75.87333 99.23156 74.24089
#
# Poissons Ratio (x) = 0.16689 -0.05212
# Poissons Ratio (y) = 0.12761 0.22657
# Poissons Ratio (z) = -0.05326 0.30283
#
# Static dielectric constant tensor:
#      x y z
#    x 4.260030 0.000000 -0.026840 
#    y 0.000000 3.902100 0.000000 
#    z -0.026840 0.000000 3.590950 
# 
# 
# High freq. dielectric constant tensor:
#      x y z
#    x 1.860910 0.000000 0.002570 
#    y 0.000000 1.831260 0.000000 
#    z 0.002570 0.000000 1.791560 
# 
# From -- ./inp_files/24920.got.cif
#   From: 2010.06.25/outbox.cif.g09.slc.cpg/sg10_13_cif.got.tgz:24920.got - 2010.06.27 22:07:45.
