data_PCOD8064690
_publ_section_title
;
Structure prediction by ZEFSAII (Michael W. Deem and Ramdas Pophale) SiO2 
 PCOD8064690
Probable space group: P 2/M
;
_chemical_formula_sum "Si O2"
_cell_formula_units_Z 28
_cell_length_a 14.380881
_cell_length_b 8.933247
_cell_length_c 13.104192
_cell_angle_alpha 90.000000
_cell_angle_beta 57.323377
_cell_angle_gamma 90.000000
_cell_volume 1417.028135
_symmetry_space_group_name_H-M "P 2/M"
_symmetry_group_IT_number 10
_symmetry_cell_setting 'monoclinic'
loop_
_space_group_symop_operation_xyz
x,y,z
-x,y,-z
-x,-y,-z
x,-y,z
loop_
_atom_site_type_symbol
_atom_site_label
_atom_site_fract_x
_atom_site_fract_y
_atom_site_fract_z
Si Si1 0.899977 0.174736 0.484464
Si Si2 0.320701 0.171760 0.269706
Si Si3 0.748376 0.829513 0.213774
Si Si4 0.900153 0.323892 0.267873
Si Si5 0.561040 0.828165 0.180778
Si Si6 0.112109 0.827167 0.070691
Si Si7 0.695699 0.676345 0.930658
O O1 0.784856 0.223779 0.603610
O O2 0.914587 0.268498 0.373945
O O3 0.000000 0.216640 0.500000
O O4 0.900740 0.000000 0.456457
O O5 0.429993 0.189854 0.275475
O O6 0.337601 0.277654 0.163150
O O7 0.306984 0.000000 0.241505
O O8 0.782763 0.726594 0.288980
O O9 0.626312 0.782278 0.245617
O O10 0.749114 0.000000 0.251854
O O11 0.834287 0.805358 0.071137
O O12 0.909244 0.500000 0.260565
O O13 0.994523 0.253652 0.140606
O O14 0.593698 0.000000 0.134947
O O15 0.598795 0.727000 0.063943
O O16 0.188622 0.754638 0.111967
O O17 0.094488 0.000000 0.108770
O O18 0.710619 0.500000 0.929460
#
# Coordination Sequence:
#
# PCOD8064690 Si02
#       7
#     4   4   4   4   4   4   4
#     4  10  22  40  61  82 106 142 187 230 272 323
#     4  10  20  36  58  81 107 146 194 236 274 321
#     4   9  19  36  57  80 108 144 185 228 273 323
#     4  12  24  36  55  83 114 146 179 223 280 336
#     4   9  19  36  57  81 110 146 189 233 273 320
#     4  10  20  36  58  82 111 148 187 227 270 321
#     4  11  21  32  52  85 120 149 178 221 280 338
#
# _framework density 19.759663
#
# number of rings (size 3 to 8) (size 9 to 14) (size 15 to 20)
#    0.000    1.857    0.000    5.571    0.000    8.857 
#    0.000    0.714    0.000    4.286    0.000    0.000 
#    0.000    0.000    0.000    0.000    0.000    0.000 
#
# Total GULP energy -347287.181972 kJ/mol
# GULP energy per Si atom -12403.113642 kJ/mol
# Density = 1.971469 g / cm^3
# Si number density = 19.759663 Si / 1000 Ang^3
#
#
#
# Elastic Constant Matrix: (Units=GPa)
#
#
# Indices 1 2 3 4 5 6 
#
# 1 148.0119 54.7729 47.7684 0.0000 -2.3668 0.0000
# 2 54.7729 115.4687 34.8906 0.0000 9.2420 0.0000
# 3 47.7684 34.8906 50.1293 0.0000 -1.7634 0.0000
# 4 0.0000 0.0000 0.0000 12.4965 0.0000 -1.9995
# 5 -2.3668 9.2420 -1.7634 0.0000 29.5392 0.0000
# 6 0.0000 0.0000 0.0000 -1.9995 0.0000 9.2143
#
#
#
# Elastic Compliance Matrix: (Units=1/GPa)
#
#
# Indices 1 2 3 4 5 6 
#
# 1 0.010303 -0.002564 -0.007993 0.000000 0.001151 0.000000
# 2 -0.002564 0.012071 -0.006111 0.000000 -0.004347 0.000000
# 3 -0.007993 -0.006111 0.031930 0.000000 0.003178 0.000000
# 4 0.000000 0.000000 0.000000 0.082901 0.000000 0.017990
# 5 0.001151 -0.004347 0.003178 0.000000 0.035495 0.000000
# 6 0.000000 0.000000 0.000000 0.017990 0.000000 0.112431
#
#
# Mechanical properties :
#
#
# Convention : Reuss Voigt Hill
#
# Bulk Modulus (GPa) = 47.69150 65.38597 56.53874
# Shear Modulus (GPa) = 15.36302 21.99518 18.67910
#
# Velocity S-wave (km/s) = 2.79138 3.33999 3.07793
# Velocity P-wave (km/s) = 5.88024 6.93084 6.42704
#
# Compressibility (1/GPa) = 0.02096809
#
# Stress axis : x y z
#
# Youngs Moduli (GPa) = 97.05903 82.84165 31.31878
#
# Poissons Ratio (x) = 0.21243 0.25032
# Poissons Ratio (y) = 0.24889 0.19139
# Poissons Ratio (z) = 0.77575 0.50625
#
# Static dielectric constant tensor:
#      x y z
#    x 3.913840 0.000000 -0.061120 
#    y 0.000000 3.477880 0.000000 
#    z -0.061120 0.000000 3.291710 
# 
# 
# High freq. dielectric constant tensor:
#      x y z
#    x 1.790870 0.000000 0.001270 
#    y 0.000000 1.760700 0.000000 
#    z 0.001270 0.000000 1.741180 
# 
# From -- ./inp_files/49559.got.cif
#   From: 2010.06.25/outbox.cif.g09.slc.cpg/sg10_25_cif.got.tgz:49559.got - 2010.06.27 22:07:45.
