data_PCOD8064692
_publ_section_title
;
Structure prediction by ZEFSAII (Michael W. Deem and Ramdas Pophale) SiO2 
 PCOD8064692
Probable space group: P 2/M
;
_chemical_formula_sum "Si O2"
_cell_formula_units_Z 24
_cell_length_a 9.143423
_cell_length_b 9.056533
_cell_length_c 31.419130
_cell_angle_alpha 90.000000
_cell_angle_beta 150.586977
_cell_angle_gamma 90.000000
_cell_volume 1277.722181
_symmetry_space_group_name_H-M "P 2/M"
_symmetry_group_IT_number 10
_symmetry_cell_setting 'monoclinic'
loop_
_space_group_symop_operation_xyz
x,y,z
-x,y,-z
-x,-y,-z
x,-y,z
loop_
_atom_site_type_symbol
_atom_site_label
_atom_site_fract_x
_atom_site_fract_y
_atom_site_fract_z
Si Si1 0.827939 0.330249 0.415876
Si Si2 0.318342 0.826803 0.243489
Si Si3 0.639898 0.825342 0.239391
Si Si4 0.162879 0.329800 0.413771
Si Si5 0.639944 0.171014 0.081237
Si Si6 0.654856 0.673672 0.915338
O O1 0.748269 0.500000 0.403947
O O2 0.516772 0.246886 0.330439
O O3 0.000000 0.262785 0.500000
O O4 0.040094 0.307381 0.429700
O O5 0.424342 0.775367 0.223441
O O6 0.981342 0.777011 0.165627
O O7 0.358128 0.000000 0.257654
O O8 0.522226 0.754602 0.166605
O O9 0.973331 0.766835 0.332511
O O10 0.648900 0.000000 0.236081
O O11 0.500000 0.271407 0.500000
O O12 0.147274 0.500000 0.395195
O O13 0.466204 0.272119 0.070233
O O14 0.612267 0.000000 0.087825
O O15 0.500000 0.198206 0.000000
O O16 0.604519 0.500000 0.898150
O O17 0.000000 0.716722 0.000000
#
# Coordination Sequence:
#
# PCOD8064692 Si02
#       6
#     4   4   4   4   4   4
#     4   9  18  32  50  73 102 139 179 216 260 313
#     4   9  19  35  55  80 107 138 177 220 266 314
#     4  10  20  36  58  81 108 143 182 224 270 320
#     4   9  18  33  52  75 107 144 180 221 267 315
#     4  10  21  38  59  82 109 141 177 217 265 322
#     4  11  24  39  56  81 111 142 179 222 268 321
#
# _framework density 18.783425999999999
#
# number of rings (size 3 to 8) (size 9 to 14) (size 15 to 20)
#    0.000    2.333    0.000    2.000    0.000    6.333 
#    0.000    1.667    0.000    0.000    0.000    0.000 
#    0.000    0.000    0.000    0.000    0.000    0.000 
#
# Total GULP energy -297682.102271 kJ/mol
# GULP energy per Si atom -12403.420928 kJ/mol
# Density = 1.874067 g / cm^3
# Si number density = 18.783426 Si / 1000 Ang^3
#
#
#
# Elastic Constant Matrix: (Units=GPa)
#
#
# Indices 1 2 3 4 5 6 
#
# 1 80.3563 38.1816 66.6096 0.0000 10.0146 0.0000
# 2 38.1816 56.8987 53.8454 -0.0001 4.8132 0.0000
# 3 66.6096 53.8454 164.2417 -0.0009 8.6766 0.0001
# 4 0.0000 -0.0001 -0.0009 70.2062 0.0000 -5.1546
# 5 10.0146 4.8132 8.6766 0.0000 37.6242 0.0000
# 6 0.0000 0.0000 0.0001 -5.1546 0.0000 28.0281
#
#
#
# Elastic Compliance Matrix: (Units=1/GPa)
#
#
# Indices 1 2 3 4 5 6 
#
# 1 0.021898 -0.008951 -0.005769 0.000000 -0.003353 0.000000
# 2 -0.008951 0.029207 -0.005946 0.000000 0.000017 0.000000
# 3 -0.005769 -0.005946 0.010383 0.000000 -0.000098 0.000000
# 4 0.000000 0.000000 0.000000 0.014439 0.000000 0.002655
# 5 -0.003353 0.000017 -0.000098 0.000000 0.027492 0.000000
# 6 0.000000 0.000000 0.000000 0.002655 0.000000 0.036167
#
#
# Mechanical properties :
#
#
# Convention : Reuss Voigt Hill
#
# Bulk Modulus (GPa) = 49.61510 68.75222 59.18366
# Shear Modulus (GPa) = 26.64728 36.69571 31.67150
#
# Velocity S-wave (km/s) = 3.77060 4.42477 4.11072
# Velocity P-wave (km/s) = 6.74004 7.92382 7.35578
#
# Compressibility (1/GPa) = 0.02015516
#
# Stress axis : x y z
#
# Youngs Moduli (GPa) = 45.66648 34.23803 96.31255
#
# Poissons Ratio (x) = 0.30647 0.55564
# Poissons Ratio (y) = 0.40877 0.57268
# Poissons Ratio (z) = 0.26346 0.20358
#
# Static dielectric constant tensor:
#      x y z
#    x 3.429140 0.000000 0.075570 
#    y 0.000000 3.409670 0.000000 
#    z 0.075570 0.000000 3.665870 
# 
# 
# High freq. dielectric constant tensor:
#      x y z
#    x 1.726270 0.000000 0.000580 
#    y 0.000000 1.724460 0.000000 
#    z 0.000580 0.000000 1.745190 
# 
# From -- ./inp_files/27199.got.cif
#   From: 2010.06.25/outbox.cif.g09.slc.cpg/sg10_14_cif.got.tgz:27199.got - 2010.06.27 22:07:45.
