data_PCOD8064592
_publ_section_title
;
Structure prediction by ZEFSAII (Michael W. Deem and Ramdas Pophale) SiO2 
 PCOD8064592
Probable space group: P 2/M
;
_chemical_formula_sum "Si O2"
_cell_formula_units_Z 32
_cell_length_a 31.121826
_cell_length_b 8.610363
_cell_length_c 11.969721
_cell_angle_alpha 90.000000
_cell_angle_beta 150.143285
_cell_angle_gamma 90.000000
_cell_volume 1596.812660
_symmetry_space_group_name_H-M "P 2/M"
_symmetry_group_IT_number 10
_symmetry_cell_setting 'monoclinic'
loop_
_space_group_symop_operation_xyz
x,y,z
-x,y,-z
-x,-y,-z
x,-y,z
loop_
_atom_site_type_symbol
_atom_site_label
_atom_site_fract_x
_atom_site_fract_y
_atom_site_fract_z
Si Si1 0.023627 0.180156 0.429363
Si Si2 0.776490 0.820080 0.128607
Si Si3 0.418583 0.818628 0.687091
Si Si4 0.400182 0.317991 0.880957
Si Si5 0.277587 0.681605 0.222345
Si Si6 0.755885 0.682117 0.312548
Si Si7 0.098959 0.182327 0.215575
Si Si8 0.875761 0.318988 0.960751
O O1 0.122767 0.215916 0.631495
O O2 0.000000 0.235040 0.500000
O O3 0.000235 0.000000 0.358423
O O4 0.970089 0.281026 0.220926
O O5 0.732310 0.768019 0.144064
O O6 0.758857 0.000000 0.064361
O O7 0.737285 0.720711 0.939995
O O8 0.517301 0.772968 0.885106
O O9 0.361797 0.773871 0.452264
O O10 0.412845 0.000000 0.699040
O O11 0.382216 0.726413 0.712172
O O12 0.418791 0.500000 0.931270
O O13 0.317259 0.268326 0.764667
O O14 0.294329 0.500000 0.273699
O O15 0.195319 0.735822 0.109719
O O16 0.757237 0.500000 0.293424
O O17 0.848605 0.734649 0.567772
O O18 0.139871 0.226574 0.188748
O O19 0.105960 0.000000 0.251274
O O20 0.000000 0.239111 0.000000
O O21 0.868050 0.500000 0.916533
#
# Coordination Sequence:
#
# PCOD8064592 Si02
#       8
#     4   4   4   4   4   4   4   4
#     4  10  20  36  56  80 114 154 196 241 291 345
#     4  11  23  39  60  85 116 157 200 244 292 345
#     4  11  22  37  63  95 122 149 189 241 292 344
#     4  10  21  40  64  90 121 156 191 232 291 354
#     4  11  23  39  58  85 120 154 192 240 295 348
#     4  11  24  41  62  87 118 157 198 240 290 349
#     4  11  24  40  58  83 117 157 198 242 293 345
#     4  11  23  36  57  86 115 151 196 245 295 346
#
# _framework density 20.039923000000002
#
# number of rings (size 3 to 8) (size 9 to 14) (size 15 to 20)
#    0.000    1.250    1.250    5.625    0.000   11.750 
#    0.000    0.625    0.000    3.750    0.000    0.000 
#    0.000    0.000    0.000    0.000    0.000    0.000 
#
# Total GULP energy -397045.929606 kJ/mol
# GULP energy per Si atom -12407.685300 kJ/mol
# Density = 1.999431 g / cm^3
# Si number density = 20.039923 Si / 1000 Ang^3
#
#
#
# Elastic Constant Matrix: (Units=GPa)
#
#
# Indices 1 2 3 4 5 6 
#
# 1 97.1269 19.5425 36.9614 0.0000 -3.5297 0.0000
# 2 19.5425 60.4007 28.2324 0.0000 7.1911 0.0000
# 3 36.9614 28.2324 96.4255 0.0000 -6.6321 0.0000
# 4 0.0000 0.0000 0.0000 34.0852 0.0000 -5.2551
# 5 -3.5297 7.1911 -6.6321 0.0000 30.3556 0.0000
# 6 0.0000 0.0000 0.0000 -5.2551 0.0000 26.9891
#
#
#
# Elastic Compliance Matrix: (Units=1/GPa)
#
#
# Indices 1 2 3 4 5 6 
#
# 1 0.012304 -0.002250 -0.003982 0.000000 0.001094 0.000000
# 2 -0.002250 0.020677 -0.005631 0.000000 -0.006390 0.000000
# 3 -0.003982 -0.005631 0.013813 0.000000 0.003889 0.000000
# 4 0.000000 0.000000 0.000000 0.030246 0.000000 0.005889
# 5 0.001094 -0.006390 0.003889 0.000000 0.035433 0.000000
# 6 0.000000 0.000000 0.000000 0.005889 0.000000 0.038199
#
#
# Mechanical properties :
#
#
# Convention : Reuss Voigt Hill
#
# Bulk Modulus (GPa) = 43.35059 47.04729 45.19894
# Shear Modulus (GPa) = 27.45930 29.56710 28.51320
#
# Velocity S-wave (km/s) = 3.70568 3.84527 3.77612
# Velocity P-wave (km/s) = 6.32364 6.57591 6.45101
#
# Compressibility (1/GPa) = 0.02306774
#
# Stress axis : x y z
#
# Youngs Moduli (GPa) = 81.27680 48.36330 72.39348
#
# Poissons Ratio (x) = 0.10880 0.28829
# Poissons Ratio (y) = 0.18284 0.40766
# Poissons Ratio (z) = 0.32367 0.27234
#
# Static dielectric constant tensor:
#      x y z
#    x 3.665790 0.000000 0.008640 
#    y 0.000000 3.602660 0.000000 
#    z 0.008640 0.000000 3.628710 
# 
# 
# High freq. dielectric constant tensor:
#      x y z
#    x 1.781220 0.000000 -0.005640 
#    y 0.000000 1.789050 0.000000 
#    z -0.005640 0.000000 1.783020 
# 
# From -- ./inp_files/58349.got.cif
#   From: 2010.06.25/outbox.cif.g09.slc.cpg/sg10_30_cif.got.tgz:58349.got - 2010.06.27 22:07:45.
