data_PCOD8064642
_publ_section_title
;
Structure prediction by ZEFSAII (Michael W. Deem and Ramdas Pophale) SiO2 
 PCOD8064642
Probable space group: P 2/M
;
_chemical_formula_sum "Si O2"
_cell_formula_units_Z 32
_cell_length_a 27.806354
_cell_length_b 9.198095
_cell_length_c 10.872686
_cell_angle_alpha 90.000000
_cell_angle_beta 35.262328
_cell_angle_gamma 90.000000
_cell_volume 1605.447305
_symmetry_space_group_name_H-M "P 2/M"
_symmetry_group_IT_number 10
_symmetry_cell_setting 'monoclinic'
loop_
_space_group_symop_operation_xyz
x,y,z
-x,y,-z
-x,-y,-z
x,-y,z
loop_
_atom_site_type_symbol
_atom_site_label
_atom_site_fract_x
_atom_site_fract_y
_atom_site_fract_z
Si Si1 0.370974 0.833462 0.710290
Si Si2 0.792904 0.837039 0.078324
Si Si3 0.550146 0.667080 0.676483
Si Si4 0.679265 0.168246 0.549240
Si Si5 0.378991 0.662142 0.932502
Si Si6 0.039878 0.327566 0.289431
Si Si7 0.954127 0.672289 0.218730
Si Si8 0.764874 0.334134 0.586122
O O1 0.420267 0.731876 0.514409
O O2 0.399530 0.000000 0.630978
O O3 0.271578 0.819098 0.899247
O O4 0.392919 0.783624 0.801019
O O5 0.864871 0.720518 0.912305
O O6 0.830454 0.000000 0.002644
O O7 0.743559 0.803189 0.305627
O O8 0.578029 0.500000 0.627176
O O9 0.591890 0.751660 0.703163
O O10 0.449610 0.683515 0.890672
O O11 0.721388 0.228757 0.581933
O O12 0.658721 0.000000 0.609804
O O13 0.388693 0.500000 0.855081
O O14 0.287012 0.677879 0.180223
O O15 0.036338 0.500000 0.296214
O O16 0.000000 0.267340 0.500000
O O17 0.994124 0.265594 0.262097
O O18 0.962362 0.500000 0.202906
O O19 0.858196 0.721739 0.416180
O O20 0.000000 0.734159 0.000000
O O21 0.765789 0.500000 0.534476
#
# Coordination Sequence:
#
# PCOD8064642 Si02
#       8
#     4   4   4   4   4   4   4   4
#     4  10  21  36  56  82 113 150 192 233 279 338
#     4   9  20  37  55  78 109 146 183 225 277 338
#     4  10  20  36  57  82 111 146 190 234 282 338
#     4  10  21  38  58  82 111 143 189 235 277 336
#     4  10  22  36  54  82 114 149 189 233 282 341
#     4  10  21  34  55  87 114 142 187 240 287 337
#     4   9  18  34  56  82 112 146 187 234 284 340
#     4  10  21  37  58  81 111 149 185 230 287 338
#
# _framework density 19.932138999999999
#
# number of rings (size 3 to 8) (size 9 to 14) (size 15 to 20)
#    0.000    2.250    0.000    3.000    1.750    7.750 
#    0.000    3.125    0.000    2.250    0.000    0.000 
#    0.000    0.000    0.000    0.000    0.000    0.000 
#
# Total GULP energy -396789.348019 kJ/mol
# GULP energy per Si atom -12399.667126 kJ/mol
# Density = 1.988677 g / cm^3
# Si number density = 19.932139 Si / 1000 Ang^3
#
#
#
# Elastic Constant Matrix: (Units=GPa)
#
#
# Indices 1 2 3 4 5 6 
#
# 1 99.0523 25.7551 30.0535 0.0000 -0.4592 0.0000
# 2 25.7551 67.8183 18.9062 0.0000 -2.6959 0.0000
# 3 30.0535 18.9062 73.6750 0.0000 -17.3857 0.0000
# 4 0.0000 0.0000 0.0000 15.5745 0.0000 -2.3494
# 5 -0.4592 -2.6959 -17.3857 0.0000 27.2412 0.0000
# 6 0.0000 0.0000 0.0000 -2.3494 0.0000 30.0372
#
#
#
# Elastic Compliance Matrix: (Units=1/GPa)
#
#
# Indices 1 2 3 4 5 6 
#
# 1 0.012500 -0.003489 -0.004987 0.000000 -0.003317 0.000000
# 2 -0.003489 0.016889 -0.002979 0.000000 -0.000289 0.000000
# 3 -0.004987 -0.002979 0.019169 0.000000 0.011855 0.000000
# 4 0.000000 0.000000 0.000000 0.064974 0.000000 0.005082
# 5 -0.003317 -0.000289 0.011855 0.000000 0.044191 0.000000
# 6 0.000000 0.000000 0.000000 0.005082 0.000000 0.033690
#
#
# Mechanical properties :
#
#
# Convention : Reuss Voigt Hill
#
# Bulk Modulus (GPa) = 38.98640 43.33057 41.15849
# Shear Modulus (GPa) = 22.43434 25.62598 24.03016
#
# Velocity S-wave (km/s) = 3.35854 3.58950 3.47594
# Velocity P-wave (km/s) = 5.88573 6.24224 6.06660
#
# Compressibility (1/GPa) = 0.02564997
#
# Stress axis : x y z
#
# Youngs Moduli (GPa) = 79.99697 59.20923 52.16675
#
# Poissons Ratio (x) = 0.20658 0.26014
# Poissons Ratio (y) = 0.27911 0.15540
# Poissons Ratio (z) = 0.39892 0.17638
#
# Static dielectric constant tensor:
#      x y z
#    x 3.745500 0.000000 -0.111540 
#    y 0.000000 3.465900 0.000000 
#    z -0.111540 0.000000 3.612690 
# 
# 
# High freq. dielectric constant tensor:
#      x y z
#    x 1.783640 0.000000 -0.010080 
#    y 0.000000 1.762620 0.000000 
#    z -0.010080 0.000000 1.773840 
# 
# From -- ./inp_files/58139.got.cif
#   From: 2010.06.25/outbox.cif.g09.slc.cpg/sg10_30_cif.got.tgz:58139.got - 2010.06.27 22:07:45.
