data_PCOD8064917
_publ_section_title
;
Structure prediction by ZEFSAII (Michael W. Deem and Ramdas Pophale) SiO2 
 PCOD8064917
Probable space group: P 2/M
;
_chemical_formula_sum "Si O2"
_cell_formula_units_Z 28
_cell_length_a 15.847310
_cell_length_b 8.985807
_cell_length_c 20.010604
_cell_angle_alpha 90.000000
_cell_angle_beta 150.091235
_cell_angle_gamma 90.000000
_cell_volume 1420.832351
_symmetry_space_group_name_H-M "P 2/M"
_symmetry_group_IT_number 10
_symmetry_cell_setting 'monoclinic'
loop_
_space_group_symop_operation_xyz
x,y,z
-x,y,-z
-x,-y,-z
x,-y,z
loop_
_atom_site_type_symbol
_atom_site_label
_atom_site_fract_x
_atom_site_fract_y
_atom_site_fract_z
Si Si1 0.963026 0.825336 0.398713
Si Si2 0.010173 0.326299 0.830436
Si Si3 0.172281 0.675069 0.429759
Si Si4 0.138695 0.824690 0.147294
Si Si5 0.386189 0.328412 0.859087
Si Si6 0.486205 0.175499 0.317777
Si Si7 0.607384 0.672791 0.881269
O O1 0.776793 0.774923 0.250293
O O2 0.000000 0.779481 0.500000
O O3 0.102077 0.743073 0.449773
O O4 0.981247 0.000000 0.399546
O O5 0.990608 0.500000 0.830027
O O6 0.953407 0.284035 0.716864
O O7 0.888861 0.244137 0.799095
O O8 0.203092 0.274072 0.971645
O O9 0.192375 0.500000 0.453089
O O10 0.354620 0.744996 0.538796
O O11 0.322982 0.777150 0.248389
O O12 0.119686 0.000000 0.140596
O O13 0.000000 0.761446 0.000000
O O14 0.328023 0.500000 0.823585
O O15 0.491752 0.296028 0.865402
O O16 0.500000 0.284816 0.000000
O O17 0.465764 0.227884 0.227886
O O18 0.514347 0.000000 0.337429
O O19 0.603855 0.500000 0.858081
#
# Coordination Sequence:
#
# PCOD8064917 Si02
#       7
#     4   4   4   4   4   4   4
#     4  11  24  41  61  88 121 157 201 248 296 353
#     4  10  22  39  62  90 120 155 198 249 295 346
#     4  11  24  42  62  88 121 157 199 244 299 357
#     4  10  21  39  61  88 121 159 198 238 293 355
#     4  10  21  38  60  86 119 156 197 246 297 353
#     4  11  23  39  60  87 120 155 196 244 291 349
#     4  10  20  36  60  88 115 152 198 243 296 349
#
# _framework density 19.706759000000002
#
# number of rings (size 3 to 8) (size 9 to 14) (size 15 to 20)
#    0.000    1.571    1.429    3.000    0.000    9.714 
#    0.000    4.286    0.000    0.000    0.000    0.000 
#    0.000    0.000    0.000    0.000    0.000    0.000 
#
# Total GULP energy -347388.948208 kJ/mol
# GULP energy per Si atom -12406.748150 kJ/mol
# Density = 1.966191 g / cm^3
# Si number density = 19.706759 Si / 1000 Ang^3
#
#
#
# Elastic Constant Matrix: (Units=GPa)
#
#
# Indices 1 2 3 4 5 6 
#
# 1 87.8369 34.0051 19.5055 0.0000 11.0004 0.0000
# 2 34.0051 53.4100 27.0356 0.0000 3.7604 0.0000
# 3 19.5055 27.0356 90.0428 0.0000 12.4103 0.0000
# 4 0.0000 0.0000 0.0000 35.2467 0.0000 5.2619
# 5 11.0004 3.7604 12.4103 0.0000 30.3019 0.0000
# 6 0.0000 0.0000 0.0000 5.2619 0.0000 24.7956
#
#
#
# Elastic Compliance Matrix: (Units=1/GPa)
#
#
# Indices 1 2 3 4 5 6 
#
# 1 0.015695 -0.009751 0.000155 0.000000 -0.004551 0.000000
# 2 -0.009751 0.028137 -0.006722 0.000000 0.002801 0.000000
# 3 0.000155 -0.006722 0.013760 0.000000 -0.004858 0.000000
# 4 0.000000 0.000000 0.000000 0.029300 0.000000 -0.006218
# 5 -0.004551 0.002801 -0.004858 0.000000 0.036295 0.000000
# 6 0.000000 0.000000 0.000000 -0.006218 0.000000 0.041649
#
#
# Mechanical properties :
#
#
# Convention : Reuss Voigt Hill
#
# Bulk Modulus (GPa) = 40.06991 43.59804 41.83398
# Shear Modulus (GPa) = 24.29655 28.11838 26.20747
#
# Velocity S-wave (km/s) = 3.51508 3.78145 3.65070
# Velocity P-wave (km/s) = 6.07055 6.42162 6.24856
#
# Compressibility (1/GPa) = 0.02495638
#
# Stress axis : x y z
#
# Youngs Moduli (GPa) = 63.71355 35.54087 72.67428
#
# Poissons Ratio (x) = 0.34656 -0.01127
# Poissons Ratio (y) = 0.62126 0.48851
# Poissons Ratio (z) = -0.00988 0.23890
#
# Static dielectric constant tensor:
#      x y z
#    x 3.387010 0.000000 -0.155240 
#    y 0.000000 3.532410 0.000000 
#    z -0.155240 0.000000 3.579570 
# 
# 
# High freq. dielectric constant tensor:
#      x y z
#    x 1.778490 0.000000 0.004060 
#    y 0.000000 1.764770 0.000000 
#    z 0.004060 0.000000 1.780620 
# 
# From -- ./inp_files/37271.got.cif
#   From: 2010.06.25/outbox.cif.g09.slc.cpg/sg10_19_cif.got.tgz:37271.got - 2010.06.27 22:07:45.
