data_PCOD8064029
_publ_section_title
;
Structure prediction by ZEFSAII (Michael W. Deem and Ramdas Pophale) SiO2 
 PCOD8064029
Probable space group: P 2/M
;
_chemical_formula_sum "Si O2"
_cell_formula_units_Z 32
_cell_length_a 21.613001
_cell_length_b 13.785912
_cell_length_c 18.362947
_cell_angle_alpha 90.000000
_cell_angle_beta 19.190140
_cell_angle_gamma 90.000000
_cell_volume 1798.448931
_symmetry_space_group_name_H-M "P 2/M"
_symmetry_group_IT_number 10
_symmetry_cell_setting 'monoclinic'
loop_
_space_group_symop_operation_xyz
x,y,z
-x,y,-z
-x,-y,-z
x,-y,z
loop_
_atom_site_type_symbol
_atom_site_label
_atom_site_fract_x
_atom_site_fract_y
_atom_site_fract_z
Si Si1 0.575919 0.890957 0.837629
Si Si2 0.105442 0.611253 0.098900
Si Si3 0.087159 0.387058 0.830270
Si Si4 0.998164 0.894722 0.415971
Si Si5 0.484964 0.299010 0.853048
Si Si6 0.686830 0.388096 0.751328
Si Si7 0.522804 0.610270 0.662047
Si Si8 0.926177 0.694871 0.709668
O O1 0.797787 0.891235 0.599880
O O2 0.508319 0.813032 0.852629
O O3 0.503171 0.000000 0.897875
O O4 0.500000 0.857683 0.000000
O O5 0.045600 0.500000 0.176693
O O6 0.041367 0.664602 0.243470
O O7 0.001591 0.658505 0.144745
O O8 0.327282 0.622098 0.836934
O O9 0.032952 0.500000 0.890770
O O10 0.311189 0.369250 0.580161
O O11 0.000000 0.338140 0.000000
O O12 0.000000 0.874339 0.500000
O O13 0.113275 0.810180 0.248862
O O14 0.091532 0.000000 0.297952
O O15 0.635993 0.368657 0.724153
O O16 0.533047 0.309899 0.714617
O O17 0.272696 0.344434 0.101786
O O18 0.716225 0.500000 0.737136
O O19 0.888155 0.335172 0.544487
O O20 0.500000 0.345123 0.000000
O O21 0.540749 0.500000 0.673468
#
# Coordination Sequence:
#
# PCOD8064029 Si02
#       8
#     4   4   4   4   4   4   4   4
#     4  10  20  35  53  75 102 129 165 215 268 315
#     4   9  18  32  48  71 101 133 168 203 245 295
#     4   9  17  29  48  72  98 132 168 202 243 291
#     4  10  21  35  53  76 100 129 167 214 264 312
#     4  11  21  34  54  74  97 133 170 208 259 310
#     4  11  24  37  48  67  96 130 172 219 257 293
#     4   9  18  31  47  70 101 133 165 202 242 292
#     4  11  22  34  56  73  98 135 173 211 259 313
#
# _framework density 17.793111
#
# number of rings (size 3 to 8) (size 9 to 14) (size 15 to 20)
#    0.000    2.000    1.250    2.625    1.750    4.500 
#    0.000    3.750    0.000    0.000    0.000    0.000 
#    0.000    2.000    0.000    5.500    0.000    0.250 
#
# Total GULP energy -396475.487132 kJ/mol
# GULP energy per Si atom -12389.858973 kJ/mol
# Density = 1.775261 g / cm^3
# Si number density = 17.793111 Si / 1000 Ang^3
#
#
#
# Elastic Constant Matrix: (Units=GPa)
#
#
# Indices 1 2 3 4 5 6 
#
# 1 53.6690 29.3876 20.2918 0.0000 -4.9365 0.0000
# 2 29.3876 79.6942 24.1939 0.0000 9.4709 0.0000
# 3 20.2918 24.1939 99.4774 0.0000 -5.0944 0.0000
# 4 0.0000 0.0000 0.0000 11.6128 0.0000 -5.8184
# 5 -4.9365 9.4709 -5.0944 0.0000 26.6986 0.0000
# 6 0.0000 0.0000 0.0000 -5.8184 0.0000 16.4579
#
#
#
# Elastic Compliance Matrix: (Units=1/GPa)
#
#
# Indices 1 2 3 4 5 6 
#
# 1 0.025509 -0.009558 -0.002488 0.000000 0.007633 0.000000
# 2 -0.009558 0.017976 -0.002867 0.000000 -0.008691 0.000000
# 3 -0.002488 -0.002867 0.011397 0.000000 0.002732 0.000000
# 4 0.000000 0.000000 0.000000 0.104649 0.000000 0.036997
# 5 0.007633 -0.008691 0.002732 0.000000 0.042471 0.000000
# 6 0.000000 0.000000 0.000000 0.036997 0.000000 0.073841
#
#
# Mechanical properties :
#
#
# Convention : Reuss Voigt Hill
#
# Bulk Modulus (GPa) = 39.91157 42.28746 41.09951
# Shear Modulus (GPa) = 15.92246 21.55168 18.73707
#
# Velocity S-wave (km/s) = 2.99468 3.48406 3.24860
# Velocity P-wave (km/s) = 5.86831 6.32477 6.10081
#
# Compressibility (1/GPa) = 0.02505539
#
# Stress axis : x y z
#
# Youngs Moduli (GPa) = 39.20123 55.62965 87.74023
#
# Poissons Ratio (x) = 0.53173 0.21829
# Poissons Ratio (y) = 0.37470 0.25157
# Poissons Ratio (z) = 0.09753 0.15950
#
# Static dielectric constant tensor:
#      x y z
#    x 3.259910 0.000000 -0.237440 
#    y 0.000000 3.278960 0.000000 
#    z -0.237440 0.000000 3.429190 
# 
# 
# High freq. dielectric constant tensor:
#      x y z
#    x 1.668560 0.000000 -0.031270 
#    y 0.000000 1.657520 0.000000 
#    z -0.031270 0.000000 1.696470 
# 
# From -- ./inp_files/79710.got.cif
#   From: 2010.06.25/outbox.cif.g09.slc.cpg/sg10_40_cif.got.tgz:79710.got - 2010.06.27 22:07:45.
