data_PCOD8064619
_publ_section_title
;
Structure prediction by ZEFSAII (Michael W. Deem and Ramdas Pophale) SiO2 
 PCOD8064619
Probable space group: P 2/M
;
_chemical_formula_sum "Si O2"
_cell_formula_units_Z 32
_cell_length_a 30.729005
_cell_length_b 8.805721
_cell_length_c 13.854396
_cell_angle_alpha 90.000000
_cell_angle_beta 152.812361
_cell_angle_gamma 90.000000
_cell_volume 1712.883829
_symmetry_space_group_name_H-M "P 2/M"
_symmetry_group_IT_number 10
_symmetry_cell_setting 'monoclinic'
loop_
_space_group_symop_operation_xyz
x,y,z
-x,y,-z
-x,-y,-z
x,-y,z
loop_
_atom_site_type_symbol
_atom_site_label
_atom_site_fract_x
_atom_site_fract_y
_atom_site_fract_z
Si Si1 0.606848 0.178141 0.959862
Si Si2 0.769784 0.173005 0.136000
Si Si3 0.105782 0.321313 0.988496
Si Si4 0.757227 0.323307 0.911458
Si Si5 0.607112 0.822685 0.490085
Si Si6 0.261725 0.679096 0.628705
Si Si7 0.902069 0.822917 0.575099
Si Si8 0.255872 0.178442 0.413715
O O1 0.500625 0.237295 0.730022
O O2 0.610658 0.000000 0.994681
O O3 0.669082 0.210414 0.987439
O O4 0.647017 0.273051 0.128685
O O5 0.854708 0.206590 0.377905
O O6 0.772364 0.000000 0.105894
O O7 0.785449 0.277851 0.074853
O O8 0.113883 0.500000 0.023636
O O9 0.997031 0.274091 0.766852
O O10 0.157776 0.272195 0.991993
O O11 0.153795 0.232794 0.172267
O O12 0.741533 0.500000 0.875754
O O13 0.657568 0.249421 0.682719
O O14 0.662619 0.778894 0.502312
O O15 0.607322 0.000000 0.508591
O O16 0.245230 0.500000 0.603650
O O17 0.167710 0.766288 0.478713
O O18 0.282633 0.728114 0.561126
O O19 0.923561 0.000000 0.633951
O O20 0.252377 0.000000 0.429171
#
# Coordination Sequence:
#
# PCOD8064619 Si02
#       8
#     4   4   4   4   4   4   4   4
#     4   9  19  37  57  79 106 140 181 223 263 309
#     4   9  19  35  55  77 105 139 178 220 262 311
#     4  10  21  37  55  79 109 140 174 218 268 317
#     4  10  21  35  53  78 111 143 174 216 267 319
#     4   9  19  36  58  79 104 140 182 223 263 308
#     4  11  22  36  55  80 110 142 173 215 267 319
#     4  10  21  38  58  80 105 138 179 222 262 310
#     4  10  20  36  57  80 106 140 180 221 261 311
#
# _framework density 18.681944000000001
#
# number of rings (size 3 to 8) (size 9 to 14) (size 15 to 20)
#    0.000    2.250    0.000    3.375    0.000    7.000 
#    0.000   10.000    0.000    0.000    0.000    0.000 
#    0.000    0.000    0.000    0.000    0.000    0.000 
#
# Total GULP energy -396924.548353 kJ/mol
# GULP energy per Si atom -12403.892136 kJ/mol
# Density = 1.863942 g / cm^3
# Si number density = 18.681944 Si / 1000 Ang^3
#
#
#
# Elastic Constant Matrix: (Units=GPa)
#
#
# Indices 1 2 3 4 5 6 
#
# 1 22.3999 6.2165 -2.6949 0.0000 -8.2136 0.0000
# 2 6.2165 44.5095 5.5084 0.0000 -7.8041 0.0000
# 3 -2.6949 5.5084 39.3117 0.0000 9.1846 0.0000
# 4 0.0000 0.0000 0.0000 21.2796 0.0000 -1.5366
# 5 -8.2136 -7.8041 9.1846 0.0000 34.2651 0.0000
# 6 0.0000 0.0000 0.0000 -1.5366 0.0000 29.4887
#
#
#
# Elastic Compliance Matrix: (Units=1/GPa)
#
#
# Indices 1 2 3 4 5 6 
#
# 1 0.050141 -0.005417 0.001789 0.000000 0.010306 0.000000
# 2 -0.005417 0.024878 -0.005204 0.000000 0.005762 0.000000
# 3 0.001789 -0.005204 0.028234 0.000000 -0.008325 0.000000
# 4 0.000000 0.000000 0.000000 0.047171 0.000000 0.002458
# 5 0.010306 0.005762 -0.008325 0.000000 0.035198 0.000000
# 6 0.000000 0.000000 0.000000 0.002458 0.000000 0.034039
#
#
# Mechanical properties :
#
#
# Convention : Reuss Voigt Hill
#
# Bulk Modulus (GPa) = 11.68387 13.80902 12.74644
# Shear Modulus (GPa) = 18.80719 23.48609 21.14664
#
# Velocity S-wave (km/s) = 3.17630 3.54948 3.36807
# Velocity P-wave (km/s) = 4.44067 4.91997 4.68645
#
# Compressibility (1/GPa) = 0.08558812
#
# Stress axis : x y z
#
# Youngs Moduli (GPa) = 19.94394 40.19607 35.41784
#
# Poissons Ratio (x) = 0.21776 -0.06335
# Poissons Ratio (y) = 0.10804 0.18430
# Poissons Ratio (z) = -0.03567 0.20916
#
# Static dielectric constant tensor:
#      x y z
#    x 3.437860 0.000000 0.046780 
#    y 0.000000 3.412720 0.000000 
#    z 0.046780 0.000000 3.472850 
# 
# 
# High freq. dielectric constant tensor:
#      x y z
#    x 1.722370 0.000000 -0.000580 
#    y 0.000000 1.729390 0.000000 
#    z -0.000580 0.000000 1.729360 
# 
# From -- ./inp_files/58268.got.cif
#   From: 2010.06.25/outbox.cif.g09.slc.cpg/sg10_30_cif.got.tgz:58268.got - 2010.06.27 22:07:45.
