data_PCOD8064736
_publ_section_title
;
Structure prediction by ZEFSAII (Michael W. Deem and Ramdas Pophale) SiO2 
 PCOD8064736
Probable space group: P 2/M
;
_chemical_formula_sum "Si O2"
_cell_formula_units_Z 28
_cell_length_a 9.268850
_cell_length_b 8.616071
_cell_length_c 29.033977
_cell_angle_alpha 90.000000
_cell_angle_beta 37.626991
_cell_angle_gamma 90.000000
_cell_volume 1415.599363
_symmetry_space_group_name_H-M "P 2/M"
_symmetry_group_IT_number 10
_symmetry_cell_setting 'monoclinic'
loop_
_space_group_symop_operation_xyz
x,y,z
-x,y,-z
-x,-y,-z
x,-y,z
loop_
_atom_site_type_symbol
_atom_site_label
_atom_site_fract_x
_atom_site_fract_y
_atom_site_fract_z
Si Si1 0.685878 0.183177 0.266602
Si Si2 0.257243 0.179579 0.433254
Si Si3 0.000899 0.679106 0.735073
Si Si4 0.455776 0.676951 0.563622
Si Si5 0.189514 0.680974 0.860316
Si Si6 0.355368 0.680929 0.991098
Si Si7 0.496310 0.180487 0.140920
O O1 0.432347 0.246550 0.349492
O O2 0.895173 0.264538 0.242297
O O3 0.698411 0.223970 0.209976
O O4 0.708941 0.000000 0.268483
O O5 0.376631 0.205276 0.452164
O O6 0.000000 0.262414 0.500000
O O7 0.220418 0.000000 0.432546
O O8 0.930037 0.500000 0.758817
O O9 0.184885 0.705074 0.646894
O O10 0.771359 0.775743 0.778747
O O11 0.500000 0.718172 0.500000
O O12 0.528105 0.500000 0.556670
O O13 0.220527 0.500000 0.842371
O O14 0.321215 0.724045 0.873995
O O15 0.916392 0.726790 0.933545
O O16 0.385046 0.500000 0.971810
O O17 0.500000 0.726613 0.000000
O O18 0.460245 0.780626 0.923208
O O19 0.537604 0.000000 0.139661
#
# Coordination Sequence:
#
# PCOD8064736 Si02
#       7
#     4   4   4   4   4   4   4
#     4  10  20  36  58  84 114 147 189 236 279 330
#     4   9  19  35  54  79 112 149 186 226 276 333
#     4  10  20  37  59  81 111 150 190 231 281 341
#     4   9  19  35  55  81 110 142 185 235 280 326
#     4  11  23  39  60  85 116 152 187 227 279 336
#     4  10  22  41  64  87 112 146 187 228 275 335
#     4  12  25  39  58  85 117 149 186 235 282 326
#
# _framework density 19.779609000000001
#
# number of rings (size 3 to 8) (size 9 to 14) (size 15 to 20)
#    0.000    1.857    0.000    3.857    0.000    7.143 
#    0.000    2.857    0.000    0.000    0.000    0.000 
#    0.000    0.000    0.000    0.000    0.000    0.000 
#
# Total GULP energy -347284.681109 kJ/mol
# GULP energy per Si atom -12403.024325 kJ/mol
# Density = 1.973459 g / cm^3
# Si number density = 19.779609 Si / 1000 Ang^3
#
#
#
# Elastic Constant Matrix: (Units=GPa)
#
#
# Indices 1 2 3 4 5 6 
#
# 1 106.4077 11.1893 63.1612 0.0000 -11.6000 0.0000
# 2 11.1893 40.6442 27.8822 0.0000 -4.4187 0.0000
# 3 63.1612 27.8822 121.7756 0.0000 -4.3862 0.0000
# 4 0.0000 0.0000 0.0000 25.7478 0.0000 2.5439
# 5 -11.6000 -4.4187 -4.3862 0.0000 41.0548 0.0000
# 6 0.0000 0.0000 0.0000 2.5439 0.0000 32.2095
#
#
#
# Elastic Compliance Matrix: (Units=1/GPa)
#
#
# Indices 1 2 3 4 5 6 
#
# 1 0.014077 0.001678 -0.007565 0.000000 0.003350 0.000000
# 2 0.001678 0.029633 -0.007553 0.000000 0.002857 0.000000
# 3 -0.007565 -0.007553 0.013812 0.000000 -0.001475 0.000000
# 4 0.000000 0.000000 0.000000 0.039144 0.000000 -0.003092
# 5 0.003350 0.002857 -0.001475 0.000000 0.025454 0.000000
# 6 0.000000 0.000000 0.000000 -0.003092 0.000000 0.031291
#
#
# Mechanical properties :
#
#
# Convention : Reuss Voigt Hill
#
# Bulk Modulus (GPa) = 32.63312 52.58809 42.61060
# Shear Modulus (GPa) = 26.24627 30.90873 28.57750
#
# Velocity S-wave (km/s) = 3.64666 3.95733 3.80517
# Velocity P-wave (km/s) = 5.85364 6.89387 6.39494
#
# Compressibility (1/GPa) = 0.03064372
#
# Stress axis : x y z
#
# Youngs Moduli (GPa) = 71.03884 33.74571 72.40286
#
# Poissons Ratio (x) = -0.05664 0.54771
# Poissons Ratio (y) = -0.11923 0.54683
# Poissons Ratio (z) = 0.53740 0.25487
#
# Static dielectric constant tensor:
#      x y z
#    x 3.525810 0.000000 -0.156660 
#    y 0.000000 3.520610 0.000000 
#    z -0.156660 0.000000 3.821540 
# 
# 
# High freq. dielectric constant tensor:
#      x y z
#    x 1.767890 0.000000 -0.004760 
#    y 0.000000 1.767790 0.000000 
#    z -0.004760 0.000000 1.786420 
# 
# From -- ./inp_files/37336.got.cif
#   From: 2010.06.25/outbox.cif.g09.slc.cpg/sg10_19_cif.got.tgz:37336.got - 2010.06.27 22:07:45.
