data_PCOD8064524
_publ_section_title
;
Structure prediction by ZEFSAII (Michael W. Deem and Ramdas Pophale) SiO2 
 PCOD8064524
Probable space group: P 2/M
;
_chemical_formula_sum "Si O2"
_cell_formula_units_Z 28
_cell_length_a 14.716659
_cell_length_b 8.814376
_cell_length_c 21.687874
_cell_angle_alpha 90.000000
_cell_angle_beta 149.033127
_cell_angle_gamma 90.000000
_cell_volume 1447.567905
_symmetry_space_group_name_H-M "P 2/M"
_symmetry_group_IT_number 10
_symmetry_cell_setting 'monoclinic'
loop_
_space_group_symop_operation_xyz
x,y,z
-x,y,-z
-x,-y,-z
x,-y,z
loop_
_atom_site_type_symbol
_atom_site_label
_atom_site_fract_x
_atom_site_fract_y
_atom_site_fract_z
Si Si1 0.964666 0.324394 0.891719
Si Si2 0.266806 0.678748 0.720493
Si Si3 0.069116 0.326369 0.818635
Si Si4 0.935489 0.322992 0.608660
Si Si5 0.331049 0.821755 0.632245
Si Si6 0.735927 0.820501 0.857415
Si Si7 0.562734 0.177455 0.969920
O O1 0.950361 0.500000 0.902155
O O2 0.948032 0.303187 0.808481
O O3 0.806406 0.232038 0.831551
O O4 0.153258 0.261160 0.024441
O O5 0.274047 0.500000 0.720283
O O6 0.110949 0.733033 0.675129
O O7 0.233342 0.744326 0.633111
O O8 0.453160 0.738592 0.853544
O O9 0.137753 0.500000 0.853789
O O10 0.954565 0.284746 0.692024
O O11 0.233213 0.214452 0.919622
O O12 0.902947 0.500000 0.578085
O O13 0.766824 0.230812 0.486713
O O14 0.533883 0.769460 0.746345
O O15 0.315758 0.000000 0.630816
O O16 0.759139 0.000000 0.877453
O O17 0.530788 0.000000 0.943169
O O18 0.500000 0.236022 0.000000
#
# Coordination Sequence:
#
# PCOD8064524 Si02
#       7
#     4   4   4   4   4   4   4
#     4  10  20  35  61  90 111 138 180 229 279 329
#     4  11  22  37  59  82 110 151 192 232 280 330
#     4  10  21  38  58  83 115 150 187 229 279 334
#     4  10  22  39  57  79 111 151 192 229 274 333
#     4  11  24  39  57  82 112 147 190 235 280 330
#     4  10  21  38  58  82 114 146 178 224 282 336
#     4  11  22  34  53  83 116 148 184 227 275 326
#
# _framework density 19.342787000000001
#
# number of rings (size 3 to 8) (size 9 to 14) (size 15 to 20)
#    0.000    1.571    1.429    4.286    0.000    9.714 
#    0.000    0.714    0.000    4.286    0.000    0.000 
#    0.000    0.000    0.000    0.000    0.000    0.000 
#
# Total GULP energy -347350.475008 kJ/mol
# GULP energy per Si atom -12405.374107 kJ/mol
# Density = 1.929876 g / cm^3
# Si number density = 19.342787 Si / 1000 Ang^3
#
#
#
# Elastic Constant Matrix: (Units=GPa)
#
#
# Indices 1 2 3 4 5 6 
#
# 1 110.8334 26.9980 45.5800 0.0000 -19.4457 0.0000
# 2 26.9980 57.1660 32.6508 0.0000 0.4459 0.0000
# 3 45.5800 32.6508 96.3119 0.0000 -14.0183 0.0000
# 4 0.0000 0.0000 0.0000 30.5525 0.0000 6.4958
# 5 -19.4457 0.4459 -14.0183 0.0000 29.3250 0.0000
# 6 0.0000 0.0000 0.0000 6.4958 0.0000 15.5775
#
#
#
# Elastic Compliance Matrix: (Units=1/GPa)
#
#
# Indices 1 2 3 4 5 6 
#
# 1 0.012673 -0.003930 -0.003690 0.000000 0.006699 0.000000
# 2 -0.003930 0.023388 -0.006986 0.000000 -0.006301 0.000000
# 3 -0.003690 -0.006986 0.015216 0.000000 0.004933 0.000000
# 4 0.000000 0.000000 0.000000 0.035915 0.000000 -0.014976
# 5 0.006699 -0.006301 0.004933 0.000000 0.040997 0.000000
# 6 0.000000 0.000000 0.000000 -0.014976 0.000000 0.070440
#
#
# Mechanical properties :
#
#
# Convention : Reuss Voigt Hill
#
# Bulk Modulus (GPa) = 45.32158 52.75209 49.03683
# Shear Modulus (GPa) = 21.25892 25.69649 23.47771
#
# Velocity S-wave (km/s) = 3.31881 3.64879 3.48770
# Velocity P-wave (km/s) = 6.17799 6.71438 6.45176
#
# Compressibility (1/GPa) = 0.02206454
#
# Stress axis : x y z
#
# Youngs Moduli (GPa) = 78.90988 42.75671 65.72145
#
# Poissons Ratio (x) = 0.16801 0.24252
# Poissons Ratio (y) = 0.31008 0.45915
# Poissons Ratio (z) = 0.29119 0.29871
#
# Static dielectric constant tensor:
#      x y z
#    x 3.636900 0.000000 -0.114850 
#    y 0.000000 3.506960 0.000000 
#    z -0.114850 0.000000 3.471250 
# 
# 
# High freq. dielectric constant tensor:
#      x y z
#    x 1.755660 0.000000 -0.011320 
#    y 0.000000 1.758720 0.000000 
#    z -0.011320 0.000000 1.744790 
# 
# From -- ./inp_files/49103.got.cif
#   From: 2010.06.25/outbox.cif.g09.slc.cpg/sg10_25_cif.got.tgz:49103.got - 2010.06.27 22:07:45.
