data_PCOD8064919
_publ_section_title
;
Structure prediction by ZEFSAII (Michael W. Deem and Ramdas Pophale) SiO2 
 PCOD8064919
Probable space group: P 2/M
;
_chemical_formula_sum "Si O2"
_cell_formula_units_Z 28
_cell_length_a 27.060690
_cell_length_b 8.872218
_cell_length_c 9.240775
_cell_angle_alpha 90.000000
_cell_angle_beta 38.617240
_cell_angle_gamma 90.000000
_cell_volume 1384.662386
_symmetry_space_group_name_H-M "P 2/M"
_symmetry_group_IT_number 10
_symmetry_cell_setting 'monoclinic'
loop_
_space_group_symop_operation_xyz
x,y,z
-x,y,-z
-x,-y,-z
x,-y,z
loop_
_atom_site_type_symbol
_atom_site_label
_atom_site_fract_x
_atom_site_fract_y
_atom_site_fract_z
Si Si1 0.271307 0.324816 0.014174
Si Si2 0.157174 0.322130 0.807212
Si Si3 0.434889 0.333847 0.769684
Si Si4 0.015625 0.822720 0.298635
Si Si5 0.290163 0.821211 0.675317
Si Si6 0.124052 0.325112 0.553332
Si Si7 0.532947 0.177136 0.776794
O O1 0.276470 0.500000 0.960391
O O2 0.205384 0.293008 0.284688
O O3 0.354136 0.266457 0.889740
O O4 0.251686 0.232185 0.914411
O O5 0.165358 0.500000 0.803595
O O6 0.241174 0.247162 0.653673
O O7 0.133764 0.276335 0.697766
O O8 0.092866 0.263689 0.067960
O O9 0.500000 0.350931 0.500000
O O10 0.418985 0.500000 0.874599
O O11 0.466849 0.216417 0.811667
O O12 0.942658 0.777603 0.364709
O O13 0.000000 0.774175 0.500000
O O14 0.030631 0.000000 0.251722
O O15 0.380056 0.757652 0.459136
O O16 0.286231 0.000000 0.675514
O O17 0.098826 0.500000 0.599208
O O18 0.540909 0.000000 0.770546
O O19 0.500000 0.247979 0.000000
#
# Coordination Sequence:
#
# PCOD8064919 Si02
#       7
#     4   4   4   4   4   4   4
#     4  10  21  39  61  87 120 156 197 247 299 352
#     4  11  24  41  63  90 122 157 195 241 294 350
#     4  10  20  36  60  88 116 152 201 251 297 347
#     4  11  24  42  65  93 123 155 196 239 286 347
#     4  11  23  39  59  86 119 157 202 247 294 352
#     4  10  23  41  62  90 122 156 196 240 293 352
#     4  10  23  40  57  82 119 160 201 246 300 357
#
# _framework density 20.221536
#
# number of rings (size 3 to 8) (size 9 to 14) (size 15 to 20)
#    0.000    1.571    1.429    2.571    2.000    8.571 
#    0.000    0.000    0.000    0.000    0.000    0.000 
#    0.000    0.000    0.000    0.000    0.000    0.000 
#
# Total GULP energy -347304.947717 kJ/mol
# GULP energy per Si atom -12403.748133 kJ/mol
# Density = 2.017551 g / cm^3
# Si number density = 20.221536 Si / 1000 Ang^3
#
#
#
# Elastic Constant Matrix: (Units=GPa)
#
#
# Indices 1 2 3 4 5 6 
#
# 1 134.7678 40.1608 34.8552 0.0000 4.1514 0.0000
# 2 40.1608 58.3450 30.4090 0.0000 5.2610 0.0000
# 3 34.8552 30.4090 87.6883 0.0000 12.1215 0.0000
# 4 0.0000 0.0000 0.0000 23.4439 0.0000 -3.3017
# 5 4.1514 5.2610 12.1215 0.0000 38.5590 0.0000
# 6 0.0000 0.0000 0.0000 -3.3017 0.0000 38.1925
#
#
#
# Elastic Compliance Matrix: (Units=1/GPa)
#
#
# Indices 1 2 3 4 5 6 
#
# 1 0.009580 -0.005634 -0.001901 0.000000 0.000335 0.000000
# 2 -0.005634 0.024247 -0.006059 0.000000 -0.000797 0.000000
# 3 -0.001901 -0.006059 0.014759 0.000000 -0.003609 0.000000
# 4 0.000000 0.000000 0.000000 0.043181 0.000000 0.003733
# 5 0.000335 -0.000797 -0.003609 0.000000 0.027141 0.000000
# 6 0.000000 0.000000 0.000000 0.003733 0.000000 0.026506
#
#
# Mechanical properties :
#
#
# Convention : Reuss Voigt Hill
#
# Bulk Modulus (GPa) = 46.72912 54.62790 50.67851
# Shear Modulus (GPa) = 27.81865 31.73082 29.77474
#
# Velocity S-wave (km/s) = 3.71306 3.96556 3.84138
# Velocity P-wave (km/s) = 6.44524 6.93116 6.69261
#
# Compressibility (1/GPa) = 0.02139993
#
# Stress axis : x y z
#
# Youngs Moduli (GPa) = 104.38019 41.24170 67.75321
#
# Poissons Ratio (x) = 0.23236 0.12877
# Poissons Ratio (y) = 0.58809 0.41051
# Poissons Ratio (z) = 0.19838 0.24988
#
# Static dielectric constant tensor:
#      x y z
#    x 3.661170 0.000000 -0.086190 
#    y 0.000000 3.577920 0.000000 
#    z -0.086190 0.000000 3.878160 
# 
# 
# High freq. dielectric constant tensor:
#      x y z
#    x 1.802450 0.000000 -0.004060 
#    y 0.000000 1.781800 0.000000 
#    z -0.004060 0.000000 1.799190 
# 
# From -- ./inp_files/31542.got.cif
#   From: 2010.06.25/outbox.cif.g09.slc.cpg/sg10_16_cif.got.tgz:31542.got - 2010.06.27 22:07:45.
