data_PCOD8064884
_publ_section_title
;
Structure prediction by ZEFSAII (Michael W. Deem and Ramdas Pophale) SiO2 
 PCOD8064884
Probable space group: P 2/M
;
_chemical_formula_sum "Si O2"
_cell_formula_units_Z 24
_cell_length_a 19.470986
_cell_length_b 9.317142
_cell_length_c 7.773589
_cell_angle_alpha 90.000000
_cell_angle_beta 65.803671
_cell_angle_gamma 90.000000
_cell_volume 1286.342955
_symmetry_space_group_name_H-M "P 2/M"
_symmetry_group_IT_number 10
_symmetry_cell_setting 'monoclinic'
loop_
_space_group_symop_operation_xyz
x,y,z
-x,y,-z
-x,-y,-z
x,-y,z
loop_
_atom_site_type_symbol
_atom_site_label
_atom_site_fract_x
_atom_site_fract_y
_atom_site_fract_z
Si Si1 0.170396 0.832034 0.589995
Si Si2 0.084009 0.669027 0.978770
Si Si3 0.420220 0.661822 0.679783
Si Si4 0.918323 0.832172 0.658906
Si Si5 0.336562 0.165844 0.509875
Si Si6 0.509150 0.848298 0.798789
O O1 0.139260 0.787127 0.434168
O O2 0.259094 0.796680 0.494046
O O3 0.153020 0.000000 0.641878
O O4 0.136605 0.740987 0.781380
O O5 0.102227 0.500000 0.975029
O O6 0.097273 0.741054 0.152362
O O7 0.000000 0.696450 0.000000
O O8 0.500000 0.681528 0.500000
O O9 0.396579 0.500000 0.735214
O O10 0.348374 0.739135 0.668916
O O11 0.440621 0.738512 0.836360
O O12 0.000000 0.796003 0.500000
O O13 0.910687 0.000000 0.714345
O O14 0.406447 0.211642 0.317641
O O15 0.336852 0.000000 0.562967
O O16 0.499793 0.000000 0.703327
O O17 0.500000 0.890935 0.000000
#
# Coordination Sequence:
#
# PCOD8064884 Si02
#       6
#     4   4   4   4   4   4
#     4  10  21  38  59  82 111 148 190 238 285 332
#     4  11  23  37  57  84 114 149 188 231 283 344
#     4   9  17  30  50  73  99 134 172 209 255 316
#     4  10  20  36  60  85 110 145 190 236 281 333
#     4   9  18  34  54  76 103 137 177 222 272 322
#     4   9  17  31  52  77 105 137 177 222 267 319
#
# _framework density 18.657544000000001
#
# number of rings (size 3 to 8) (size 9 to 14) (size 15 to 20)
#    0.000    2.333    1.667    1.000    0.000    4.667 
#    3.000    0.000    0.000    0.000    0.000    0.000 
#    0.000    0.000    0.000    0.000    0.000    0.000 
#
# Total GULP energy -297328.948267 kJ/mol
# GULP energy per Si atom -12388.706178 kJ/mol
# Density = 1.861508 g / cm^3
# Si number density = 18.657544 Si / 1000 Ang^3
#
#
#
# Elastic Constant Matrix: (Units=GPa)
#
#
# Indices 1 2 3 4 5 6 
#
# 1 164.2307 72.1942 53.8486 0.0000 14.3449 0.0000
# 2 72.1942 100.9116 49.0613 0.0000 14.8657 0.0000
# 3 53.8486 49.0613 89.0550 0.0000 20.9191 0.0000
# 4 0.0000 0.0000 0.0000 27.3013 0.0000 17.1298
# 5 14.3449 14.8657 20.9191 0.0000 25.8696 0.0000
# 6 0.0000 0.0000 0.0000 17.1298 0.0000 54.9435
#
#
#
# Elastic Compliance Matrix: (Units=1/GPa)
#
#
# Indices 1 2 3 4 5 6 
#
# 1 0.009329 -0.005375 -0.002704 0.000000 0.000102 0.000000
# 2 -0.005375 0.016730 -0.005442 0.000000 -0.002232 0.000000
# 3 -0.002704 -0.005442 0.018240 0.000000 -0.010123 0.000000
# 4 0.000000 0.000000 0.000000 0.045536 0.000000 -0.014197
# 5 0.000102 -0.002232 -0.010123 0.000000 0.048067 0.000000
# 6 0.000000 0.000000 0.000000 -0.014197 0.000000 0.022627
#
#
# Mechanical properties :
#
#
# Convention : Reuss Voigt Hill
#
# Bulk Modulus (GPa) = 57.94742 78.26726 68.10734
# Shear Modulus (GPa) = 25.86337 33.56243 29.71290
#
# Velocity S-wave (km/s) = 3.72723 4.24591 3.99499
# Velocity P-wave (km/s) = 7.04619 8.12880 7.60678
#
# Compressibility (1/GPa) = 0.01725702
#
# Stress axis : x y z
#
# Youngs Moduli (GPa) = 107.18774 59.77417 54.82409
#
# Poissons Ratio (x) = 0.32127 0.14825
# Poissons Ratio (y) = 0.57611 0.29836
# Poissons Ratio (z) = 0.28985 0.32530
#
# Static dielectric constant tensor:
#      x y z
#    x 3.571900 0.000000 0.093630 
#    y 0.000000 3.429050 0.000000 
#    z 0.093630 0.000000 3.216960 
# 
# 
# High freq. dielectric constant tensor:
#      x y z
#    x 1.730090 0.000000 0.009740 
#    y 0.000000 1.724940 0.000000 
#    z 0.009740 0.000000 1.702190 
# 
# From -- ./inp_files/33439.got.cif
#   From: 2010.06.25/outbox.cif.g09.slc.cpg/sg10_17_cif.got.tgz:33439.got - 2010.06.27 22:07:45.
