data_PCOD8064056
_publ_section_title
;
Structure prediction by ZEFSAII (Michael W. Deem and Ramdas Pophale) SiO2 
 PCOD8064056
Probable space group: P 2/M
;
_chemical_formula_sum "Si O2"
_cell_formula_units_Z 32
_cell_length_a 14.276645
_cell_length_b 8.940174
_cell_length_c 22.264260
_cell_angle_alpha 90.000000
_cell_angle_beta 36.577050
_cell_angle_gamma 90.000000
_cell_volume 1693.386743
_symmetry_space_group_name_H-M "P 2/M"
_symmetry_group_IT_number 10
_symmetry_cell_setting 'monoclinic'
loop_
_space_group_symop_operation_xyz
x,y,z
-x,y,-z
-x,-y,-z
x,-y,z
loop_
_atom_site_type_symbol
_atom_site_label
_atom_site_fract_x
_atom_site_fract_y
_atom_site_fract_z
Si Si1 0.147505 0.824964 0.383087
Si Si2 0.150853 0.176093 0.135599
Si Si3 0.788816 0.673528 0.771916
Si Si4 0.351338 0.167368 0.533539
Si Si5 0.456436 0.328197 0.258868
Si Si6 0.841737 0.676168 0.271591
Si Si7 0.430275 0.670203 0.927367
Si Si8 0.553373 0.327377 0.339581
O O1 0.130243 0.737943 0.329355
O O2 0.304041 0.776320 0.337754
O O3 0.000000 0.782408 0.500000
O O4 0.155706 0.000000 0.365060
O O5 0.142290 0.240446 0.206894
O O6 0.006794 0.244999 0.171561
O O7 0.133766 0.000000 0.146923
O O8 0.312741 0.217257 0.019871
O O9 0.832258 0.500000 0.755027
O O10 0.601916 0.697701 0.866369
O O11 0.500000 0.165674 0.500000
O O12 0.216533 0.267580 0.633144
O O13 0.405205 0.237313 0.442600
O O14 0.286352 0.000000 0.556170
O O15 0.397993 0.500000 0.284993
O O16 0.567607 0.293477 0.144760
O O17 0.559181 0.298280 0.265394
O O18 0.866248 0.500000 0.261149
O O19 0.718868 0.724819 0.282904
O O20 0.375565 0.500000 0.967741
O O21 0.525003 0.500000 0.370248
#
# Coordination Sequence:
#
# PCOD8064056 Si02
#       8
#     4   4   4   4   4   4   4   4
#     4  10  21  36  54  81 117 149 177 214 259 310
#     4  12  24  36  54  80 109 139 174 221 275 324
#     4  10  21  38  60  82 106 140 180 219 261 316
#     4   9  17  30  49  74 105 138 171 213 265 315
#     4   9  19  36  58  81 105 138 181 224 264 313
#     4  10  20  35  54  76 106 142 181 225 267 313
#     4   9  19  37  58  79 104 135 174 218 266 321
#     4   9  18  34  56  80 105 140 185 224 262 314
#
# _framework density 18.897041999999999
#
# number of rings (size 3 to 8) (size 9 to 14) (size 15 to 20)
#    0.000    2.250    0.000    3.750    0.000    8.500 
#    0.000    3.125    0.000    3.750    0.000    0.000 
#    0.000    0.000    0.000    0.000    0.000    0.000 
#
# Total GULP energy -396881.738253 kJ/mol
# GULP energy per Si atom -12402.554320 kJ/mol
# Density = 1.885403 g / cm^3
# Si number density = 18.897042 Si / 1000 Ang^3
#
#
#
# Elastic Constant Matrix: (Units=GPa)
#
#
# Indices 1 2 3 4 5 6 
#
# 1 93.0528 39.2475 37.5671 0.0000 10.3184 0.0000
# 2 39.2475 111.7583 51.4930 0.0000 1.1264 0.0000
# 3 37.5671 51.4930 92.6313 0.0000 1.6995 0.0000
# 4 0.0000 0.0000 0.0000 32.2165 0.0000 -0.5786
# 5 10.3184 1.1264 1.6995 0.0000 19.9068 0.0000
# 6 0.0000 0.0000 0.0000 -0.5786 0.0000 24.1452
#
#
#
# Elastic Compliance Matrix: (Units=1/GPa)
#
#
# Indices 1 2 3 4 5 6 
#
# 1 0.014465 -0.003180 -0.003970 0.000000 -0.006979 0.000000
# 2 -0.003180 0.012728 -0.005812 0.000000 0.001424 0.000000
# 3 -0.003970 -0.005812 0.015617 0.000000 0.001054 0.000000
# 4 0.000000 0.000000 0.000000 0.031053 0.000000 0.000744
# 5 -0.006979 0.001424 0.001054 0.000000 0.053681 0.000000
# 6 0.000000 0.000000 0.000000 0.000744 0.000000 0.041434
#
#
# Mechanical properties :
#
#
# Convention : Reuss Voigt Hill
#
# Bulk Modulus (GPa) = 59.22337 61.56196 60.39267
# Shear Modulus (GPa) = 24.93378 26.52936 25.73157
#
# Velocity S-wave (km/s) = 3.63637 3.75092 3.69409
# Velocity P-wave (km/s) = 7.00278 7.16990 7.08683
#
# Compressibility (1/GPa) = 0.01688523
#
# Stress axis : x y z
#
# Youngs Moduli (GPa) = 69.13426 78.56599 64.03196
#
# Poissons Ratio (x) = 0.24984 0.25423
# Poissons Ratio (y) = 0.21985 0.37215
# Poissons Ratio (z) = 0.27449 0.45662
#
# Static dielectric constant tensor:
#      x y z
#    x 3.473970 0.000000 0.044240 
#    y 0.000000 3.521930 0.000000 
#    z 0.044240 0.000000 3.412280 
# 
# 
# High freq. dielectric constant tensor:
#      x y z
#    x 1.727840 0.000000 0.004170 
#    y 0.000000 1.739830 0.000000 
#    z 0.004170 0.000000 1.726790 
# 
# From -- ./inp_files/89565.got.cif
#   From: 2010.06.25/outbox.cif.g09.slc.cpg/sg10_45_cif.got.tgz:89565.got - 2010.06.27 22:07:45.
