data_PCOD8064813
_publ_section_title
;
Structure prediction by ZEFSAII (Michael W. Deem and Ramdas Pophale) SiO2 
 PCOD8064813
Probable space group: P 2/M
;
_chemical_formula_sum "Si O2"
_cell_formula_units_Z 32
_cell_length_a 26.014555
_cell_length_b 9.142903
_cell_length_c 14.237767
_cell_angle_alpha 90.000000
_cell_angle_beta 150.143564
_cell_angle_gamma 90.000000
_cell_volume 1685.862378
_symmetry_space_group_name_H-M "P 2/M"
_symmetry_group_IT_number 10
_symmetry_cell_setting 'monoclinic'
loop_
_space_group_symop_operation_xyz
x,y,z
-x,y,-z
-x,-y,-z
x,-y,z
loop_
_atom_site_type_symbol
_atom_site_label
_atom_site_fract_x
_atom_site_fract_y
_atom_site_fract_z
Si Si1 0.520084 0.170521 0.757338
Si Si2 0.793356 0.332182 0.573469
Si Si3 0.986714 0.667817 0.766802
Si Si4 0.558398 0.672681 0.185178
Si Si5 0.854976 0.173381 0.854989
Si Si6 0.068352 0.672679 0.695131
Si Si7 0.717179 0.829480 0.954405
Si Si8 0.342884 0.827181 0.342898
O O1 0.499602 0.255843 0.819807
O O2 0.637747 0.197950 0.913208
O O3 0.445235 0.232458 0.556543
O O4 0.497510 0.000000 0.738975
O O5 0.790775 0.500000 0.603743
O O6 0.863773 0.316309 0.591361
O O7 0.677769 0.276469 0.368264
O O8 0.846237 0.234994 0.736857
O O9 0.022156 0.500000 0.835100
O O10 0.012654 0.723512 0.703102
O O11 0.044368 0.765011 0.934959
O O12 0.549570 0.500000 0.181939
O O13 0.500000 0.728215 0.000000
O O14 0.755874 0.227123 0.755883
O O15 0.863953 0.000000 0.863964
O O16 0.082776 0.500000 0.715130
O O17 0.000000 0.728230 0.500000
O O18 0.179378 0.744151 0.859234
O O19 0.666037 0.767568 0.777306
O O20 0.743970 0.000000 0.985409
O O21 0.349167 0.000000 0.349203
#
# Coordination Sequence:
#
# PCOD8064813 Si02
#       8
#     4   4   4   4   4   4   4   4
#     4  10  20  36  59  85 113 146 181 220 272 331
#     4  10  21  37  56  79 110 147 183 222 273 330
#     4  10  21  37  56  79 110 147 183 222 273 330
#     4  10  22  39  58  80 108 146 189 232 274 318
#     4  11  20  33  57  85 111 142 179 224 275 326
#     4  10  22  39  58  80 108 146 189 232 274 318
#     4  10  20  36  59  85 113 146 181 220 272 331
#     4   9  17  32  55  82 112 143 174 216 271 329
#
# _framework density 18.981383999999998
#
# number of rings (size 3 to 8) (size 9 to 14) (size 15 to 20)
#    0.000    2.000    2.500    1.125    0.000    5.500 
#    0.000    3.125    0.000    1.500    0.000    0.000 
#    0.000    0.000    0.000    0.000    0.000    0.000 
#
# Total GULP energy -396837.911471 kJ/mol
# GULP energy per Si atom -12401.184733 kJ/mol
# Density = 1.893818 g / cm^3
# Si number density = 18.981384 Si / 1000 Ang^3
#
#
#
# Elastic Constant Matrix: (Units=GPa)
#
#
# Indices 1 2 3 4 5 6 
#
# 1 117.8810 32.3290 86.7453 0.0000 5.6822 0.0000
# 2 32.3290 34.1448 35.1350 0.0000 -2.1192 0.0000
# 3 86.7453 35.1350 132.6014 0.0000 -16.8736 0.0000
# 4 0.0000 0.0000 0.0000 17.3277 0.0000 7.0859
# 5 5.6822 -2.1192 -16.8736 0.0000 28.5384 0.0000
# 6 0.0000 0.0000 0.0000 7.0859 0.0000 26.8112
#
#
#
# Elastic Compliance Matrix: (Units=1/GPa)
#
#
# Indices 1 2 3 4 5 6 
#
# 1 0.020818 -0.006640 -0.013463 0.000000 -0.012598 0.000000
# 2 -0.006640 0.042726 -0.006926 0.000000 0.000399 0.000000
# 3 -0.013463 -0.006926 0.019961 0.000000 0.013968 0.000000
# 4 0.000000 0.000000 0.000000 0.064704 0.000000 -0.017101
# 5 -0.012598 0.000399 0.013968 0.000000 0.045837 0.000000
# 6 0.000000 0.000000 0.000000 -0.017101 0.000000 0.041817
#
#
# Mechanical properties :
#
#
# Convention : Reuss Voigt Hill
#
# Bulk Modulus (GPa) = 33.95889 65.89398 49.92643
# Shear Modulus (GPa) = 16.68123 23.22996 19.95560
#
# Velocity S-wave (km/s) = 2.96771 3.50212 3.24593
# Velocity P-wave (km/s) = 5.44725 7.15147 6.35673
#
# Compressibility (1/GPa) = 0.02944737
#
# Stress axis : x y z
#
# Youngs Moduli (GPa) = 48.03513 23.40494 50.09746
#
# Poissons Ratio (x) = 0.15541 0.67444
# Poissons Ratio (y) = 0.31895 0.34700
# Poissons Ratio (z) = 0.64667 0.16211
#
# Static dielectric constant tensor:
#      x y z
#    x 3.612090 0.000000 0.020390 
#    y 0.000000 3.257200 0.000000 
#    z 0.020390 0.000000 3.584420 
# 
# 
# High freq. dielectric constant tensor:
#      x y z
#    x 1.749270 0.000000 0.008070 
#    y 0.000000 1.715920 0.000000 
#    z 0.008070 0.000000 1.738430 
# 
# From -- ./inp_files/72225.got.cif
#   From: 2010.06.25/outbox.cif.g09.slc.cpg/sg10_37_cif.got.tgz:72225.got - 2010.06.27 22:07:45.
