data_PCOD8064978
_publ_section_title
;
Structure prediction by ZEFSAII (Michael W. Deem and Ramdas Pophale) SiO2 
 PCOD8064978
Probable space group: P 2/M
;
_chemical_formula_sum "Si O2"
_cell_formula_units_Z 20
_cell_length_a 10.516694
_cell_length_b 9.099134
_cell_length_c 10.824766
_cell_angle_alpha 90.000000
_cell_angle_beta 61.789634
_cell_angle_gamma 90.000000
_cell_volume 912.811593
_symmetry_space_group_name_H-M "P 2/M"
_symmetry_group_IT_number 10
_symmetry_cell_setting 'monoclinic'
loop_
_space_group_symop_operation_xyz
x,y,z
-x,y,-z
-x,-y,-z
x,-y,z
loop_
_atom_site_type_symbol
_atom_site_label
_atom_site_fract_x
_atom_site_fract_y
_atom_site_fract_z
Si Si1 0.834339 0.666870 0.845651
Si Si2 0.835384 0.667922 0.570357
Si Si3 0.085213 0.835788 0.833741
Si Si4 0.575835 0.172264 0.593651
Si Si5 0.663829 0.326709 0.162926
O O1 0.881120 0.500000 0.854164
O O2 0.768077 0.680798 0.739452
O O3 0.979947 0.763586 0.781510
O O4 0.715838 0.716870 0.000947
O O5 0.830898 0.500000 0.524958
O O6 0.740374 0.767523 0.521172
O O7 0.000000 0.724309 0.500000
O O8 0.227382 0.737827 0.784270
O O9 0.130976 0.000000 0.770181
O O10 0.000000 0.841703 0.000000
O O11 0.500000 0.213597 0.500000
O O12 0.490595 0.252208 0.743823
O O13 0.576638 0.000000 0.617607
O O14 0.650331 0.500000 0.187165
#
# Coordination Sequence:
#
# PCOD8064978 Si02
#       5
#     4   4   4   4   4
#     4   9  19  36  59  91 125 159 204 255 305 359
#     4  10  23  43  66  93 124 162 208 253 304 369
#     4   9  17  30  52  86 125 162 199 242 298 360
#     4  11  26  45  63  89 125 163 206 256 312 372
#     4  10  20  36  61  89 122 162 205 254 306 362
#
# _framework density 21.910326000000001
#
# number of rings (size 3 to 8) (size 9 to 14) (size 15 to 20)
#    0.000    2.200    0.000    1.800    2.800    6.800 
#    0.000    4.000    0.000    0.000    0.000    0.000 
#    0.000    0.000    0.000    0.000    0.000    0.000 
#
# Total GULP energy -248029.263818 kJ/mol
# GULP energy per Si atom -12401.463191 kJ/mol
# Density = 2.186046 g / cm^3
# Si number density = 21.910326 Si / 1000 Ang^3
#
#
#
# Elastic Constant Matrix: (Units=GPa)
#
#
# Indices 1 2 3 4 5 6 
#
# 1 138.2339 65.3863 39.6394 0.0000 -5.8373 0.0000
# 2 65.3863 108.6743 32.9077 0.0000 -1.9167 0.0000
# 3 39.6394 32.9077 65.9740 0.0000 -4.7923 0.0000
# 4 0.0000 0.0000 0.0000 18.1962 0.0000 0.6372
# 5 -5.8373 -1.9167 -4.7923 0.0000 32.9982 0.0000
# 6 0.0000 0.0000 0.0000 0.6372 0.0000 33.7519
#
#
#
# Elastic Compliance Matrix: (Units=1/GPa)
#
#
# Indices 1 2 3 4 5 6 
#
# 1 0.010923 -0.005406 -0.003789 0.000000 0.001068 0.000000
# 2 -0.005406 0.013515 -0.003543 0.000000 -0.000686 0.000000
# 3 -0.003789 -0.003543 0.019342 0.000000 0.001933 0.000000
# 4 0.000000 0.000000 0.000000 0.054993 0.000000 -0.001038
# 5 0.001068 -0.000686 0.001933 0.000000 0.030735 0.000000
# 6 0.000000 0.000000 0.000000 -0.001038 0.000000 0.029648
#
#
# Mechanical properties :
#
#
# Convention : Reuss Voigt Hill
#
# Bulk Modulus (GPa) = 54.63270 65.41657 60.02464
# Shear Modulus (GPa) = 26.21493 28.65251 27.43372
#
# Velocity S-wave (km/s) = 3.46275 3.62016 3.54233
# Velocity P-wave (km/s) = 6.40127 6.88443 6.64724
#
# Compressibility (1/GPa) = 0.01830406
#
# Stress axis : x y z
#
# Youngs Moduli (GPa) = 91.55300 73.99133 51.70197
#
# Poissons Ratio (x) = 0.39998 0.19589
# Poissons Ratio (y) = 0.49491 0.18319
# Poissons Ratio (z) = 0.34687 0.26216
#
# Static dielectric constant tensor:
#      x y z
#    x 3.825190 0.000000 -0.084210 
#    y 0.000000 3.924190 0.000000 
#    z -0.084210 0.000000 3.966870 
# 
# 
# High freq. dielectric constant tensor:
#      x y z
#    x 1.851410 0.000000 -0.006810 
#    y 0.000000 1.855330 0.000000 
#    z -0.006810 0.000000 1.865190 
# 
# From -- ./inp_files/44619.got.cif
#   From: 2010.06.25/outbox.cif.g09.slc.cpg/sg10_23_cif.got.tgz:44619.got - 2010.06.27 22:07:45.
