data_PCOD8064279
_publ_section_title
;
Structure prediction by ZEFSAII (Michael W. Deem and Ramdas Pophale) SiO2 
 PCOD8064279
Probable space group: P 2/M
;
_chemical_formula_sum "Si O2"
_cell_formula_units_Z 28
_cell_length_a 11.610179
_cell_length_b 8.774718
_cell_length_c 15.217311
_cell_angle_alpha 90.000000
_cell_angle_beta 116.422458
_cell_angle_gamma 90.000000
_cell_volume 1388.333274
_symmetry_space_group_name_H-M "P 2/M"
_symmetry_group_IT_number 10
_symmetry_cell_setting 'monoclinic'
loop_
_space_group_symop_operation_xyz
x,y,z
-x,y,-z
-x,-y,-z
x,-y,z
loop_
_atom_site_type_symbol
_atom_site_label
_atom_site_fract_x
_atom_site_fract_y
_atom_site_fract_z
Si Si1 0.611401 0.823935 0.301285
Si Si2 0.861039 0.179863 0.483574
Si Si3 0.808388 0.319350 0.958314
Si Si4 0.839750 0.326192 0.662552
Si Si5 0.969992 0.819632 0.861415
Si Si6 0.448356 0.326854 0.392448
Si Si7 0.542069 0.822194 0.917652
O O1 0.756356 0.770474 0.374212
O O2 0.504306 0.749291 0.325441
O O3 0.578071 0.788583 0.188342
O O4 0.600290 0.000000 0.317982
O O5 0.822690 0.263124 0.559467
O O6 0.000000 0.238375 0.500000
O O7 0.862356 0.000000 0.500718
O O8 0.823369 0.500000 0.954582
O O9 0.855967 0.242275 0.884444
O O10 0.661689 0.277128 0.926497
O O11 0.895007 0.257444 0.067579
O O12 0.887939 0.500000 0.675459
O O13 0.941574 0.224935 0.751074
O O14 0.704329 0.313843 0.665991
O O15 0.981885 0.000000 0.875441
O O16 0.500000 0.248407 0.500000
O O17 0.496993 0.500000 0.408626
O O18 0.580662 0.000000 0.929908
O O19 0.500000 0.768998 0.000000
#
# Coordination Sequence:
#
# PCOD8064279 Si02
#       7
#     4   4   4   4   4   4   4
#     4  10  21  37  59  86 115 152 199 249 295 345
#     4  10  22  39  57  81 116 157 201 245 291 349
#     4  11  22  39  61  89 122 154 197 250 304 357
#     4  11  22  37  58  87 120 153 195 243 297 357
#     4  11  22  38  62  89 120 157 196 241 302 365
#     4  10  20  35  56  84 117 153 188 234 296 357
#     4  10  22  40  61  86 119 162 210 253 299 357
#
# _framework density 20.168066
#
# number of rings (size 3 to 8) (size 9 to 14) (size 15 to 20)
#    0.000    1.571    1.429    4.714    0.000    6.000 
#    0.000    2.857    0.000    0.000    0.000    0.000 
#    0.000    0.000    0.000    0.000    0.000    0.000 
#
# Total GULP energy -347272.532721 kJ/mol
# GULP energy per Si atom -12402.590454 kJ/mol
# Density = 2.012216 g / cm^3
# Si number density = 20.168066 Si / 1000 Ang^3
#
#
#
# Elastic Constant Matrix: (Units=GPa)
#
#
# Indices 1 2 3 4 5 6 
#
# 1 96.5851 26.1940 39.8711 0.0000 7.0725 0.0000
# 2 26.1940 63.3172 31.0085 0.0000 2.7457 0.0000
# 3 39.8711 31.0085 135.6725 0.0000 1.4331 0.0000
# 4 0.0000 0.0000 0.0000 85.0979 0.0000 -39.1700
# 5 7.0725 2.7457 1.4331 0.0000 27.7655 0.0000
# 6 0.0000 0.0000 0.0000 -39.1700 0.0000 56.1755
#
#
#
# Elastic Compliance Matrix: (Units=1/GPa)
#
#
# Indices 1 2 3 4 5 6 
#
# 1 0.012753 -0.003757 -0.002860 0.000000 -0.002729 0.000000
# 2 -0.003757 0.018958 -0.003221 0.000000 -0.000752 0.000000
# 3 -0.002860 -0.003221 0.008941 0.000000 0.000586 0.000000
# 4 0.000000 0.000000 0.000000 0.017305 0.000000 0.012067
# 5 -0.002729 -0.000752 0.000586 0.000000 0.036755 0.000000
# 6 0.000000 0.000000 0.000000 0.012067 0.000000 0.026215
#
#
# Mechanical properties :
#
#
# Convention : Reuss Voigt Hill
#
# Bulk Modulus (GPa) = 47.67365 54.41354 51.04359
# Shear Modulus (GPa) = 33.87635 47.04119 40.45877
#
# Velocity S-wave (km/s) = 4.10286 4.83479 4.48379
# Velocity P-wave (km/s) = 6.79221 7.62926 7.22287
#
# Compressibility (1/GPa) = 0.02097595
#
# Stress axis : x y z
#
# Youngs Moduli (GPa) = 78.41269 52.74941 111.84106
#
# Poissons Ratio (x) = 0.19816 0.31991
# Poissons Ratio (y) = 0.29457 0.36023
# Poissons Ratio (z) = 0.22429 0.16990
#
# Static dielectric constant tensor:
#      x y z
#    x 3.520890 0.000000 0.157430 
#    y 0.000000 3.610330 0.000000 
#    z 0.157430 0.000000 3.895090 
# 
# 
# High freq. dielectric constant tensor:
#      x y z
#    x 1.773680 0.000000 0.009500 
#    y 0.000000 1.783640 0.000000 
#    z 0.009500 0.000000 1.804800 
# 
# From -- ./inp_files/63937.got.cif
#   From: 2010.06.25/outbox.cif.g09.slc.cpg/sg10_32_cif.got.tgz:63937.got - 2010.06.27 22:07:45.
