data_PCOD8064087
_publ_section_title
;
Structure prediction by ZEFSAII (Michael W. Deem and Ramdas Pophale) SiO2 
 PCOD8064087
Probable space group: P 2/M
;
_chemical_formula_sum "Si O2"
_cell_formula_units_Z 28
_cell_length_a 14.923196
_cell_length_b 8.687679
_cell_length_c 12.402486
_cell_angle_alpha 90.000000
_cell_angle_beta 74.110045
_cell_angle_gamma 90.000000
_cell_volume 1546.515606
_symmetry_space_group_name_H-M "P 2/M"
_symmetry_group_IT_number 10
_symmetry_cell_setting 'monoclinic'
loop_
_space_group_symop_operation_xyz
x,y,z
-x,y,-z
-x,-y,-z
x,-y,z
loop_
_atom_site_type_symbol
_atom_site_label
_atom_site_fract_x
_atom_site_fract_y
_atom_site_fract_z
Si Si1 0.903597 0.677919 0.735020
Si Si2 0.791468 0.822238 0.201281
Si Si3 0.596853 0.178298 0.359665
Si Si4 0.116266 0.322403 0.626241
Si Si5 0.098419 0.319155 0.016342
Si Si6 0.406536 0.680570 0.408377
Si Si7 0.775627 0.178744 0.604152
O O1 0.876138 0.500000 0.730406
O O2 0.832050 0.781365 0.692738
O O3 0.006376 0.706852 0.655011
O O4 0.897739 0.729738 0.860694
O O5 0.681072 0.792906 0.249346
O O6 0.849117 0.720312 0.266470
O O7 0.819394 0.770323 0.072248
O O8 0.816166 0.000000 0.212815
O O9 0.617852 0.271983 0.461528
O O10 0.501322 0.237217 0.337042
O O11 0.587414 0.000000 0.393994
O O12 0.140371 0.500000 0.595297
O O13 0.165656 0.219031 0.521136
O O14 0.112869 0.500000 0.996068
O O15 0.000000 0.266084 0.000000
O O16 0.421968 0.500000 0.396670
O O17 0.321746 0.730048 0.359841
O O18 0.752437 0.000000 0.608846
#
# Coordination Sequence:
#
# PCOD8064087 Si02
#       7
#     4   4   4   4   4   4   4
#     4  10  22  39  57  79 109 150 194 231 273 327
#     4  11  22  34  55  85 117 148 181 226 281 331
#     4  10  20  35  54  81 116 146 177 227 283 330
#     4  11  21  36  57  80 112 150 189 228 272 330
#     4  10  20  38  59  80 108 148 192 234 275 319
#     4  11  21  34  56  82 109 145 187 226 272 335
#     4  12  24  37  54  81 116 150 184 228 284 336
#
# _framework density 18.105217
#
# number of rings (size 3 to 8) (size 9 to 14) (size 15 to 20)
#    0.000    1.286    2.857    5.143    0.000    5.429 
#    0.000    0.000    0.000    0.857    0.000    6.000 
#    0.000    0.000    0.000    0.000    0.000    0.000 
#
# Total GULP energy -347347.026940 kJ/mol
# GULP energy per Si atom -12405.250962 kJ/mol
# Density = 1.806401 g / cm^3
# Si number density = 18.105217 Si / 1000 Ang^3
#
#
#
# Elastic Constant Matrix: (Units=GPa)
#
#
# Indices 1 2 3 4 5 6 
#
# 1 103.6489 34.7585 34.1732 0.0000 -3.3768 0.0000
# 2 34.7585 72.2859 18.9460 0.0000 -4.5514 0.0000
# 3 34.1732 18.9460 71.8766 0.0000 -3.8532 0.0000
# 4 0.0000 0.0000 0.0000 26.4231 0.0000 -4.6044
# 5 -3.3768 -4.5514 -3.8532 0.0000 27.7445 0.0000
# 6 0.0000 0.0000 0.0000 -4.6044 0.0000 28.6425
#
#
#
# Elastic Compliance Matrix: (Units=1/GPa)
#
#
# Indices 1 2 3 4 5 6 
#
# 1 0.012896 -0.004930 -0.004827 0.000000 0.000090 0.000000
# 2 -0.004930 0.016846 -0.001995 0.000000 0.001886 0.000000
# 3 -0.004827 -0.001995 0.016810 0.000000 0.001420 0.000000
# 4 0.000000 0.000000 0.000000 0.038936 0.000000 0.006259
# 5 0.000090 0.001886 0.001420 0.000000 0.036561 0.000000
# 6 0.000000 0.000000 0.000000 0.006259 0.000000 0.035919
#
#
# Mechanical properties :
#
#
# Convention : Reuss Voigt Hill
#
# Bulk Modulus (GPa) = 43.38941 47.06299 45.22620
# Shear Modulus (GPa) = 26.43335 27.22426 26.82881
#
# Velocity S-wave (km/s) = 3.82512 3.88192 3.85363
# Velocity P-wave (km/s) = 6.59742 6.79287 6.69585
#
# Compressibility (1/GPa) = 0.02304710
#
# Stress axis : x y z
#
# Youngs Moduli (GPa) = 77.54603 59.36005 59.48955
#
# Poissons Ratio (x) = 0.29265 0.28714
# Poissons Ratio (y) = 0.38230 0.11871
# Poissons Ratio (z) = 0.37429 0.11845
#
# Static dielectric constant tensor:
#      x y z
#    x 3.480690 0.000000 -0.117250 
#    y 0.000000 3.380290 0.000000 
#    z -0.117250 0.000000 3.221650 
# 
# 
# High freq. dielectric constant tensor:
#      x y z
#    x 1.703880 0.000000 -0.010990 
#    y 0.000000 1.711780 0.000000 
#    z -0.010990 0.000000 1.680120 
# 
# From -- ./inp_files/49058.got.cif
#   From: 2010.06.25/outbox.cif.g09.slc.cpg/sg10_25_cif.got.tgz:49058.got - 2010.06.27 22:07:45.
