data_PCOD8064055
_publ_section_title
;
Structure prediction by ZEFSAII (Michael W. Deem and Ramdas Pophale) SiO2 
 PCOD8064055
Probable space group: P 2/M
;
_chemical_formula_sum "Si O2"
_cell_formula_units_Z 28
_cell_length_a 10.873846
_cell_length_b 12.714187
_cell_length_c 21.575537
_cell_angle_alpha 90.000000
_cell_angle_beta 148.966757
_cell_angle_gamma 90.000000
_cell_volume 1537.771502
_symmetry_space_group_name_H-M "P 2/M"
_symmetry_group_IT_number 10
_symmetry_cell_setting 'monoclinic'
loop_
_space_group_symop_operation_xyz
x,y,z
-x,y,-z
-x,-y,-z
x,-y,z
loop_
_atom_site_type_symbol
_atom_site_label
_atom_site_fract_x
_atom_site_fract_y
_atom_site_fract_z
Si Si1 0.769152 0.803787 0.184902
Si Si2 0.549814 0.621041 0.420336
Si Si3 0.124035 0.876487 0.114310
Si Si4 0.058140 0.119606 0.612346
Si Si5 0.270227 0.119479 0.963858
Si Si6 0.642641 0.204647 0.365146
Si Si7 0.882143 0.378507 0.679786
O O1 0.914834 0.853966 0.304104
O O2 0.791353 0.879711 0.135295
O O3 0.875131 0.689479 0.213524
O O4 0.485095 0.801362 0.076607
O O5 0.534930 0.500000 0.394950
O O6 0.612619 0.681415 0.383923
O O7 0.298236 0.656064 0.342897
O O8 0.757869 0.639983 0.559991
O O9 0.385309 0.835138 0.237064
O O10 0.965086 0.841128 0.103490
O O11 0.141334 0.000000 0.114466
O O12 0.000000 0.827071 0.000000
O O13 0.206971 0.202730 0.634297
O O14 0.778953 0.130049 0.473647
O O15 0.143291 0.000000 0.636124
O O16 0.338454 0.000000 0.012951
O O17 0.954294 0.500000 0.719061
#
# Coordination Sequence:
#
# PCOD8064055 Si02
#       7
#     4   4   4   4   4   4   4
#     4  11  19  35  54  77 109 145 181 219 271 324
#     4   9  18  35  57  81 108 138 175 223 278 331
#     4  10  20  35  54  76 105 144 187 224 260 317
#     4  11  22  34  52  80 114 147 175 222 277 321
#     4  10  21  34  52  77 107 148 190 224 263 322
#     4  11  20  35  54  80 107 141 183 222 270 327
#     4   9  18  34  57  81 106 138 178 225 278 329
#
# _framework density 18.208168000000001
#
# number of rings (size 3 to 8) (size 9 to 14) (size 15 to 20)
#    0.000    1.857    1.429    6.000    0.000    1.143 
#    0.000    3.571    0.000    4.714    0.000    0.000 
#    0.000    0.000    0.000    0.000    0.000    0.000 
#
# Total GULP energy -347052.343726 kJ/mol
# GULP energy per Si atom -12394.726562 kJ/mol
# Density = 1.816673 g / cm^3
# Si number density = 18.208168 Si / 1000 Ang^3
#
#
#
# Elastic Constant Matrix: (Units=GPa)
#
#
# Indices 1 2 3 4 5 6 
#
# 1 60.3541 45.7874 40.9385 0.0000 0.2843 0.0000
# 2 45.7874 75.1799 40.8138 0.0000 9.7315 0.0000
# 3 40.9385 40.8138 123.2057 0.0000 7.0693 0.0000
# 4 0.0000 0.0000 0.0000 29.4150 0.0000 3.9555
# 5 0.2843 9.7315 7.0693 0.0000 31.2572 0.0000
# 6 0.0000 0.0000 0.0000 3.9555 0.0000 31.9397
#
#
#
# Elastic Compliance Matrix: (Units=1/GPa)
#
#
# Indices 1 2 3 4 5 6 
#
# 1 0.034799 -0.019012 -0.005660 0.000000 0.006883 0.000000
# 2 -0.019012 0.027085 -0.002210 0.000000 -0.007760 0.000000
# 3 -0.005660 -0.002210 0.010827 0.000000 -0.001709 0.000000
# 4 0.000000 0.000000 0.000000 0.034572 0.000000 -0.004282
# 5 0.006883 -0.007760 -0.001709 0.000000 0.034733 0.000000
# 6 0.000000 0.000000 0.000000 -0.004282 0.000000 0.031839
#
#
# Mechanical properties :
#
#
# Convention : Reuss Voigt Hill
#
# Bulk Modulus (GPa) = 52.77721 57.09100 54.93410
# Shear Modulus (GPa) = 21.37355 27.26904 24.32130
#
# Velocity S-wave (km/s) = 3.42986 3.87412 3.65874
# Velocity P-wave (km/s) = 6.68832 7.17178 6.93426
#
# Compressibility (1/GPa) = 0.01894757
#
# Stress axis : x y z
#
# Youngs Moduli (GPa) = 28.73635 36.92129 92.36028
#
# Poissons Ratio (x) = 0.70196 0.52274
# Poissons Ratio (y) = 0.54634 0.20408
# Poissons Ratio (z) = 0.16264 0.08158
#
# Static dielectric constant tensor:
#      x y z
#    x 3.488360 0.000000 -0.002280 
#    y 0.000000 3.178410 0.000000 
#    z -0.002280 0.000000 3.493500 
# 
# 
# High freq. dielectric constant tensor:
#      x y z
#    x 1.710010 0.000000 -0.000530 
#    y 0.000000 1.677300 0.000000 
#    z -0.000530 0.000000 1.710290 
# 
# From -- ./inp_files/88867.got.cif
#   From: 2010.06.25/outbox.cif.g09.slc.cpg/sg10_45_cif.got.tgz:88867.got - 2010.06.27 22:07:45.
