data_PCOD8064784
_publ_section_title
;
Structure prediction by ZEFSAII (Michael W. Deem and Ramdas Pophale) SiO2 
 PCOD8064784
Probable space group: P 2/M
;
_chemical_formula_sum "Si O2"
_cell_formula_units_Z 20
_cell_length_a 15.124105
_cell_length_b 7.751639
_cell_length_c 28.734811
_cell_angle_alpha 90.000000
_cell_angle_beta 18.297933
_cell_angle_gamma 90.000000
_cell_volume 1057.653484
_symmetry_space_group_name_H-M "P 2/M"
_symmetry_group_IT_number 10
_symmetry_cell_setting 'monoclinic'
loop_
_space_group_symop_operation_xyz
x,y,z
-x,y,-z
-x,-y,-z
x,-y,z
loop_
_atom_site_type_symbol
_atom_site_label
_atom_site_fract_x
_atom_site_fract_y
_atom_site_fract_z
Si Si1 0.855405 0.694940 0.716814
Si Si2 0.747959 0.808083 0.985463
Si Si3 0.825858 0.806039 0.046051
Si Si4 0.161593 0.000000 0.721153
Si Si5 0.218470 0.299073 0.352648
Si Si6 0.187074 0.000000 0.598753
O O1 0.956277 0.500000 0.677409
O O2 0.525243 0.707391 0.897213
O O3 0.893233 0.738657 0.643455
O O4 0.047982 0.826742 0.648852
O O5 0.862362 0.719035 0.976261
O O6 0.636070 0.000000 0.055152
O O7 0.999706 0.827906 0.821696
O O8 0.499697 0.805734 0.222641
O O9 0.945275 0.000000 0.983249
O O10 0.000000 0.707923 0.000000
O O11 0.139593 0.000000 0.677297
O O12 0.481929 0.000000 0.578961
O O13 0.284620 0.500000 0.325842
O O14 0.000000 0.231860 0.500000
#
# Coordination Sequence:
#
# PCOD8064784 Si02
#       6
#     4   4   4   2   4   2
#     4  10  20  36  59  83 108 142 185 226 265 319
#     4   8  16  35  55  74 107 145 177 220 267 312
#     4   9  17  29  48  75 104 133 176 213 248 305
#     4   9  21  37  58  77 110 147 172 221 284 331
#     4   9  19  34  49  73 108 139 172 214 261 310
#     4  11  21  39  58  81 110 141 176 225 282 327
#
# _framework density 18.909784999999999
#
# number of rings (size 3 to 8) (size 9 to 14) (size 15 to 20)
#    0.600    2.200    1.000    0.000    1.400    4.000 
#    0.000    5.000    0.000    0.000    0.000    0.000 
#    0.000    0.000    0.000    0.000    0.000    0.000 
#
# Total GULP energy -247788.284913 kJ/mol
# GULP energy per Si atom -12389.414246 kJ/mol
# Density = 1.886675 g / cm^3
# Si number density = 18.909785 Si / 1000 Ang^3
#
#
#
# Elastic Constant Matrix: (Units=GPa)
#
#
# Indices 1 2 3 4 5 6 
#
# 1 115.7083 39.4207 76.5525 0.0000 -11.2427 0.0000
# 2 39.4207 64.5858 30.4617 0.0000 -12.2162 0.0000
# 3 76.5525 30.4617 130.3479 0.0000 9.7799 0.0000
# 4 0.0000 0.0000 0.0000 578.0124 0.0000 690.1893
# 5 -11.2427 -12.2162 9.7799 0.0000 32.9489 0.0000
# 6 0.0000 0.0000 0.0000 690.1893 0.0000 836.1111
#
#
#
# Elastic Compliance Matrix: (Units=1/GPa)
#
#
# Indices 1 2 3 4 5 6 
#
# 1 0.017239 -0.004699 -0.009549 0.000000 0.006975 0.000000
# 2 -0.004699 0.020912 -0.002648 0.000000 0.006936 0.000000
# 3 -0.009549 -0.002648 0.014541 0.000000 -0.008556 0.000000
# 4 0.000000 0.000000 0.000000 0.120803 0.000000 -0.099720
# 5 0.006975 0.006936 -0.008556 0.000000 0.037841 0.000000
# 6 0.000000 0.000000 0.000000 -0.099720 0.000000 0.083512
#
#
# Mechanical properties :
#
#
# Convention : Reuss Voigt Hill
#
# Bulk Modulus (GPa) = 52.91142 67.05687 59.98415
# Shear Modulus (GPa) = 14.92803 300.36162 157.64482
#
# Velocity S-wave (km/s) = 2.81274 12.61682 9.14045
# Velocity P-wave (km/s) = 6.21211 15.74115 11.96608
#
# Compressibility (1/GPa) = 0.01889951
#
# Stress axis : x y z
#
# Youngs Moduli (GPa) = 58.00857 47.81936 68.77152
#
# Poissons Ratio (x) = 0.22469 0.65673
# Poissons Ratio (y) = 0.27257 0.18210
# Poissons Ratio (z) = 0.55395 0.12662
#
# Static dielectric constant tensor:
#      x y z
#    x 3.499280 0.000000 -0.000470 
#    y 0.000000 3.203450 0.000000 
#    z -0.000470 0.000000 3.364970 
# 
# 
# High freq. dielectric constant tensor:
#      x y z
#    x 1.734960 0.000000 -0.000640 
#    y 0.000000 1.711430 0.000000 
#    z -0.000640 0.000000 1.721530 
# 
# From -- ./inp_files/72074.got.cif
#   From: 2010.06.25/outbox.cif.g09.slc.cpg/sg10_37_cif.got.tgz:72074.got - 2010.06.27 22:07:45.
