data_PCOD8064314
_publ_section_title
;
Structure prediction by ZEFSAII (Michael W. Deem and Ramdas Pophale) SiO2 
 PCOD8064314
Probable space group: P 2/M
;
_chemical_formula_sum "Si O2"
_cell_formula_units_Z 28
_cell_length_a 26.113722
_cell_length_b 8.812953
_cell_length_c 22.753210
_cell_angle_alpha 90.000000
_cell_angle_beta 15.727390
_cell_angle_gamma 90.000000
_cell_volume 1419.382159
_symmetry_space_group_name_H-M "P 2/M"
_symmetry_group_IT_number 10
_symmetry_cell_setting 'monoclinic'
loop_
_space_group_symop_operation_xyz
x,y,z
-x,y,-z
-x,-y,-z
x,-y,z
loop_
_atom_site_type_symbol
_atom_site_label
_atom_site_fract_x
_atom_site_fract_y
_atom_site_fract_z
Si Si1 0.285786 0.667053 0.716692
Si Si2 0.207528 0.679597 0.928895
Si Si3 0.832471 0.822257 0.378930
Si Si4 0.396074 0.177856 0.482549
Si Si5 0.135789 0.821468 0.425331
Si Si6 0.752629 0.320717 0.815726
Si Si7 0.381690 0.176664 0.266437
O O1 0.500000 0.654235 0.500000
O O2 0.210795 0.500000 0.781418
O O3 0.175203 0.730851 0.896212
O O4 0.267088 0.776414 0.681254
O O5 0.223576 0.500000 0.914489
O O6 0.399870 0.745125 0.743029
O O7 0.032767 0.737953 0.160002
O O8 0.711085 0.767599 0.457364
O O9 0.720359 0.776383 0.560978
O O10 0.873807 0.000000 0.330610
O O11 0.428130 0.000000 0.448085
O O12 0.259399 0.759744 0.234489
O O13 0.243300 0.782403 0.366122
O O14 0.935243 0.737213 0.649256
O O15 0.102676 0.000000 0.453896
O O16 0.765380 0.500000 0.792875
O O17 0.569551 0.276636 0.055242
O O18 0.437590 0.000000 0.203969
#
# Coordination Sequence:
#
# PCOD8064314 Si02
#       7
#     4   4   4   4   4   4   4
#     4   8  16  32  53  78 107 140 178 221 274 330
#     4  10  21  37  57  80 109 144 181 226 277 329
#     4  10  23  40  56  79 110 146 188 227 268 321
#     4  10  20  35  57  82 109 141 179 228 278 325
#     4  10  20  37  62  86 110 145 187 225 264 319
#     4  11  22  36  58  88 119 144 173 224 280 324
#     4  10  22  40  59  79 109 150 190 225 264 318
#
# _framework density 19.726893
#
# number of rings (size 3 to 8) (size 9 to 14) (size 15 to 20)
#    0.000    2.143    0.000    4.714    0.000    9.429 
#    0.000    8.571    0.000    0.000    0.000    0.000 
#    0.000    0.000    0.000    0.000    0.000    0.000 
#
# Total GULP energy -347237.926590 kJ/mol
# GULP energy per Si atom -12401.354521 kJ/mol
# Density = 1.968199 g / cm^3
# Si number density = 19.726893 Si / 1000 Ang^3
#
#
#
# Elastic Constant Matrix: (Units=GPa)
#
#
# Indices 1 2 3 4 5 6 
#
# 1 52.0952 8.4552 28.3177 0.0000 7.6449 0.0000
# 2 8.4552 58.1553 27.3226 0.0000 0.8977 0.0000
# 3 28.3177 27.3226 88.9345 0.0000 11.1577 0.0000
# 4 0.0000 0.0000 0.0000 4.8674 0.0000 19.0621
# 5 7.6449 0.8977 11.1577 0.0000 23.8001 0.0000
# 6 0.0000 0.0000 0.0000 19.0621 0.0000 -2.7117
#
#
#
# Elastic Compliance Matrix: (Units=1/GPa)
#
#
# Indices 1 2 3 4 5 6 
#
# 1 0.023624 -0.000104 -0.006947 0.000000 -0.004327 0.000000
# 2 -0.000104 0.020213 -0.006465 0.000000 0.002302 0.000000
# 3 -0.006947 -0.006465 0.016078 0.000000 -0.005062 0.000000
# 4 0.000000 0.000000 0.000000 0.007201 0.000000 0.050621
# 5 -0.004327 0.002302 -0.005062 0.000000 0.045693 0.000000
# 6 0.000000 0.000000 0.000000 0.050621 0.000000 -0.012926
#
#
# Mechanical properties :
#
#
# Convention : Reuss Voigt Hill
#
# Bulk Modulus (GPa) = 30.41280 36.37510 33.39395
# Shear Modulus (GPa) = 36.26455 14.19714 25.23084
#
# Velocity S-wave (km/s) = 4.29223 2.68560 3.58020
# Velocity P-wave (km/s) = 6.32572 5.30057 5.83570
#
# Compressibility (1/GPa) = 0.03288090
#
# Stress axis : x y z
#
# Youngs Moduli (GPa) = 42.32996 49.47431 62.19800
#
# Poissons Ratio (x) = 0.00514 0.43211
# Poissons Ratio (y) = 0.00440 0.40214
# Poissons Ratio (z) = 0.29408 0.31987
#
# Static dielectric constant tensor:
#      x y z
#    x 3.681030 0.000000 0.155490 
#    y 0.000000 3.540310 0.000000 
#    z 0.155490 0.000000 3.625580 
# 
# 
# High freq. dielectric constant tensor:
#      x y z
#    x 1.766550 0.000000 0.000590 
#    y 0.000000 1.768200 0.000000 
#    z 0.000590 0.000000 1.772370 
# 
# From -- ./inp_files/86454.got.cif
#   From: 2010.06.25/outbox.cif.g09.slc.cpg/sg10_44_cif.got.tgz:86454.got - 2010.06.27 22:07:45.
