data_PCOD8064378
_publ_section_title
;
Structure prediction by ZEFSAII (Michael W. Deem and Ramdas Pophale) SiO2 
 PCOD8064378
Probable space group: P 2/M
;
_chemical_formula_sum "Si O2"
_cell_formula_units_Z 28
_cell_length_a 14.646645
_cell_length_b 8.893643
_cell_length_c 12.597804
_cell_angle_alpha 90.000000
_cell_angle_beta 120.480872
_cell_angle_gamma 90.000000
_cell_volume 1414.224821
_symmetry_space_group_name_H-M "P 2/M"
_symmetry_group_IT_number 10
_symmetry_cell_setting 'monoclinic'
loop_
_space_group_symop_operation_xyz
x,y,z
-x,y,-z
-x,-y,-z
x,-y,z
loop_
_atom_site_type_symbol
_atom_site_label
_atom_site_fract_x
_atom_site_fract_y
_atom_site_fract_z
Si Si1 0.026518 0.676361 0.710049
Si Si2 0.616064 0.322312 0.596186
Si Si3 0.790958 0.178676 0.304799
Si Si4 0.786026 0.677850 0.524416
Si Si5 0.317088 0.829420 0.152160
Si Si6 0.077553 0.170839 0.955526
Si Si7 0.614661 0.820991 0.035561
O O1 0.040827 0.500000 0.702551
O O2 0.093578 0.757991 0.657798
O O3 0.070855 0.723033 0.850260
O O4 0.904133 0.724670 0.629204
O O5 0.500000 0.257632 0.500000
O O6 0.615927 0.500000 0.592361
O O7 0.703883 0.262144 0.564838
O O8 0.642485 0.273085 0.729883
O O9 0.755703 0.239757 0.397940
O O10 0.704233 0.238244 0.169119
O O11 0.796474 0.000000 0.310338
O O12 0.776624 0.500000 0.502140
O O13 0.356365 0.000000 0.193255
O O14 0.191554 0.822092 0.074953
O O15 0.362238 0.762311 0.069028
O O16 0.049115 0.000000 0.904467
O O17 0.000000 0.232902 0.000000
O O18 0.617106 0.000000 0.038382
O O19 0.500000 0.757400 0.000000
#
# Coordination Sequence:
#
# PCOD8064378 Si02
#       7
#     4   4   4   4   4   4   4
#     4  11  22  37  58  84 118 157 193 234 288 351
#     4  10  23  42  61  83 117 156 194 241 289 338
#     4  11  22  38  62  89 117 151 194 241 291 344
#     4  10  23  41  58  82 119 157 194 237 288 344
#     4  10  20  37  60  86 116 147 188 239 287 341
#     4  10  20  35  57  85 118 151 188 240 289 334
#     4   9  19  36  58  85 117 149 183 235 295 342
#
# _framework density 19.798832999999998
#
# number of rings (size 3 to 8) (size 9 to 14) (size 15 to 20)
#    0.000    1.857    1.429    2.143    2.000    4.571 
#    0.000    0.000    0.000    2.143    0.000    0.000 
#    0.000    0.000    0.000    0.000    0.000    0.000 
#
# Total GULP energy -347299.386017 kJ/mol
# GULP energy per Si atom -12403.549501 kJ/mol
# Density = 1.975377 g / cm^3
# Si number density = 19.798833 Si / 1000 Ang^3
#
#
#
# Elastic Constant Matrix: (Units=GPa)
#
#
# Indices 1 2 3 4 5 6 
#
# 1 137.6551 27.0891 65.0434 0.0000 5.4354 0.0000
# 2 27.0891 30.1449 27.1571 0.0000 0.9032 0.0000
# 3 65.0434 27.1571 130.4765 0.0000 -11.2461 0.0000
# 4 0.0000 0.0000 0.0000 28.3586 0.0000 -13.4649
# 5 5.4354 0.9032 -11.2461 0.0000 29.9177 0.0000
# 6 0.0000 0.0000 0.0000 -13.4649 0.0000 18.8101
#
#
#
# Elastic Compliance Matrix: (Units=1/GPa)
#
#
# Indices 1 2 3 4 5 6 
#
# 1 0.010556 -0.005387 -0.004436 0.000000 -0.003423 0.000000
# 2 -0.005387 0.044193 -0.006763 0.000000 -0.002897 0.000000
# 3 -0.004436 -0.006763 0.011751 0.000000 0.005427 0.000000
# 4 0.000000 0.000000 0.000000 0.053419 0.000000 0.038239
# 5 -0.003423 -0.002897 0.005427 0.000000 0.036174 0.000000
# 6 0.000000 0.000000 0.000000 0.038239 0.000000 0.080536
#
#
# Mechanical properties :
#
#
# Convention : Reuss Voigt Hill
#
# Bulk Modulus (GPa) = 30.00403 59.65062 44.82732
# Shear Modulus (GPa) = 17.79936 27.34975 22.57456
#
# Velocity S-wave (km/s) = 3.00160 3.72073 3.38034
# Velocity P-wave (km/s) = 5.21538 6.97511 6.15842
#
# Compressibility (1/GPa) = 0.03332886
#
# Stress axis : x y z
#
# Youngs Moduli (GPa) = 94.73478 22.62803 85.10010
#
# Poissons Ratio (x) = 0.12190 0.37750
# Poissons Ratio (y) = 0.51033 0.57549
# Poissons Ratio (z) = 0.42023 0.15302
#
# Static dielectric constant tensor:
#      x y z
#    x 4.016220 0.000000 -0.003670 
#    y 0.000000 3.349410 0.000000 
#    z -0.003670 0.000000 3.598950 
# 
# 
# High freq. dielectric constant tensor:
#      x y z
#    x 1.789430 0.000000 -0.003270 
#    y 0.000000 1.747540 0.000000 
#    z -0.003270 0.000000 1.779500 
# 
# From -- ./inp_files/49352.got.cif
#   From: 2010.06.25/outbox.cif.g09.slc.cpg/sg10_25_cif.got.tgz:49352.got - 2010.06.27 22:07:45.
