data_PCOD8064256
_publ_section_title
;
Structure prediction by ZEFSAII (Michael W. Deem and Ramdas Pophale) SiO2 
 PCOD8064256
Probable space group: P 2/M
;
_chemical_formula_sum "Si O2"
_cell_formula_units_Z 32
_cell_length_a 21.265689
_cell_length_b 13.349432
_cell_length_c 17.278708
_cell_angle_alpha 90.000000
_cell_angle_beta 160.109792
_cell_angle_gamma 90.000000
_cell_volume 1668.829162
_symmetry_space_group_name_H-M "P 2/M"
_symmetry_group_IT_number 10
_symmetry_cell_setting 'monoclinic'
loop_
_space_group_symop_operation_xyz
x,y,z
-x,y,-z
-x,-y,-z
x,-y,z
loop_
_atom_site_type_symbol
_atom_site_label
_atom_site_fract_x
_atom_site_fract_y
_atom_site_fract_z
Si Si1 0.605457 0.616427 0.701943
Si Si2 0.689195 0.290678 0.049485
Si Si3 0.043212 0.284442 0.363477
Si Si4 0.713524 0.612584 0.232172
Si Si5 0.021932 0.612560 0.188875
Si Si6 0.436090 0.891274 0.008234
Si Si7 0.618228 0.280019 0.424941
Si Si8 0.765291 0.889434 0.504283
O O1 0.500000 0.625365 0.500000
O O2 0.601174 0.500000 0.727448
O O3 0.511916 0.694371 0.653386
O O4 0.816028 0.653774 0.932067
O O5 0.746643 0.375390 0.177994
O O6 0.700192 0.186785 0.109450
O O7 0.832576 0.280642 0.146256
O O8 0.488376 0.313617 0.778210
O O9 0.175741 0.305108 0.589771
O O10 0.062019 0.377460 0.326694
O O11 0.083262 0.183274 0.360651
O O12 0.774183 0.500000 0.324851
O O13 0.500000 0.632242 0.000000
O O14 0.032372 0.500000 0.172941
O O15 0.186672 0.666053 0.333381
O O16 0.336830 0.000000 0.882704
O O17 0.500000 0.847136 0.000000
O O18 0.613679 0.907597 0.265117
O O19 0.672731 0.162845 0.473764
O O20 0.847322 0.000000 0.621906
#
# Coordination Sequence:
#
# PCOD8064256 Si02
#       8
#     4   4   4   4   4   4   4   4
#     4  10  21  37  59  89 120 147 182 226 271 330
#     4  11  21  33  51  76 106 145 187 233 277 323
#     4  11  21  34  52  77 110 142 187 234 278 323
#     4  11  23  36  49  70 103 149 196 234 275 328
#     4  10  20  35  56  82 114 151 187 222 270 326
#     4   9  17  31  50  71  98 135 179 228 281 325
#     4  10  20  37  58  81 116 150 189 224 281 331
#     4   9  19  34  55  79 106 143 185 232 280 333
#
# _framework density 19.17512
#
# number of rings (size 3 to 8) (size 9 to 14) (size 15 to 20)
#    0.000    1.875    1.250    4.500    0.000    4.500 
#    0.000    1.875    0.000    4.125    0.000    3.500 
#    0.000    0.000    0.000    0.000    0.000    0.000 
#
# Total GULP energy -396507.330559 kJ/mol
# GULP energy per Si atom -12390.854080 kJ/mol
# Density = 1.913148 g / cm^3
# Si number density = 19.175120 Si / 1000 Ang^3
#
#
#
# Elastic Constant Matrix: (Units=GPa)
#
#
# Indices 1 2 3 4 5 6 
#
# 1 54.8550 31.4708 23.5012 0.0000 2.2951 0.0000
# 2 31.4708 88.8317 37.1434 0.0000 9.5237 0.0000
# 3 23.5012 37.1434 95.7428 0.0000 8.6554 0.0000
# 4 0.0000 0.0000 0.0000 11.7603 0.0000 3.1383
# 5 2.2951 9.5237 8.6554 0.0000 28.3970 0.0000
# 6 0.0000 0.0000 0.0000 3.1383 0.0000 23.6127
#
#
#
# Elastic Compliance Matrix: (Units=1/GPa)
#
#
# Indices 1 2 3 4 5 6 
#
# 1 0.023659 -0.007228 -0.003136 0.000000 0.001468 0.000000
# 2 -0.007228 0.015898 -0.004077 0.000000 -0.003505 0.000000
# 3 -0.003136 -0.004077 0.013008 0.000000 -0.002344 0.000000
# 4 0.000000 0.000000 0.000000 0.088158 0.000000 -0.011717
# 5 0.001468 -0.003505 -0.002344 0.000000 0.036986 0.000000
# 6 0.000000 0.000000 0.000000 -0.011717 0.000000 0.043907
#
#
# Mechanical properties :
#
#
# Convention : Reuss Voigt Hill
#
# Bulk Modulus (GPa) = 42.22281 47.07338 44.64809
# Shear Modulus (GPa) = 19.35043 22.57494 20.96269
#
# Velocity S-wave (km/s) = 3.18015 3.43491 3.30998
# Velocity P-wave (km/s) = 5.96254 6.35090 6.15978
#
# Compressibility (1/GPa) = 0.02368388
#
# Stress axis : x y z
#
# Youngs Moduli (GPa) = 42.26793 62.90000 76.87640
#
# Poissons Ratio (x) = 0.45462 0.24108
# Poissons Ratio (y) = 0.30550 0.31340
# Poissons Ratio (z) = 0.13255 0.25643
#
# Static dielectric constant tensor:
#      x y z
#    x 3.569200 0.000000 0.227790 
#    y 0.000000 3.772300 0.000000 
#    z 0.227790 0.000000 3.560530 
# 
# 
# High freq. dielectric constant tensor:
#      x y z
#    x 1.729040 0.000000 0.010160 
#    y 0.000000 1.735030 0.000000 
#    z 0.010160 0.000000 1.739380 
# 
# From -- ./inp_files/79752.got.cif
#   From: 2010.06.25/outbox.cif.g09.slc.cpg/sg10_40_cif.got.tgz:79752.got - 2010.06.27 22:07:45.
