data_PCOD8064995
_publ_section_title
;
Structure prediction by ZEFSAII (Michael W. Deem and Ramdas Pophale) SiO2 
 PCOD8064995
Probable space group: P 2/M
;
_chemical_formula_sum "Si O2"
_cell_formula_units_Z 32
_cell_length_a 9.722531
_cell_length_b 13.124324
_cell_length_c 25.586905
_cell_angle_alpha 90.000000
_cell_angle_beta 152.432050
_cell_angle_gamma 90.000000
_cell_volume 1511.010951
_symmetry_space_group_name_H-M "P 2/M"
_symmetry_group_IT_number 10
_symmetry_cell_setting 'monoclinic'
loop_
_space_group_symop_operation_xyz
x,y,z
-x,y,-z
-x,-y,-z
x,-y,z
loop_
_atom_site_type_symbol
_atom_site_label
_atom_site_fract_x
_atom_site_fract_y
_atom_site_fract_z
Si Si1 0.583355 0.622375 0.645477
Si Si2 0.796251 0.744720 0.806474
Si Si3 0.809130 0.878833 0.130755
Si Si4 0.891055 0.113023 0.276288
Si Si5 0.153173 0.614956 0.770773
Si Si6 0.207334 0.295593 0.432752
Si Si7 0.282473 0.886601 0.128399
Si Si8 0.184199 0.621044 0.010459
O O1 0.545650 0.500000 0.633178
O O2 0.570978 0.671383 0.699045
O O3 0.294924 0.676025 0.521401
O O4 0.901904 0.656543 0.726785
O O5 0.634868 0.806402 0.798432
O O6 0.928222 0.831589 0.814113
O O7 0.040639 0.667983 0.910748
O O8 0.860156 0.839516 0.207623
O O9 0.832501 0.000000 0.137978
O O10 0.500000 0.843496 0.000000
O O11 0.557411 0.107458 0.183034
O O12 0.098002 0.180117 0.384498
O O13 0.033204 0.000000 0.323283
O O14 0.206514 0.500000 0.804020
O O15 0.479545 0.666842 0.879149
O O16 0.040512 0.627603 0.673222
O O17 0.500000 0.321284 0.500000
O O18 0.213136 0.000000 0.127901
O O19 0.000000 0.847462 0.000000
O O20 0.181672 0.500000 0.005388
O O21 0.000000 0.655274 0.000000
#
# Coordination Sequence:
#
# PCOD8064995 Si02
#       8
#     4   4   4   4   4   4   4   4
#     4  10  22  40  60  88 121 158 204 256 306 356
#     4  12  23  35  61  89 124 164 193 247 307 369
#     4  10  21  35  55  89 129 159 192 242 300 360
#     4  10  22  40  63  90 121 159 205 251 296 359
#     4   9  19  36  60  86 116 155 203 252 297 356
#     4  10  20  36  62  88 117 158 208 254 297 352
#     4  10  22  41  63  90 124 163 205 243 295 370
#     4  10  23  39  57  88 125 161 200 248 305 368
#
# _framework density 21.177875
#
# number of rings (size 3 to 8) (size 9 to 14) (size 15 to 20)
#    0.000    1.875    0.000    3.750    7.000    3.750 
#    0.000    3.750    0.000    2.250    0.000    0.000 
#    0.000    0.000    0.000    0.000    0.000    0.000 
#
# Total GULP energy -396498.348881 kJ/mol
# GULP energy per Si atom -12390.573403 kJ/mol
# Density = 2.112967 g / cm^3
# Si number density = 21.177875 Si / 1000 Ang^3
#
#
#
# Elastic Constant Matrix: (Units=GPa)
#
#
# Indices 1 2 3 4 5 6 
#
# 1 68.9287 25.2326 25.7109 0.0000 -21.0548 0.0000
# 2 25.2326 80.5501 30.4423 0.0000 -20.2776 0.0000
# 3 25.7109 30.4423 108.4726 0.0000 -33.8132 0.0000
# 4 0.0000 0.0000 0.0000 34.7848 0.0000 -6.6447
# 5 -21.0548 -20.2776 -33.8132 0.0000 30.2282 0.0000
# 6 0.0000 0.0000 0.0000 -6.6447 0.0000 22.4505
#
#
#
# Elastic Compliance Matrix: (Units=1/GPa)
#
#
# Indices 1 2 3 4 5 6 
#
# 1 0.019081 -0.003138 -0.000238 0.000000 0.010918 0.000000
# 2 -0.003138 0.015646 -0.001623 0.000000 0.006495 0.000000
# 3 -0.000238 -0.001623 0.014340 0.000000 0.014786 0.000000
# 4 0.000000 0.000000 0.000000 0.030471 0.000000 0.009019
# 5 0.010918 0.006495 0.014786 0.000000 0.061583 0.000000
# 6 0.000000 0.000000 0.000000 0.009019 0.000000 0.047212
#
#
# Mechanical properties :
#
#
# Convention : Reuss Voigt Hill
#
# Bulk Modulus (GPa) = 25.59664 46.74700 36.17182
# Shear Modulus (GPa) = 23.65708 29.26375 26.46041
#
# Velocity S-wave (km/s) = 3.34588 3.72130 3.53857
# Velocity P-wave (km/s) = 5.19993 6.37068 5.81484
#
# Compressibility (1/GPa) = 0.03906762
#
# Stress axis : x y z
#
# Youngs Moduli (GPa) = 52.40936 63.91458 69.73524
#
# Poissons Ratio (x) = 0.20059 0.01662
# Poissons Ratio (y) = 0.16448 0.11315
# Poissons Ratio (z) = 0.01249 0.10371
#
# Static dielectric constant tensor:
#      x y z
#    x 3.702610 0.000000 -0.157610 
#    y 0.000000 4.016140 0.000000 
#    z -0.157610 0.000000 4.087270 
# 
# 
# High freq. dielectric constant tensor:
#      x y z
#    x 1.808240 0.000000 -0.008200 
#    y 0.000000 1.852010 0.000000 
#    z -0.008200 0.000000 1.820550 
# 
# From -- ./inp_files/88266.got.cif
#   From: 2010.06.25/outbox.cif.g09.slc.cpg/sg10_45_cif.got.tgz:88266.got - 2010.06.27 22:07:45.
