data_PCOD8064371
_publ_section_title
;
Structure prediction by ZEFSAII (Michael W. Deem and Ramdas Pophale) SiO2 
 PCOD8064371
Probable space group: P 2/M
;
_chemical_formula_sum "Si O2"
_cell_formula_units_Z 32
_cell_length_a 25.718517
_cell_length_b 8.952512
_cell_length_c 15.000009
_cell_angle_alpha 90.000000
_cell_angle_beta 29.378998
_cell_angle_gamma 90.000000
_cell_volume 1694.322447
_symmetry_space_group_name_H-M "P 2/M"
_symmetry_group_IT_number 10
_symmetry_cell_setting 'monoclinic'
loop_
_space_group_symop_operation_xyz
x,y,z
-x,y,-z
-x,-y,-z
x,-y,z
loop_
_atom_site_type_symbol
_atom_site_label
_atom_site_fract_x
_atom_site_fract_y
_atom_site_fract_z
Si Si1 0.264661 0.174788 0.544425
Si Si2 0.208252 0.677153 0.804316
Si Si3 0.108656 0.324871 0.298052
Si Si4 0.952705 0.325390 0.803867
Si Si5 0.289902 0.677836 0.156556
Si Si6 0.434851 0.672529 0.517351
Si Si7 0.175745 0.174786 0.485757
Si Si8 0.483600 0.672871 0.247069
O O1 0.195243 0.250221 0.726498
O O2 0.204543 0.215039 0.543702
O O3 0.384192 0.235181 0.359154
O O4 0.269637 0.000000 0.554955
O O5 0.214588 0.500000 0.781887
O O6 0.317034 0.740812 0.684624
O O7 0.112259 0.724196 0.011778
O O8 0.106675 0.500000 0.319027
O O9 0.117184 0.290243 0.179840
O O10 0.210087 0.259119 0.199328
O O11 0.000000 0.254650 0.500000
O O12 0.982303 0.500000 0.762992
O O13 0.058536 0.230728 0.640161
O O14 0.286124 0.500000 0.165651
O O15 0.259205 0.742857 0.297888
O O16 0.408942 0.732890 0.958222
O O17 0.500000 0.752326 0.500000
O O18 0.420612 0.500000 0.563359
O O19 0.498337 0.694981 0.330896
O O20 0.182320 0.000000 0.457192
O O21 0.462366 0.500000 0.256240
#
# Coordination Sequence:
#
# PCOD8064371 Si02
#       8
#     4   4   4   4   4   4   4   4
#     4  10  22  40  58  74 104 147 185 227 274 320
#     4   9  19  34  55  84 111 137 177 224 270 319
#     4   9  16  30  54  83 114 143 173 214 266 322
#     4  10  20  35  57  85 113 142 177 221 270 321
#     4  10  20  35  57  85 113 142 177 221 270 321
#     4   8  14  26  47  79 112 137 166 210 260 312
#     4  11  24  39  55  77 105 144 190 229 269 322
#     4   9  19  34  55  84 111 137 177 224 270 319
#
# _framework density 18.886603999999998
#
# number of rings (size 3 to 8) (size 9 to 14) (size 15 to 20)
#    0.000    2.500    1.250    1.500    1.750    4.000 
#    0.000    6.250    0.000    6.000    0.000    0.000 
#    0.000    0.000    0.000    0.000    0.000    0.000 
#
# Total GULP energy -396757.638726 kJ/mol
# GULP energy per Si atom -12398.676210 kJ/mol
# Density = 1.884362 g / cm^3
# Si number density = 18.886604 Si / 1000 Ang^3
#
#
#
# Elastic Constant Matrix: (Units=GPa)
#
#
# Indices 1 2 3 4 5 6 
#
# 1 74.4533 21.3371 12.9521 0.0000 11.8242 0.0000
# 2 21.3371 28.8548 18.5239 0.0000 4.8528 0.0000
# 3 12.9521 18.5239 101.6500 0.0000 20.5201 0.0000
# 4 0.0000 0.0000 0.0000 12.5584 0.0000 -4.0709
# 5 11.8242 4.8528 20.5201 0.0000 21.1987 0.0000
# 6 0.0000 0.0000 0.0000 -4.0709 0.0000 1.6128
#
#
#
# Elastic Compliance Matrix: (Units=1/GPa)
#
#
# Indices 1 2 3 4 5 6 
#
# 1 0.018335 -0.013261 0.001904 0.000000 -0.009034 0.000000
# 2 -0.013261 0.048952 -0.008031 0.000000 0.003965 0.000000
# 3 0.001904 -0.008031 0.013550 0.000000 -0.012339 0.000000
# 4 0.000000 0.000000 0.000000 0.438017 0.000000 1.105612
# 5 -0.009034 0.003965 -0.012339 0.000000 0.063249 0.000000
# 6 0.000000 0.000000 0.000000 1.105612 0.000000 3.410757
#
#
# Mechanical properties :
#
#
# Convention : Reuss Voigt Hill
#
# Bulk Modulus (GPa) = 23.77575 34.50936 29.14256
# Shear Modulus (GPa) = 1.23589 17.21698 9.22644
#
# Velocity S-wave (km/s) = 0.80981 3.02254 2.21264
# Velocity P-wave (km/s) = 3.67293 5.52201 4.68951
#
# Compressibility (1/GPa) = 0.04205966
#
# Stress axis : x y z
#
# Youngs Moduli (GPa) = 54.53986 20.42837 73.80311
#
# Poissons Ratio (x) = 0.27091 -0.14053
# Poissons Ratio (y) = 0.72327 0.59273
# Poissons Ratio (z) = -0.10385 0.16407
#
# Static dielectric constant tensor:
#      x y z
#    x 3.613490 0.000000 0.010400 
#    y 0.000000 3.115640 0.000000 
#    z 0.010400 0.000000 3.576790 
# 
# 
# High freq. dielectric constant tensor:
#      x y z
#    x 1.741760 0.000000 0.003870 
#    y 0.000000 1.695620 0.000000 
#    z 0.003870 0.000000 1.738930 
# 
# From -- ./inp_files/66612.got.cif
#   From: 2010.06.25/outbox.cif.g09.slc.cpg/sg10_34_cif.got.tgz:66612.got - 2010.06.27 22:07:45.
