data_PCOD8064940
_publ_section_title
;
Structure prediction by ZEFSAII (Michael W. Deem and Ramdas Pophale) SiO2 
 PCOD8064940
Probable space group: P 2/M
;
_chemical_formula_sum "Si O2"
_cell_formula_units_Z 32
_cell_length_a 12.389236
_cell_length_b 8.836528
_cell_length_c 29.725974
_cell_angle_alpha 90.000000
_cell_angle_beta 28.326314
_cell_angle_gamma 90.000000
_cell_volume 1544.157727
_symmetry_space_group_name_H-M "P 2/M"
_symmetry_group_IT_number 10
_symmetry_cell_setting 'monoclinic'
loop_
_space_group_symop_operation_xyz
x,y,z
-x,y,-z
-x,-y,-z
x,-y,z
loop_
_atom_site_type_symbol
_atom_site_label
_atom_site_fract_x
_atom_site_fract_y
_atom_site_fract_z
Si Si1 0.872720 0.177612 0.755236
Si Si2 0.581870 0.176942 0.334706
Si Si3 0.527544 0.323768 0.041632
Si Si4 0.353619 0.320818 0.596516
Si Si5 0.198552 0.824436 0.898345
Si Si6 0.303943 0.821992 0.276364
Si Si7 0.754358 0.668798 0.610824
Si Si8 0.000455 0.173093 0.123335
O O1 0.653282 0.230280 0.863359
O O2 0.841304 0.217451 0.714340
O O3 0.097597 0.260800 0.689090
O O4 0.902906 0.000000 0.752080
O O5 0.529015 0.260969 0.400927
O O6 0.413385 0.231710 0.357729
O O7 0.845013 0.208655 0.223928
O O8 0.540411 0.000000 0.356911
O O9 0.486314 0.500000 0.065688
O O10 0.500000 0.279471 0.000000
O O11 0.784302 0.281547 0.960551
O O12 0.500000 0.262849 0.500000
O O13 0.348442 0.500000 0.599819
O O14 0.440783 0.756970 0.824167
O O15 0.164032 0.796917 0.858377
O O16 0.199793 0.000000 0.910493
O O17 0.000000 0.743227 0.000000
O O18 0.198844 0.739797 0.357620
O O19 0.308263 0.000000 0.284538
O O20 0.651125 0.500000 0.652901
O O21 0.000000 0.662495 0.500000
O O22 0.087613 0.000000 0.092088
#
# Coordination Sequence:
#
# PCOD8064940 Si02
#       8
#     4   4   4   4   4   4   4   4
#     4  11  24  42  67  97 127 166 218 270 318 374
#     4  11  23  42  69  97 127 163 214 271 316 372
#     4  11  24  40  60  88 125 170 213 258 318 384
#     4  11  26  46  67  92 129 170 207 259 327 388
#     4   9  16  31  56  85 120 158 197 244 304 363
#     4  10  21  40  64  93 127 166 211 262 316 371
#     4  11  25  42  63  93 130 172 212 256 322 389
#     4  10  20  36  60  90 122 158 202 256 312 365
#
# _framework density 20.723272000000001
#
# number of rings (size 3 to 8) (size 9 to 14) (size 15 to 20)
#    0.000    1.500    1.250    3.375    1.750    9.000 
#    0.000    0.000    0.000    1.500    0.000    0.000 
#    0.000    0.000    0.000    0.000    0.000    0.000 
#
# Total GULP energy -396872.330461 kJ/mol
# GULP energy per Si atom -12402.260327 kJ/mol
# Density = 2.067610 g / cm^3
# Si number density = 20.723272 Si / 1000 Ang^3
#
#
#
# Elastic Constant Matrix: (Units=GPa)
#
#
# Indices 1 2 3 4 5 6 
#
# 1 82.7488 39.2760 27.7422 0.0000 13.3721 0.0000
# 2 39.2760 75.6484 33.2844 0.0000 11.1864 0.0000
# 3 27.7422 33.2844 81.4588 0.0000 14.4417 0.0000
# 4 0.0000 0.0000 0.0000 32.2787 0.0000 5.4632
# 5 13.3721 11.1864 14.4417 0.0000 40.3696 0.0000
# 6 0.0000 0.0000 0.0000 5.4632 0.0000 39.4655
#
#
#
# Elastic Compliance Matrix: (Units=1/GPa)
#
#
# Indices 1 2 3 4 5 6 
#
# 1 0.016742 -0.007307 -0.002233 0.000000 -0.002722 0.000000
# 2 -0.007307 0.019500 -0.005286 0.000000 -0.001092 0.000000
# 3 -0.002233 -0.005286 0.015808 0.000000 -0.003451 0.000000
# 4 0.000000 0.000000 0.000000 0.031723 0.000000 -0.004391
# 5 -0.002722 -0.001092 -0.003451 0.000000 0.027210 0.000000
# 6 0.000000 0.000000 0.000000 -0.004391 0.000000 0.025946
#
#
# Mechanical properties :
#
#
# Convention : Reuss Voigt Hill
#
# Bulk Modulus (GPa) = 44.64728 48.94012 46.79370
# Shear Modulus (GPa) = 28.72786 31.72634 30.22710
#
# Velocity S-wave (km/s) = 3.72729 3.91698 3.82331
# Velocity P-wave (km/s) = 6.33363 6.64261 6.48996
#
# Compressibility (1/GPa) = 0.02239778
#
# Stress axis : x y z
#
# Youngs Moduli (GPa) = 59.73165 51.28253 63.25795
#
# Poissons Ratio (x) = 0.37471 0.14129
# Poissons Ratio (y) = 0.43645 0.33436
# Poissons Ratio (z) = 0.13341 0.27106
#
# Static dielectric constant tensor:
#      x y z
#    x 3.393350 0.000000 0.117670 
#    y 0.000000 3.685490 0.000000 
#    z 0.117670 0.000000 3.895000 
# 
# 
# High freq. dielectric constant tensor:
#      x y z
#    x 1.821770 0.000000 0.004900 
#    y 0.000000 1.798450 0.000000 
#    z 0.004900 0.000000 1.822150 
# 
# From -- ./inp_files/95008.got.cif
#   From: 2010.06.25/outbox.cif.g09.slc.cpg/sg10_48_cif.got.tgz:95008.got - 2010.06.27 22:07:45.
