data_PCOD8064131
_publ_section_title
;
Structure prediction by ZEFSAII (Michael W. Deem and Ramdas Pophale) SiO2 
 PCOD8064131
Probable space group: P 2/M
;
_chemical_formula_sum "Si O2"
_cell_formula_units_Z 20
_cell_length_a 9.574565
_cell_length_b 8.423743
_cell_length_c 19.353160
_cell_angle_alpha 90.000000
_cell_angle_beta 41.797208
_cell_angle_gamma 90.000000
_cell_volume 1040.336145
_symmetry_space_group_name_H-M "P 2/M"
_symmetry_group_IT_number 10
_symmetry_cell_setting 'monoclinic'
loop_
_space_group_symop_operation_xyz
x,y,z
-x,y,-z
-x,-y,-z
x,-y,z
loop_
_atom_site_type_symbol
_atom_site_label
_atom_site_fract_x
_atom_site_fract_y
_atom_site_fract_z
Si Si1 0.708376 0.685383 0.724242
Si Si2 0.317242 0.186834 0.119239
Si Si3 0.506680 0.815536 0.668447
Si Si4 0.134640 0.315953 0.725106
Si Si5 0.155304 0.186460 0.568103
O O1 0.749295 0.500000 0.719381
O O2 0.617090 0.757195 0.828671
O O3 0.541505 0.717449 0.725690
O O4 0.926635 0.769644 0.623473
O O5 0.106153 0.272556 0.172536
O O6 0.277012 0.000000 0.134162
O O7 0.500000 0.237664 0.000000
O O8 0.273610 0.783072 0.727602
O O9 0.673244 0.756432 0.550074
O O10 0.536885 0.000000 0.673646
O O11 0.172105 0.500000 0.725224
O O12 0.201631 0.275280 0.622451
O O13 0.170308 0.000000 0.576719
#
# Coordination Sequence:
#
# PCOD8064131 Si02
#       5
#     4   4   4   4   4
#     4  11  22  35  55  83 113 143 179 226 273 319
#     4  10  21  40  64  83 103 138 181 222 268 327
#     4  11  22  36  54  78 113 151 185 223 265 316
#     4  11  22  35  55  83 113 143 179 226 273 319
#     4  10  20  35  55  78 109 152 191 220 259 316
#
# _framework density 19.224556
#
# number of rings (size 3 to 8) (size 9 to 14) (size 15 to 20)
#    0.000    1.400    0.000    9.000    0.000    9.600 
#    0.000    1.000    0.000    6.000    0.000    0.000 
#    0.000    0.000    0.000    0.000    0.000    0.000 
#
# Total GULP energy -248133.424926 kJ/mol
# GULP energy per Si atom -12406.671246 kJ/mol
# Density = 1.918080 g / cm^3
# Si number density = 19.224556 Si / 1000 Ang^3
#
#
#
# Elastic Constant Matrix: (Units=GPa)
#
#
# Indices 1 2 3 4 5 6 
#
# 1 117.8272 1.6445 42.7478 0.0000 6.1587 0.0000
# 2 1.6445 71.7029 28.2870 0.0000 0.5674 0.0000
# 3 42.7478 28.2870 119.0278 0.0000 0.3387 0.0000
# 4 0.0000 0.0000 0.0000 5.6285 0.0000 4.5631
# 5 6.1587 0.5674 0.3387 0.0000 11.0755 0.0000
# 6 0.0000 0.0000 0.0000 4.5631 0.0000 34.6013
#
#
#
# Elastic Compliance Matrix: (Units=1/GPa)
#
#
# Indices 1 2 3 4 5 6 
#
# 1 0.010204 0.001379 -0.003977 0.000000 -0.005623 0.000000
# 2 0.001379 0.015581 -0.004194 0.000000 -0.001437 0.000000
# 3 -0.003977 -0.004194 0.010820 0.000000 0.002095 0.000000
# 4 0.000000 0.000000 0.000000 0.198937 0.000000 -0.026235
# 5 -0.005623 -0.001437 0.002095 0.000000 0.093425 0.000000
# 6 0.000000 0.000000 0.000000 -0.026235 0.000000 0.032360
#
#
# Mechanical properties :
#
#
# Convention : Reuss Voigt Hill
#
# Bulk Modulus (GPa) = 43.43544 50.43517 46.93531
# Shear Modulus (GPa) = 13.06898 25.98630 19.52764
#
# Velocity S-wave (km/s) = 2.61014 3.68057 3.19057
# Velocity P-wave (km/s) = 5.63263 6.65987 6.16767
#
# Compressibility (1/GPa) = 0.02302267
#
# Stress axis : x y z
#
# Youngs Moduli (GPa) = 97.99706 64.18184 92.41882
#
# Poissons Ratio (x) = -0.08852 0.36751
# Poissons Ratio (y) = -0.13516 0.38761
# Poissons Ratio (z) = 0.38969 0.26918
#
# Static dielectric constant tensor:
#      x y z
#    x 3.483910 0.000000 0.008440 
#    y 0.000000 3.558260 0.000000 
#    z 0.008440 0.000000 3.463830 
# 
# 
# High freq. dielectric constant tensor:
#      x y z
#    x 1.752140 0.000000 0.002490 
#    y 0.000000 1.762700 0.000000 
#    z 0.002490 0.000000 1.730250 
# 
# From -- ./inp_files/22180.got.cif
#   From: 2010.06.25/outbox.cif.g09.slc.cpg/sg10_12_cif.got.tgz:22180.got - 2010.06.27 22:07:45.
