data_PCOD8064076
_publ_section_title
;
Structure prediction by ZEFSAII (Michael W. Deem and Ramdas Pophale) SiO2 
 PCOD8064076
Probable space group: P 2/M
;
_chemical_formula_sum "Si O2"
_cell_formula_units_Z 20
_cell_length_a 13.021112
_cell_length_b 10.214278
_cell_length_c 13.862375
_cell_angle_alpha 90.000000
_cell_angle_beta 148.442010
_cell_angle_gamma 90.000000
_cell_volume 964.928137
_symmetry_space_group_name_H-M "P 2/M"
_symmetry_group_IT_number 10
_symmetry_cell_setting 'monoclinic'
loop_
_space_group_symop_operation_xyz
x,y,z
-x,y,-z
-x,-y,-z
x,-y,z
loop_
_atom_site_type_symbol
_atom_site_label
_atom_site_fract_x
_atom_site_fract_y
_atom_site_fract_z
Si Si1 0.373574 0.258441 0.166491
Si Si2 0.230870 0.643576 0.568753
Si Si3 0.411601 0.852736 0.828102
Si Si4 0.207976 0.855530 0.216941
Si Si5 0.050122 0.350943 0.228587
O O1 0.416607 0.152758 0.115568
O O2 0.172363 0.333085 0.983303
O O3 0.555369 0.359759 0.313045
O O4 0.367775 0.186802 0.265320
O O5 0.192184 0.500000 0.583471
O O6 0.067009 0.675725 0.356911
O O7 0.233192 0.753953 0.655058
O O8 0.328822 0.000000 0.770180
O O9 0.500000 0.804587 0.000000
O O10 0.198268 0.749035 0.294247
O O11 0.263903 0.000000 0.302787
O O12 0.000000 0.863972 0.000000
O O13 0.113705 0.500000 0.255241
#
# Coordination Sequence:
#
# PCOD8064076 Si02
#       5
#     4   4   4   4   4
#     4   9  19  34  57  75 105 142 175 215 263 305
#     4   9  20  35  54  80 107 137 176 217 260 314
#     4   9  19  37  59  79 103 137 176 219 266 315
#     4   9  18  32  51  77 108 142 179 214 257 308
#     4  10  20  35  54  79 110 141 177 214 257 313
#
# _framework density 20.726932000000001
#
# number of rings (size 3 to 8) (size 9 to 14) (size 15 to 20)
#    1.200    1.600    0.000    1.200    0.000    7.200 
#    0.000    4.000    0.000    4.800    0.000    0.000 
#    0.000    0.000    0.000    0.000    0.000    0.000 
#
# Total GULP energy -247787.041998 kJ/mol
# GULP energy per Si atom -12389.352100 kJ/mol
# Density = 2.067976 g / cm^3
# Si number density = 20.726932 Si / 1000 Ang^3
#
#
#
# Elastic Constant Matrix: (Units=GPa)
#
#
# Indices 1 2 3 4 5 6 
#
# 1 21.7126 -0.8289 -12.2083 0.0000 -6.5192 0.0000
# 2 -0.8289 135.2116 35.5329 0.0000 -28.1455 0.0000
# 3 -12.2083 35.5329 53.8241 0.0000 -8.1141 0.0000
# 4 0.0000 0.0000 0.0000 20.5594 0.0000 -17.4270
# 5 -6.5192 -28.1455 -8.1141 0.0000 25.7402 0.0000
# 6 0.0000 0.0000 0.0000 -17.4270 0.0000 12.5959
#
#
#
# Elastic Compliance Matrix: (Units=1/GPa)
#
#
# Indices 1 2 3 4 5 6 
#
# 1 0.062151 0.000370 0.017099 0.000000 0.021536 0.000000
# 2 0.000370 0.011043 -0.005640 0.000000 0.010391 0.000000
# 3 0.017099 -0.005640 0.027196 0.000000 0.006737 0.000000
# 4 0.000000 0.000000 0.000000 -0.281557 0.000000 -0.389547
# 5 0.021536 0.010391 0.006737 0.000000 0.057790 0.000000
# 6 0.000000 0.000000 0.000000 -0.389547 0.000000 -0.459564
#
#
# Mechanical properties :
#
#
# Convention : Reuss Voigt Hill
#
# Bulk Modulus (GPa) = 8.06128 28.41552 18.23840
# Shear Modulus (GPa) = -8.84564 24.32928 7.74182
#
# Velocity S-wave (km/s) = -2.06808 3.42979 1.93475
# Velocity P-wave (km/s) = 1.34347 5.42438 3.71611
#
# Compressibility (1/GPa) = 0.12404975
#
# Stress axis : x y z
#
# Youngs Moduli (GPa) = 16.08987 90.55325 36.76969
#
# Poissons Ratio (x) = -0.03354 -0.62873
# Poissons Ratio (y) = -0.00596 0.20738
# Poissons Ratio (z) = -0.27512 0.51071
#
# Static dielectric constant tensor:
#      x y z
#    x 3.462710 0.000000 -0.119500 
#    y 0.000000 3.776200 0.000000 
#    z -0.119500 0.000000 3.512520 
# 
# 
# High freq. dielectric constant tensor:
#      x y z
#    x 1.783230 0.000000 -0.011370 
#    y 0.000000 1.812840 0.000000 
#    z -0.011370 0.000000 1.803500 
# 
# From -- ./inp_files/46851.got.cif
#   From: 2010.06.25/outbox.cif.g09.slc.cpg/sg10_24_cif.got.tgz:46851.got - 2010.06.27 22:07:45.
