data_PCOD8064890
_publ_section_title
;
Structure prediction by ZEFSAII (Michael W. Deem and Ramdas Pophale) SiO2 
 PCOD8064890
Probable space group: P 2/M
;
_chemical_formula_sum "Si O2"
_cell_formula_units_Z 20
_cell_length_a 22.255258
_cell_length_b 8.839134
_cell_length_c 15.649465
_cell_angle_alpha 90.000000
_cell_angle_beta 19.578510
_cell_angle_gamma 90.000000
_cell_volume 1031.606217
_symmetry_space_group_name_H-M "P 2/M"
_symmetry_group_IT_number 10
_symmetry_cell_setting 'monoclinic'
loop_
_space_group_symop_operation_xyz
x,y,z
-x,y,-z
-x,-y,-z
x,-y,z
loop_
_atom_site_type_symbol
_atom_site_label
_atom_site_fract_x
_atom_site_fract_y
_atom_site_fract_z
Si Si1 0.967089 0.321686 0.721638
Si Si2 0.643875 0.175812 0.054184
Si Si3 0.035007 0.320187 0.080021
Si Si4 0.260274 0.177216 0.637589
Si Si5 0.652832 0.678592 0.860449
O O1 0.948895 0.500000 0.737874
O O2 0.156967 0.265894 0.430804
O O3 0.813735 0.248415 0.871116
O O4 0.948842 0.268971 0.843780
O O5 0.469864 0.209339 0.344863
O O6 0.679937 0.000000 0.995328
O O7 0.611271 0.244956 0.005541
O O8 0.035351 0.500000 0.069070
O O9 0.203401 0.249268 0.804232
O O10 0.849348 0.256458 0.291640
O O11 0.215543 0.000000 0.697055
O O12 0.649608 0.500000 0.878122
O O13 0.500000 0.731796 0.000000
#
# Coordination Sequence:
#
# PCOD8064890 Si02
#       5
#     4   4   4   4   4
#     4  10  22  38  57  83 113 145 182 228 280 328
#     4  11  24  38  55  82 115 150 185 224 272 328
#     4  10  20  36  60  86 109 141 188 233 273 323
#     4  10  21  37  56  81 114 149 184 225 276 327
#     4  10  21  39  62  84 109 143 183 229 279 328
#
# _framework density 19.387242000000001
#
# number of rings (size 3 to 8) (size 9 to 14) (size 15 to 20)
#    0.000    1.800    0.000    4.800    0.000   10.800 
#    0.000    4.000    0.000    0.000    0.000    0.000 
#    0.000    0.000    0.000    0.000    0.000    0.000 
#
# Total GULP energy -248088.865846 kJ/mol
# GULP energy per Si atom -12404.443292 kJ/mol
# Density = 1.934312 g / cm^3
# Si number density = 19.387242 Si / 1000 Ang^3
#
#
#
# Elastic Constant Matrix: (Units=GPa)
#
#
# Indices 1 2 3 4 5 6 
#
# 1 108.1756 52.8391 52.9632 0.0000 -12.0849 0.0000
# 2 52.8391 83.5577 49.6900 0.0000 -7.8143 0.0000
# 3 52.9632 49.6900 135.7630 0.0000 -16.9922 0.0000
# 4 0.0000 0.0000 0.0000 27.9763 0.0000 22.6672
# 5 -12.0849 -7.8143 -16.9922 0.0000 34.6043 0.0000
# 6 0.0000 0.0000 0.0000 22.6672 0.0000 -79.9893
#
#
#
# Elastic Compliance Matrix: (Units=1/GPa)
#
#
# Indices 1 2 3 4 5 6 
#
# 1 0.014341 -0.007289 -0.002670 0.000000 0.002051 0.000000
# 2 -0.007289 0.019021 -0.004154 0.000000 -0.000290 0.000000
# 3 -0.002670 -0.004154 0.010329 0.000000 0.003201 0.000000
# 4 0.000000 0.000000 0.000000 0.029070 0.000000 0.008238
# 5 0.002051 -0.000290 0.003201 0.000000 0.031121 0.000000
# 6 0.000000 0.000000 0.000000 0.008238 0.000000 -0.010167
#
#
# Mechanical properties :
#
#
# Convention : Reuss Voigt Hill
#
# Bulk Modulus (GPa) = 64.67028 70.94232 67.80630
# Shear Modulus (GPa) = 39.34053 7.98519 23.66286
#
# Velocity S-wave (km/s) = 4.50955 2.03168 3.49741
# Velocity P-wave (km/s) = 7.78102 6.49425 7.16657
#
# Compressibility (1/GPa) = 0.01546305
#
# Stress axis : x y z
#
# Youngs Moduli (GPa) = 69.72966 52.57468 96.81858
#
# Poissons Ratio (x) = 0.38323 0.25851
# Poissons Ratio (y) = 0.50827 0.40222
# Poissons Ratio (z) = 0.18618 0.21841
#
# Static dielectric constant tensor:
#      x y z
#    x 3.601820 0.000000 0.101070 
#    y 0.000000 3.552550 0.000000 
#    z 0.101070 0.000000 3.710310 
# 
# 
# High freq. dielectric constant tensor:
#      x y z
#    x 1.761720 0.000000 0.005170 
#    y 0.000000 1.758330 0.000000 
#    z 0.005170 0.000000 1.769650 
# 
# From -- ./inp_files/22258.got.cif
#   From: 2010.06.25/outbox.cif.g09.slc.cpg/sg10_12_cif.got.tgz:22258.got - 2010.06.27 22:07:45.
