data_PCOD8064080
_publ_section_title
;
Structure prediction by ZEFSAII (Michael W. Deem and Ramdas Pophale) SiO2 
 PCOD8064080
Probable space group: P 2/M
;
_chemical_formula_sum "Si O2"
_cell_formula_units_Z 28
_cell_length_a 12.433635
_cell_length_b 8.660390
_cell_length_c 14.841235
_cell_angle_alpha 90.000000
_cell_angle_beta 104.926809
_cell_angle_gamma 90.000000
_cell_volume 1544.179052
_symmetry_space_group_name_H-M "P 2/M"
_symmetry_group_IT_number 10
_symmetry_cell_setting 'monoclinic'
loop_
_space_group_symop_operation_xyz
x,y,z
-x,y,-z
-x,-y,-z
x,-y,z
loop_
_atom_site_type_symbol
_atom_site_label
_atom_site_fract_x
_atom_site_fract_y
_atom_site_fract_z
Si Si1 0.287658 0.680028 0.764710
Si Si2 0.067407 0.320647 0.395680
Si Si3 0.090665 0.321937 0.196632
Si Si4 0.501052 0.821187 0.103083
Si Si5 0.843469 0.180970 0.415540
Si Si6 0.749343 0.178124 0.903431
Si Si7 0.139917 0.819596 0.886262
O O1 0.278974 0.500000 0.744698
O O2 0.411017 0.722653 0.822267
O O3 0.262726 0.766869 0.665545
O O4 0.195987 0.724795 0.818544
O O5 0.039408 0.500000 0.403932
O O6 0.114220 0.287044 0.306510
O O7 0.159070 0.265905 0.488075
O O8 0.954876 0.224226 0.385122
O O9 0.059873 0.500000 0.174710
O O10 0.202156 0.279355 0.167146
O O11 0.990362 0.218343 0.136948
O O12 0.382112 0.793180 0.122565
O O13 0.537200 0.000000 0.113083
O O14 0.500000 0.762750 0.000000
O O15 0.839351 0.000000 0.431552
O O16 0.777728 0.000000 0.891855
O O17 0.803402 0.232552 0.008706
O O18 0.159344 0.000000 0.872364
#
# Coordination Sequence:
#
# PCOD8064080 Si02
#       7
#     4   4   4   4   4   4   4
#     4  12  23  35  55  84 116 147 181 230 286 332
#     4  10  20  35  54  80 115 147 178 227 280 330
#     4  11  23  36  54  82 117 152 183 225 279 333
#     4  10  20  39  60  80 108 146 191 234 275 323
#     4  11  21  34  56  83 109 145 185 227 275 333
#     4  10  22  38  57  79 109 151 192 231 272 323
#     4  11  21  36  56  80 111 151 191 228 273 329
#
# _framework density 18.132612000000002
#
# number of rings (size 3 to 8) (size 9 to 14) (size 15 to 20)
#    0.000    1.286    2.857    5.143    0.000    5.429 
#    0.000    0.000    0.000    0.857    0.000    6.000 
#    0.000    0.000    0.000    0.000    0.000    0.000 
#
# Total GULP energy -347359.374195 kJ/mol
# GULP energy per Si atom -12405.691936 kJ/mol
# Density = 1.809134 g / cm^3
# Si number density = 18.132612 Si / 1000 Ang^3
#
#
#
# Elastic Constant Matrix: (Units=GPa)
#
#
# Indices 1 2 3 4 5 6 
#
# 1 68.7026 17.7540 30.5366 0.0000 5.4089 0.0000
# 2 17.7540 71.6757 32.3172 0.0000 0.1023 0.0000
# 3 30.5366 32.3172 106.9052 0.0000 10.6269 0.0000
# 4 0.0000 0.0000 0.0000 28.9835 0.0000 -1.6896
# 5 5.4089 0.1023 10.6269 0.0000 22.5568 0.0000
# 6 0.0000 0.0000 0.0000 -1.6896 0.0000 26.9979
#
#
#
# Elastic Compliance Matrix: (Units=1/GPa)
#
#
# Indices 1 2 3 4 5 6 
#
# 1 0.017112 -0.002469 -0.003918 0.000000 -0.002246 0.000000
# 2 -0.002469 0.016628 -0.004588 0.000000 0.002678 0.000000
# 3 -0.003918 -0.004588 0.012343 0.000000 -0.004855 0.000000
# 4 0.000000 0.000000 0.000000 0.034629 0.000000 0.002167
# 5 -0.002246 0.002678 -0.004855 0.000000 0.047146 0.000000
# 6 0.000000 0.000000 0.000000 0.002167 0.000000 0.037175
#
#
# Mechanical properties :
#
#
# Convention : Reuss Voigt Hill
#
# Bulk Modulus (GPa) = 41.43664 45.38877 43.41271
# Shear Modulus (GPa) = 25.63755 26.81935 26.22845
#
# Velocity S-wave (km/s) = 3.76425 3.85004 3.80739
# Velocity P-wave (km/s) = 6.46486 6.69699 6.58195
#
# Compressibility (1/GPa) = 0.02413323
#
# Stress axis : x y z
#
# Youngs Moduli (GPa) = 58.43894 60.14001 81.01951
#
# Poissons Ratio (x) = 0.14847 0.31746
# Poissons Ratio (y) = 0.14427 0.37168
# Poissons Ratio (z) = 0.22898 0.27590
#
# Static dielectric constant tensor:
#      x y z
#    x 3.117940 0.000000 0.048530 
#    y 0.000000 3.359940 0.000000 
#    z 0.048530 0.000000 3.576140 
# 
# 
# High freq. dielectric constant tensor:
#      x y z
#    x 1.676940 0.000000 0.004380 
#    y 0.000000 1.711240 0.000000 
#    z 0.004380 0.000000 1.709890 
# 
# From -- ./inp_files/49084.got.cif
#   From: 2010.06.25/outbox.cif.g09.slc.cpg/sg10_25_cif.got.tgz:49084.got - 2010.06.27 22:07:45.
