data_PCOD8064864
_publ_section_title
;
Structure prediction by ZEFSAII (Michael W. Deem and Ramdas Pophale) SiO2 
 PCOD8064864
Probable space group: P 2/M
;
_chemical_formula_sum "Si O2"
_cell_formula_units_Z 32
_cell_length_a 14.918964
_cell_length_b 8.714934
_cell_length_c 24.553334
_cell_angle_alpha 90.000000
_cell_angle_beta 27.663066
_cell_angle_gamma 90.000000
_cell_volume 1482.125538
_symmetry_space_group_name_H-M "P 2/M"
_symmetry_group_IT_number 10
_symmetry_cell_setting 'monoclinic'
loop_
_space_group_symop_operation_xyz
x,y,z
-x,y,-z
-x,-y,-z
x,-y,z
loop_
_atom_site_type_symbol
_atom_site_label
_atom_site_fract_x
_atom_site_fract_y
_atom_site_fract_z
Si Si1 0.306222 0.818252 0.853066
Si Si2 0.782247 0.181146 0.719958
Si Si3 0.671251 0.820382 0.446745
Si Si4 0.932868 0.820976 0.115607
Si Si5 0.556883 0.680006 0.029653
Si Si6 0.029283 0.821696 0.181199
Si Si7 0.832172 0.681441 0.463031
Si Si8 0.705542 0.679218 0.650224
O O1 0.483045 0.718188 0.777984
O O2 0.250585 0.765874 0.821194
O O3 0.352598 0.000000 0.833370
O O4 0.135449 0.759022 0.983957
O O5 0.819023 0.238321 0.638250
O O6 0.956495 0.247484 0.663099
O O7 0.787475 0.000000 0.719139
O O8 0.577246 0.236257 0.853985
O O9 0.500000 0.755236 0.500000
O O10 0.674050 0.739932 0.504257
O O11 0.881521 0.784449 0.308753
O O12 0.635838 0.000000 0.474489
O O13 0.910209 0.777165 0.190726
O O14 0.943519 0.000000 0.099508
O O15 0.526370 0.500000 0.053449
O O16 0.780220 0.720463 0.917908
O O17 0.500000 0.735568 0.000000
O O18 0.090204 0.000000 0.147601
O O19 0.844296 0.500000 0.453032
O O20 0.769378 0.739754 0.556629
O O21 0.745788 0.500000 0.634582
#
# Coordination Sequence:
#
# PCOD8064864 Si02
#       8
#     4   4   4   4   4   4   4   4
#     4   9  17  32  56  84 115 155 203 248 300 364
#     4  12  25  42  67  96 125 162 210 262 315 374
#     4  10  23  41  64  95 128 166 216 268 313 364
#     4   8  16  31  53  83 116 152 196 247 301 357
#     4  11  24  41  63  92 127 166 205 250 312 378
#     4  10  20  36  59  88 123 160 204 256 308 361
#     4  11  25  44  64  88 125 169 210 261 321 379
#     4  11  24  40  60  89 126 164 206 255 315 377
#
# _framework density 21.590615
#
# number of rings (size 3 to 8) (size 9 to 14) (size 15 to 20)
#    0.000    1.750    0.000    4.875    1.750    8.250 
#    0.000    1.875    0.000    0.000    0.000    0.000 
#    0.000    0.000    0.000    0.000    0.000    0.000 
#
# Total GULP energy -396794.732467 kJ/mol
# GULP energy per Si atom -12399.835390 kJ/mol
# Density = 2.154147 g / cm^3
# Si number density = 21.590615 Si / 1000 Ang^3
#
#
#
# Elastic Constant Matrix: (Units=GPa)
#
#
# Indices 1 2 3 4 5 6 
#
# 1 132.4967 39.6406 32.2690 0.0000 4.8676 0.0000
# 2 39.6406 74.5821 28.8351 0.0000 5.8276 0.0000
# 3 32.2690 28.8351 61.9110 0.0000 3.3164 0.0000
# 4 0.0000 0.0000 0.0000 5.1409 0.0000 6.1624
# 5 4.8676 5.8276 3.3164 0.0000 39.6185 0.0000
# 6 0.0000 0.0000 0.0000 6.1624 0.0000 29.2077
#
#
#
# Elastic Compliance Matrix: (Units=1/GPa)
#
#
# Indices 1 2 3 4 5 6 
#
# 1 0.009459 -0.003783 -0.003150 0.000000 -0.000342 0.000000
# 2 -0.003783 0.017991 -0.006319 0.000000 -0.001653 0.000000
# 3 -0.003150 -0.006319 0.020760 0.000000 -0.000421 0.000000
# 4 0.000000 0.000000 0.000000 0.260370 0.000000 -0.054935
# 5 -0.000342 -0.001653 -0.000421 0.000000 0.025561 0.000000
# 6 0.000000 0.000000 0.000000 -0.054935 0.000000 0.045828
#
#
# Mechanical properties :
#
#
# Convention : Reuss Voigt Hill
#
# Bulk Modulus (GPa) = 46.07075 52.27547 49.17311
# Shear Modulus (GPa) = 12.08583 26.00974 19.04779
#
# Velocity S-wave (km/s) = 2.36852 3.47461 2.97345
# Velocity P-wave (km/s) = 5.37257 6.35310 5.88330
#
# Compressibility (1/GPa) = 0.02170575
#
# Stress axis : x y z
#
# Youngs Moduli (GPa) = 105.72128 55.58374 48.17028
#
# Poissons Ratio (x) = 0.21027 0.15173
# Poissons Ratio (y) = 0.39993 0.30439
# Poissons Ratio (z) = 0.33301 0.35124
#
# Static dielectric constant tensor:
#      x y z
#    x 4.289270 0.000000 0.083850 
#    y 0.000000 3.547210 0.000000 
#    z 0.083850 0.000000 3.849640 
# 
# 
# High freq. dielectric constant tensor:
#      x y z
#    x 1.869020 0.000000 0.000110 
#    y 0.000000 1.821020 0.000000 
#    z 0.000110 0.000000 1.848680 
# 
# From -- ./inp_files/89563.got.cif
#   From: 2010.06.25/outbox.cif.g09.slc.cpg/sg10_45_cif.got.tgz:89563.got - 2010.06.27 22:07:45.
