data_PCOD8064921
_publ_section_title
;
Structure prediction by ZEFSAII (Michael W. Deem and Ramdas Pophale) SiO2 
 PCOD8064921
Probable space group: P 2/M
;
_chemical_formula_sum "Si O2"
_cell_formula_units_Z 26
_cell_length_a 20.918184
_cell_length_b 9.650125
_cell_length_c 7.562414
_cell_angle_alpha 90.000000
_cell_angle_beta 122.545230
_cell_angle_gamma 90.000000
_cell_volume 1286.850088
_symmetry_space_group_name_H-M "P 2/M"
_symmetry_group_IT_number 10
_symmetry_cell_setting 'monoclinic'
loop_
_space_group_symop_operation_xyz
x,y,z
-x,y,-z
-x,-y,-z
x,-y,z
loop_
_atom_site_type_symbol
_atom_site_label
_atom_site_fract_x
_atom_site_fract_y
_atom_site_fract_z
Si Si1 0.441711 0.345764 0.266905
Si Si2 0.341068 0.154827 0.653085
Si Si3 0.316831 0.838892 0.212036
Si Si4 0.179292 0.657055 0.909796
Si Si5 0.500000 0.744837 0.000000
Si Si6 0.917992 0.340244 0.911727
Si Si7 0.796621 0.339193 0.452718
O O1 0.500000 0.292049 0.500000
O O2 0.411784 0.500000 0.268681
O O3 0.372665 0.237586 0.158075
O O4 0.483978 0.352686 0.142862
O O5 0.345800 0.187789 0.452484
O O6 0.425892 0.162161 0.855524
O O7 0.283609 0.259811 0.663763
O O8 0.309819 0.000000 0.637839
O O9 0.313051 0.000000 0.155402
O O10 0.235339 0.770805 0.070559
O O11 0.210625 0.500000 0.985633
O O12 0.163577 0.682098 0.679116
O O13 0.102990 0.677333 0.912401
O O14 0.924148 0.500000 0.864783
O O15 0.853275 0.276592 0.685853
O O16 0.000000 0.268620 0.000000
O O17 0.777913 0.500000 0.460688
#
# Coordination Sequence:
#
# PCOD8064921 Si02
#       7
#     4   4   4   4   2   4   4
#     4  11  24  41  60  84 113 148 190 242 296 348
#     4  11  24  40  61  86 116 156 200 246 296 350
#     4  11  23  40  61  85 114 155 199 243 293 349
#     4  10  20  36  60  88 117 154 195 238 287 345
#     4  12  24  42  62  88 114 154 198 248 296 352
#     4   9  18  34  58  90 125 156 188 236 292 344
#     4  10  21  37  61  89 118 155 198 240 289 350
#
# _framework density 20.204376
#
# number of rings (size 3 to 8) (size 9 to 14) (size 15 to 20)
#    0.000    1.538    3.077    1.846    0.000    7.077 
#    0.000    3.077    0.000    1.846    0.000    2.154 
#    0.000    0.000    0.000    0.000    0.000    0.000 
#
# Total GULP energy -322399.654459 kJ/mol
# GULP energy per Si atom -12399.986710 kJ/mol
# Density = 2.015839 g / cm^3
# Si number density = 20.204376 Si / 1000 Ang^3
#
#
#
# Elastic Constant Matrix: (Units=GPa)
#
#
# Indices 1 2 3 4 5 6 
#
# 1 143.4677 45.3043 51.3926 0.0000 -2.2574 0.0000
# 2 45.3043 86.2924 22.9776 0.0000 5.5927 0.0000
# 3 51.3926 22.9776 89.5938 0.0000 -2.5700 0.0000
# 4 0.0000 0.0000 0.0000 9.7421 0.0000 3.2359
# 5 -2.2574 5.5927 -2.5700 0.0000 37.6308 0.0000
# 6 0.0000 0.0000 0.0000 3.2359 0.0000 3.1196
#
#
#
# Elastic Compliance Matrix: (Units=1/GPa)
#
#
# Indices 1 2 3 4 5 6 
#
# 1 0.009915 -0.004030 -0.004629 0.000000 0.000878 0.000000
# 2 -0.004030 0.014239 -0.001411 0.000000 -0.002454 0.000000
# 3 -0.004629 -0.001411 0.014204 0.000000 0.000902 0.000000
# 4 0.000000 0.000000 0.000000 0.156606 0.000000 -0.162447
# 5 0.000878 -0.002454 0.000902 0.000000 0.027053 0.000000
# 6 0.000000 0.000000 0.000000 -0.162447 0.000000 0.489059
#
#
# Mechanical properties :
#
#
# Convention : Reuss Voigt Hill
#
# Bulk Modulus (GPa) = 54.88527 62.07809 58.48168
# Shear Modulus (GPa) = 6.78162 23.41046 15.09604
#
# Velocity S-wave (km/s) = 1.83407 3.40764 2.73640
# Velocity P-wave (km/s) = 5.63108 6.80253 6.24434
#
# Compressibility (1/GPa) = 0.01821982
#
# Stress axis : x y z
#
# Youngs Moduli (GPa) = 100.86237 70.23068 70.40193
#
# Poissons Ratio (x) = 0.28300 0.32586
# Poissons Ratio (y) = 0.40644 0.09932
# Poissons Ratio (z) = 0.46684 0.09907
#
# Static dielectric constant tensor:
#      x y z
#    x 3.732330 0.000000 -0.130290 
#    y 0.000000 3.393570 0.000000 
#    z -0.130290 0.000000 3.755670 
# 
# 
# High freq. dielectric constant tensor:
#      x y z
#    x 1.793540 0.000000 -0.016810 
#    y 0.000000 1.762850 0.000000 
#    z -0.016810 0.000000 1.788740 
# 
# From -- ./inp_files/34293.got.cif
#   From: 2010.06.25/outbox.cif.g09.slc.cpg/sg10_18_cif.got.tgz:34293.got - 2010.06.27 22:07:45.
