data_PCOD8064966
_publ_section_title
;
Structure prediction by ZEFSAII (Michael W. Deem and Ramdas Pophale) SiO2 
 PCOD8064966
Probable space group: P 2/M
;
_chemical_formula_sum "Si O2"
_cell_formula_units_Z 32
_cell_length_a 19.834985
_cell_length_b 13.828383
_cell_length_c 9.168749
_cell_angle_alpha 90.000000
_cell_angle_beta 142.363390
_cell_angle_gamma 90.000000
_cell_volume 1535.700886
_symmetry_space_group_name_H-M "P 2/M"
_symmetry_group_IT_number 10
_symmetry_cell_setting 'monoclinic'
loop_
_space_group_symop_operation_xyz
x,y,z
-x,y,-z
-x,-y,-z
x,-y,z
loop_
_atom_site_type_symbol
_atom_site_label
_atom_site_fract_x
_atom_site_fract_y
_atom_site_fract_z
Si Si1 0.835713 0.610435 0.512525
Si Si2 0.989330 0.780535 0.818447
Si Si3 0.725611 0.390133 0.029234
Si Si4 0.782905 0.788185 0.959157
Si Si5 0.429764 0.894366 0.521065
Si Si6 0.610445 0.386959 0.265081
Si Si7 0.113412 0.892421 0.607035
Si Si8 0.497311 0.303846 0.319834
O O1 0.856636 0.500000 0.597320
O O2 0.943098 0.671201 0.742819
O O3 0.823264 0.615987 0.315519
O O4 0.726425 0.654817 0.404003
O O5 0.902569 0.844788 0.578779
O O6 0.108716 0.786467 0.951740
O O7 0.000000 0.821736 0.000000
O O8 0.711070 0.500000 0.948411
O O9 0.746761 0.322667 0.924926
O O10 0.615362 0.354761 0.925192
O O11 0.798947 0.833220 0.147604
O O12 0.690999 0.850949 0.720397
O O13 0.500000 0.915998 0.500000
O O14 0.495010 0.809229 0.719430
O O15 0.417915 0.000000 0.581818
O O16 0.613589 0.500000 0.240345
O O17 0.598784 0.360910 0.417268
O O18 0.500000 0.341556 0.000000
O O19 0.000000 0.894673 0.500000
O O20 0.159743 0.000000 0.662592
O O21 0.500000 0.310642 0.500000
#
# Coordination Sequence:
#
# PCOD8064966 Si02
#       8
#     4   4   4   4   4   4   4   4
#     4  10  22  40  61  85 122 168 209 244 295 367
#     4  11  25  39  60  86 125 158 201 256 309 357
#     4  11  21  36  61  93 122 153 203 257 298 351
#     4  11  21  41  61  90 117 163 206 247 299 363
#     4  10  21  38  61  91 124 155 191 242 307 364
#     4  10  20  36  61  88 118 162 201 239 298 363
#     4   9  19  38  64  86 107 147 204 254 296 354
#     4  11  21  36  58  94 124 153 194 249 303 351
#
# _framework density 20.837391
#
# number of rings (size 3 to 8) (size 9 to 14) (size 15 to 20)
#    0.000    1.625    5.000    0.750    1.750    2.500 
#    0.000    1.250    0.000    0.375    0.000    0.000 
#    0.000    0.000    0.000    0.000    0.000    0.000 
#
# Total GULP energy -396579.296302 kJ/mol
# GULP energy per Si atom -12393.103009 kJ/mol
# Density = 2.078996 g / cm^3
# Si number density = 20.837391 Si / 1000 Ang^3
#
#
#
# Elastic Constant Matrix: (Units=GPa)
#
#
# Indices 1 2 3 4 5 6 
#
# 1 88.5902 27.0665 20.0579 0.0000 3.0799 0.0000
# 2 27.0665 120.4785 38.6219 0.0000 5.0206 0.0000
# 3 20.0579 38.6219 57.1212 0.0000 -1.2944 0.0000
# 4 0.0000 0.0000 0.0000 37.7869 0.0000 11.5807
# 5 3.0799 5.0206 -1.2944 0.0000 30.9094 0.0000
# 6 0.0000 0.0000 0.0000 11.5807 0.0000 28.4754
#
#
#
# Elastic Compliance Matrix: (Units=1/GPa)
#
#
# Indices 1 2 3 4 5 6 
#
# 1 0.012598 -0.001734 -0.003277 0.000000 -0.001111 0.000000
# 2 -0.001734 0.010964 -0.006847 0.000000 -0.001895 0.000000
# 3 -0.003277 -0.006847 0.023342 0.000000 0.002416 0.000000
# 4 0.000000 0.000000 0.000000 0.030232 0.000000 -0.012295
# 5 -0.001111 -0.001895 0.002416 0.000000 0.032872 0.000000
# 6 0.000000 0.000000 0.000000 -0.012295 0.000000 0.040118
#
#
# Mechanical properties :
#
#
# Convention : Reuss Voigt Hill
#
# Bulk Modulus (GPa) = 43.12510 48.63139 45.87824
# Shear Modulus (GPa) = 27.53741 31.46390 29.50065
#
# Velocity S-wave (km/s) = 3.63924 3.89005 3.76673
# Velocity P-wave (km/s) = 6.19675 6.60044 6.40178
#
# Compressibility (1/GPa) = 0.02318835
#
# Stress axis : x y z
#
# Youngs Moduli (GPa) = 79.37699 91.21041 42.84175
#
# Poissons Ratio (x) = 0.15811 0.14039
# Poissons Ratio (y) = 0.13760 0.29335
# Poissons Ratio (z) = 0.26011 0.62454
#
# Static dielectric constant tensor:
#      x y z
#    x 3.613230 0.000000 0.114970 
#    y 0.000000 4.030410 0.000000 
#    z 0.114970 0.000000 3.728720 
# 
# 
# High freq. dielectric constant tensor:
#      x y z
#    x 1.800140 0.000000 0.011520 
#    y 0.000000 1.817120 0.000000 
#    z 0.011520 0.000000 1.801620 
# 
# From -- ./inp_files/35138.got.cif
#   From: 2010.06.25/outbox.cif.g09.slc.cpg/sg10_18_cif.got.tgz:35138.got - 2010.06.27 22:07:45.
