data_PCOD8064342
_publ_section_title
;
Structure prediction by ZEFSAII (Michael W. Deem and Ramdas Pophale) SiO2 
 PCOD8064342
Probable space group: P 2/M
;
_chemical_formula_sum "Si O2"
_cell_formula_units_Z 22
_cell_length_a 8.563427
_cell_length_b 14.141823
_cell_length_c 9.119225
_cell_angle_alpha 90.000000
_cell_angle_beta 80.398829
_cell_angle_gamma 90.000000
_cell_volume 1088.891472
_symmetry_space_group_name_H-M "P 2/M"
_symmetry_group_IT_number 10
_symmetry_cell_setting 'monoclinic'
loop_
_space_group_symop_operation_xyz
x,y,z
-x,y,-z
-x,-y,-z
x,-y,z
loop_
_atom_site_type_symbol
_atom_site_label
_atom_site_fract_x
_atom_site_fract_y
_atom_site_fract_z
Si Si1 0.957873 0.605906 0.836366
Si Si2 0.776442 0.741357 0.260819
Si Si3 0.648782 0.894079 0.757555
Si Si4 0.009578 0.105347 0.657358
Si Si5 0.500000 0.802996 0.500000
Si Si6 0.336809 0.720473 0.046898
O O1 0.936092 0.500000 0.777891
O O2 0.793566 0.663353 0.837797
O O3 0.102393 0.654917 0.725292
O O4 0.000000 0.602818 0.000000
O O5 0.869047 0.839427 0.260497
O O6 0.625854 0.736270 0.393719
O O7 0.731238 0.744946 0.099573
O O8 0.594228 0.868272 0.600860
O O9 0.595820 0.813548 0.879162
O O10 0.836465 0.895705 0.752108
O O11 0.582672 0.000000 0.804054
O O12 0.000000 0.154987 0.500000
O O13 0.079913 0.000000 0.629779
O O14 0.500000 0.659452 0.000000
#
# Coordination Sequence:
#
# PCOD8064342 Si02
#       6
#     4   4   4   4   2   4
#     4   9  20  40  65  89 116 152 195 246 305 364
#     4  11  22  38  62  87 120 157 200 248 298 349
#     4  11  23  38  57  87 125 164 203 242 289 348
#     4  10  20  35  57  83 116 162 207 241 283 352
#     4  12  23  38  59  86 122 170 199 242 287 354
#     4  11  22  39  61  92 122 152 196 251 301 347
#
# _framework density 20.204032999999999
#
# number of rings (size 3 to 8) (size 9 to 14) (size 15 to 20)
#    0.000    1.455    5.455    0.273    0.000    2.182 
#    0.000    2.273    0.000    4.909    0.000    0.000 
#    0.000    0.000    0.000    0.000    0.000    0.000 
#
# Total GULP energy -272645.819716 kJ/mol
# GULP energy per Si atom -12392.991805 kJ/mol
# Density = 2.015805 g / cm^3
# Si number density = 20.204033 Si / 1000 Ang^3
#
#
#
# Elastic Constant Matrix: (Units=GPa)
#
#
# Indices 1 2 3 4 5 6 
#
# 1 121.4210 53.9574 36.5600 0.0000 -13.5427 0.0000
# 2 53.9574 125.3449 40.1998 0.0000 -8.0781 0.0000
# 3 36.5600 40.1998 70.9993 0.0000 -3.2486 0.0000
# 4 0.0000 0.0000 0.0000 14.1298 0.0000 -0.2484
# 5 -13.5427 -8.0781 -3.2486 0.0000 38.2378 0.0000
# 6 0.0000 0.0000 0.0000 -0.2484 0.0000 11.1109
#
#
#
# Elastic Compliance Matrix: (Units=1/GPa)
#
#
# Indices 1 2 3 4 5 6 
#
# 1 0.011206 -0.003455 -0.003680 0.000000 0.002926 0.000000
# 2 -0.003455 0.010911 -0.004366 0.000000 0.000711 0.000000
# 3 -0.003680 -0.004366 0.018422 0.000000 -0.000661 0.000000
# 4 0.000000 0.000000 0.000000 0.070800 0.000000 0.001583
# 5 0.002926 0.000711 -0.000661 0.000000 0.027282 0.000000
# 6 0.000000 0.000000 0.000000 0.001583 0.000000 0.090037
#
#
# Mechanical properties :
#
#
# Convention : Reuss Voigt Hill
#
# Bulk Modulus (GPa) = 57.02624 64.35550 60.69087
# Shear Modulus (GPa) = 19.41700 25.16558 22.29129
#
# Velocity S-wave (km/s) = 3.10344 3.53310 3.32521
# Velocity P-wave (km/s) = 6.41313 6.96890 6.69678
#
# Compressibility (1/GPa) = 0.01753579
#
# Stress axis : x y z
#
# Youngs Moduli (GPa) = 89.24178 91.64753 54.28373
#
# Poissons Ratio (x) = 0.31662 0.19977
# Poissons Ratio (y) = 0.30831 0.23703
# Poissons Ratio (z) = 0.32842 0.40018
#
# Static dielectric constant tensor:
#      x y z
#    x 4.025240 0.000000 -0.110220 
#    y 0.000000 3.725910 0.000000 
#    z -0.110220 0.000000 3.576350 
# 
# 
# High freq. dielectric constant tensor:
#      x y z
#    x 1.809490 0.000000 -0.006450 
#    y 0.000000 1.763590 0.000000 
#    z -0.006450 0.000000 1.773910 
# 
# From -- ./inp_files/18766.got.cif
#   From: 2010.06.25/outbox.cif.g09.slc.cpg/sg10_10_cif.got.tgz:18766.got - 2010.06.27 22:07:45.
