data_PCOD8064980
_publ_section_title
;
Structure prediction by ZEFSAII (Michael W. Deem and Ramdas Pophale) SiO2 
 PCOD8064980
Probable space group: P 2/M
;
_chemical_formula_sum "Si O2"
_cell_formula_units_Z 28
_cell_length_a 14.905100
_cell_length_b 11.398296
_cell_length_c 9.931687
_cell_angle_alpha 90.000000
_cell_angle_beta 60.837501
_cell_angle_gamma 90.000000
_cell_volume 1473.438685
_symmetry_space_group_name_H-M "P 2/M"
_symmetry_group_IT_number 10
_symmetry_cell_setting 'monoclinic'
loop_
_space_group_symop_operation_xyz
x,y,z
-x,y,-z
-x,-y,-z
x,-y,z
loop_
_atom_site_type_symbol
_atom_site_label
_atom_site_fract_x
_atom_site_fract_y
_atom_site_fract_z
Si Si1 0.771156 0.752763 0.888746
Si Si2 0.459441 0.000000 0.238140
Si Si3 0.115890 0.365039 0.430671
Si Si4 0.557295 0.637556 0.088023
Si Si5 0.558929 0.239412 0.595644
Si Si6 0.887049 0.364045 0.034531
Si Si7 0.328292 0.000000 0.066788
Si Si8 0.235370 0.367290 0.608619
O O1 0.805964 0.710879 0.715934
O O2 0.746436 0.890079 0.901565
O O3 0.671222 0.685286 0.012498
O O4 0.860038 0.721673 0.930606
O O5 0.438767 0.888182 0.343455
O O6 0.378003 0.000000 0.177388
O O7 0.578176 0.000000 0.106915
O O8 0.123380 0.500000 0.377386
O O9 0.145745 0.350664 0.564542
O O10 0.000000 0.317920 0.500000
O O11 0.563003 0.500000 0.068032
O O12 0.495796 0.668433 0.266647
O O13 0.500000 0.694030 0.000000
O O14 0.500000 0.237454 0.500000
O O15 0.675031 0.277059 0.486959
O O16 0.882786 0.500000 0.990638
O O17 0.808893 0.339796 0.212663
O O18 0.000000 0.329991 0.000000
O O19 0.278430 0.500000 0.570856
#
# Coordination Sequence:
#
# PCOD8064980 Si02
#       8
#     4   2   4   4   4   4   2   4
#     4  12  22  38  61  88 115 156 206 246 291 350
#     4  11  23  44  60  82 115 160 208 252 288 355
#     4  10  20  36  61  90 118 149 191 245 300 356
#     4  11  22  36  58  88 122 159 198 245 304 366
#     4  12  24  38  58  86 120 156 196 245 298 360
#     4  10  21  39  63  90 122 158 196 240 296 361
#     4  11  24  40  66  84 112 158 210 256 295 335
#     4  10  21  36  55  86 123 154 185 235 302 358
#
# _framework density 19.003166
#
# number of rings (size 3 to 8) (size 9 to 14) (size 15 to 20)
#    0.000    1.143    1.429    6.214    0.000    6.857 
#    0.000    0.714    0.000    1.714    0.000    0.000 
#    0.000    0.000    0.000    0.000    0.000    0.000 
#
# Total GULP energy -347358.024948 kJ/mol
# GULP energy per Si atom -12405.643748 kJ/mol
# Density = 1.895991 g / cm^3
# Si number density = 19.003166 Si / 1000 Ang^3
#
#
#
# Elastic Constant Matrix: (Units=GPa)
#
#
# Indices 1 2 3 4 5 6 
#
# 1 96.8641 35.0789 15.9847 0.0000 7.3411 0.0000
# 2 35.0789 82.0566 21.7111 0.0000 6.9073 0.0000
# 3 15.9847 21.7111 63.8117 0.0000 10.1533 0.0000
# 4 0.0000 0.0000 0.0000 -22.4279 0.0000 1.6778
# 5 7.3411 6.9073 10.1533 0.0000 36.9570 0.0000
# 6 0.0000 0.0000 0.0000 1.6778 0.0000 7.5761
#
#
#
# Elastic Compliance Matrix: (Units=1/GPa)
#
#
# Indices 1 2 3 4 5 6 
#
# 1 0.012382 -0.004859 -0.001256 0.000000 -0.001206 0.000000
# 2 -0.004859 0.015360 -0.003875 0.000000 -0.000841 0.000000
# 3 -0.001256 -0.003875 0.017933 0.000000 -0.003953 0.000000
# 4 0.000000 0.000000 0.000000 -0.043861 0.000000 0.009713
# 5 -0.001206 -0.000841 -0.003953 0.000000 0.028541 0.000000
# 6 0.000000 0.000000 0.000000 0.009713 0.000000 0.129843
#
#
# Mechanical properties :
#
#
# Convention : Reuss Voigt Hill
#
# Bulk Modulus (GPa) = 38.91971 43.14242 41.03107
# Shear Modulus (GPa) = 26.49069 15.75155 21.12112
#
# Velocity S-wave (km/s) = 3.73770 2.88217 3.33746
# Velocity P-wave (km/s) = 6.25718 5.81618 6.04070
#
# Compressibility (1/GPa) = 0.02569392
#
# Stress axis : x y z
#
# Youngs Moduli (GPa) = 80.76038 65.10347 55.76234
#
# Poissons Ratio (x) = 0.31636 0.07006
# Poissons Ratio (y) = 0.39245 0.21608
# Poissons Ratio (z) = 0.10147 0.25228
#
# Static dielectric constant tensor:
#      x y z
#    x 3.577120 0.000000 0.067720 
#    y 0.000000 3.286840 0.000000 
#    z 0.067720 0.000000 3.610160 
# 
# 
# High freq. dielectric constant tensor:
#      x y z
#    x 1.749500 0.000000 0.005140 
#    y 0.000000 1.723940 0.000000 
#    z 0.005140 0.000000 1.751770 
# 
# From -- ./inp_files/28534.got.cif
#   From: 2010.06.25/outbox.cif.g09.slc.cpg/sg10_15_cif.got.tgz:28534.got - 2010.06.27 22:07:45.
