data_PCOD8064744
_publ_section_title
;
Structure prediction by ZEFSAII (Michael W. Deem and Ramdas Pophale) SiO2 
 PCOD8064744
Probable space group: P 2/M
;
_chemical_formula_sum "Si O2"
_cell_formula_units_Z 28
_cell_length_a 25.206604
_cell_length_b 9.332362
_cell_length_c 9.847497
_cell_angle_alpha 90.000000
_cell_angle_beta 139.930224
_cell_angle_gamma 90.000000
_cell_volume 1491.175640
_symmetry_space_group_name_H-M "P 2/M"
_symmetry_group_IT_number 10
_symmetry_cell_setting 'monoclinic'
loop_
_space_group_symop_operation_xyz
x,y,z
-x,y,-z
-x,-y,-z
x,-y,z
loop_
_atom_site_type_symbol
_atom_site_label
_atom_site_fract_x
_atom_site_fract_y
_atom_site_fract_z
Si Si1 0.807050 0.666222 0.852695
Si Si2 0.856939 0.166980 0.469068
Si Si3 0.563520 0.667054 0.739065
Si Si4 0.434128 0.167343 0.985490
Si Si5 0.263902 0.165407 0.526440
Si Si6 0.751031 0.666087 0.044610
Si Si7 0.990853 0.667495 0.139013
O O1 0.796277 0.500000 0.797978
O O2 0.747225 0.749815 0.634403
O O3 0.780144 0.704385 0.951120
O O4 0.901289 0.713419 0.016143
O O5 0.814156 0.191969 0.530250
O O6 0.801700 0.234731 0.244322
O O7 0.945205 0.243460 0.645107
O O8 0.868630 0.000000 0.460036
O O9 0.500000 0.718635 0.500000
O O10 0.553042 0.500000 0.748890
O O11 0.540160 0.750248 0.829228
O O12 0.655166 0.704452 0.868957
O O13 0.345141 0.222703 0.761455
O O14 0.431539 0.000000 0.014829
O O15 0.500000 0.204492 0.000000
O O16 0.275148 0.000000 0.510519
O O17 0.767970 0.500000 0.112658
O O18 0.008433 0.500000 0.196203
O O19 0.000000 0.709901 0.000000
#
# Coordination Sequence:
#
# PCOD8064744 Si02
#       7
#     4   4   4   4   4   4   4
#     4  10  22  38  59  86 114 150 194 237 283 340
#     4  11  22  37  60  85 114 152 192 235 283 338
#     4  10  22  39  59  86 118 150 189 237 286 337
#     4  10  22  40  60  86 118 152 192 233 280 340
#     4  10  21  37  57  84 116 149 189 236 282 333
#     4  10  22  40  59  82 116 155 191 232 285 341
#     4  10  20  36  58  85 115 148 191 237 285 340
#
# _framework density 18.77713
#
# number of rings (size 3 to 8) (size 9 to 14) (size 15 to 20)
#    0.000    1.857    2.857    0.429    2.000    3.714 
#    0.000    2.857    0.000    0.000    0.000    0.000 
#    0.000    0.000    0.000    0.000    0.000    0.000 
#
# Total GULP energy -347359.517388 kJ/mol
# GULP energy per Si atom -12405.697050 kJ/mol
# Density = 1.873439 g / cm^3
# Si number density = 18.777130 Si / 1000 Ang^3
#
#
#
# Elastic Constant Matrix: (Units=GPa)
#
#
# Indices 1 2 3 4 5 6 
#
# 1 104.6340 43.8521 55.2012 0.0000 -2.6297 0.0000
# 2 43.8521 70.1783 72.2061 0.0000 -8.0990 0.0000
# 3 55.2012 72.2061 149.4520 0.0000 4.5026 0.0000
# 4 0.0000 0.0000 0.0000 23.1479 0.0000 3.0043
# 5 -2.6297 -8.0990 4.5026 0.0000 23.3209 0.0000
# 6 0.0000 0.0000 0.0000 3.0043 0.0000 12.8668
#
#
#
# Elastic Compliance Matrix: (Units=1/GPa)
#
#
# Indices 1 2 3 4 5 6 
#
# 1 0.013183 -0.006553 -0.001689 0.000000 -0.000463 0.000000
# 2 -0.006553 0.035788 -0.015312 0.000000 0.014646 0.000000
# 3 -0.001689 -0.015312 0.014966 0.000000 -0.008397 0.000000
# 4 0.000000 0.000000 0.000000 0.044550 0.000000 -0.010402
# 5 -0.000463 0.014646 -0.008397 0.000000 0.049535 0.000000
# 6 0.000000 0.000000 0.000000 -0.010402 0.000000 0.080148
#
#
# Mechanical properties :
#
#
# Convention : Reuss Voigt Hill
#
# Bulk Modulus (GPa) = 59.41997 74.08701 66.75349
# Shear Modulus (GPa) = 17.18869 22.06747 19.62808
#
# Velocity S-wave (km/s) = 3.02885 3.43188 3.23665
# Velocity P-wave (km/s) = 6.62914 7.43273 7.04240
#
# Compressibility (1/GPa) = 0.01682936
#
# Stress axis : x y z
#
# Youngs Moduli (GPa) = 75.85492 27.94194 66.81929
#
# Poissons Ratio (x) = 0.18310 0.11288
# Poissons Ratio (y) = 0.49708 1.02312
# Poissons Ratio (z) = 0.12814 0.42784
#
# Static dielectric constant tensor:
#      x y z
#    x 3.589810 0.000000 0.136480 
#    y 0.000000 3.350030 0.000000 
#    z 0.136480 0.000000 3.446050 
# 
# 
# High freq. dielectric constant tensor:
#      x y z
#    x 1.734620 0.000000 0.005110 
#    y 0.000000 1.723370 0.000000 
#    z 0.005110 0.000000 1.738350 
# 
# From -- ./inp_files/37005.got.cif
#   From: 2010.06.25/outbox.cif.g09.slc.cpg/sg10_19_cif.got.tgz:37005.got - 2010.06.27 22:07:45.
