data_PCOD8064671
_publ_section_title
;
Structure prediction by ZEFSAII (Michael W. Deem and Ramdas Pophale) SiO2 
 PCOD8064671
Probable space group: P 2/M
;
_chemical_formula_sum "Si O2"
_cell_formula_units_Z 28
_cell_length_a 9.820240
_cell_length_b 11.051514
_cell_length_c 16.931777
_cell_angle_alpha 90.000000
_cell_angle_beta 54.564884
_cell_angle_gamma 90.000000
_cell_volume 1497.210415
_symmetry_space_group_name_H-M "P 2/M"
_symmetry_group_IT_number 10
_symmetry_cell_setting 'monoclinic'
loop_
_space_group_symop_operation_xyz
x,y,z
-x,y,-z
-x,-y,-z
x,-y,z
loop_
_atom_site_type_symbol
_atom_site_label
_atom_site_fract_x
_atom_site_fract_y
_atom_site_fract_z
Si Si1 0.750366 0.362254 0.798684
Si Si2 0.098754 0.255956 0.100101
Si Si3 0.410285 0.747200 0.879247
Si Si4 0.016362 0.357828 0.582007
Si Si5 0.553092 0.000000 0.072809
Si Si6 0.246181 0.360634 0.787491
Si Si7 0.059303 0.000000 0.068439
Si Si8 0.681029 0.643885 0.414271
O O1 0.789852 0.500000 0.810248
O O2 0.821252 0.274493 0.841573
O O3 0.551639 0.348937 0.855828
O O4 0.844750 0.329090 0.685785
O O5 0.952359 0.350531 0.129248
O O6 0.008380 0.123498 0.130008
O O7 0.245356 0.271056 0.987133
O O8 0.498310 0.878881 0.862031
O O9 0.356233 0.724620 0.807364
O O10 0.045231 0.500000 0.564038
O O11 0.176149 0.303056 0.575298
O O12 0.000000 0.299618 0.500000
O O13 0.500000 0.000000 0.000000
O O14 0.746708 0.000000 0.003046
O O15 0.299675 0.500000 0.782102
O O16 0.281047 0.314092 0.687398
O O17 0.000000 0.000000 0.000000
O O18 0.500000 0.695108 0.500000
O O19 0.683612 0.500000 0.417375
#
# Coordination Sequence:
#
# PCOD8064671 Si02
#       8
#     4   4   4   4   2   4   2   4
#     4  11  22  35  52  82 117 144 179 219 270 340
#     4  11  21  37  55  76 110 149 184 226 270 312
#     4  11  23  35  55  80 108 149 186 224 267 318
#     4   9  18  33  53  76 106 143 181 223 264 311
#     4  10  20  40  58  74 101 140 197 245 262 289
#     4  11  22  35  52  82 119 146 177 219 273 340
#     4  10  20  36  58  78  97 136 199 241 256 297
#     4   9  18  33  53  76 106 144 181 220 265 315
#
# _framework density 18.701445
#
# number of rings (size 3 to 8) (size 9 to 14) (size 15 to 20)
#    0.000    1.714    1.429    5.143    2.000    3.429 
#    0.000    0.000    0.000    0.000    0.000    6.000 
#    0.000    0.000    0.000    0.000    0.000    0.000 
#
# Total GULP energy -347100.735298 kJ/mol
# GULP energy per Si atom -12396.454832 kJ/mol
# Density = 1.865888 g / cm^3
# Si number density = 18.701445 Si / 1000 Ang^3
#
#
#
# Elastic Constant Matrix: (Units=GPa)
#
#
# Indices 1 2 3 4 5 6 
#
# 1 145.3579 36.5562 58.3697 0.0000 24.3552 0.0000
# 2 36.5562 54.8476 48.2070 0.0000 10.9721 0.0000
# 3 58.3697 48.2070 104.8776 0.0000 20.8528 0.0000
# 4 0.0000 0.0000 0.0000 5.6953 0.0000 8.3871
# 5 24.3552 10.9721 20.8528 0.0000 42.3208 0.0000
# 6 0.0000 0.0000 0.0000 8.3871 0.0000 27.8772
#
#
#
# Elastic Compliance Matrix: (Units=1/GPa)
#
#
# Indices 1 2 3 4 5 6 
#
# 1 0.009435 -0.002678 -0.003413 0.000000 -0.003054 0.000000
# 2 -0.002678 0.031398 -0.012893 0.000000 -0.000246 0.000000
# 3 -0.003413 -0.012893 0.018076 0.000000 -0.003600 0.000000
# 4 0.000000 0.000000 0.000000 0.315262 0.000000 -0.094849
# 5 -0.003054 -0.000246 -0.003600 0.000000 0.027224 0.000000
# 6 0.000000 0.000000 0.000000 -0.094849 0.000000 0.064408
#
#
# Mechanical properties :
#
#
# Convention : Reuss Voigt Hill
#
# Bulk Modulus (GPa) = 47.74996 65.70542 56.72769
# Shear Modulus (GPa) = 9.78947 25.97534 17.88241
#
# Velocity S-wave (km/s) = 2.29041 3.73090 3.09561
# Velocity P-wave (km/s) = 5.70814 7.33278 6.57086
#
# Compressibility (1/GPa) = 0.02094243
#
# Stress axis : x y z
#
# Youngs Moduli (GPa) = 105.98510 31.84885 55.32046
#
# Poissons Ratio (x) = 0.08529 0.18882
# Poissons Ratio (y) = 0.28381 0.71324
# Poissons Ratio (z) = 0.36174 0.41062
#
# Static dielectric constant tensor:
#      x y z
#    x 3.653700 0.000000 0.042830 
#    y 0.000000 2.713900 0.000000 
#    z 0.042830 0.000000 3.446800 
# 
# 
# High freq. dielectric constant tensor:
#      x y z
#    x 1.749270 0.000000 0.006540 
#    y 0.000000 1.687700 0.000000 
#    z 0.006540 0.000000 1.713620 
# 
# From -- ./inp_files/61172.got.cif
#   From: 2010.06.25/outbox.cif.g09.slc.cpg/sg10_31_cif.got.tgz:61172.got - 2010.06.27 22:07:45.
