data_PCOD8064088
_publ_section_title
;
Structure prediction by ZEFSAII (Michael W. Deem and Ramdas Pophale) SiO2 
 PCOD8064088
Probable space group: P 2/M
;
_chemical_formula_sum "Si O2"
_cell_formula_units_Z 28
_cell_length_a 14.875685
_cell_length_b 13.456739
_cell_length_c 7.860040
_cell_angle_alpha 90.000000
_cell_angle_beta 70.043013
_cell_angle_gamma 90.000000
_cell_volume 1478.924157
_symmetry_space_group_name_H-M "P 2/M"
_symmetry_group_IT_number 10
_symmetry_cell_setting 'monoclinic'
loop_
_space_group_symop_operation_xyz
x,y,z
-x,y,-z
-x,-y,-z
x,-y,z
loop_
_atom_site_type_symbol
_atom_site_label
_atom_site_fract_x
_atom_site_fract_y
_atom_site_fract_z
Si Si1 0.601085 0.307958 0.396767
Si Si2 0.739320 0.888278 0.785084
Si Si3 0.892672 0.271903 0.631831
Si Si4 0.103158 0.612799 0.015051
Si Si5 0.571419 0.787190 0.091214
Si Si6 0.588957 0.890400 0.601116
Si Si7 0.206080 0.615536 0.616416
O O1 0.500000 0.360878 0.500000
O O2 0.610127 0.302047 0.186782
O O3 0.597848 0.191576 0.449991
O O4 0.680086 0.368385 0.450052
O O5 0.839845 0.831459 0.702197
O O6 0.688376 0.887893 0.636808
O O7 0.762570 0.000000 0.831552
O O8 0.667877 0.836887 0.962873
O O9 0.891332 0.330541 0.810410
O O10 0.837961 0.331409 0.519012
O O11 0.000000 0.250780 0.500000
O O12 0.133410 0.500000 0.035719
O O13 0.169809 0.658330 0.821998
O O14 0.000000 0.618721 0.000000
O O15 0.503153 0.869924 0.221373
O O16 0.500000 0.736184 0.000000
O O17 0.576736 0.000000 0.527711
O O18 0.179498 0.500000 0.616843
#
# Coordination Sequence:
#
# PCOD8064088 Si02
#       7
#     4   4   4   4   4   4   4
#     4  10  20  35  55  82 118 152 188 230 282 342
#     4  10  20  35  54  81 117 151 188 231 280 341
#     4  12  23  38  64  87 113 151 193 237 292 342
#     4  10  21  38  61  89 114 139 185 246 297 337
#     4   9  18  32  55  82 111 151 190 235 282 329
#     4   9  17  31  53  82 112 145 190 235 277 329
#     4  11  23  40  61  87 116 148 191 239 293 343
#
# _framework density 18.932680999999999
#
# number of rings (size 3 to 8) (size 9 to 14) (size 15 to 20)
#    0.000    1.857    2.857    1.714    0.000    6.000 
#    0.000    0.000    0.000    0.857    0.000    0.000 
#    0.000    0.000    0.000    0.000    0.000    0.000 
#
# Total GULP energy -346933.260843 kJ/mol
# GULP energy per Si atom -12390.473602 kJ/mol
# Density = 1.888959 g / cm^3
# Si number density = 18.932681 Si / 1000 Ang^3
#
#
#
# Elastic Constant Matrix: (Units=GPa)
#
#
# Indices 1 2 3 4 5 6 
#
# 1 114.3801 33.4549 50.5536 0.0000 -2.3949 0.0000
# 2 33.4549 47.8152 34.4232 0.0000 -0.1127 0.0000
# 3 50.5536 34.4232 111.8996 0.0000 5.7790 0.0000
# 4 0.0000 0.0000 0.0000 13.3240 0.0000 -0.8349
# 5 -2.3949 -0.1127 5.7790 0.0000 34.4828 0.0000
# 6 0.0000 0.0000 0.0000 -0.8349 0.0000 12.3577
#
#
#
# Elastic Compliance Matrix: (Units=1/GPa)
#
#
# Indices 1 2 3 4 5 6 
#
# 1 0.012130 -0.005760 -0.003784 0.000000 0.001458 0.000000
# 2 -0.005760 0.029674 -0.006567 0.000000 0.000798 0.000000
# 3 -0.003784 -0.006567 0.012792 0.000000 -0.002428 0.000000
# 4 0.000000 0.000000 0.000000 0.075371 0.000000 0.005092
# 5 0.001458 0.000798 -0.002428 0.000000 0.029511 0.000000
# 6 0.000000 0.000000 0.000000 0.005092 0.000000 0.081265
#
#
# Mechanical properties :
#
#
# Convention : Reuss Voigt Hill
#
# Bulk Modulus (GPa) = 44.69490 56.77313 50.73402
# Shear Modulus (GPa) = 17.83021 22.41044 20.12032
#
# Velocity S-wave (km/s) = 3.07215 3.44421 3.26349
# Velocity P-wave (km/s) = 6.02019 6.77265 6.40747
#
# Compressibility (1/GPa) = 0.02237392
#
# Stress axis : x y z
#
# Youngs Moduli (GPa) = 82.43853 33.69974 78.17625
#
# Poissons Ratio (x) = 0.19411 0.29578
# Poissons Ratio (y) = 0.47484 0.51342
# Poissons Ratio (z) = 0.31191 0.22132
#
# Static dielectric constant tensor:
#      x y z
#    x 3.663490 0.000000 0.028310 
#    y 0.000000 3.258600 0.000000 
#    z 0.028310 0.000000 3.685680 
# 
# 
# High freq. dielectric constant tensor:
#      x y z
#    x 1.748830 0.000000 0.007940 
#    y 0.000000 1.706800 0.000000 
#    z 0.007940 0.000000 1.742770 
# 
# From -- ./inp_files/28209.got.cif
#   From: 2010.06.25/outbox.cif.g09.slc.cpg/sg10_15_cif.got.tgz:28209.got - 2010.06.27 22:07:45.
