data_PCOD8064278
_publ_section_title
;
Structure prediction by ZEFSAII (Michael W. Deem and Ramdas Pophale) SiO2 
 PCOD8064278
Probable space group: P 2/M
;
_chemical_formula_sum "Si O2"
_cell_formula_units_Z 32
_cell_length_a 27.263655
_cell_length_b 8.890234
_cell_length_c 21.141927
_cell_angle_alpha 90.000000
_cell_angle_beta 18.772686
_cell_angle_gamma 90.000000
_cell_volume 1649.101076
_symmetry_space_group_name_H-M "P 2/M"
_symmetry_group_IT_number 10
_symmetry_cell_setting 'monoclinic'
loop_
_space_group_symop_operation_xyz
x,y,z
-x,y,-z
-x,-y,-z
x,-y,z
loop_
_atom_site_type_symbol
_atom_site_label
_atom_site_fract_x
_atom_site_fract_y
_atom_site_fract_z
Si Si1 0.989018 0.821744 0.826319
Si Si2 0.119273 0.821406 0.903981
Si Si3 0.543892 0.820726 0.515050
Si Si4 0.333225 0.677133 0.223344
Si Si5 0.712806 0.178229 0.078965
Si Si6 0.167049 0.821907 0.314653
Si Si7 0.609921 0.178349 0.068272
Si Si8 0.300782 0.677838 0.407204
O O1 0.149037 0.739380 0.624312
O O2 0.016165 0.000000 0.790948
O O3 0.916922 0.768981 0.980702
O O4 0.874127 0.767502 0.910985
O O5 0.285192 0.764547 0.679135
O O6 0.112926 0.000000 0.909676
O O7 0.000000 0.750902 0.000000
O O8 0.500000 0.757822 0.500000
O O9 0.427989 0.754185 0.708643
O O10 0.535248 0.000000 0.525453
O O11 0.319801 0.500000 0.230606
O O12 0.207165 0.754966 0.333727
O O13 0.302616 0.728870 0.332043
O O14 0.500000 0.735442 0.000000
O O15 0.695901 0.231267 0.027212
O O16 0.706638 0.000000 0.091474
O O17 0.000000 0.762971 0.500000
O O18 0.168723 0.000000 0.317664
O O19 0.287944 0.764786 0.114925
O O20 0.444891 0.253441 0.267481
O O21 0.588483 0.000000 0.093468
O O22 0.308296 0.500000 0.404459
#
# Coordination Sequence:
#
# PCOD8064278 Si02
#       8
#     4   4   4   4   4   4   4   4
#     4  10  20  35  56  84 114 146 182 225 279 331
#     4   9  17  27  45  79 115 142 177 225 272 323
#     4   9  14  25  44  71 108 143 175 218 270 316
#     4  10  21  40  61  79 104 144 190 229 268 320
#     4   9  18  31  51  80 114 145 178 225 276 328
#     4  10  22  37  57  87 118 143 176 226 279 329
#     4  10  21  37  56  82 112 145 182 223 275 330
#     4  11  24  40  57  79 110 147 187 230 273 324
#
# _framework density 19.404510999999999
#
# number of rings (size 3 to 8) (size 9 to 14) (size 15 to 20)
#    0.000    2.250    2.500    0.375    3.500    1.500 
#    0.000    0.625    0.000    0.375    0.000    0.875 
#    0.000    0.000    0.000    0.000    0.000    0.000 
#
# Total GULP energy -396814.006464 kJ/mol
# GULP energy per Si atom -12400.437702 kJ/mol
# Density = 1.936035 g / cm^3
# Si number density = 19.404511 Si / 1000 Ang^3
#
#
#
# Elastic Constant Matrix: (Units=GPa)
#
#
# Indices 1 2 3 4 5 6 
#
# 1 123.9285 20.2201 31.2820 0.0000 -21.9589 0.0000
# 2 20.2201 19.5240 17.3194 0.0000 -2.4720 0.0000
# 3 31.2820 17.3194 111.6127 0.0000 -19.7400 0.0000
# 4 0.0000 0.0000 0.0000 10.7788 0.0000 2.4606
# 5 -21.9589 -2.4720 -19.7400 0.0000 39.5204 0.0000
# 6 0.0000 0.0000 0.0000 2.4606 0.0000 10.8185
#
#
#
# Elastic Compliance Matrix: (Units=1/GPa)
#
#
# Indices 1 2 3 4 5 6 
#
# 1 0.010736 -0.009976 -0.000566 0.000000 0.005058 0.000000
# 2 -0.009976 0.068699 -0.008868 0.000000 -0.005675 0.000000
# 3 -0.000566 -0.008868 0.011343 0.000000 0.004796 0.000000
# 4 0.000000 0.000000 0.000000 0.097856 0.000000 -0.022256
# 5 0.005058 -0.005675 0.004796 0.000000 0.030155 0.000000
# 6 0.000000 0.000000 0.000000 -0.022256 0.000000 0.097496
#
#
# Mechanical properties :
#
#
# Convention : Reuss Voigt Hill
#
# Bulk Modulus (GPa) = 19.24679 43.63425 31.44052
# Shear Modulus (GPa) = 13.42555 24.63977 19.03266
#
# Velocity S-wave (km/s) = 2.63321 3.56729 3.13523
# Velocity P-wave (km/s) = 4.38010 6.28513 5.41702
#
# Compressibility (1/GPa) = 0.05195672
#
# Stress axis : x y z
#
# Youngs Moduli (GPa) = 93.14344 14.55627 88.16293
#
# Poissons Ratio (x) = 0.14521 0.04993
# Poissons Ratio (y) = 0.92920 0.78183
# Poissons Ratio (z) = 0.05275 0.12909
#
# Static dielectric constant tensor:
#      x y z
#    x 3.774880 0.000000 -0.031260 
#    y 0.000000 2.982050 0.000000 
#    z -0.031260 0.000000 3.714850 
# 
# 
# High freq. dielectric constant tensor:
#      x y z
#    x 1.769270 0.000000 -0.004110 
#    y 0.000000 1.699580 0.000000 
#    z -0.004110 0.000000 1.768840 
# 
# From -- ./inp_files/86788.got.cif
#   From: 2010.06.25/outbox.cif.g09.slc.cpg/sg10_44_cif.got.tgz:86788.got - 2010.06.27 22:07:45.
