data_PCOD8064982
_publ_section_title
;
Structure prediction by ZEFSAII (Michael W. Deem and Ramdas Pophale) SiO2 
 PCOD8064982
Probable space group: P 2/M
;
_chemical_formula_sum "Si O2"
_cell_formula_units_Z 28
_cell_length_a 14.043430
_cell_length_b 8.526814
_cell_length_c 17.272065
_cell_angle_alpha 90.000000
_cell_angle_beta 43.455708
_cell_angle_gamma 90.000000
_cell_volume 1422.533143
_symmetry_space_group_name_H-M "P 2/M"
_symmetry_group_IT_number 10
_symmetry_cell_setting 'monoclinic'
loop_
_space_group_symop_operation_xyz
x,y,z
-x,y,-z
-x,-y,-z
x,-y,z
loop_
_atom_site_type_symbol
_atom_site_label
_atom_site_fract_x
_atom_site_fract_y
_atom_site_fract_z
Si Si1 0.575040 0.318957 0.270889
Si Si2 0.693154 0.317894 0.758658
Si Si3 0.651247 0.818738 0.380026
Si Si4 0.826890 0.818530 0.829503
Si Si5 0.118361 0.683486 0.649462
Si Si6 0.622028 0.319090 0.068427
Si Si7 0.278070 0.816851 0.418587
O O1 0.585409 0.500000 0.287890
O O2 0.659192 0.217813 0.283922
O O3 0.642515 0.287149 0.147473
O O4 0.414572 0.273333 0.365249
O O5 0.704303 0.500000 0.730244
O O6 0.777277 0.282313 0.785879
O O7 0.532890 0.271821 0.865823
O O8 0.757628 0.219989 0.649507
O O9 0.500000 0.772664 0.500000
O O10 0.761641 0.713861 0.359493
O O11 0.684961 0.000000 0.375685
O O12 0.979501 0.763922 0.763233
O O13 0.824477 0.000000 0.808446
O O14 0.727955 0.790784 0.960952
O O15 0.094231 0.500000 0.653795
O O16 0.152398 0.758423 0.545939
O O17 0.651524 0.500000 0.030268
O O18 0.302423 0.000000 0.416516
#
# Coordination Sequence:
#
# PCOD8064982 Si02
#       7
#     4   4   4   4   4   4   4
#     4  10  20  36  61  91 120 155 197 241 289 347
#     4  10  21  39  63  89 118 156 201 243 289 348
#     4  11  22  37  61  92 123 153 190 244 297 345
#     4  12  25  40  59  86 120 157 198 245 298 349
#     4  12  25  41  61  84 118 160 200 240 292 358
#     4   9  20  39  62  88 119 155 199 244 286 341
#     4  11  21  36  58  89 123 152 192 246 298 346
#
# _framework density 19.683197
#
# number of rings (size 3 to 8) (size 9 to 14) (size 15 to 20)
#    0.000    1.286    1.429    6.429    0.000    6.286 
#    0.000    3.571    0.000    4.286    0.000    0.000 
#    0.000    0.000    0.000    0.000    0.000    0.000 
#
# Total GULP energy -347391.824050 kJ/mol
# GULP energy per Si atom -12406.850859 kJ/mol
# Density = 1.963840 g / cm^3
# Si number density = 19.683197 Si / 1000 Ang^3
#
#
#
# Elastic Constant Matrix: (Units=GPa)
#
#
# Indices 1 2 3 4 5 6 
#
# 1 79.8847 22.9199 50.8034 0.0000 4.7522 0.0000
# 2 22.9199 69.2779 31.2928 0.0000 0.7088 0.0000
# 3 50.8034 31.2928 65.6526 0.0000 -0.2861 0.0000
# 4 0.0000 0.0000 0.0000 30.4721 0.0000 2.8547
# 5 4.7522 0.7088 -0.2861 0.0000 25.5625 0.0000
# 6 0.0000 0.0000 0.0000 2.8547 0.0000 30.9341
#
#
#
# Elastic Compliance Matrix: (Units=1/GPa)
#
#
# Indices 1 2 3 4 5 6 
#
# 1 0.025275 0.000679 -0.019903 0.000000 -0.004940 0.000000
# 2 0.000679 0.018423 -0.009310 0.000000 -0.000741 0.000000
# 3 -0.019903 -0.009310 0.035090 0.000000 0.004351 0.000000
# 4 0.000000 0.000000 0.000000 0.033103 0.000000 -0.003055
# 5 -0.004940 -0.000741 0.004351 0.000000 0.040108 0.000000
# 6 0.000000 0.000000 0.000000 -0.003055 0.000000 0.032609
#
#
# Mechanical properties :
#
#
# Convention : Reuss Voigt Hill
#
# Bulk Modulus (GPa) = 46.04242 47.20527 46.62384
# Shear Modulus (GPa) = 20.08724 24.71369 22.40046
#
# Velocity S-wave (km/s) = 3.19803 3.54725 3.37716
# Velocity P-wave (km/s) = 6.08926 6.38842 6.24063
#
# Compressibility (1/GPa) = 0.02171910
#
# Stress axis : x y z
#
# Youngs Moduli (GPa) = 39.56508 54.28076 28.49845
#
# Poissons Ratio (x) = -0.03685 0.56721
# Poissons Ratio (y) = -0.02686 0.26531
# Poissons Ratio (z) = 0.78748 0.50533
#
# Static dielectric constant tensor:
#      x y z
#    x 3.502440 0.000000 0.152860 
#    y 0.000000 3.583320 0.000000 
#    z 0.152860 0.000000 3.635560 
# 
# 
# High freq. dielectric constant tensor:
#      x y z
#    x 1.762390 0.000000 0.013750 
#    y 0.000000 1.778130 0.000000 
#    z 0.013750 0.000000 1.761860 
# 
# From -- ./inp_files/77708.got.cif
#   From: 2010.06.25/outbox.cif.g09.slc.cpg/sg10_39_cif.got.tgz:77708.got - 2010.06.27 22:07:45.
