data_PCOD8064536
_publ_section_title
;
Structure prediction by ZEFSAII (Michael W. Deem and Ramdas Pophale) SiO2 
 PCOD8064536
Probable space group: P 2/M
;
_chemical_formula_sum "Si O2"
_cell_formula_units_Z 18
_cell_length_a 11.737651
_cell_length_b 7.457482
_cell_length_c 11.737623
_cell_angle_alpha 90.000000
_cell_angle_beta 73.670807
_cell_angle_gamma 90.000000
_cell_volume 985.988693
_symmetry_space_group_name_H-M "P 2/M"
_symmetry_group_IT_number 10
_symmetry_cell_setting 'monoclinic'
loop_
_space_group_symop_operation_xyz
x,y,z
-x,y,-z
-x,-y,-z
x,-y,z
loop_
_atom_site_type_symbol
_atom_site_label
_atom_site_fract_x
_atom_site_fract_y
_atom_site_fract_z
Si Si1 0.228279 0.294984 0.728278
Si Si2 0.379352 0.293156 0.471812
Si Si3 0.382425 0.000000 0.284775
Si Si4 0.346603 0.000000 0.846603
Si Si5 0.784777 0.000000 0.882425
Si Si6 0.028187 0.706844 0.120649
O O1 0.255306 0.500000 0.755306
O O2 0.270885 0.255055 0.588244
O O3 0.298738 0.176936 0.798735
O O4 0.088246 0.255052 0.770885
O O5 0.500000 0.232962 0.500000
O O6 0.385717 0.500000 0.432688
O O7 0.360860 0.177383 0.364909
O O8 0.512097 0.000000 0.193783
O O9 0.286429 0.000000 0.213571
O O10 0.306213 0.000000 0.987903
O O11 0.864911 0.177383 0.860858
O O12 0.067310 0.500000 0.114286
O O13 0.000000 0.767037 0.000000
#
# Coordination Sequence:
#
# PCOD8064536 Si02
#       6
#     4   4   2   2   2   4
#     4  10  20  35  63  93 109 135 194 252 286 322
#     4  10  20  38  62  85 112 149 194 241 282 329
#     4  12  25  38  55  85 123 158 187 224 285 352
#     4  12  21  36  58  84 119 150 184 236 285 338
#     4  12  25  38  55  85 123 158 187 224 285 352
#     4  10  20  38  62  85 112 149 194 241 282 329
#
# _framework density 18.255787000000002
#
# number of rings (size 3 to 8) (size 9 to 14) (size 15 to 20)
#    0.000    1.333    4.444    2.333    0.000    0.889 
#    0.000    2.222    0.000    8.000    0.000    0.000 
#    0.000    0.000    0.000    0.000    0.000    0.000 
#
# Total GULP energy -223290.731324 kJ/mol
# GULP energy per Si atom -12405.040629 kJ/mol
# Density = 1.821424 g / cm^3
# Si number density = 18.255787 Si / 1000 Ang^3
#
#
#
# Elastic Constant Matrix: (Units=GPa)
#
#
# Indices 1 2 3 4 5 6 
#
# 1 129.7107 68.4633 94.3942 0.0000 -0.5428 0.0000
# 2 68.4633 110.0315 66.2361 0.0000 10.2847 0.0000
# 3 94.3942 66.2361 131.1129 0.0000 -5.9861 0.0000
# 4 0.0000 0.0000 0.0000 81.9770 0.0000 47.5783
# 5 -0.5428 10.2847 -5.9861 0.0000 42.8786 0.0000
# 6 0.0000 0.0000 0.0000 47.5783 0.0000 92.4370
#
#
#
# Elastic Compliance Matrix: (Units=1/GPa)
#
#
# Indices 1 2 3 4 5 6 
#
# 1 0.017821 -0.004824 -0.010396 0.000000 -0.000069 0.000000
# 2 -0.004824 0.015115 -0.004359 0.000000 -0.004295 0.000000
# 3 -0.010396 -0.004359 0.017467 0.000000 0.003353 0.000000
# 4 0.000000 0.000000 0.000000 0.017395 0.000000 -0.008953
# 5 -0.000069 -0.004295 0.003353 0.000000 0.024819 0.000000
# 6 0.000000 0.000000 0.000000 -0.008953 0.000000 0.015427
#
#
# Mechanical properties :
#
#
# Convention : Reuss Voigt Hill
#
# Bulk Modulus (GPa) = 88.93128 92.11580 90.52354
# Shear Modulus (GPa) = 33.12327 52.90927 43.01627
#
# Velocity S-wave (km/s) = 4.26420 5.38935 4.85945
# Velocity P-wave (km/s) = 8.54776 9.44959 9.00997
#
# Compressibility (1/GPa) = 0.01124464
#
# Stress axis : x y z
#
# Youngs Moduli (GPa) = 56.11366 66.15791 57.25006
#
# Poissons Ratio (x) = 0.31912 0.59520
# Poissons Ratio (y) = 0.27067 0.24957
# Poissons Ratio (z) = 0.58338 0.28841
#
# Static dielectric constant tensor:
#      x y z
#    x 3.325410 0.000000 -0.409210 
#    y 0.000000 3.515920 0.000000 
#    z -0.409210 0.000000 3.413920 
# 
# 
# High freq. dielectric constant tensor:
#      x y z
#    x 1.697050 0.000000 -0.032800 
#    y 0.000000 1.725450 0.000000 
#    z -0.032800 0.000000 1.704140 
# 
# From -- ./inp_files/22217.got.cif
#   From: 2010.06.25/outbox.cif.g09.slc.cpg/sg10_12_cif.got.tgz:22217.got - 2010.06.27 22:07:45.
