data_PCOD8064585
_publ_section_title
;
Structure prediction by ZEFSAII (Michael W. Deem and Ramdas Pophale) SiO2 
 PCOD8064585
Probable space group: P 2/M
;
_chemical_formula_sum "Si O2"
_cell_formula_units_Z 30
_cell_length_a 12.083113
_cell_length_b 9.510227
_cell_length_c 14.349304
_cell_angle_alpha 90.000000
_cell_angle_beta 64.840078
_cell_angle_gamma 90.000000
_cell_volume 1492.481493
_symmetry_space_group_name_H-M "P 2/M"
_symmetry_group_IT_number 10
_symmetry_cell_setting 'monoclinic'
loop_
_space_group_symop_operation_xyz
x,y,z
-x,y,-z
-x,-y,-z
x,-y,z
loop_
_atom_site_type_symbol
_atom_site_label
_atom_site_fract_x
_atom_site_fract_y
_atom_site_fract_z
Si Si1 0.642605 0.341649 0.435645
Si Si2 0.209562 0.837459 0.744259
Si Si3 0.734487 0.657990 0.593239
Si Si4 0.269803 0.837050 0.122093
Si Si5 0.000000 0.750018 0.500000
Si Si6 0.681196 0.840497 0.104097
Si Si7 0.560965 0.331015 0.817789
Si Si8 0.982711 0.158996 0.711289
O O1 0.500000 0.342688 0.500000
O O2 0.691818 0.500000 0.400462
O O3 0.673620 0.245107 0.336893
O O4 0.705424 0.270416 0.504409
O O5 0.214720 0.816217 0.854046
O O6 0.088118 0.771267 0.738581
O O7 0.221502 0.000000 0.711846
O O8 0.686303 0.500000 0.602228
O O9 0.654617 0.725199 0.704421
O O10 0.879416 0.657820 0.560493
O O11 0.386413 0.741208 0.107527
O O12 0.149236 0.773746 0.217032
O O13 0.295364 0.000000 0.140041
O O14 0.251089 0.819661 0.018278
O O15 0.984490 0.839024 0.410592
O O16 0.572813 0.728326 0.156282
O O17 0.628483 0.000000 0.130935
O O18 0.556791 0.500000 0.830005
O O19 0.971558 0.000000 0.749033
#
# Coordination Sequence:
#
# PCOD8064585 Si02
#       8
#     4   4   4   4   2   4   4   4
#     4  10  20  36  56  79 111 151 190 229 279 340
#     4  10  21  38  57  83 113 147 194 239 283 333
#     4  10  21  34  54  83 112 148 187 225 281 343
#     4  10  21  39  60  85 116 152 191 233 288 345
#     4  12  18  36  58  80 112 146 184 234 282 340
#     4  10  22  39  60  83 114 154 193 236 285 340
#     4  11  22  38  60  88 118 149 190 239 286 338
#     4  10  21  36  58  86 115 147 187 238 289 339
#
# _framework density 20.100752
#
# number of rings (size 3 to 8) (size 9 to 14) (size 15 to 20)
#    0.000    1.733    2.667    2.000    0.000    4.533 
#    0.000    4.667    0.000    0.000    0.000    2.800 
#    0.000    0.000    0.000    0.000    0.000    0.000 
#
# Total GULP energy -371862.027241 kJ/mol
# GULP energy per Si atom -12395.400908 kJ/mol
# Density = 2.005500 g / cm^3
# Si number density = 20.100752 Si / 1000 Ang^3
#
#
#
# Elastic Constant Matrix: (Units=GPa)
#
#
# Indices 1 2 3 4 5 6 
#
# 1 114.8744 30.9156 44.0253 0.0000 13.5568 0.0000
# 2 30.9156 65.1227 27.9963 0.0000 3.4631 0.0000
# 3 44.0253 27.9963 106.5287 0.0000 11.8591 0.0000
# 4 0.0000 0.0000 0.0000 18.4483 0.0000 2.6266
# 5 13.5568 3.4631 11.8591 0.0000 39.1024 0.0000
# 6 0.0000 0.0000 0.0000 2.6266 0.0000 18.9810
#
#
#
# Elastic Compliance Matrix: (Units=1/GPa)
#
#
# Indices 1 2 3 4 5 6 
#
# 1 0.011329 -0.003779 -0.003404 0.000000 -0.002561 0.000000
# 2 -0.003779 0.018573 -0.003397 0.000000 0.000695 0.000000
# 3 -0.003404 -0.003397 0.011924 0.000000 -0.002136 0.000000
# 4 0.000000 0.000000 0.000000 0.055295 0.000000 -0.007652
# 5 -0.002561 0.000695 -0.002136 0.000000 0.027048 0.000000
# 6 0.000000 0.000000 0.000000 -0.007652 0.000000 0.053743
#
#
# Mechanical properties :
#
#
# Convention : Reuss Voigt Hill
#
# Bulk Modulus (GPa) = 48.38543 54.71113 51.54828
# Shear Modulus (GPa) = 24.27669 27.54559 25.91114
#
# Velocity S-wave (km/s) = 3.47904 3.70588 3.59425
# Velocity P-wave (km/s) = 6.34524 6.75195 6.55175
#
# Compressibility (1/GPa) = 0.02066738
#
# Stress axis : x y z
#
# Youngs Moduli (GPa) = 88.27084 53.84223 83.86273
#
# Poissons Ratio (x) = 0.20345 0.28545
# Poissons Ratio (y) = 0.33354 0.28487
# Poissons Ratio (z) = 0.30045 0.18289
#
# Static dielectric constant tensor:
#      x y z
#    x 3.712840 0.000000 0.142230 
#    y 0.000000 3.396940 0.000000 
#    z 0.142230 0.000000 3.765110 
# 
# 
# High freq. dielectric constant tensor:
#      x y z
#    x 1.790890 0.000000 0.010120 
#    y 0.000000 1.755130 0.000000 
#    z 0.010120 0.000000 1.790800 
# 
# From -- ./inp_files/63715.got.cif
#   From: 2010.06.25/outbox.cif.g09.slc.cpg/sg10_32_cif.got.tgz:63715.got - 2010.06.27 22:07:45.
