data_PCOD8064639
_publ_section_title
;
Structure prediction by ZEFSAII (Michael W. Deem and Ramdas Pophale) SiO2 
 PCOD8064639
Probable space group: P 2/M
;
_chemical_formula_sum "Si O2"
_cell_formula_units_Z 28
_cell_length_a 9.369931
_cell_length_b 15.018541
_cell_length_c 20.446537
_cell_angle_alpha 90.000000
_cell_angle_beta 149.961914
_cell_angle_gamma 90.000000
_cell_volume 1440.301925
_symmetry_space_group_name_H-M "P 2/M"
_symmetry_group_IT_number 10
_symmetry_cell_setting 'monoclinic'
loop_
_space_group_symop_operation_xyz
x,y,z
-x,y,-z
-x,-y,-z
x,-y,z
loop_
_atom_site_type_symbol
_atom_site_label
_atom_site_fract_x
_atom_site_fract_y
_atom_site_fract_z
Si Si1 0.812028 0.396909 0.106533
Si Si2 0.833454 0.402989 0.624611
Si Si3 0.743340 0.897307 0.277580
Si Si4 0.134578 0.096011 0.982941
Si Si5 0.745406 0.781527 0.543480
Si Si6 0.313862 0.771591 0.624749
Si Si7 0.908013 0.279080 0.888586
O O1 0.787634 0.500000 0.079713
O O2 0.028940 0.378087 0.251295
O O3 0.925101 0.352025 0.085791
O O4 0.500000 0.358311 0.000000
O O5 0.500000 0.414485 0.500000
O O6 0.955442 0.500000 0.647969
O O7 0.884834 0.318762 0.597447
O O8 0.696693 0.855912 0.331025
O O9 0.002369 0.850716 0.341543
O O10 0.815685 0.000000 0.317016
O O11 0.469131 0.883141 0.123213
O O12 0.982955 0.180494 0.888458
O O13 0.091763 0.000000 0.928755
O O14 0.000000 0.084257 0.000000
O O15 0.500000 0.790433 0.500000
O O16 0.613344 0.802857 0.420090
O O17 0.566370 0.705378 0.747962
O O18 0.000000 0.724633 0.500000
O O19 0.000000 0.286725 0.000000
#
# Coordination Sequence:
#
# PCOD8064639 Si02
#       7
#     4   4   4   4   4   4   4
#     4  10  23  39  58  87 119 151 191 231 281 352
#     4   9  18  36  59  79 106 151 193 227 275 335
#     4  10  20  36  57  81 114 154 192 231 281 344
#     4   9  17  32  56  83 108 145 195 229 268 340
#     4  10  21  35  57  84 115 148 193 243 281 332
#     4  10  21  36  55  85 116 144 192 234 280 340
#     4  11  20  35  61  87 112 154 186 237 290 328
#
# _framework density 19.440367999999999
#
# number of rings (size 3 to 8) (size 9 to 14) (size 15 to 20)
#    0.000    2.143    2.857    1.714    2.000    3.143 
#    0.000    0.000    0.000   10.714    0.000    0.000 
#    0.000    0.000    0.000    0.000    0.000    0.000 
#
# Total GULP energy -346934.820316 kJ/mol
# GULP energy per Si atom -12390.529297 kJ/mol
# Density = 1.939612 g / cm^3
# Si number density = 19.440368 Si / 1000 Ang^3
#
#
#
# Elastic Constant Matrix: (Units=GPa)
#
#
# Indices 1 2 3 4 5 6 
#
# 1 87.9913 37.7120 39.6378 0.0000 16.9809 0.0000
# 2 37.7120 99.4562 25.5554 0.0000 8.6338 0.0000
# 3 39.6378 25.5554 128.6971 0.0000 18.4976 0.0000
# 4 0.0000 0.0000 0.0000 21.3860 0.0000 7.0176
# 5 16.9809 8.6338 18.4976 0.0000 25.7535 0.0000
# 6 0.0000 0.0000 0.0000 7.0176 0.0000 31.3493
#
#
#
# Elastic Compliance Matrix: (Units=1/GPa)
#
#
# Indices 1 2 3 4 5 6 
#
# 1 0.016073 -0.004723 -0.003030 0.000000 -0.006839 0.000000
# 2 -0.004723 0.012104 -0.000907 0.000000 -0.000293 0.000000
# 3 -0.003030 -0.000907 0.009537 0.000000 -0.004548 0.000000
# 4 0.000000 0.000000 0.000000 0.050467 0.000000 -0.011297
# 5 -0.006839 -0.000293 -0.004548 0.000000 0.046704 0.000000
# 6 0.000000 0.000000 0.000000 -0.011297 0.000000 0.034427
#
#
# Mechanical properties :
#
#
# Convention : Reuss Voigt Hill
#
# Bulk Modulus (GPa) = 49.02956 57.99501 53.51228
# Shear Modulus (GPa) = 25.84925 29.91375 27.88150
#
# Velocity S-wave (km/s) = 3.65042 3.92694 3.79120
# Velocity P-wave (km/s) = 6.56069 7.10339 6.83743
#
# Compressibility (1/GPa) = 0.02039586
#
# Stress axis : x y z
#
# Youngs Moduli (GPa) = 62.21455 82.61866 104.85311
#
# Poissons Ratio (x) = 0.39017 0.31768
# Poissons Ratio (y) = 0.29381 0.09509
# Poissons Ratio (z) = 0.18850 0.07493
#
# Static dielectric constant tensor:
#      x y z
#    x 3.233590 0.000000 0.154600 
#    y 0.000000 3.983450 0.000000 
#    z 0.154600 0.000000 3.854950 
# 
# 
# High freq. dielectric constant tensor:
#      x y z
#    x 1.724630 0.000000 0.012070 
#    y 0.000000 1.751010 0.000000 
#    z 0.012070 0.000000 1.773130 
# 
# From -- ./inp_files/82937.got.cif
#   From: 2010.06.25/outbox.cif.g09.slc.cpg/sg10_42_cif.got.tgz:82937.got - 2010.06.27 22:07:45.
