data_PCOD8064750
_publ_section_title
;
Structure prediction by ZEFSAII (Michael W. Deem and Ramdas Pophale) SiO2 
 PCOD8064750
Probable space group: P 2/M
;
_chemical_formula_sum "Si O2"
_cell_formula_units_Z 28
_cell_length_a 20.108495
_cell_length_b 8.651253
_cell_length_c 14.473369
_cell_angle_alpha 90.000000
_cell_angle_beta 147.312447
_cell_angle_gamma 90.000000
_cell_volume 1359.778638
_symmetry_space_group_name_H-M "P 2/M"
_symmetry_group_IT_number 10
_symmetry_cell_setting 'monoclinic'
loop_
_space_group_symop_operation_xyz
x,y,z
-x,y,-z
-x,-y,-z
x,-y,z
loop_
_atom_site_type_symbol
_atom_site_label
_atom_site_fract_x
_atom_site_fract_y
_atom_site_fract_z
Si Si1 0.725322 0.320020 0.087621
Si Si2 0.560080 0.177913 0.744522
Si Si3 0.641175 0.819058 0.174694
Si Si4 0.929017 0.179949 0.202934
Si Si5 0.232532 0.822653 0.156156
Si Si6 0.813030 0.678833 0.521431
Si Si7 0.300063 0.677505 0.417171
O O1 0.723108 0.500000 0.108580
O O2 0.716410 0.224733 0.171457
O O3 0.854352 0.276539 0.191372
O O4 0.610139 0.280440 0.887198
O O5 0.638244 0.210180 0.743787
O O6 0.419678 0.215409 0.559231
O O7 0.573652 0.000000 0.790576
O O8 0.694219 0.727361 0.324106
O O9 0.653332 0.000000 0.208326
O O10 0.500000 0.767364 0.000000
O O11 0.071716 0.220488 0.377158
O O12 0.906770 0.000000 0.197410
O O13 0.879274 0.222125 0.042675
O O14 0.222580 0.715780 0.234673
O O15 0.223267 0.000000 0.176749
O O16 0.843388 0.500000 0.540671
O O17 0.786603 0.714281 0.597490
O O18 0.342171 0.500000 0.466229
#
# Coordination Sequence:
#
# PCOD8064750 Si02
#       7
#     4   4   4   4   4   4   4
#     4  11  22  38  63  91 121 155 190 238 297 350
#     4  10  20  36  58  86 120 156 198 244 289 346
#     4  11  24  42  65  92 120 154 195 237 285 345
#     4  10  22  42  64  87 116 153 200 245 287 343
#     4   9  20  37  58  84 115 153 196 244 293 346
#     4  11  25  42  59  85 120 155 195 244 295 346
#     4  11  23  36  55  85 120 157 196 244 299 350
#
# _framework density 20.591588000000002
#
# number of rings (size 3 to 8) (size 9 to 14) (size 15 to 20)
#    0.000    1.571    0.000    5.571    0.000   12.000 
#    0.000    5.714    0.000    0.000    0.000    0.000 
#    0.000    0.000    0.000    0.000    0.000    0.000 
#
# Total GULP energy -347403.272230 kJ/mol
# GULP energy per Si atom -12407.259722 kJ/mol
# Density = 2.054472 g / cm^3
# Si number density = 20.591588 Si / 1000 Ang^3
#
#
#
# Elastic Constant Matrix: (Units=GPa)
#
#
# Indices 1 2 3 4 5 6 
#
# 1 89.7952 32.9981 32.6207 0.0000 -10.6041 0.0000
# 2 32.9981 52.0187 19.7452 0.0000 -2.2323 0.0000
# 3 32.6207 19.7452 77.4989 0.0000 9.7045 0.0000
# 4 0.0000 0.0000 0.0000 18.9268 0.0000 -11.3900
# 5 -10.6041 -2.2323 9.7045 0.0000 29.4797 0.0000
# 6 0.0000 0.0000 0.0000 -11.3900 0.0000 28.1398
#
#
#
# Elastic Compliance Matrix: (Units=1/GPa)
#
#
# Indices 1 2 3 4 5 6 
#
# 1 0.017324 -0.008339 -0.006121 0.000000 0.007615 0.000000
# 2 -0.008339 0.025657 -0.003019 0.000000 -0.000063 0.000000
# 3 -0.006121 -0.003019 0.017265 0.000000 -0.008114 0.000000
# 4 0.000000 0.000000 0.000000 0.069850 0.000000 0.028273
# 5 0.007615 -0.000063 -0.008114 0.000000 0.039327 0.000000
# 6 0.000000 0.000000 0.000000 0.028273 0.000000 0.046981
#
#
# Mechanical properties :
#
#
# Convention : Reuss Voigt Hill
#
# Bulk Modulus (GPa) = 39.54450 43.33785 41.44118
# Shear Modulus (GPa) = 19.24630 24.23918 21.74274
#
# Velocity S-wave (km/s) = 3.06055 3.43467 3.25299
# Velocity P-wave (km/s) = 5.63340 6.06806 5.85476
#
# Compressibility (1/GPa) = 0.02528797
#
# Stress axis : x y z
#
# Youngs Moduli (GPa) = 57.72407 38.97564 57.92094
#
# Poissons Ratio (x) = 0.32503 0.35452
# Poissons Ratio (y) = 0.48138 0.17486
# Poissons Ratio (z) = 0.35332 0.11766
#
# Static dielectric constant tensor:
#      x y z
#    x 3.700460 0.000000 -0.097310 
#    y 0.000000 3.681490 0.000000 
#    z -0.097310 0.000000 3.643570 
# 
# 
# High freq. dielectric constant tensor:
#      x y z
#    x 1.807960 0.000000 -0.005040 
#    y 0.000000 1.811250 0.000000 
#    z -0.005040 0.000000 1.803890 
# 
# From -- ./inp_files/70215.got.cif
#   From: 2010.06.25/outbox.cif.g09.slc.cpg/sg10_36_cif.got.tgz:70215.got - 2010.06.27 22:07:45.
