data_PCOD8064721
_publ_section_title
;
Structure prediction by ZEFSAII (Michael W. Deem and Ramdas Pophale) SiO2 
 PCOD8064721
Probable space group: P 2/M
;
_chemical_formula_sum "Si O2"
_cell_formula_units_Z 32
_cell_length_a 15.120835
_cell_length_b 23.767871
_cell_length_c 9.136190
_cell_angle_alpha 90.000000
_cell_angle_beta 149.608793
_cell_angle_gamma 90.000000
_cell_volume 1661.104873
_symmetry_space_group_name_H-M "P 2/M"
_symmetry_group_IT_number 10
_symmetry_cell_setting 'monoclinic'
loop_
_space_group_symop_operation_xyz
x,y,z
-x,y,-z
-x,-y,-z
x,-y,z
loop_
_atom_site_type_symbol
_atom_site_label
_atom_site_fract_x
_atom_site_fract_y
_atom_site_fract_z
Si Si1 0.974361 0.150100 0.632742
Si Si2 0.852609 0.751737 0.670675
Si Si3 0.459630 0.638461 0.273730
Si Si4 0.316861 0.642280 0.663643
Si Si5 0.801208 0.563625 0.261247
Si Si6 0.647184 0.875948 0.833155
Si Si7 0.328716 0.935111 0.842733
Si Si8 0.493301 0.763653 0.317239
O O1 0.912582 0.202900 0.638642
O O2 0.835276 0.100191 0.450007
O O3 0.000000 0.167626 0.500000
O O4 0.159447 0.127590 0.962230
O O5 0.814771 0.694716 0.526698
O O6 0.681450 0.771639 0.512649
O O7 0.000000 0.739227 0.000000
O O8 0.500000 0.631494 0.500000
O O9 0.634619 0.622193 0.432159
O O10 0.409097 0.703110 0.157690
O O11 0.300889 0.597985 0.008337
O O12 0.225593 0.591064 0.617810
O O13 0.500000 0.660104 0.000000
O O14 0.729959 0.500000 0.166013
O O15 0.000000 0.565016 0.500000
O O16 0.500000 0.885991 0.500000
O O17 0.621262 0.817825 0.891508
O O18 0.638631 0.926343 0.937474
O O19 0.285068 0.000000 0.751673
O O20 0.500000 0.915817 0.000000
O O21 0.500000 0.767929 0.500000
#
# Coordination Sequence:
#
# PCOD8064721 Si02
#       8
#     4   4   4   4   4   4   4   4
#     4  10  23  37  56  85 115 151 187 224 281 337
#     4  11  21  35  58  86 115 144 183 229 273 327
#     4   9  19  36  58  81 107 142 183 224 268 323
#     4   9  21  37  55  80 109 147 182 218 276 332
#     4  10  22  38  55  77 107 143 183 228 275 324
#     4  10  20  36  58  83 113 147 186 229 275 327
#     4  10  22  40  59  79 108 148 191 234 280 330
#     4   9  18  33  53  81 114 142 174 220 275 325
#
# _framework density 19.264286999999999
#
# number of rings (size 3 to 8) (size 9 to 14) (size 15 to 20)
#    0.000    2.250    0.000    2.250    0.000   16.000 
#    0.000    0.000    0.000    3.750    0.000    0.000 
#    0.000    0.000    0.000    0.000    0.000    0.000 
#
# Total GULP energy -396675.852668 kJ/mol
# GULP energy per Si atom -12396.120396 kJ/mol
# Density = 1.922044 g / cm^3
# Si number density = 19.264287 Si / 1000 Ang^3
#
#
#
# Elastic Constant Matrix: (Units=GPa)
#
#
# Indices 1 2 3 4 5 6 
#
# 1 119.0851 46.0540 44.9623 0.0000 5.8887 0.0000
# 2 46.0540 100.6939 58.1800 0.0000 11.7900 0.0000
# 3 44.9623 58.1800 113.3005 0.0000 14.0225 0.0000
# 4 0.0000 0.0000 0.0000 23.0703 0.0000 3.6960
# 5 5.8887 11.7900 14.0225 0.0000 30.4639 0.0000
# 6 0.0000 0.0000 0.0000 3.6960 0.0000 29.7939
#
#
#
# Elastic Compliance Matrix: (Units=1/GPa)
#
#
# Indices 1 2 3 4 5 6 
#
# 1 0.010667 -0.003488 -0.002496 0.000000 0.000437 0.000000
# 2 -0.003488 0.015409 -0.006229 0.000000 -0.002422 0.000000
# 3 -0.002496 -0.006229 0.013422 0.000000 -0.003285 0.000000
# 4 0.000000 0.000000 0.000000 0.044225 0.000000 -0.005486
# 5 0.000437 -0.002422 -0.003285 0.000000 0.035191 0.000000
# 6 0.000000 0.000000 0.000000 -0.005486 0.000000 0.034245
#
#
# Mechanical properties :
#
#
# Convention : Reuss Voigt Hill
#
# Bulk Modulus (GPa) = 66.34624 70.16354 68.25489
# Shear Modulus (GPa) = 27.38132 28.92449 28.15290
#
# Velocity S-wave (km/s) = 3.77417 3.87907 3.82698
# Velocity P-wave (km/s) = 7.31487 7.52087 7.41858
#
# Compressibility (1/GPa) = 0.01507244
#
# Stress axis : x y z
#
# Youngs Moduli (GPa) = 93.74695 64.89894 74.50647
#
# Poissons Ratio (x) = 0.22634 0.18599
# Poissons Ratio (y) = 0.32694 0.46407
# Poissons Ratio (z) = 0.23402 0.40423
#
# Static dielectric constant tensor:
#      x y z
#    x 3.738680 0.000000 0.105390 
#    y 0.000000 3.742630 0.000000 
#    z 0.105390 0.000000 3.439580 
# 
# 
# High freq. dielectric constant tensor:
#      x y z
#    x 1.763700 0.000000 0.007480 
#    y 0.000000 1.745690 0.000000 
#    z 0.007480 0.000000 1.740080 
# 
# From -- ./inp_files/30608.got.cif
#   From: 2010.06.25/outbox.cif.g09.slc.cpg/sg10_16_cif.got.tgz:30608.got - 2010.06.27 22:07:45.
