data_PCOD8064144
_publ_section_title
;
Structure prediction by ZEFSAII (Michael W. Deem and Ramdas Pophale) SiO2 
 PCOD8064144
Probable space group: P 2/M
;
_chemical_formula_sum "Si O2"
_cell_formula_units_Z 28
_cell_length_a 20.650905
_cell_length_b 9.236594
_cell_length_c 19.100978
_cell_angle_alpha 90.000000
_cell_angle_beta 157.481807
_cell_angle_gamma 90.000000
_cell_volume 1395.336581
_symmetry_space_group_name_H-M "P 2/M"
_symmetry_group_IT_number 10
_symmetry_cell_setting 'monoclinic'
loop_
_space_group_symop_operation_xyz
x,y,z
-x,y,-z
-x,-y,-z
x,-y,z
loop_
_atom_site_type_symbol
_atom_site_label
_atom_site_fract_x
_atom_site_fract_y
_atom_site_fract_z
Si Si1 0.012658 0.165301 0.095263
Si Si2 0.302807 0.329367 0.880129
Si Si3 0.671978 0.665998 0.527604
Si Si4 0.833024 0.833661 0.125523
Si Si5 0.682752 0.670612 0.259443
Si Si6 0.664442 0.832985 0.816817
Si Si7 0.848898 0.334288 0.564785
O O1 0.835723 0.223313 0.950669
O O2 0.042621 0.000000 0.150297
O O3 0.000000 0.175615 0.000000
O O4 0.170472 0.261496 0.276333
O O5 0.290086 0.500000 0.881547
O O6 0.234837 0.291518 0.733811
O O7 0.193187 0.248709 0.828040
O O8 0.492993 0.268655 0.075179
O O9 0.660940 0.500000 0.541261
O O10 0.495427 0.742699 0.370588
O O11 0.697320 0.676344 0.469125
O O12 0.682492 0.813996 0.919058
O O13 0.865298 0.000000 0.174906
O O14 0.999412 0.765451 0.255972
O O15 0.667613 0.500000 0.252353
O O16 0.791285 0.731661 0.432262
O O17 0.632522 0.000000 0.765219
O O18 0.911048 0.500000 0.619295
#
# Coordination Sequence:
#
# PCOD8064144 Si02
#       7
#     4   4   4   4   4   4   4
#     4  10  22  43  68  91 121 163 205 239 280 350
#     4   9  17  33  55  76 104 143 189 242 291 346
#     4  11  23  38  63  95 124 155 195 250 305 348
#     4  11  22  35  53  80 113 149 191 242 295 345
#     4   8  16  32  54  77 102 141 193 240 286 345
#     4  10  22  40  62  87 119 160 202 242 289 353
#     4  10  20  35  55  80 110 148 194 240 291 349
#
# _framework density 20.066844
#
# number of rings (size 3 to 8) (size 9 to 14) (size 15 to 20)
#    0.000    2.143    1.429    2.571    0.000    4.857 
#    0.000    8.571    0.000    0.000    0.000    0.000 
#    0.000    0.000    0.000    0.000    0.000    0.000 
#
# Total GULP energy -347144.225473 kJ/mol
# GULP energy per Si atom -12398.008053 kJ/mol
# Density = 2.002117 g / cm^3
# Si number density = 20.066844 Si / 1000 Ang^3
#
#
#
# Elastic Constant Matrix: (Units=GPa)
#
#
# Indices 1 2 3 4 5 6 
#
# 1 83.1111 36.2077 37.5522 0.0000 2.8788 0.0000
# 2 36.2077 93.6723 62.7645 0.0000 6.5773 0.0000
# 3 37.5522 62.7645 121.9560 0.0000 12.8681 0.0000
# 4 0.0000 0.0000 0.0000 30.7565 0.0000 0.6745
# 5 2.8788 6.5773 12.8681 0.0000 28.9495 0.0000
# 6 0.0000 0.0000 0.0000 0.6745 0.0000 21.0540
#
#
#
# Elastic Compliance Matrix: (Units=1/GPa)
#
#
# Indices 1 2 3 4 5 6 
#
# 1 0.014956 -0.004114 -0.002549 0.000000 0.000581 0.000000
# 2 -0.004114 0.017426 -0.007688 0.000000 -0.000133 0.000000
# 3 -0.002549 -0.007688 0.013356 0.000000 -0.003937 0.000000
# 4 0.000000 0.000000 0.000000 0.032536 0.000000 -0.001042
# 5 0.000581 -0.000133 -0.003937 0.000000 0.036265 0.000000
# 6 0.000000 0.000000 0.000000 -0.001042 0.000000 0.047530
#
#
# Mechanical properties :
#
#
# Convention : Reuss Voigt Hill
#
# Bulk Modulus (GPa) = 58.69482 63.53202 61.11342
# Shear Modulus (GPa) = 25.45172 26.96632 26.20902
#
# Velocity S-wave (km/s) = 3.56525 3.66980 3.61790
# Velocity P-wave (km/s) = 6.80156 7.04879 6.92628
#
# Compressibility (1/GPa) = 0.01703728
#
# Stress axis : x y z
#
# Youngs Moduli (GPa) = 66.86288 57.38593 74.87015
#
# Poissons Ratio (x) = 0.23606 0.19087
# Poissons Ratio (y) = 0.27505 0.57557
# Poissons Ratio (z) = 0.17046 0.44116
#
# Static dielectric constant tensor:
#      x y z
#    x 3.693030 0.000000 -0.086120 
#    y 0.000000 3.430200 0.000000 
#    z -0.086120 0.000000 3.646720 
# 
# 
# High freq. dielectric constant tensor:
#      x y z
#    x 1.789490 0.000000 -0.003540 
#    y 0.000000 1.758760 0.000000 
#    z -0.003540 0.000000 1.781080 
# 
# From -- ./inp_files/86522.got.cif
#   From: 2010.06.25/outbox.cif.g09.slc.cpg/sg10_44_cif.got.tgz:86522.got - 2010.06.27 22:07:45.
