data_PCOD8064011
_publ_section_title
;
Structure prediction by ZEFSAII (Michael W. Deem and Ramdas Pophale) SiO2 
 PCOD8064011
Probable space group: P 2/M
;
_chemical_formula_sum "Si O2"
_cell_formula_units_Z 32
_cell_length_a 16.035087
_cell_length_b 8.912083
_cell_length_c 14.169258
_cell_angle_alpha 90.000000
_cell_angle_beta 61.941993
_cell_angle_gamma 90.000000
_cell_volume 1786.892836
_symmetry_space_group_name_H-M "P 2/M"
_symmetry_group_IT_number 10
_symmetry_cell_setting 'monoclinic'
loop_
_space_group_symop_operation_xyz
x,y,z
-x,y,-z
-x,-y,-z
x,-y,z
loop_
_atom_site_type_symbol
_atom_site_label
_atom_site_fract_x
_atom_site_fract_y
_atom_site_fract_z
Si Si1 0.100493 0.822123 0.708188
Si Si2 0.250893 0.823802 0.476980
Si Si3 0.260438 0.674348 0.975231
Si Si4 0.608536 0.177229 0.440300
Si Si5 0.755666 0.322481 0.231603
Si Si6 0.898886 0.676176 0.792296
Si Si7 0.238396 0.177808 0.273237
Si Si8 0.604946 0.823601 0.958802
O O1 0.157028 0.774584 0.583465
O O2 0.153444 0.754662 0.770365
O O3 0.997125 0.755976 0.758176
O O4 0.096583 0.000000 0.721508
O O5 0.343409 0.772623 0.486443
O O6 0.251358 0.754938 0.371728
O O7 0.253351 0.000000 0.463560
O O8 0.282971 0.500000 0.969740
O O9 0.244092 0.726492 0.877340
O O10 0.166967 0.715823 0.083742
O O11 0.351430 0.757799 0.968776
O O12 0.500000 0.226057 0.500000
O O13 0.658438 0.263621 0.328373
O O14 0.621344 0.000000 0.416734
O O15 0.763424 0.500000 0.240446
O O16 0.914694 0.500000 0.771798
O O17 0.853002 0.741918 0.721771
O O18 0.331880 0.221955 0.165035
O O19 0.220681 0.000000 0.281208
O O20 0.600566 0.000000 0.974399
O O21 0.500000 0.757279 0.000000
#
# Coordination Sequence:
#
# PCOD8064011 Si02
#       8
#     4   4   4   4   4   4   4   4
#     4  10  20  35  53  74  99 129 166 205 251 302
#     4   8  16  31  50  71  97 130 165 200 242 295
#     4   9  20  36  52  71 100 137 169 200 247 304
#     4   9  18  33  53  77 104 135 169 205 248 296
#     4  10  20  35  53  74 101 133 169 207 247 292
#     4  10  20  35  52  72  99 129 164 206 251 298
#     4   9  17  32  51  70  97 132 166 200 243 296
#     4   9  18  31  50  77 103 127 163 210 250 286
#
# _framework density 17.908182
#
# number of rings (size 3 to 8) (size 9 to 14) (size 15 to 20)
#    0.000    2.750    0.000    1.875    0.000    4.000 
#    0.000   10.625    0.000    0.000    0.000    0.000 
#    0.000    0.000    0.000    0.000    0.000    0.000 
#
# Total GULP energy -396803.296758 kJ/mol
# GULP energy per Si atom -12400.103024 kJ/mol
# Density = 1.786742 g / cm^3
# Si number density = 17.908182 Si / 1000 Ang^3
#
#
#
# Elastic Constant Matrix: (Units=GPa)
#
#
# Indices 1 2 3 4 5 6 
#
# 1 174.5920 53.9246 98.8558 0.0000 -5.4258 0.0000
# 2 53.9246 47.7682 36.7952 0.0000 1.4571 0.0000
# 3 98.8558 36.7952 115.9715 0.0000 19.8733 0.0000
# 4 0.0000 0.0000 0.0000 24.9514 0.0000 2.2908
# 5 -5.4258 1.4571 19.8733 0.0000 35.1366 0.0000
# 6 0.0000 0.0000 0.0000 2.2908 0.0000 19.2056
#
#
#
# Elastic Compliance Matrix: (Units=1/GPa)
#
#
# Indices 1 2 3 4 5 6 
#
# 1 0.015577 -0.008435 -0.012263 0.000000 0.009691 0.000000
# 2 -0.008435 0.032853 -0.003075 0.000000 -0.000926 0.000000
# 3 -0.012263 -0.003075 0.022539 0.000000 -0.014514 0.000000
# 4 0.000000 0.000000 0.000000 0.040522 0.000000 -0.004833
# 5 0.009691 -0.000926 -0.014514 0.000000 0.038204 0.000000
# 6 0.000000 0.000000 0.000000 -0.004833 0.000000 0.052645
#
#
# Mechanical properties :
#
#
# Convention : Reuss Voigt Hill
#
# Bulk Modulus (GPa) = 42.69168 79.72032 61.20600
# Shear Modulus (GPa) = 19.40291 25.77580 22.58935
#
# Velocity S-wave (km/s) = 3.29518 3.79797 3.55547
# Velocity P-wave (km/s) = 6.19423 7.99034 7.14892
#
# Compressibility (1/GPa) = 0.02342377
#
# Stress axis : x y z
#
# Youngs Moduli (GPa) = 64.19584 30.43853 44.36789
#
# Poissons Ratio (x) = 0.25674 0.54408
# Poissons Ratio (y) = 0.54146 0.13644
# Poissons Ratio (z) = 0.78723 0.09360
#
# Static dielectric constant tensor:
#      x y z
#    x 3.467530 0.000000 0.098950 
#    y 0.000000 3.188500 0.000000 
#    z 0.098950 0.000000 3.483370 
# 
# 
# High freq. dielectric constant tensor:
#      x y z
#    x 1.701220 0.000000 0.002380 
#    y 0.000000 1.682420 0.000000 
#    z 0.002380 0.000000 1.692720 
# 
# From -- ./inp_files/66514.got.cif
#   From: 2010.06.25/outbox.cif.g09.slc.cpg/sg10_34_cif.got.tgz:66514.got - 2010.06.27 22:07:45.
