data_PCOD8064897
_publ_section_title
;
Structure prediction by ZEFSAII (Michael W. Deem and Ramdas Pophale) SiO2 
 PCOD8064897
Probable space group: P 2/M
;
_chemical_formula_sum "Si O2"
_cell_formula_units_Z 28
_cell_length_a 22.819966
_cell_length_b 8.966560
_cell_length_c 20.015135
_cell_angle_alpha 90.000000
_cell_angle_beta 160.412923
_cell_angle_gamma 90.000000
_cell_volume 1372.947774
_symmetry_space_group_name_H-M "P 2/M"
_symmetry_group_IT_number 10
_symmetry_cell_setting 'monoclinic'
loop_
_space_group_symop_operation_xyz
x,y,z
-x,y,-z
-x,-y,-z
x,-y,z
loop_
_atom_site_type_symbol
_atom_site_label
_atom_site_fract_x
_atom_site_fract_y
_atom_site_fract_z
Si Si1 0.367033 0.668765 0.798090
Si Si2 0.767063 0.173399 0.925917
Si Si3 0.974968 0.173419 0.547661
Si Si4 0.032830 0.674155 0.112049
Si Si5 0.338808 0.333768 0.623151
Si Si6 0.935830 0.671099 0.228772
Si Si7 0.377593 0.828387 0.533345
O O1 0.287234 0.500000 0.718074
O O2 0.447103 0.685809 0.809151
O O3 0.226014 0.798088 0.651859
O O4 0.500000 0.698491 0.000000
O O5 0.560003 0.198248 0.690094
O O6 0.814811 0.000000 0.978317
O O7 0.810227 0.241661 0.044022
O O8 0.878455 0.249561 0.987540
O O9 0.093075 0.262212 0.727989
O O10 0.000000 0.236454 0.500000
O O11 0.021273 0.000000 0.602385
O O12 0.025684 0.500000 0.120472
O O13 0.224892 0.731153 0.336972
O O14 0.000000 0.710952 0.000000
O O15 0.368165 0.500000 0.625818
O O16 0.404725 0.215410 0.639987
O O17 0.134129 0.308408 0.417753
O O18 0.877626 0.500000 0.167418
O O19 0.321238 0.000000 0.469228
#
# Coordination Sequence:
#
# PCOD8064897 Si02
#       7
#     4   4   4   4   4   4   4
#     4   9  19  35  54  78 110 151 201 253 305 364
#     4  11  24  41  64  96 130 165 208 254 308 374
#     4  10  21  35  52  78 114 155 199 251 309 369
#     4  11  25  45  69  96 128 167 209 257 312 368
#     4   9  18  34  57  84 115 154 203 256 308 368
#     4  10  20  36  60  86 114 156 206 256 311 369
#     4  11  24  40  63  95 128 165 207 254 310 374
#
# _framework density 20.394074
#
# number of rings (size 3 to 8) (size 9 to 14) (size 15 to 20)
#    0.000    1.857    1.429    3.000    0.000    8.857 
#    0.000    5.714    0.000    0.000    0.000    0.000 
#    0.000    0.000    0.000    0.000    0.000    0.000 
#
# Total GULP energy -347147.104675 kJ/mol
# GULP energy per Si atom -12398.110881 kJ/mol
# Density = 2.034766 g / cm^3
# Si number density = 20.394074 Si / 1000 Ang^3
#
#
#
# Elastic Constant Matrix: (Units=GPa)
#
#
# Indices 1 2 3 4 5 6 
#
# 1 124.5920 75.9534 59.2963 0.0000 -15.4726 0.0000
# 2 75.9534 110.0175 47.4274 0.0000 -7.9647 0.0000
# 3 59.2963 47.4274 90.0798 0.0000 -9.7710 0.0000
# 4 0.0000 0.0000 0.0000 13.2083 0.0000 -0.1819
# 5 -15.4726 -7.9647 -9.7710 0.0000 28.9498 0.0000
# 6 0.0000 0.0000 0.0000 -0.1819 0.0000 32.9737
#
#
#
# Elastic Compliance Matrix: (Units=1/GPa)
#
#
# Indices 1 2 3 4 5 6 
#
# 1 0.016674 -0.008620 -0.005946 0.000000 0.004533 0.000000
# 2 -0.008620 0.016254 -0.003009 0.000000 -0.001151 0.000000
# 3 -0.005946 -0.003009 0.016779 0.000000 0.001658 0.000000
# 4 0.000000 0.000000 0.000000 0.075716 0.000000 0.000418
# 5 0.004533 -0.001151 0.001658 0.000000 0.037208 0.000000
# 6 0.000000 0.000000 0.000000 0.000418 0.000000 0.030329
#
#
# Mechanical properties :
#
#
# Convention : Reuss Voigt Hill
#
# Bulk Modulus (GPa) = 68.68739 76.67149 72.67944
# Shear Modulus (GPa) = 21.46286 24.49384 22.97835
#
# Velocity S-wave (km/s) = 3.24760 3.46934 3.36030
# Velocity P-wave (km/s) = 6.91489 7.32974 7.12534
#
# Compressibility (1/GPa) = 0.01455871
#
# Stress axis : x y z
#
# Youngs Moduli (GPa) = 59.97534 61.52337 59.59894
#
# Poissons Ratio (x) = 0.53032 0.35435
# Poissons Ratio (y) = 0.51697 0.17930
# Poissons Ratio (z) = 0.35659 0.18509
#
# Static dielectric constant tensor:
#      x y z
#    x 3.846180 0.000000 -0.218070 
#    y 0.000000 3.724240 0.000000 
#    z -0.218070 0.000000 3.635940 
# 
# 
# High freq. dielectric constant tensor:
#      x y z
#    x 1.799290 0.000000 -0.013100 
#    y 0.000000 1.803150 0.000000 
#    z -0.013100 0.000000 1.788430 
# 
# From -- ./inp_files/86529.got.cif
#   From: 2010.06.25/outbox.cif.g09.slc.cpg/sg10_44_cif.got.tgz:86529.got - 2010.06.27 22:07:45.
