data_PCOD8064222
_publ_section_title
;
Structure prediction by ZEFSAII (Michael W. Deem and Ramdas Pophale) SiO2 
 PCOD8064222
Probable space group: P 2/M
;
_chemical_formula_sum "Si O2"
_cell_formula_units_Z 32
_cell_length_a 15.079311
_cell_length_b 14.614790
_cell_length_c 21.245362
_cell_angle_alpha 90.000000
_cell_angle_beta 19.965460
_cell_angle_gamma 90.000000
_cell_volume 1598.710801
_symmetry_space_group_name_H-M "P 2/M"
_symmetry_group_IT_number 10
_symmetry_cell_setting 'monoclinic'
loop_
_space_group_symop_operation_xyz
x,y,z
-x,y,-z
-x,-y,-z
x,-y,z
loop_
_atom_site_type_symbol
_atom_site_label
_atom_site_fract_x
_atom_site_fract_y
_atom_site_fract_z
Si Si1 0.836889 0.840219 0.169340
Si Si2 0.357251 0.099129 0.414404
Si Si3 0.611107 0.601693 0.518893
Si Si4 0.701722 0.097200 0.063766
Si Si5 0.201424 0.709365 0.491654
Si Si6 0.578349 0.705650 0.124035
Si Si7 0.327123 0.396130 0.176719
Si Si8 0.857724 0.664683 0.231101
O O1 0.577181 0.891430 0.321151
O O2 0.753276 0.758704 0.271040
O O3 0.000000 0.803212 0.000000
O O4 0.019033 0.906948 0.088383
O O5 0.481991 0.098906 0.262806
O O6 0.163192 0.186405 0.543263
O O7 0.216776 0.000000 0.519451
O O8 0.727284 0.500000 0.450313
O O9 0.619882 0.654032 0.579033
O O10 0.789340 0.657366 0.350539
O O11 0.312873 0.590229 0.693397
O O12 0.661832 0.189608 0.049055
O O13 0.677081 0.000000 0.041909
O O14 0.346828 0.706330 0.328186
O O15 0.924765 0.663583 0.668451
O O16 0.493060 0.650575 0.120330
O O17 0.831742 0.655395 0.984696
O O18 0.250946 0.500000 0.246966
O O19 0.500000 0.397703 0.000000
#
# Coordination Sequence:
#
# PCOD8064222 Si02
#       8
#     4   4   4   4   4   4   4   4
#     4   9  15  27  52  83 116 153 194 235 277 324
#     4   9  16  29  52  84 118 151 187 229 280 339
#     4  11  23  38  55  78 114 163 200 229 284 357
#     4   8  15  28  51  85 120 152 186 226 277 339
#     4  11  22  39  62  88 117 145 190 246 294 334
#     4  10  22  37  62  91 116 146 188 246 295 328
#     4  11  25  45  66  84 108 150 198 237 288 355
#     4  10  20  35  56  80 119 155 193 232 281 346
#
# _framework density 20.016128999999999
#
# number of rings (size 3 to 8) (size 9 to 14) (size 15 to 20)
#    0.000    2.125    1.250    3.375    0.000    5.000 
#    0.000    1.250    0.000   12.000    0.000    0.000 
#    0.000    0.000    0.000    0.000    0.000    0.000 
#
# Total GULP energy -396483.353807 kJ/mol
# GULP energy per Si atom -12390.104806 kJ/mol
# Density = 1.997057 g / cm^3
# Si number density = 20.016129 Si / 1000 Ang^3
#
#
#
# Elastic Constant Matrix: (Units=GPa)
#
#
# Indices 1 2 3 4 5 6 
#
# 1 77.5732 50.6563 18.0403 0.0000 -9.8386 0.0000
# 2 50.6563 169.8185 42.5110 0.0000 -5.7097 0.0000
# 3 18.0403 42.5110 66.7420 0.0000 -19.2034 0.0000
# 4 0.0000 0.0000 0.0000 13.7672 0.0000 -0.8666
# 5 -9.8386 -5.7097 -19.2034 0.0000 31.5992 0.0000
# 6 0.0000 0.0000 0.0000 -0.8666 0.0000 21.3688
#
#
#
# Elastic Compliance Matrix: (Units=1/GPa)
#
#
# Indices 1 2 3 4 5 6 
#
# 1 0.016572 -0.004736 -0.000272 0.000000 0.004139 0.000000
# 2 -0.004736 0.008440 -0.004946 0.000000 -0.002955 0.000000
# 3 -0.000272 -0.004946 0.021724 0.000000 0.012224 0.000000
# 4 0.000000 0.000000 0.000000 0.072822 0.000000 0.002953
# 5 0.004139 -0.002955 0.012224 0.000000 0.039830 0.000000
# 6 0.000000 0.000000 0.000000 0.002953 0.000000 0.046917
#
#
# Mechanical properties :
#
#
# Convention : Reuss Voigt Hill
#
# Bulk Modulus (GPa) = 37.27459 59.61652 48.44555
# Shear Modulus (GPa) = 21.26249 26.87545 24.06897
#
# Velocity S-wave (km/s) = 3.26278 3.66825 3.47144
# Velocity P-wave (km/s) = 5.73210 6.91305 6.35009
#
# Compressibility (1/GPa) = 0.02682793
#
# Stress axis : x y z
#
# Youngs Moduli (GPa) = 60.34285 118.48033 46.03195
#
# Poissons Ratio (x) = 0.56114 0.01252
# Poissons Ratio (y) = 0.28579 0.22768
# Poissons Ratio (z) = 0.01641 0.58602
#
# Static dielectric constant tensor:
#      x y z
#    x 3.579990 0.000000 -0.082190 
#    y 0.000000 4.142720 0.000000 
#    z -0.082190 0.000000 3.399600 
# 
# 
# High freq. dielectric constant tensor:
#      x y z
#    x 1.764140 0.000000 -0.007750 
#    y 0.000000 1.793530 0.000000 
#    z -0.007750 0.000000 1.753400 
# 
# From -- ./inp_files/85397.got.cif
#   From: 2010.06.25/outbox.cif.g09.slc.cpg/sg10_43_cif.got.tgz:85397.got - 2010.06.27 22:07:45.
