data_PCOD8064133
_publ_section_title
;
Structure prediction by ZEFSAII (Michael W. Deem and Ramdas Pophale) SiO2 
 PCOD8064133
Probable space group: P 2/M
;
_chemical_formula_sum "Si O2"
_cell_formula_units_Z 24
_cell_length_a 18.336196
_cell_length_b 8.645895
_cell_length_c 24.826074
_cell_angle_alpha 90.000000
_cell_angle_beta 18.963428
_cell_angle_gamma 90.000000
_cell_volume 1278.978512
_symmetry_space_group_name_H-M "P 2/M"
_symmetry_group_IT_number 10
_symmetry_cell_setting 'monoclinic'
loop_
_space_group_symop_operation_xyz
x,y,z
-x,y,-z
-x,-y,-z
x,-y,z
loop_
_atom_site_type_symbol
_atom_site_label
_atom_site_fract_x
_atom_site_fract_y
_atom_site_fract_z
Si Si1 0.734075 0.681263 0.448920
Si Si2 0.189866 0.829837 0.322692
Si Si3 0.816251 0.181434 0.505911
Si Si4 0.325429 0.329812 0.670211
Si Si5 0.505554 0.321497 0.811485
Si Si6 0.026500 0.821199 0.152164
O O1 0.773543 0.500000 0.409666
O O2 0.782896 0.718351 0.476274
O O3 0.472436 0.725210 0.619152
O O4 0.898336 0.779772 0.296517
O O5 0.385090 0.714647 0.206112
O O6 0.000000 0.841483 0.500000
O O7 0.063020 0.773416 0.357034
O O8 0.296760 0.000000 0.238988
O O9 0.621148 0.219863 0.684601
O O10 0.803281 0.000000 0.501830
O O11 0.500000 0.340322 0.500000
O O12 0.219940 0.500000 0.754232
O O13 0.127046 0.211910 0.793386
O O14 0.542121 0.500000 0.772322
O O15 0.244940 0.283715 0.995688
O O16 0.093918 0.000000 0.105621
#
# Coordination Sequence:
#
# PCOD8064133 Si02
#       6
#     4   4   4   4   4   4
#     4  10  20  35  55  79 107 137 171 212 257 306
#     4   8  16  32  52  74 102 135 170 209 254 305
#     4  10  20  35  55  79 107 137 171 212 257 306
#     4   8  16  32  52  74 102 135 170 209 254 305
#     4  11  21  34  54  78 105 137 174 215 257 305
#     4  11  21  34  54  78 105 137 174 215 257 305
#
# _framework density 18.764973999999999
#
# number of rings (size 3 to 8) (size 9 to 14) (size 15 to 20)
#    0.000    2.333    0.000    6.000    0.000    7.333 
#    0.000    1.667    0.000   10.000    0.000    0.000 
#    0.000    0.000    0.000    0.000    0.000    0.000 
#
# Total GULP energy -297498.697914 kJ/mol
# GULP energy per Si atom -12395.779080 kJ/mol
# Density = 1.872226 g / cm^3
# Si number density = 18.764974 Si / 1000 Ang^3
#
#
#
# Elastic Constant Matrix: (Units=GPa)
#
#
# Indices 1 2 3 4 5 6 
#
# 1 185.9116 34.5098 57.0091 0.0000 -39.3472 0.0000
# 2 34.5098 71.7004 18.7340 0.0000 -14.1156 0.0000
# 3 57.0091 18.7340 72.1797 0.0000 -29.0981 0.0000
# 4 0.0000 0.0000 0.0000 26.6997 0.0000 -3.4166
# 5 -39.3472 -14.1156 -29.0981 0.0000 29.9296 0.0000
# 6 0.0000 0.0000 0.0000 -3.4166 0.0000 31.7462
#
#
#
# Elastic Compliance Matrix: (Units=1/GPa)
#
#
# Indices 1 2 3 4 5 6 
#
# 1 0.008116 -0.001739 -0.003270 0.000000 0.006671 0.000000
# 2 -0.001739 0.015883 -0.001070 0.000000 0.004165 0.000000
# 3 -0.003270 -0.001070 0.024304 0.000000 0.018825 0.000000
# 4 0.000000 0.000000 0.000000 0.037977 0.000000 0.004087
# 5 0.006671 0.004165 0.018825 0.000000 0.062448 0.000000
# 6 0.000000 0.000000 0.000000 0.004087 0.000000 0.031940
#
#
# Mechanical properties :
#
#
# Convention : Reuss Voigt Hill
#
# Bulk Modulus (GPa) = 27.66577 61.14419 44.40498
# Shear Modulus (GPa) = 24.40528 32.31103 28.35815
#
# Velocity S-wave (km/s) = 3.61026 4.15406 3.89167
# Velocity P-wave (km/s) = 5.67045 7.46078 6.62635
#
# Compressibility (1/GPa) = 0.03614574
#
# Stress axis : x y z
#
# Youngs Moduli (GPa) = 123.21033 62.95919 41.14608
#
# Poissons Ratio (x) = 0.10947 0.13454
# Poissons Ratio (y) = 0.21423 0.04404
# Poissons Ratio (z) = 0.40286 0.06738
#
# Static dielectric constant tensor:
#      x y z
#    x 3.947720 0.000000 -0.437860 
#    y 0.000000 3.399230 0.000000 
#    z -0.437860 0.000000 3.137370 
# 
# 
# High freq. dielectric constant tensor:
#      x y z
#    x 1.734370 0.000000 -0.029400 
#    y 0.000000 1.731870 0.000000 
#    z -0.029400 0.000000 1.694500 
# 
# From -- ./inp_files/75891.got.cif
#   From: 2010.06.25/outbox.cif.g09.slc.cpg/sg10_38_cif.got.tgz:75891.got - 2010.06.27 22:07:45.
