data_PCOD8064599
_publ_section_title
;
Structure prediction by ZEFSAII (Michael W. Deem and Ramdas Pophale) SiO2 
 PCOD8064599
Probable space group: P 2/M
;
_chemical_formula_sum "Si O2"
_cell_formula_units_Z 24
_cell_length_a 10.740655
_cell_length_b 13.071531
_cell_length_c 21.422319
_cell_angle_alpha 90.000000
_cell_angle_beta 155.778788
_cell_angle_gamma 90.000000
_cell_volume 1233.910365
_symmetry_space_group_name_H-M "P 2/M"
_symmetry_group_IT_number 10
_symmetry_cell_setting 'monoclinic'
loop_
_space_group_symop_operation_xyz
x,y,z
-x,y,-z
-x,-y,-z
x,-y,z
loop_
_atom_site_type_symbol
_atom_site_label
_atom_site_fract_x
_atom_site_fract_y
_atom_site_fract_z
Si Si1 0.275186 0.753152 0.050879
Si Si2 0.227275 0.202329 0.331778
Si Si3 0.358767 0.714679 0.659398
Si Si4 0.675947 0.113236 0.143001
Si Si5 0.727570 0.883533 0.780808
Si Si6 0.190050 0.382262 0.226804
O O1 0.479219 0.708323 0.199430
O O2 0.480395 0.825840 0.103107
O O3 0.987830 0.824127 0.939281
O O4 0.130720 0.656081 0.948652
O O5 0.500000 0.170872 0.500000
O O6 0.206937 0.125899 0.263159
O O7 0.249871 0.318967 0.317759
O O8 0.950855 0.187461 0.252265
O O9 0.409303 0.828334 0.653179
O O10 0.526845 0.633192 0.691221
O O11 0.000000 0.690750 0.500000
O O12 0.769655 0.000000 0.212480
O O13 0.500000 0.092306 0.000000
O O14 0.713602 0.000000 0.795602
O O15 0.160421 0.500000 0.231217
#
# Coordination Sequence:
#
# PCOD8064599 Si02
#       6
#     4   4   4   4   4   4
#     4  10  21  37  60  85 116 153 194 243 280 338
#     4  10  22  38  57  85 122 153 187 239 285 339
#     4  10  23  39  57  85 118 147 188 247 297 340
#     4  11  20  35  60  88 118 156 194 225 274 342
#     4  10  20  36  56  82 117 160 200 232 278 339
#     4  10  22  42  65  83 107 151 198 243 296 350
#
# _framework density 19.450361000000001
#
# number of rings (size 3 to 8) (size 9 to 14) (size 15 to 20)
#    0.000    2.167    3.333    3.000    4.667    5.667 
#    0.000    1.667    0.000    0.000    0.000    0.000 
#    0.000    0.000    0.000    0.000    0.000    0.000 
#
# Total GULP energy -297389.317264 kJ/mol
# GULP energy per Si atom -12391.221553 kJ/mol
# Density = 1.940609 g / cm^3
# Si number density = 19.450361 Si / 1000 Ang^3
#
#
#
# Elastic Constant Matrix: (Units=GPa)
#
#
# Indices 1 2 3 4 5 6 
#
# 1 66.9074 19.7935 27.4927 0.0000 17.0360 0.0000
# 2 19.7935 102.1826 10.6681 0.0000 17.1237 0.0000
# 3 27.4927 10.6681 101.3437 0.0000 2.1983 0.0000
# 4 0.0000 0.0000 0.0000 7.6166 0.0000 4.5496
# 5 17.0360 17.1237 2.1983 0.0000 27.1814 0.0000
# 6 0.0000 0.0000 0.0000 4.5496 0.0000 20.4305
#
#
#
# Elastic Compliance Matrix: (Units=1/GPa)
#
#
# Indices 1 2 3 4 5 6 
#
# 1 0.020409 -0.001502 -0.005130 0.000000 -0.011430 0.000000
# 2 -0.001502 0.011155 -0.000636 0.000000 -0.006034 0.000000
# 3 -0.005130 -0.000636 0.011267 0.000000 0.002705 0.000000
# 4 0.000000 0.000000 0.000000 0.151437 0.000000 -0.033723
# 5 -0.011430 -0.006034 0.002705 0.000000 0.047536 0.000000
# 6 0.000000 0.000000 0.000000 -0.033723 0.000000 0.056456
#
#
# Mechanical properties :
#
#
# Convention : Reuss Voigt Hill
#
# Bulk Modulus (GPa) = 35.34289 42.92692 39.13491
# Shear Modulus (GPa) = 15.51692 25.21098 20.36395
#
# Velocity S-wave (km/s) = 2.82755 3.60414 3.23920
# Velocity P-wave (km/s) = 5.37311 6.27994 5.84414
#
# Compressibility (1/GPa) = 0.02829423
#
# Stress axis : x y z
#
# Youngs Moduli (GPa) = 48.99826 89.64558 88.75108
#
# Poissons Ratio (x) = 0.13467 0.45534
# Poissons Ratio (y) = 0.07361 0.05643
# Poissons Ratio (z) = 0.25138 0.05700
#
# Static dielectric constant tensor:
#      x y z
#    x 3.472000 0.000000 -0.014300 
#    y 0.000000 3.361320 0.000000 
#    z -0.014300 0.000000 3.682420 
# 
# 
# High freq. dielectric constant tensor:
#      x y z
#    x 1.761530 0.000000 0.003130 
#    y 0.000000 1.739180 0.000000 
#    z 0.003130 0.000000 1.750870 
# 
# From -- ./inp_files/89007.got.cif
#   From: 2010.06.25/outbox.cif.g09.slc.cpg/sg10_45_cif.got.tgz:89007.got - 2010.06.27 22:07:45.
