data_PCOD8064779
_publ_section_title
;
Structure prediction by ZEFSAII (Michael W. Deem and Ramdas Pophale) SiO2 
 PCOD8064779
Probable space group: P 2/M
;
_chemical_formula_sum "Si O2"
_cell_formula_units_Z 28
_cell_length_a 9.211147
_cell_length_b 8.464974
_cell_length_c 29.192049
_cell_angle_alpha 90.000000
_cell_angle_beta 38.187895
_cell_angle_gamma 90.000000
_cell_volume 1407.222186
_symmetry_space_group_name_H-M "P 2/M"
_symmetry_group_IT_number 10
_symmetry_cell_setting 'monoclinic'
loop_
_space_group_symop_operation_xyz
x,y,z
-x,y,-z
-x,-y,-z
x,-y,z
loop_
_atom_site_type_symbol
_atom_site_label
_atom_site_fract_x
_atom_site_fract_y
_atom_site_fract_z
Si Si1 0.804982 0.813774 0.637837
Si Si2 0.339201 0.183400 0.224992
Si Si3 0.334934 0.185332 0.501239
Si Si4 0.511469 0.684192 0.363252
Si Si5 0.958382 0.684234 0.781477
Si Si6 0.738778 0.683469 0.070979
Si Si7 0.442327 0.183140 0.065736
O O1 0.693350 0.769910 0.714306
O O2 0.662823 0.721155 0.634729
O O3 0.070916 0.748224 0.571039
O O4 0.792457 0.000000 0.630679
O O5 0.156915 0.280903 0.239278
O O6 0.606613 0.223642 0.144496
O O7 0.286753 0.000000 0.229739
O O8 0.500000 0.261023 0.500000
O O9 0.437392 0.220755 0.426289
O O10 0.323619 0.000000 0.511795
O O11 0.504532 0.500000 0.376697
O O12 0.772388 0.739532 0.284943
O O13 0.935164 0.500000 0.797848
O O14 0.828191 0.780461 0.854325
O O15 0.744872 0.500000 0.082561
O O16 0.604222 0.707602 0.056890
O O17 0.000000 0.752111 0.000000
O O18 0.497928 0.000000 0.061154
O O19 0.500000 0.231890 0.000000
#
# Coordination Sequence:
#
# PCOD8064779 Si02
#       7
#     4   4   4   4   4   4   4
#     4  10  22  38  57  83 112 144 181 223 273 324
#     4  10  20  36  59  83 107 140 184 230 273 320
#     4  10  21  39  62  84 109 144 184 224 269 324
#     4  11  24  38  55  83 115 146 181 224 271 319
#     4  10  21  37  56  79 109 145 183 222 270 328
#     4  10  21  36  55  80 111 147 183 221 271 329
#     4  10  21  36  56  82 109 140 182 230 275 320
#
# _framework density 19.897355999999998
#
# number of rings (size 3 to 8) (size 9 to 14) (size 15 to 20)
#    0.000    1.857    0.000    5.143    0.000   10.571 
#    0.000    5.714    0.000    0.000    0.000    0.000 
#    0.000    0.000    0.000    0.000    0.000    0.000 
#
# Total GULP energy -347292.430861 kJ/mol
# GULP energy per Si atom -12403.301102 kJ/mol
# Density = 1.985207 g / cm^3
# Si number density = 19.897356 Si / 1000 Ang^3
#
#
#
# Elastic Constant Matrix: (Units=GPa)
#
#
# Indices 1 2 3 4 5 6 
#
# 1 110.9672 5.7405 79.8836 0.0000 -8.6881 0.0000
# 2 5.7405 25.4666 14.0814 0.0000 -2.7794 0.0000
# 3 79.8836 14.0814 155.4008 0.0000 -6.8576 0.0000
# 4 0.0000 0.0000 0.0000 16.1806 0.0000 -12.3202
# 5 -8.6881 -2.7794 -6.8576 0.0000 44.9259 0.0000
# 6 0.0000 0.0000 0.0000 -12.3202 0.0000 15.6139
#
#
#
# Elastic Compliance Matrix: (Units=1/GPa)
#
#
# Indices 1 2 3 4 5 6 
#
# 1 0.014455 0.001049 -0.007450 0.000000 0.001723 0.000000
# 2 0.001049 0.041594 -0.004214 0.000000 0.002133 0.000000
# 3 -0.007450 -0.004214 0.010643 0.000000 -0.000077 0.000000
# 4 0.000000 0.000000 0.000000 0.154815 0.000000 0.122158
# 5 0.001723 0.002133 -0.000077 0.000000 0.022712 0.000000
# 6 0.000000 0.000000 0.000000 0.122158 0.000000 0.160435
#
#
# Mechanical properties :
#
#
# Convention : Reuss Voigt Hill
#
# Bulk Modulus (GPa) = 21.99636 54.58284 38.28960
# Shear Modulus (GPa) = 11.33689 28.15268 19.74479
#
# Velocity S-wave (km/s) = 2.38957 3.76559 3.15355
# Velocity P-wave (km/s) = 4.32346 6.81161 5.70484
#
# Compressibility (1/GPa) = 0.04546207
#
# Stress axis : x y z
#
# Youngs Moduli (GPa) = 69.17892 24.04220 93.95892
#
# Poissons Ratio (x) = -0.02522 0.69997
# Poissons Ratio (y) = -0.07256 0.39594
# Poissons Ratio (z) = 0.51536 0.10131
#
# Static dielectric constant tensor:
#      x y z
#    x 3.599200 0.000000 -0.155260 
#    y 0.000000 3.490850 0.000000 
#    z -0.155260 0.000000 3.937940 
# 
# 
# High freq. dielectric constant tensor:
#      x y z
#    x 1.771130 0.000000 -0.003830 
#    y 0.000000 1.772430 0.000000 
#    z -0.003830 0.000000 1.793860 
# 
# From -- ./inp_files/37923.got.cif
#   From: 2010.06.25/outbox.cif.g09.slc.cpg/sg10_19_cif.got.tgz:37923.got - 2010.06.27 22:07:45.
