data_PCOD8064323
_publ_section_title
;
Structure prediction by ZEFSAII (Michael W. Deem and Ramdas Pophale) SiO2 
 PCOD8064323
Probable space group: P 2/M
;
_chemical_formula_sum "Si O2"
_cell_formula_units_Z 24
_cell_length_a 13.578164
_cell_length_b 9.068248
_cell_length_c 10.262410
_cell_angle_alpha 90.000000
_cell_angle_beta 79.310026
_cell_angle_gamma 90.000000
_cell_volume 1241.682523
_symmetry_space_group_name_H-M "P 2/M"
_symmetry_group_IT_number 10
_symmetry_cell_setting 'monoclinic'
loop_
_space_group_symop_operation_xyz
x,y,z
-x,y,-z
-x,-y,-z
x,-y,z
loop_
_atom_site_type_symbol
_atom_site_label
_atom_site_fract_x
_atom_site_fract_y
_atom_site_fract_z
Si Si1 0.554778 0.675428 0.858738
Si Si2 0.886047 0.173286 0.005107
Si Si3 0.221684 0.174152 0.704145
Si Si4 0.432777 0.327756 0.641099
Si Si5 0.780813 0.674403 0.792237
Si Si6 0.884454 0.329935 0.500484
O O1 0.556936 0.500000 0.856430
O O2 0.493582 0.733983 0.749799
O O3 0.667768 0.735986 0.829135
O O4 0.500000 0.737417 0.000000
O O5 0.819122 0.222476 0.144577
O O6 0.879174 0.000000 0.982559
O O7 0.847610 0.253941 0.886794
O O8 0.000000 0.223264 0.000000
O O9 0.329890 0.241884 0.652630
O O10 0.145100 0.231709 0.614823
O O11 0.228422 0.000000 0.690790
O O12 0.500000 0.295220 0.500000
O O13 0.407856 0.500000 0.661221
O O14 0.785729 0.500000 0.810446
O O15 0.821899 0.721141 0.641467
O O16 0.861832 0.500000 0.472823
O O17 0.000000 0.302546 0.500000
#
# Coordination Sequence:
#
# PCOD8064323 Si02
#       6
#     4   4   4   4   4   4
#     4   9  17  30  50  76 103 132 169 215 266 318
#     4  10  22  39  56  78 112 151 188 226 273 331
#     4  11  23  37  56  83 114 149 188 230 278 333
#     4  10  20  36  58  80 107 145 184 226 277 329
#     4  10  20  35  57  83 107 136 181 231 276 325
#     4  10  21  37  57  82 111 143 184 233 280 330
#
# _framework density 19.328612
#
# number of rings (size 3 to 8) (size 9 to 14) (size 15 to 20)
#    0.000    2.000    0.000    3.500    0.000    7.000 
#    0.000    0.833    0.000    3.000    0.000    0.000 
#    0.000    0.000    0.000    0.000    0.000    0.000 
#
# Total GULP energy -297704.458468 kJ/mol
# GULP energy per Si atom -12404.352436 kJ/mol
# Density = 1.928462 g / cm^3
# Si number density = 19.328612 Si / 1000 Ang^3
#
#
#
# Elastic Constant Matrix: (Units=GPa)
#
#
# Indices 1 2 3 4 5 6 
#
# 1 95.9818 25.3751 28.2676 0.0000 -2.7592 0.0000
# 2 25.3751 39.1021 26.1427 0.0000 0.6804 0.0000
# 3 28.2676 26.1427 86.5431 0.0000 6.7255 0.0000
# 4 0.0000 0.0000 0.0000 14.3607 0.0000 -9.8285
# 5 -2.7592 0.6804 6.7255 0.0000 40.6410 0.0000
# 6 0.0000 0.0000 0.0000 -9.8285 0.0000 177.4859
#
#
#
# Elastic Compliance Matrix: (Units=1/GPa)
#
#
# Indices 1 2 3 4 5 6 
#
# 1 0.012950 -0.006928 -0.002243 0.000000 0.001366 0.000000
# 2 -0.006928 0.035799 -0.008578 0.000000 0.000350 0.000000
# 3 -0.002243 -0.008578 0.015074 0.000000 -0.002503 0.000000
# 4 0.000000 0.000000 0.000000 0.072378 0.000000 0.004008
# 5 0.001366 0.000350 -0.002503 0.000000 0.025107 0.000000
# 6 0.000000 0.000000 0.000000 0.004008 0.000000 0.005856
#
#
# Mechanical properties :
#
#
# Convention : Reuss Voigt Hill
#
# Bulk Modulus (GPa) = 35.30633 42.35530 38.83082
# Shear Modulus (GPa) = 23.57333 55.95361 39.76347
#
# Velocity S-wave (km/s) = 3.49608 5.38623 4.54059
# Velocity P-wave (km/s) = 5.88241 7.78735 6.90092
#
# Compressibility (1/GPa) = 0.02832354
#
# Stress axis : x y z
#
# Youngs Moduli (GPa) = 77.21919 27.93360 66.34124
#
# Poissons Ratio (x) = 0.19352 0.14883
# Poissons Ratio (y) = 0.53496 0.56911
# Poissons Ratio (z) = 0.17323 0.23963
#
# Static dielectric constant tensor:
#      x y z
#    x 3.697380 0.000000 -0.083710 
#    y 0.000000 3.244490 0.000000 
#    z -0.083710 0.000000 3.708100 
# 
# 
# High freq. dielectric constant tensor:
#      x y z
#    x 1.771630 0.000000 -0.002080 
#    y 0.000000 1.723220 0.000000 
#    z -0.002080 0.000000 1.771090 
# 
# From -- ./inp_files/27073.got.cif
#   From: 2010.06.25/outbox.cif.g09.slc.cpg/sg10_14_cif.got.tgz:27073.got - 2010.06.27 22:07:45.
