data_PCOD8064491
_publ_section_title
;
Structure prediction by ZEFSAII (Michael W. Deem and Ramdas Pophale) SiO2 
 PCOD8064491
Probable space group: P 2/M
;
_chemical_formula_sum "Si O2"
_cell_formula_units_Z 28
_cell_length_a 11.838005
_cell_length_b 8.835703
_cell_length_c 14.722216
_cell_angle_alpha 90.000000
_cell_angle_beta 109.376078
_cell_angle_gamma 90.000000
_cell_volume 1452.682988
_symmetry_space_group_name_H-M "P 2/M"
_symmetry_group_IT_number 10
_symmetry_cell_setting 'monoclinic'
loop_
_space_group_symop_operation_xyz
x,y,z
-x,y,-z
-x,-y,-z
x,-y,z
loop_
_atom_site_type_symbol
_atom_site_label
_atom_site_fract_x
_atom_site_fract_y
_atom_site_fract_z
Si Si1 0.859254 0.324785 0.306559
Si Si2 0.707822 0.176686 0.763162
Si Si3 0.387904 0.177662 0.071120
Si Si4 0.876987 0.675685 0.671719
Si Si5 0.214472 0.821851 0.536172
Si Si6 0.480472 0.820661 0.594815
Si Si7 0.639419 0.680117 0.124590
O O1 0.843508 0.500000 0.325378
O O2 0.868435 0.238772 0.405009
O O3 0.749124 0.265720 0.216557
O O4 0.981223 0.293113 0.284509
O O5 0.702301 0.207355 0.869411
O O6 0.820403 0.262500 0.749923
O O7 0.584360 0.241776 0.687816
O O8 0.722031 0.000000 0.745308
O O9 0.518839 0.243483 0.130102
O O10 0.401981 0.000000 0.055081
O O11 0.333164 0.262072 0.969717
O O12 0.848413 0.500000 0.654591
O O13 0.821077 0.757445 0.570387
O O14 0.350256 0.770689 0.596080
O O15 0.200663 0.000000 0.526055
O O16 0.500000 0.751751 0.500000
O O17 0.487859 0.000000 0.592802
O O18 0.624936 0.500000 0.119247
#
# Coordination Sequence:
#
# PCOD8064491 Si02
#       7
#     4   4   4   4   4   4   4
#     4  10  23  40  55  76 109 147 185 228 274 316
#     4  10  20  36  56  80 110 145 181 220 270 327
#     4  10  20  35  59  88 116 140 170 223 285 330
#     4  11  23  38  54  75 110 150 185 226 271 319
#     4  11  21  35  58  83 107 143 186 226 273 327
#     4   9  16  30  52  76 107 138 168 213 264 314
#     4  10  20  37  60  83 110 143 183 225 267 326
#
# _framework density 19.274681999999999
#
# number of rings (size 3 to 8) (size 9 to 14) (size 15 to 20)
#    0.000    1.857    1.429    3.857    0.000    6.286 
#    0.000    2.857    0.000    4.286    0.000    0.000 
#    0.000    0.000    0.000    0.000    0.000    0.000 
#
# Total GULP energy -347237.303265 kJ/mol
# GULP energy per Si atom -12401.332259 kJ/mol
# Density = 1.923081 g / cm^3
# Si number density = 19.274682 Si / 1000 Ang^3
#
#
#
# Elastic Constant Matrix: (Units=GPa)
#
#
# Indices 1 2 3 4 5 6 
#
# 1 109.0953 44.4883 42.7731 0.0000 -18.3244 0.0000
# 2 44.4883 67.3905 23.1670 0.0000 -6.2324 0.0000
# 3 42.7731 23.1670 70.6436 0.0000 -15.4584 0.0000
# 4 0.0000 0.0000 0.0000 18.9150 0.0000 -2.2446
# 5 -18.3244 -6.2324 -15.4584 0.0000 28.9665 0.0000
# 6 0.0000 0.0000 0.0000 -2.2446 0.0000 29.4695
#
#
#
# Elastic Compliance Matrix: (Units=1/GPa)
#
#
# Indices 1 2 3 4 5 6 
#
# 1 0.015400 -0.007747 -0.005680 0.000000 0.005044 0.000000
# 2 -0.007747 0.020637 -0.002466 0.000000 -0.001777 0.000000
# 3 -0.005680 -0.002466 0.019815 0.000000 0.006451 0.000000
# 4 0.000000 0.000000 0.000000 0.053350 0.000000 0.004063
# 5 0.005044 -0.001777 0.006451 0.000000 0.040774 0.000000
# 6 0.000000 0.000000 0.000000 0.004063 0.000000 0.034243
#
#
# Mechanical properties :
#
#
# Convention : Reuss Voigt Hill
#
# Bulk Modulus (GPa) = 41.55279 51.99848 46.77564
# Shear Modulus (GPa) = 22.31892 24.58358 23.45125
#
# Velocity S-wave (km/s) = 3.40654 3.57520 3.49189
# Velocity P-wave (km/s) = 6.08915 6.63919 6.37011
#
# Compressibility (1/GPa) = 0.02406577
#
# Stress axis : x y z
#
# Youngs Moduli (GPa) = 64.93656 48.45777 50.46745
#
# Poissons Ratio (x) = 0.37541 0.28664
# Poissons Ratio (y) = 0.50307 0.12443
# Poissons Ratio (z) = 0.36883 0.11948
#
# Static dielectric constant tensor:
#      x y z
#    x 3.655180 0.000000 0.001340 
#    y 0.000000 3.403890 0.000000 
#    z 0.001340 0.000000 3.508070 
# 
# 
# High freq. dielectric constant tensor:
#      x y z
#    x 1.752330 0.000000 -0.008850 
#    y 0.000000 1.742230 0.000000 
#    z -0.008850 0.000000 1.745580 
# 
# From -- ./inp_files/63515.got.cif
#   From: 2010.06.25/outbox.cif.g09.slc.cpg/sg10_32_cif.got.tgz:63515.got - 2010.06.27 22:07:45.
