data_PCOD8064742
_publ_section_title
;
Structure prediction by ZEFSAII (Michael W. Deem and Ramdas Pophale) SiO2 
 PCOD8064742
Probable space group: P 2/M
;
_chemical_formula_sum "Si O2"
_cell_formula_units_Z 28
_cell_length_a 16.512632
_cell_length_b 9.192253
_cell_length_c 10.969312
_cell_angle_alpha 90.000000
_cell_angle_beta 54.835907
_cell_angle_gamma 90.000000
_cell_volume 1361.158193
_symmetry_space_group_name_H-M "P 2/M"
_symmetry_group_IT_number 10
_symmetry_cell_setting 'monoclinic'
loop_
_space_group_symop_operation_xyz
x,y,z
-x,y,-z
-x,-y,-z
x,-y,z
loop_
_atom_site_type_symbol
_atom_site_label
_atom_site_fract_x
_atom_site_fract_y
_atom_site_fract_z
Si Si1 0.757553 0.160012 0.242166
Si Si2 0.884955 0.659602 0.283834
Si Si3 0.559173 0.673058 0.073432
Si Si4 0.077413 0.161329 0.097363
Si Si5 0.764391 0.172891 0.844038
Si Si6 0.450833 0.829117 0.672256
Si Si7 0.891677 0.662418 0.562656
O O1 0.781408 0.266269 0.333024
O O2 0.665486 0.210488 0.239353
O O3 0.732033 0.000000 0.316541
O O4 0.858271 0.156708 0.079486
O O5 0.888692 0.500000 0.221837
O O6 0.879953 0.651993 0.430849
O O7 0.983341 0.740054 0.154677
O O8 0.566650 0.500000 0.083539
O O9 0.510311 0.741128 0.240818
O O10 0.500000 0.711762 0.000000
O O11 0.665952 0.744739 0.967425
O O12 0.147037 0.222039 0.143741
O O13 0.039303 0.000000 0.164081
O O14 0.803546 0.230161 0.680504
O O15 0.744981 0.000000 0.862612
O O16 0.500000 0.781127 0.500000
O O17 0.469505 0.000000 0.680269
O O18 0.880635 0.500000 0.630201
O O19 0.000000 0.727747 0.500000
#
# Coordination Sequence:
#
# PCOD8064742 Si02
#       7
#     4   4   4   4   4   4   4
#     4  10  21  39  59  85 122 158 197 250 307 358
#     4  11  23  36  55  86 121 161 207 248 294 361
#     4  11  25  44  67  96 130 165 205 258 321 387
#     4  10  20  36  58  84 117 155 196 247 299 352
#     4  11  22  38  64  92 117 154 206 254 300 361
#     4  10  22  43  70  97 126 163 210 264 320 376
#     4  10  21  38  56  81 123 166 202 248 303 358
#
# _framework density 20.570716000000001
#
# number of rings (size 3 to 8) (size 9 to 14) (size 15 to 20)
#    0.000    1.571    2.857    1.714    0.000    7.429 
#    0.000    2.857    0.000    0.000    0.000    0.000 
#    0.000    0.000    0.000    0.000    0.000    0.000 
#
# Total GULP energy -347062.737852 kJ/mol
# GULP energy per Si atom -12395.097780 kJ/mol
# Density = 2.052390 g / cm^3
# Si number density = 20.570716 Si / 1000 Ang^3
#
#
#
# Elastic Constant Matrix: (Units=GPa)
#
#
# Indices 1 2 3 4 5 6 
#
# 1 102.3621 58.0321 28.4450 0.0000 16.7983 0.0000
# 2 58.0321 103.3995 40.9829 0.0000 6.0727 0.0000
# 3 28.4450 40.9829 93.5914 0.0000 7.2960 0.0000
# 4 0.0000 0.0000 0.0000 34.8758 0.0000 -1.6989
# 5 16.7983 6.0727 7.2960 0.0000 25.1004 0.0000
# 6 0.0000 0.0000 0.0000 -1.6989 0.0000 42.4328
#
#
#
# Elastic Compliance Matrix: (Units=1/GPa)
#
#
# Indices 1 2 3 4 5 6 
#
# 1 0.016014 -0.008253 -0.000587 0.000000 -0.008550 0.000000
# 2 -0.008253 0.016002 -0.004735 0.000000 0.003028 0.000000
# 3 -0.000587 -0.004735 0.013114 0.000000 -0.002274 0.000000
# 4 0.000000 0.000000 0.000000 0.028729 0.000000 0.001150
# 5 -0.008550 0.003028 -0.002274 0.000000 0.045491 0.000000
# 6 0.000000 0.000000 0.000000 0.001150 0.000000 0.023613
#
#
# Mechanical properties :
#
#
# Convention : Reuss Voigt Hill
#
# Bulk Modulus (GPa) = 55.61539 61.58589 58.60064
# Shear Modulus (GPa) = 28.39200 31.94133 30.16666
#
# Velocity S-wave (km/s) = 3.71915 3.94478 3.83363
# Velocity P-wave (km/s) = 6.74816 7.12404 6.93865
#
# Compressibility (1/GPa) = 0.01798063
#
# Stress axis : x y z
#
# Youngs Moduli (GPa) = 62.44350 62.49154 76.25649
#
# Poissons Ratio (x) = 0.51576 0.04473
# Poissons Ratio (y) = 0.51537 0.36107
# Poissons Ratio (z) = 0.03663 0.29589
#
# Static dielectric constant tensor:
#      x y z
#    x 3.835620 0.000000 0.112090 
#    y 0.000000 4.026590 0.000000 
#    z 0.112090 0.000000 3.733850 
# 
# 
# High freq. dielectric constant tensor:
#      x y z
#    x 1.806880 0.000000 0.009220 
#    y 0.000000 1.801940 0.000000 
#    z 0.009220 0.000000 1.800560 
# 
# From -- ./inp_files/49589.got.cif
#   From: 2010.06.25/outbox.cif.g09.slc.cpg/sg10_25_cif.got.tgz:49589.got - 2010.06.27 22:07:45.
