data_PCOD8064266
_publ_section_title
;
Structure prediction by ZEFSAII (Michael W. Deem and Ramdas Pophale) SiO2 
 PCOD8064266
Probable space group: P 2/M
;
_chemical_formula_sum "Si O2"
_cell_formula_units_Z 32
_cell_length_a 32.571337
_cell_length_b 8.887848
_cell_length_c 12.463967
_cell_angle_alpha 90.000000
_cell_angle_beta 153.018787
_cell_angle_gamma 90.000000
_cell_volume 1637.026332
_symmetry_space_group_name_H-M "P 2/M"
_symmetry_group_IT_number 10
_symmetry_cell_setting 'monoclinic'
loop_
_space_group_symop_operation_xyz
x,y,z
-x,y,-z
-x,-y,-z
x,-y,z
loop_
_atom_site_type_symbol
_atom_site_label
_atom_site_fract_x
_atom_site_fract_y
_atom_site_fract_z
Si Si1 0.909770 0.671440 0.500765
Si Si2 0.278210 0.674196 0.844946
Si Si3 0.664742 0.324513 0.785295
Si Si4 0.427588 0.176684 0.611195
Si Si5 0.298271 0.675591 0.482358
Si Si6 0.630063 0.824222 0.138564
Si Si7 0.892901 0.671299 0.048708
Si Si8 0.846318 0.824438 0.149211
O O1 0.892975 0.500000 0.422023
O O2 0.829188 0.711072 0.395841
O O3 0.906974 0.780296 0.391985
O O4 0.009982 0.689304 0.786902
O O5 0.294049 0.500000 0.851023
O O6 0.317280 0.782968 0.846569
O O7 0.329854 0.714645 0.076142
O O8 0.653024 0.500000 0.739837
O O9 0.581545 0.242824 0.531043
O O10 0.754285 0.269683 0.933966
O O11 0.351546 0.242175 0.512070
O O12 0.414590 0.000000 0.575081
O O13 0.525422 0.221097 0.884099
O O14 0.318739 0.500000 0.520614
O O15 0.328951 0.731944 0.668851
O O16 0.190953 0.711999 0.223753
O O17 0.641394 0.000000 0.188081
O O18 0.882399 0.500000 0.065616
O O19 0.898433 0.782723 0.162321
O O20 0.824115 0.000000 0.100900
#
# Coordination Sequence:
#
# PCOD8064266 Si02
#       8
#     4   4   4   4   4   4   4   4
#     4   9  19  36  57  81 114 153 191 235 283 338
#     4   9  20  39  61  84 113 151 198 240 279 335
#     4  10  20  36  59  87 118 153 190 235 288 342
#     4  11  23  39  60  88 119 150 186 235 296 354
#     4  11  23  39  62  88 115 150 195 241 286 341
#     4  11  25  42  60  82 114 155 194 238 295 348
#     4  10  20  35  56  83 114 150 191 235 287 342
#     4  11  20  30  50  83 121 155 187 229 283 343
#
# _framework density 19.547639
#
# number of rings (size 3 to 8) (size 9 to 14) (size 15 to 20)
#    0.000    1.750    1.250    4.125    0.000    9.000 
#    0.000    3.125    0.000    3.750    0.000    0.000 
#    0.000    0.000    0.000    0.000    0.000    0.000 
#
# Total GULP energy -396784.675913 kJ/mol
# GULP energy per Si atom -12399.521122 kJ/mol
# Density = 1.950315 g / cm^3
# Si number density = 19.547639 Si / 1000 Ang^3
#
#
#
# Elastic Constant Matrix: (Units=GPa)
#
#
# Indices 1 2 3 4 5 6 
#
# 1 73.2274 33.3207 44.5250 0.0000 -4.4021 0.0000
# 2 33.3207 80.0266 50.5854 0.0000 -5.5688 0.0000
# 3 44.5250 50.5854 133.8767 0.0000 4.9908 0.0000
# 4 0.0000 0.0000 0.0000 16.2970 0.0000 -1.6356
# 5 -4.4021 -5.5688 4.9908 0.0000 20.6290 0.0000
# 6 0.0000 0.0000 0.0000 -1.6356 0.0000 22.0954
#
#
#
# Elastic Compliance Matrix: (Units=1/GPa)
#
#
# Indices 1 2 3 4 5 6 
#
# 1 0.018827 -0.004622 -0.004660 0.000000 0.003897 0.000000
# 2 -0.004622 0.018318 -0.005582 0.000000 0.005309 0.000000
# 3 -0.004660 -0.005582 0.011324 0.000000 -0.005241 0.000000
# 4 0.000000 0.000000 0.000000 0.061820 0.000000 0.004576
# 5 0.003897 0.005309 -0.005241 0.000000 0.052008 0.000000
# 6 0.000000 0.000000 0.000000 0.004576 0.000000 0.045597
#
#
# Mechanical properties :
#
#
# Convention : Reuss Voigt Hill
#
# Bulk Modulus (GPa) = 53.36105 60.44366 56.90235
# Shear Modulus (GPa) = 20.50255 22.38424 21.44339
#
# Velocity S-wave (km/s) = 3.24211 3.38762 3.31566
# Velocity P-wave (km/s) = 6.43213 6.80365 6.62049
#
# Compressibility (1/GPa) = 0.01874026
#
# Stress axis : x y z
#
# Youngs Moduli (GPa) = 53.11443 54.58992 88.30613
#
# Poissons Ratio (x) = 0.25231 0.41155
# Poissons Ratio (y) = 0.24549 0.49296
# Poissons Ratio (z) = 0.24754 0.30474
#
# Static dielectric constant tensor:
#      x y z
#    x 3.372630 0.000000 0.042390 
#    y 0.000000 3.584580 0.000000 
#    z 0.042390 0.000000 3.870380 
# 
# 
# High freq. dielectric constant tensor:
#      x y z
#    x 1.738430 0.000000 0.008350 
#    y 0.000000 1.764380 0.000000 
#    z 0.008350 0.000000 1.772250 
# 
# From -- ./inp_files/58321.got.cif
#   From: 2010.06.25/outbox.cif.g09.slc.cpg/sg10_30_cif.got.tgz:58321.got - 2010.06.27 22:07:45.
