data_PCOD8064530
_publ_section_title
;
Structure prediction by ZEFSAII (Michael W. Deem and Ramdas Pophale) SiO2 
 PCOD8064530
Probable space group: P 2/M
;
_chemical_formula_sum "Si O2"
_cell_formula_units_Z 32
_cell_length_a 14.694101
_cell_length_b 14.021058
_cell_length_c 8.646502
_cell_angle_alpha 90.000000
_cell_angle_beta 57.010874
_cell_angle_gamma 90.000000
_cell_volume 1494.201508
_symmetry_space_group_name_H-M "P 2/M"
_symmetry_group_IT_number 10
_symmetry_cell_setting 'monoclinic'
loop_
_space_group_symop_operation_xyz
x,y,z
-x,y,-z
-x,-y,-z
x,-y,z
loop_
_atom_site_type_symbol
_atom_site_label
_atom_site_fract_x
_atom_site_fract_y
_atom_site_fract_z
Si Si1 0.649931 0.393730 0.484588
Si Si2 0.097120 0.251688 0.511341
Si Si3 0.970911 0.611725 0.853646
Si Si4 0.419038 0.605092 0.804571
Si Si5 0.224441 0.709738 0.103721
Si Si6 0.723259 0.109247 0.106700
Si Si7 0.518012 0.108868 0.652734
Si Si8 0.267516 0.805628 0.560429
O O1 0.698003 0.500000 0.476620
O O2 0.614387 0.389737 0.341481
O O3 0.547282 0.372128 0.692062
O O4 0.737952 0.310141 0.423817
O O5 0.186960 0.298883 0.315244
O O6 0.159923 0.171798 0.557411
O O7 0.000000 0.203712 0.500000
O O8 0.046593 0.334612 0.661924
O O9 0.987467 0.500000 0.813956
O O10 0.845856 0.639896 0.940138
O O11 0.000000 0.643532 0.000000
O O12 0.396975 0.500000 0.893029
O O13 0.350466 0.680189 0.969486
O O14 0.206767 0.819592 0.063695
O O15 0.598834 0.117918 0.157334
O O16 0.736669 0.139684 0.273222
O O17 0.763533 0.000000 0.051700
O O18 0.500000 0.154347 0.500000
O O19 0.620524 0.164523 0.632638
O O20 0.555732 0.000000 0.603489
#
# Coordination Sequence:
#
# PCOD8064530 Si02
#       8
#     4   4   4   4   4   4   4   4
#     4   9  18  29  48  83 120 149 191 240 280 338
#     4  10  25  41  57  83 119 156 196 242 298 354
#     4  10  22  40  64  91 114 144 198 260 303 341
#     4   9  17  30  50  82 119 154 188 229 285 349
#     4  11  20  37  59  81 119 161 195 234 298 364
#     4  10  20  35  61  94 120 147 192 245 294 353
#     4   8  16  30  54  89 119 144 186 242 294 344
#     4  11  18  34  60  81 113 159 199 244 290 345
#
# _framework density 21.416118999999998
#
# number of rings (size 3 to 8) (size 9 to 14) (size 15 to 20)
#    0.000    2.250    1.250    3.750    3.500    3.250 
#    0.000    3.750    0.000   20.250    0.000    0.000 
#    0.000    0.000    0.000    0.000    0.000    0.000 
#
# Total GULP energy -396498.157408 kJ/mol
# GULP energy per Si atom -12390.567419 kJ/mol
# Density = 2.136738 g / cm^3
# Si number density = 21.416119 Si / 1000 Ang^3
#
#
#
# Elastic Constant Matrix: (Units=GPa)
#
#
# Indices 1 2 3 4 5 6 
#
# 1 86.8568 33.5107 11.3331 0.0000 0.5777 0.0000
# 2 33.5107 93.5887 30.4468 0.0000 2.1397 0.0000
# 3 11.3331 30.4468 89.2524 0.0000 -3.5565 0.0000
# 4 0.0000 0.0000 0.0000 20.6691 0.0000 -12.2055
# 5 0.5777 2.1397 -3.5565 0.0000 18.2960 0.0000
# 6 0.0000 0.0000 0.0000 -12.2055 0.0000 18.4042
#
#
#
# Elastic Compliance Matrix: (Units=1/GPa)
#
#
# Indices 1 2 3 4 5 6 
#
# 1 0.013359 -0.004765 -0.000066 0.000000 0.000123 0.000000
# 2 -0.004765 0.013808 -0.004196 0.000000 -0.002280 0.000000
# 3 -0.000066 -0.004196 0.012763 0.000000 0.002974 0.000000
# 4 0.000000 0.000000 0.000000 0.079526 0.000000 0.052741
# 5 0.000123 -0.002280 0.002974 0.000000 0.055498 0.000000
# 6 0.000000 0.000000 0.000000 0.052741 0.000000 0.089313
#
#
# Mechanical properties :
#
#
# Convention : Reuss Voigt Hill
#
# Bulk Modulus (GPa) = 45.71218 46.69769 46.20493
# Shear Modulus (GPa) = 17.26443 24.43433 20.84938
#
# Velocity S-wave (km/s) = 2.84234 3.38143 3.12354
# Velocity P-wave (km/s) = 5.67124 6.09079 5.88476
#
# Compressibility (1/GPa) = 0.02187601
#
# Stress axis : x y z
#
# Youngs Moduli (GPa) = 74.85393 72.41933 78.35412
#
# Poissons Ratio (x) = 0.34507 0.00517
# Poissons Ratio (y) = 0.35667 0.32880
# Poissons Ratio (z) = 0.00494 0.30390
#
# Static dielectric constant tensor:
#      x y z
#    x 4.035200 0.000000 -0.228420 
#    y 0.000000 3.885990 0.000000 
#    z -0.228420 0.000000 3.734600 
# 
# 
# High freq. dielectric constant tensor:
#      x y z
#    x 1.823100 0.000000 -0.017860 
#    y 0.000000 1.829190 0.000000 
#    z -0.017860 0.000000 1.820970 
# 
# From -- ./inp_files/29489.got.cif
#   From: 2010.06.25/outbox.cif.g09.slc.cpg/sg10_15_cif.got.tgz:29489.got - 2010.06.27 22:07:45.
