data_PCOD8064104
_publ_section_title
;
Structure prediction by ZEFSAII (Michael W. Deem and Ramdas Pophale) SiO2 
 PCOD8064104
Probable space group: P 2/M
;
_chemical_formula_sum "Si O2"
_cell_formula_units_Z 32
_cell_length_a 15.078780
_cell_length_b 14.046599
_cell_length_c 13.279741
_cell_angle_alpha 90.000000
_cell_angle_beta 40.553050
_cell_angle_gamma 90.000000
_cell_volume 1828.697124
_symmetry_space_group_name_H-M "P 2/M"
_symmetry_group_IT_number 10
_symmetry_cell_setting 'monoclinic'
loop_
_space_group_symop_operation_xyz
x,y,z
-x,y,-z
-x,-y,-z
x,-y,z
loop_
_atom_site_type_symbol
_atom_site_label
_atom_site_fract_x
_atom_site_fract_y
_atom_site_fract_z
Si Si1 0.939987 0.795704 0.317354
Si Si2 0.795020 0.110430 0.842660
Si Si3 0.866047 0.887522 0.175807
Si Si4 0.962793 0.392660 0.194832
Si Si5 0.526179 0.890780 0.192897
Si Si6 0.605612 0.214117 0.318743
Si Si7 0.230432 0.890248 0.366462
Si Si8 0.220693 0.392668 0.838571
O O1 0.865176 0.843985 0.287600
O O2 0.938771 0.681339 0.306097
O O3 0.860901 0.822114 0.486578
O O4 0.095364 0.830453 0.188780
O O5 0.800942 0.138200 0.720730
O O6 0.828858 0.000000 0.828898
O O7 0.647343 0.136378 0.012931
O O8 0.735388 0.852356 0.227362
O O9 0.859676 0.000000 0.190635
O O10 0.000000 0.853303 0.000000
O O11 0.943276 0.500000 0.252742
O O12 0.854036 0.370046 0.201714
O O13 0.114569 0.379104 0.020877
O O14 0.527108 0.823860 0.289078
O O15 0.388697 0.872225 0.250300
O O16 0.536962 0.000000 0.219471
O O17 0.500000 0.210806 0.500000
O O18 0.652421 0.322146 0.257750
O O19 0.190463 0.000000 0.422071
O O20 0.278247 0.500000 0.789131
#
# Coordination Sequence:
#
# PCOD8064104 Si02
#       8
#     4   4   4   4   4   4   4   4
#     4  12  20  31  54  80 106 129 166 218 269 309
#     4  10  20  35  55  77 100 134 181 223 255 298
#     4  11  22  34  49  73 108 147 179 205 245 311
#     4   9  18  33  56  78 100 135 176 214 255 310
#     4  10  21  36  52  71 103 147 184 208 244 305
#     4  12  23  33  50  79 113 143 170 211 260 317
#     4  10  21  36  53  75 104 137 175 221 265 299
#     4   9  18  35  54  74 102 138 178 216 252 299
#
# _framework density 17.498797
#
# number of rings (size 3 to 8) (size 9 to 14) (size 15 to 20)
#    0.000    1.625    1.250    6.000    0.000    6.750 
#    0.000    0.000    0.000    1.500    0.000    0.000 
#    0.000    5.000    0.000    0.000    0.000    0.000 
#
# Total GULP energy -396944.627230 kJ/mol
# GULP energy per Si atom -12404.519601 kJ/mol
# Density = 1.745897 g / cm^3
# Si number density = 17.498797 Si / 1000 Ang^3
#
#
#
# Elastic Constant Matrix: (Units=GPa)
#
#
# Indices 1 2 3 4 5 6 
#
# 1 48.7261 23.1631 -0.3833 0.0000 3.4227 0.0000
# 2 23.1631 91.3010 35.2671 0.0000 6.1591 0.0000
# 3 -0.3833 35.2671 72.8645 0.0000 3.6684 0.0000
# 4 0.0000 0.0000 0.0000 19.1708 0.0000 3.1435
# 5 3.4227 6.1591 3.6684 0.0000 30.4661 0.0000
# 6 0.0000 0.0000 0.0000 3.1435 0.0000 12.1417
#
#
#
# Elastic Compliance Matrix: (Units=1/GPa)
#
#
# Indices 1 2 3 4 5 6 
#
# 1 0.024249 -0.007529 0.003856 0.000000 -0.001666 0.000000
# 2 -0.007529 0.015925 -0.007675 0.000000 -0.001450 0.000000
# 3 0.003856 -0.007675 0.017509 0.000000 -0.000990 0.000000
# 4 0.000000 0.000000 0.000000 0.054475 0.000000 -0.014104
# 5 -0.001666 -0.001450 -0.000990 0.000000 0.033423 0.000000
# 6 0.000000 0.000000 0.000000 -0.014104 0.000000 0.086012
#
#
# Mechanical properties :
#
#
# Convention : Reuss Voigt Hill
#
# Bulk Modulus (GPa) = 28.58178 36.55394 32.56786
# Shear Modulus (GPa) = 18.80039 22.67870 20.73955
#
# Velocity S-wave (km/s) = 3.28133 3.60393 3.44641
# Velocity P-wave (km/s) = 5.54303 6.18486 5.87272
#
# Compressibility (1/GPa) = 0.03498733
#
# Stress axis : x y z
#
# Youngs Moduli (GPa) = 41.23832 62.79388 57.11422
#
# Poissons Ratio (x) = 0.47277 -0.22020
# Poissons Ratio (y) = 0.31048 0.43833
# Poissons Ratio (z) = -0.15899 0.48191
#
# Static dielectric constant tensor:
#      x y z
#    x 3.241280 0.000000 -0.055820 
#    y 0.000000 3.242100 0.000000 
#    z -0.055820 0.000000 3.227510 
# 
# 
# High freq. dielectric constant tensor:
#      x y z
#    x 1.670670 0.000000 -0.007020 
#    y 0.000000 1.664970 0.000000 
#    z -0.007020 0.000000 1.677260 
# 
# From -- ./inp_files/29494.got.cif
#   From: 2010.06.25/outbox.cif.g09.slc.cpg/sg10_15_cif.got.tgz:29494.got - 2010.06.27 22:07:45.
