data_PCOD8064015
_publ_section_title
;
Structure prediction by ZEFSAII (Michael W. Deem and Ramdas Pophale) SiO2 
 PCOD8064015
Probable space group: P 2/M
;
_chemical_formula_sum "Si O2"
_cell_formula_units_Z 28
_cell_length_a 20.072142
_cell_length_b 9.070504
_cell_length_c 23.865468
_cell_angle_alpha 90.000000
_cell_angle_beta 158.244352
_cell_angle_gamma 90.000000
_cell_volume 1610.489587
_symmetry_space_group_name_H-M "P 2/M"
_symmetry_group_IT_number 10
_symmetry_cell_setting 'monoclinic'
loop_
_space_group_symop_operation_xyz
x,y,z
-x,y,-z
-x,-y,-z
x,-y,z
loop_
_atom_site_type_symbol
_atom_site_label
_atom_site_fract_x
_atom_site_fract_y
_atom_site_fract_z
Si Si1 0.296443 0.174371 0.492655
Si Si2 0.374261 0.826483 0.952825
Si Si3 0.620262 0.334318 0.936471
Si Si4 0.000883 0.328340 0.064808
Si Si5 0.949856 0.333639 0.261746
Si Si6 0.607800 0.327194 0.800488
Si Si7 0.689781 0.825812 0.624912
O O1 0.133545 0.245513 0.399574
O O2 0.482176 0.231082 0.662985
O O3 0.288328 0.225387 0.422045
O O4 0.285598 0.000000 0.490416
O O5 0.179621 0.746911 0.793563
O O6 0.344786 0.000000 0.931886
O O7 0.500000 0.777899 0.000000
O O8 0.466451 0.771760 0.083504
O O9 0.545866 0.500000 0.886988
O O10 0.574841 0.277742 0.839001
O O11 0.838386 0.334431 0.115840
O O12 0.046260 0.500000 0.104963
O O13 0.152413 0.240711 0.215468
O O14 0.810721 0.288989 0.943351
O O15 0.000000 0.275984 0.000000
O O16 0.993043 0.500000 0.315426
O O17 0.567366 0.500000 0.760412
O O18 0.500000 0.766666 0.500000
O O19 0.700431 0.000000 0.638576
#
# Coordination Sequence:
#
# PCOD8064015 Si02
#       7
#     4   4   4   4   4   4   4
#     4  11  22  34  51  77 105 138 180 222 266 318
#     4   9  17  30  52  82 112 138 170 215 262 312
#     4   8  17  31  50  75 102 136 176 213 255 311
#     4  10  21  36  55  79 105 135 178 225 267 314
#     4   9  18  33  53  76 104 138 173 214 261 308
#     4  10  20  35  52  74 105 139 177 220 266 316
#     4  10  22  38  54  75 106 140 177 220 268 323
#
# _framework density 17.386018
#
# number of rings (size 3 to 8) (size 9 to 14) (size 15 to 20)
#    0.857    1.571    0.000    2.571    0.000    5.143 
#    0.000    0.000    0.000    0.857    0.000    6.000 
#    0.000    0.000    0.000    0.000    0.000    0.000 
#
# Total GULP energy -347064.318716 kJ/mol
# GULP energy per Si atom -12395.154240 kJ/mol
# Density = 1.734645 g / cm^3
# Si number density = 17.386018 Si / 1000 Ang^3
#
#
#
# Elastic Constant Matrix: (Units=GPa)
#
#
# Indices 1 2 3 4 5 6 
#
# 1 130.3676 50.7092 49.6162 0.0000 6.2310 0.0000
# 2 50.7092 64.0168 35.2273 0.0000 6.0533 0.0000
# 3 49.6162 35.2273 87.5062 0.0000 0.9675 0.0000
# 4 0.0000 0.0000 0.0000 32.2005 0.0000 0.8646
# 5 6.2310 6.0533 0.9675 0.0000 28.7126 0.0000
# 6 0.0000 0.0000 0.0000 0.8646 0.0000 17.7245
#
#
#
# Elastic Compliance Matrix: (Units=1/GPa)
#
#
# Indices 1 2 3 4 5 6 
#
# 1 0.012032 -0.007314 -0.003868 0.000000 -0.000939 0.000000
# 2 -0.007314 0.024972 -0.005868 0.000000 -0.003480 0.000000
# 3 -0.003868 -0.005868 0.015966 0.000000 0.001538 0.000000
# 4 0.000000 0.000000 0.000000 0.031096 0.000000 -0.001517
# 5 -0.000939 -0.003480 0.001538 0.000000 0.035713 0.000000
# 6 0.000000 0.000000 0.000000 -0.001517 0.000000 0.056493
#
#
# Mechanical properties :
#
#
# Convention : Reuss Voigt Hill
#
# Bulk Modulus (GPa) = 52.98819 61.44401 57.21610
# Shear Modulus (GPa) = 23.07735 25.48336 24.28036
#
# Velocity S-wave (km/s) = 3.64724 3.83265 3.74109
# Velocity P-wave (km/s) = 6.94839 7.41643 7.18622
#
# Compressibility (1/GPa) = 0.01887213
#
# Stress axis : x y z
#
# Youngs Moduli (GPa) = 83.10869 40.04412 62.63392
#
# Poissons Ratio (x) = 0.29289 0.24224
# Poissons Ratio (y) = 0.60787 0.36751
# Poissons Ratio (z) = 0.32143 0.23496
#
# Static dielectric constant tensor:
#      x y z
#    x 3.257800 0.000000 -0.009860 
#    y 0.000000 3.181720 0.000000 
#    z -0.009860 0.000000 3.038750 
# 
# 
# High freq. dielectric constant tensor:
#      x y z
#    x 1.667600 0.000000 0.002050 
#    y 0.000000 1.674760 0.000000 
#    z 0.002050 0.000000 1.657260 
# 
# From -- ./inp_files/37909.got.cif
#   From: 2010.06.25/outbox.cif.g09.slc.cpg/sg10_19_cif.got.tgz:37909.got - 2010.06.27 22:07:45.
