data_PCOD8064383
_publ_section_title
;
Structure prediction by ZEFSAII (Michael W. Deem and Ramdas Pophale) SiO2 
 PCOD8064383
Probable space group: P 2/M
;
_chemical_formula_sum "Si O2"
_cell_formula_units_Z 32
_cell_length_a 25.175130
_cell_length_b 9.066447
_cell_length_c 15.409714
_cell_angle_alpha 90.000000
_cell_angle_beta 27.559105
_cell_angle_gamma 90.000000
_cell_volume 1627.303507
_symmetry_space_group_name_H-M "P 2/M"
_symmetry_group_IT_number 10
_symmetry_cell_setting 'monoclinic'
loop_
_space_group_symop_operation_xyz
x,y,z
-x,y,-z
-x,-y,-z
x,-y,z
loop_
_atom_site_type_symbol
_atom_site_label
_atom_site_fract_x
_atom_site_fract_y
_atom_site_fract_z
Si Si1 0.617384 0.673862 0.876387
Si Si2 0.030526 0.675238 0.360045
Si Si3 0.631921 0.666814 0.331827
Si Si4 0.656593 0.326722 0.493634
Si Si5 0.137725 0.674692 0.545478
Si Si6 0.262188 0.828887 0.975424
Si Si7 0.902379 0.675212 0.205343
Si Si8 0.436675 0.172127 0.874308
O O1 0.615382 0.500000 0.896520
O O2 0.728427 0.720400 0.658626
O O3 0.500000 0.725928 0.000000
O O4 0.630971 0.754736 0.948324
O O5 0.033175 0.500000 0.353390
O O6 0.000000 0.733339 0.500000
O O7 0.938457 0.738005 0.423552
O O8 0.154958 0.734208 0.159039
O O9 0.500000 0.676275 0.500000
O O10 0.678343 0.500000 0.251093
O O11 0.648233 0.719217 0.406047
O O12 0.703437 0.779553 0.170435
O O13 0.636485 0.500000 0.536865
O O14 0.779809 0.273719 0.347667
O O15 0.562218 0.242515 0.686395
O O16 0.129340 0.500000 0.557396
O O17 0.087191 0.734539 0.710520
O O18 0.367104 0.793760 0.887605
O O19 0.229596 0.000000 0.022543
O O20 0.912352 0.500000 0.190253
O O21 0.000000 0.742326 0.000000
O O22 0.449066 0.000000 0.873884
#
# Coordination Sequence:
#
# PCOD8064383 Si02
#       8
#     4   4   4   4   4   4   4   4
#     4  10  20  36  61  88 113 144 185 234 284 335
#     4  10  21  37  59  84 112 149 192 240 286 331
#     4  10  20  35  57  86 113 143 188 242 288 337
#     4  10  20  35  58  85 113 147 189 235 286 337
#     4   9  18  33  54  83 116 145 182 232 285 335
#     4  11  24  38  55  81 115 154 191 230 285 349
#     4   9  18  32  54  85 115 143 179 229 283 335
#     4  11  23  37  55  82 115 151 185 228 284 343
#
# _framework density 19.664432999999999
#
# number of rings (size 3 to 8) (size 9 to 14) (size 15 to 20)
#    0.000    2.000    1.250    2.250    1.750    5.750 
#    0.000    0.625    0.000    1.125    0.000    0.000 
#    0.000    0.000    0.000    0.000    0.000    0.000 
#
# Total GULP energy -396850.281576 kJ/mol
# GULP energy per Si atom -12401.571299 kJ/mol
# Density = 1.961968 g / cm^3
# Si number density = 19.664433 Si / 1000 Ang^3
#
#
#
# Elastic Constant Matrix: (Units=GPa)
#
#
# Indices 1 2 3 4 5 6 
#
# 1 123.6722 20.4112 54.9542 0.0000 12.8469 0.0000
# 2 20.4112 18.2384 16.2481 0.0000 2.3719 0.0000
# 3 54.9542 16.2481 133.1166 0.0000 9.9074 0.0000
# 4 0.0000 0.0000 0.0000 1.1025 0.0000 13.9225
# 5 12.8469 2.3719 9.9074 0.0000 36.7378 0.0000
# 6 0.0000 0.0000 0.0000 13.9225 0.0000 16.0532
#
#
#
# Elastic Compliance Matrix: (Units=1/GPa)
#
#
# Indices 1 2 3 4 5 6 
#
# 1 0.011396 -0.009431 -0.003370 0.000000 -0.002467 0.000000
# 2 -0.009431 0.069465 -0.004589 0.000000 0.000051 0.000000
# 3 -0.003370 -0.004589 0.009545 0.000000 -0.001099 0.000000
# 4 0.000000 0.000000 0.000000 -0.091139 0.000000 0.079043
# 5 -0.002467 0.000051 -0.001099 0.000000 0.028376 0.000000
# 6 0.000000 0.000000 0.000000 0.079043 0.000000 -0.006259
#
#
# Mechanical properties :
#
#
# Convention : Reuss Voigt Hill
#
# Bulk Modulus (GPa) = 17.97690 50.91712 34.44701
# Shear Modulus (GPa) = 66.92862 23.00628 44.96745
#
# Velocity S-wave (km/s) = 5.84031 3.42415 4.78718
# Velocity P-wave (km/s) = 7.39193 6.44844 6.93625
#
# Compressibility (1/GPa) = 0.05562696
#
# Stress axis : x y z
#
# Youngs Moduli (GPa) = 87.74937 14.39567 104.76254
#
# Poissons Ratio (x) = 0.13576 0.35304
# Poissons Ratio (y) = 0.82754 0.48079
# Poissons Ratio (z) = 0.29571 0.06607
#
# Static dielectric constant tensor:
#      x y z
#    x 3.778740 0.000000 0.069150 
#    y 0.000000 3.201710 0.000000 
#    z 0.069150 0.000000 3.694460 
# 
# 
# High freq. dielectric constant tensor:
#      x y z
#    x 1.780610 0.000000 0.004830 
#    y 0.000000 1.724420 0.000000 
#    z 0.004830 0.000000 1.778220 
# 
# From -- ./inp_files/71459.got.cif
#   From: 2010.06.25/outbox.cif.g09.slc.cpg/sg10_36_cif.got.tgz:71459.got - 2010.06.27 22:07:45.
