data_PCOD8064861
_publ_section_title
;
Structure prediction by ZEFSAII (Michael W. Deem and Ramdas Pophale) SiO2 
 PCOD8064861
Probable space group: P 2/M
;
_chemical_formula_sum "Si O2"
_cell_formula_units_Z 24
_cell_length_a 14.814022
_cell_length_b 16.913073
_cell_length_c 9.788434
_cell_angle_alpha 90.000000
_cell_angle_beta 29.082358
_cell_angle_gamma 90.000000
_cell_volume 1192.076836
_symmetry_space_group_name_H-M "P 2/M"
_symmetry_group_IT_number 10
_symmetry_cell_setting 'monoclinic'
loop_
_space_group_symop_operation_xyz
x,y,z
-x,y,-z
-x,-y,-z
x,-y,z
loop_
_atom_site_type_symbol
_atom_site_label
_atom_site_fract_x
_atom_site_fract_y
_atom_site_fract_z
Si Si1 0.639757 0.344783 0.193706
Si Si2 0.224243 0.805501 0.447763
Si Si3 0.606190 0.500000 0.070090
Si Si4 0.911427 0.088235 0.765716
Si Si5 0.396253 0.194498 0.931739
Si Si6 0.973220 0.655217 0.193318
Si Si7 0.217527 0.500000 0.458752
O O1 0.500000 0.364378 0.500000
O O2 0.669903 0.423144 0.066692
O O3 0.560452 0.274977 0.205145
O O4 0.835539 0.315988 0.993381
O O5 0.405405 0.842180 0.283783
O O6 0.173952 0.725022 0.591643
O O7 0.053897 0.867386 0.679396
O O8 0.271180 0.784588 0.228819
O O9 0.384200 0.500000 0.347398
O O10 0.707649 0.500000 0.792352
O O11 0.000000 0.083403 0.500000
O O12 0.877183 0.000000 0.868453
O O13 0.712805 0.132613 0.020492
O O14 0.906502 0.576855 0.356901
O O15 0.000000 0.635623 0.000000
#
# Coordination Sequence:
#
# PCOD8064861 Si02
#       7
#     4   4   2   4   4   4   2
#     4  12  24  39  59  85 117 158 200 246 293 351
#     4  10  20  36  59  88 120 155 198 245 296 352
#     4  11  24  41  60  85 119 155 198 246 294 346
#     4   9  18  34  58  89 121 153 193 243 297 353
#     4  10  20  36  59  88 120 155 198 245 296 352
#     4  12  24  39  59  85 117 158 200 246 293 351
#     4  11  24  41  60  85 119 155 198 246 294 346
#
# _framework density 20.132930000000002
#
# number of rings (size 3 to 8) (size 9 to 14) (size 15 to 20)
#    0.000    1.333    1.667    5.000    0.000    6.000 
#    0.000    3.333    0.000    1.000    0.000    0.000 
#    0.000    0.000    0.000    0.000    0.000    0.000 
#
# Total GULP energy -297702.807037 kJ/mol
# GULP energy per Si atom -12404.283627 kJ/mol
# Density = 2.008711 g / cm^3
# Si number density = 20.132930 Si / 1000 Ang^3
#
#
#
# Elastic Constant Matrix: (Units=GPa)
#
#
# Indices 1 2 3 4 5 6 
#
# 1 109.9598 41.4083 37.7058 0.0000 -24.9981 0.0000
# 2 41.4083 139.4618 32.8198 0.0000 -8.7396 0.0000
# 3 37.7058 32.8198 73.5583 0.0000 -12.0519 0.0000
# 4 0.0000 0.0000 0.0000 -14.5780 0.0000 -18.1762
# 5 -24.9981 -8.7396 -12.0519 0.0000 37.0193 0.0000
# 6 0.0000 0.0000 0.0000 -18.1762 0.0000 3.2018
#
#
#
# Elastic Compliance Matrix: (Units=1/GPa)
#
#
# Indices 1 2 3 4 5 6 
#
# 1 0.013096 -0.002396 -0.004529 0.000000 0.006803 0.000000
# 2 -0.002396 0.008471 -0.002629 0.000000 -0.000474 0.000000
# 3 -0.004529 -0.002629 0.017415 0.000000 0.001991 0.000000
# 4 0.000000 0.000000 0.000000 -0.008492 0.000000 -0.048206
# 5 0.006803 -0.000474 0.001991 0.000000 0.032143 0.000000
# 6 0.000000 0.000000 0.000000 -0.048206 0.000000 0.038663
#
#
# Mechanical properties :
#
#
# Convention : Reuss Voigt Hill
#
# Bulk Modulus (GPa) = 50.31753 60.76084 55.53919
# Shear Modulus (GPa) = 39.36047 19.19835 29.27941
#
# Velocity S-wave (km/s) = 4.42637 3.09136 3.81767
# Velocity P-wave (km/s) = 7.15336 6.55647 6.86141
#
# Compressibility (1/GPa) = 0.01987379
#
# Stress axis : x y z
#
# Youngs Moduli (GPa) = 76.35668 118.05192 57.42024
#
# Poissons Ratio (x) = 0.28289 0.26008
# Poissons Ratio (y) = 0.18297 0.15095
# Poissons Ratio (z) = 0.34585 0.31034
#
# Static dielectric constant tensor:
#      x y z
#    x 3.786570 0.000000 -0.212090 
#    y 0.000000 3.631320 0.000000 
#    z -0.212090 0.000000 3.578130 
# 
# 
# High freq. dielectric constant tensor:
#      x y z
#    x 1.795790 0.000000 -0.018720 
#    y 0.000000 1.777840 0.000000 
#    z -0.018720 0.000000 1.777400 
# 
# From -- ./inp_files/30054.got.cif
#   From: 2010.06.25/outbox.cif.g09.slc.cpg/sg10_16_cif.got.tgz:30054.got - 2010.06.27 22:07:45.
