data_PCOD8064819
_publ_section_title
;
Structure prediction by ZEFSAII (Michael W. Deem and Ramdas Pophale) SiO2 
 PCOD8064819
Probable space group: P 2/M
;
_chemical_formula_sum "Si O2"
_cell_formula_units_Z 20
_cell_length_a 26.217471
_cell_length_b 8.541442
_cell_length_c 9.066178
_cell_angle_alpha 90.000000
_cell_angle_beta 29.388228
_cell_angle_gamma 90.000000
_cell_volume 996.286374
_symmetry_space_group_name_H-M "P 2/M"
_symmetry_group_IT_number 10
_symmetry_cell_setting 'monoclinic'
loop_
_space_group_symop_operation_xyz
x,y,z
-x,y,-z
-x,-y,-z
x,-y,z
loop_
_atom_site_type_symbol
_atom_site_label
_atom_site_fract_x
_atom_site_fract_y
_atom_site_fract_z
Si Si1 0.096758 0.181178 0.856916
Si Si2 0.511162 0.172144 0.297744
Si Si3 0.722322 0.680119 0.781857
Si Si4 0.896521 0.318312 0.844000
Si Si5 0.285477 0.183283 0.879004
O O1 0.202476 0.212289 0.503313
O O2 0.091330 0.000000 0.916608
O O3 0.090276 0.288006 0.017017
O O4 0.000000 0.229781 0.000000
O O5 0.500000 0.159892 0.500000
O O6 0.398127 0.231171 0.525274
O O7 0.537435 0.000000 0.166442
O O8 0.604342 0.289712 0.022675
O O9 0.750363 0.500000 0.685405
O O10 0.737732 0.720281 0.914531
O O11 0.874575 0.500000 0.870037
O O12 0.000000 0.262114 0.500000
O O13 0.800177 0.218679 0.027161
O O14 0.286009 0.000000 0.918653
#
# Coordination Sequence:
#
# PCOD8064819 Si02
#       5
#     4   4   4   4   4
#     4  11  24  41  61  83 110 148 191 232 277 335
#     4   8  16  32  54  81 113 149 189 230 273 326
#     4  11  21  34  57  87 118 150 186 233 283 330
#     4  11  24  40  59  85 116 147 182 231 287 337
#     4  10  20  36  59  85 115 152 192 232 274 328
#
# _framework density 20.074549000000001
#
# number of rings (size 3 to 8) (size 9 to 14) (size 15 to 20)
#    0.000    1.800    0.000    6.000    0.000   10.800 
#    0.000    1.000    0.000    6.000    0.000    0.000 
#    0.000    0.000    0.000    0.000    0.000    0.000 
#
# Total GULP energy -248036.415318 kJ/mol
# GULP energy per Si atom -12401.820766 kJ/mol
# Density = 2.002886 g / cm^3
# Si number density = 20.074549 Si / 1000 Ang^3
#
#
#
# Elastic Constant Matrix: (Units=GPa)
#
#
# Indices 1 2 3 4 5 6 
#
# 1 91.6248 16.6740 52.8312 0.0000 -19.5812 0.0000
# 2 16.6740 55.9646 21.4325 0.0000 -10.6631 0.0000
# 3 52.8312 21.4325 123.1814 0.0000 -19.5598 0.0000
# 4 0.0000 0.0000 0.0000 53.5568 0.0000 -5.6187
# 5 -19.5812 -10.6631 -19.5598 0.0000 35.0303 0.0000
# 6 0.0000 0.0000 0.0000 -5.6187 0.0000 31.1270
#
#
#
# Elastic Compliance Matrix: (Units=1/GPa)
#
#
# Indices 1 2 3 4 5 6 
#
# 1 0.015489 -0.001512 -0.005573 0.000000 0.005087 0.000000
# 2 -0.001512 0.019916 -0.002182 0.000000 0.003999 0.000000
# 3 -0.005573 -0.002182 0.011289 0.000000 0.002524 0.000000
# 4 0.000000 0.000000 0.000000 0.019032 0.000000 0.003435
# 5 0.005087 0.003999 0.002524 0.000000 0.034017 0.000000
# 6 0.000000 0.000000 0.000000 0.003435 0.000000 0.032747
#
#
# Mechanical properties :
#
#
# Convention : Reuss Voigt Hill
#
# Bulk Modulus (GPa) = 35.50870 50.29400 42.90135
# Shear Modulus (GPa) = 31.17028 35.93170 33.55099
#
# Velocity S-wave (km/s) = 3.94474 4.23533 4.09261
# Velocity P-wave (km/s) = 6.20280 7.00181 6.61438
#
# Compressibility (1/GPa) = 0.02816211
#
# Stress axis : x y z
#
# Youngs Moduli (GPa) = 64.56047 50.20989 88.58545
#
# Poissons Ratio (x) = 0.07590 0.49364
# Poissons Ratio (y) = 0.09759 0.19329
# Poissons Ratio (z) = 0.35976 0.10955
#
# Static dielectric constant tensor:
#      x y z
#    x 3.552950 0.000000 -0.398440 
#    y 0.000000 3.518670 0.000000 
#    z -0.398440 0.000000 3.935820 
# 
# 
# High freq. dielectric constant tensor:
#      x y z
#    x 1.764830 0.000000 -0.022520 
#    y 0.000000 1.784730 0.000000 
#    z -0.022520 0.000000 1.792820 
# 
# From -- ./inp_files/26753.got.cif
#   From: 2010.06.25/outbox.cif.g09.slc.cpg/sg10_14_cif.got.tgz:26753.got - 2010.06.27 22:07:45.
