data_PCOD8064437
_publ_section_title
;
Structure prediction by ZEFSAII (Michael W. Deem and Ramdas Pophale) SiO2 
 PCOD8064437
Probable space group: P 2/M
;
_chemical_formula_sum "Si O2"
_cell_formula_units_Z 28
_cell_length_a 15.907993
_cell_length_b 8.942418
_cell_length_c 17.599272
_cell_angle_alpha 90.000000
_cell_angle_beta 145.074689
_cell_angle_gamma 90.000000
_cell_volume 1433.331740
_symmetry_space_group_name_H-M "P 2/M"
_symmetry_group_IT_number 10
_symmetry_cell_setting 'monoclinic'
loop_
_space_group_symop_operation_xyz
x,y,z
-x,y,-z
-x,-y,-z
x,-y,z
loop_
_atom_site_type_symbol
_atom_site_label
_atom_site_fract_x
_atom_site_fract_y
_atom_site_fract_z
Si Si1 0.653310 0.673627 0.150474
Si Si2 0.358857 0.177238 0.701203
Si Si3 0.335424 0.825938 0.404252
Si Si4 0.132799 0.673036 0.827095
Si Si5 0.685077 0.822849 0.908268
Si Si6 0.201662 0.676023 0.447582
Si Si7 0.163805 0.177981 0.130909
O O1 0.645997 0.500000 0.168293
O O2 0.686936 0.771741 0.249029
O O3 0.784303 0.707799 0.189726
O O4 0.500000 0.725342 0.000000
O O5 0.522313 0.238445 0.804178
O O6 0.244631 0.247271 0.558074
O O7 0.351223 0.000000 0.689385
O O8 0.500000 0.796873 0.500000
O O9 0.307181 0.733155 0.459151
O O10 0.228404 0.765659 0.258679
O O11 0.308442 0.000000 0.402046
O O12 0.148816 0.500000 0.860600
O O13 0.964806 0.722168 0.693919
O O14 0.200806 0.768274 0.944820
O O15 0.735447 0.762289 0.863277
O O16 0.686053 0.000000 0.910825
O O17 0.219497 0.500000 0.469874
O O18 0.162868 0.000000 0.129103
O O19 0.000000 0.242721 0.000000
#
# Coordination Sequence:
#
# PCOD8064437 Si02
#       7
#     4   4   4   4   4   4   4
#     4  10  20  38  63  86 114 152 194 238 292 349
#     4  11  23  38  59  87 118 150 194 243 290 346
#     4  10  20  37  60  82 112 152 195 241 287 338
#     4  10  22  39  59  85 117 154 193 239 292 349
#     4  10  20  35  58  86 113 146 190 240 289 342
#     4  11  24  40  58  84 120 157 195 237 290 350
#     4   9  17  30  51  79 108 140 180 226 279 335
#
# _framework density 19.534904999999998
#
# number of rings (size 3 to 8) (size 9 to 14) (size 15 to 20)
#    0.000    1.857    1.429    2.571    0.000    6.857 
#    0.000    3.571    0.000    2.571    0.000    0.000 
#    0.000    0.000    0.000    0.000    0.000    0.000 
#
# Total GULP energy -347335.542024 kJ/mol
# GULP energy per Si atom -12404.840787 kJ/mol
# Density = 1.949044 g / cm^3
# Si number density = 19.534905 Si / 1000 Ang^3
#
#
#
# Elastic Constant Matrix: (Units=GPa)
#
#
# Indices 1 2 3 4 5 6 
#
# 1 82.1024 20.8440 15.5835 0.0000 -4.7864 0.0000
# 2 20.8440 42.2622 26.8337 0.0000 -1.9946 0.0000
# 3 15.5835 26.8337 96.6739 0.0000 -8.2084 0.0000
# 4 0.0000 0.0000 0.0000 25.6210 0.0000 -0.1641
# 5 -4.7864 -1.9946 -8.2084 0.0000 32.8749 0.0000
# 6 0.0000 0.0000 0.0000 -0.1641 0.0000 14.0669
#
#
#
# Elastic Compliance Matrix: (Units=1/GPa)
#
#
# Indices 1 2 3 4 5 6 
#
# 1 0.014015 -0.006663 -0.000277 0.000000 0.001567 0.000000
# 2 -0.006663 0.031894 -0.007863 0.000000 -0.000998 0.000000
# 3 -0.000277 -0.007863 0.012799 0.000000 0.002678 0.000000
# 4 0.000000 0.000000 0.000000 0.039033 0.000000 0.000455
# 5 0.001567 -0.000998 0.002678 0.000000 0.031255 0.000000
# 6 0.000000 0.000000 0.000000 0.000455 0.000000 0.071094
#
#
# Mechanical properties :
#
#
# Convention : Reuss Voigt Hill
#
# Bulk Modulus (GPa) = 34.36225 38.61787 36.49006
# Shear Modulus (GPa) = 20.88585 25.03103 22.95844
#
# Velocity S-wave (km/s) = 3.27334 3.58348 3.43191
# Velocity P-wave (km/s) = 5.64931 6.07728 5.86720
#
# Compressibility (1/GPa) = 0.02910170
#
# Stress axis : x y z
#
# Youngs Moduli (GPa) = 71.35035 31.35422 78.13274
#
# Poissons Ratio (x) = 0.20891 0.02162
# Poissons Ratio (y) = 0.47539 0.61439
# Poissons Ratio (z) = 0.01975 0.24655
#
# Static dielectric constant tensor:
#      x y z
#    x 3.745740 0.000000 0.060340 
#    y 0.000000 3.318100 0.000000 
#    z 0.060340 0.000000 3.698220 
# 
# 
# High freq. dielectric constant tensor:
#      x y z
#    x 1.774690 0.000000 -0.001330 
#    y 0.000000 1.738230 0.000000 
#    z -0.001330 0.000000 1.772380 
# 
# From -- ./inp_files/77797.got.cif
#   From: 2010.06.25/outbox.cif.g09.slc.cpg/sg10_39_cif.got.tgz:77797.got - 2010.06.27 22:07:45.
