data_PCOD8064992
_publ_section_title
;
Structure prediction by ZEFSAII (Michael W. Deem and Ramdas Pophale) SiO2 
 PCOD8064992
Probable space group: P 2/M
;
_chemical_formula_sum "Si O2"
_cell_formula_units_Z 28
_cell_length_a 15.188841
_cell_length_b 16.903798
_cell_length_c 9.482702
_cell_angle_alpha 90.000000
_cell_angle_beta 36.669385
_cell_angle_gamma 90.000000
_cell_volume 1453.979869
_symmetry_space_group_name_H-M "P 2/M"
_symmetry_group_IT_number 10
_symmetry_cell_setting 'monoclinic'
loop_
_space_group_symop_operation_xyz
x,y,z
-x,y,-z
-x,-y,-z
x,-y,z
loop_
_atom_site_type_symbol
_atom_site_label
_atom_site_fract_x
_atom_site_fract_y
_atom_site_fract_z
Si Si1 0.159575 0.118322 0.347191
Si Si2 0.138354 0.742668 0.734190
Si Si3 0.865089 0.702904 0.582290
Si Si4 0.535897 0.295761 0.617967
Si Si5 0.535129 0.142626 0.118035
Si Si6 0.607504 0.411771 0.992407
Si Si7 0.226782 0.914505 0.573768
O O1 0.180016 0.211882 0.301181
O O2 0.166805 0.084776 0.493014
O O3 0.000000 0.087819 0.500000
O O4 0.309556 0.092963 0.069838
O O5 0.097936 0.717109 0.628494
O O6 0.287722 0.700544 0.590776
O O7 0.156818 0.837634 0.737946
O O8 0.000000 0.711773 0.000000
O O9 0.740479 0.639499 0.763847
O O10 0.000000 0.669822 0.500000
O O11 0.500000 0.290153 0.500000
O O12 0.462326 0.222753 0.794652
O O13 0.467839 0.375134 0.771717
O O14 0.404495 0.088523 0.346417
O O15 0.500000 0.166129 0.000000
O O16 0.660565 0.500000 0.965594
O O17 0.500000 0.415786 0.000000
O O18 0.182104 0.000000 0.700379
#
# Coordination Sequence:
#
# PCOD8064992 Si02
#       7
#     4   4   4   4   4   4   4
#     4   9  17  28  51  81 110 142 188 237 280 330
#     4  10  22  38  58  86 114 149 197 234 287 343
#     4  10  20  36  62  86 115 148 193 242 277 333
#     4  11  22  35  60  86 115 151 193 241 279 333
#     4   9  17  33  56  77 108 148 195 237 276 339
#     4  11  22  39  64  88 117 155 191 233 290 338
#     4   9  19  33  51  78 110 148 186 234 290 342
#
# _framework density 19.257487999999999
#
# number of rings (size 3 to 8) (size 9 to 14) (size 15 to 20)
#    0.000    2.143    2.857    1.286    2.000    4.857 
#    0.000    0.000    0.000    7.714    0.000    0.000 
#    0.000    0.000    0.000    0.000    0.000    0.000 
#
# Total GULP energy -346897.697756 kJ/mol
# GULP energy per Si atom -12389.203491 kJ/mol
# Density = 1.921366 g / cm^3
# Si number density = 19.257488 Si / 1000 Ang^3
#
#
#
# Elastic Constant Matrix: (Units=GPa)
#
#
# Indices 1 2 3 4 5 6 
#
# 1 91.1261 10.5803 34.3475 0.0000 -9.6378 0.0000
# 2 10.5803 99.4752 17.3952 0.0000 0.9989 0.0000
# 3 34.3475 17.3952 100.0259 0.0000 -11.7247 0.0000
# 4 0.0000 0.0000 0.0000 0.0966 0.0000 -0.1555
# 5 -9.6378 0.9989 -11.7247 0.0000 35.2195 0.0000
# 6 0.0000 0.0000 0.0000 -0.1555 0.0000 7.0438
#
#
#
# Elastic Compliance Matrix: (Units=1/GPa)
#
#
# Indices 1 2 3 4 5 6 
#
# 1 0.012799 -0.000680 -0.004021 0.000000 0.002183 0.000000
# 2 -0.000680 0.010434 -0.001704 0.000000 -0.001049 0.000000
# 3 -0.004021 -0.001704 0.012020 0.000000 0.002950 0.000000
# 4 0.000000 0.000000 0.000000 10.731312 0.000000 0.236926
# 5 0.002183 -0.001049 0.002950 0.000000 0.030002 0.000000
# 6 0.000000 0.000000 0.000000 0.236926 0.000000 0.147199
#
#
# Mechanical properties :
#
#
# Convention : Reuss Voigt Hill
#
# Bulk Modulus (GPa) = 44.55705 46.14146 45.34926
# Shear Modulus (GPa) = 0.45604 23.69228 12.07416
#
# Velocity S-wave (km/s) = 0.48716 3.51135 2.50668
# Velocity P-wave (km/s) = 4.84811 6.36017 5.65491
#
# Compressibility (1/GPa) = 0.02244314
#
# Stress axis : x y z
#
# Youngs Moduli (GPa) = 78.12964 95.84425 83.19344
#
# Poissons Ratio (x) = 0.06519 0.33451
# Poissons Ratio (y) = 0.05314 0.14175
# Poissons Ratio (z) = 0.31415 0.16331
#
# Static dielectric constant tensor:
#      x y z
#    x 3.292070 0.000000 -0.075530 
#    y 0.000000 3.562800 0.000000 
#    z -0.075530 0.000000 3.342780 
# 
# 
# High freq. dielectric constant tensor:
#      x y z
#    x 1.742580 0.000000 -0.020080 
#    y 0.000000 1.733440 0.000000 
#    z -0.020080 0.000000 1.744740 
# 
# From -- ./inp_files/30100.got.cif
#   From: 2010.06.25/outbox.cif.g09.slc.cpg/sg10_16_cif.got.tgz:30100.got - 2010.06.27 22:07:45.
