data_PCOD8064189
_publ_section_title
;
Structure prediction by ZEFSAII (Michael W. Deem and Ramdas Pophale) SiO2 
 PCOD8064189
Probable space group: P 2/M
;
_chemical_formula_sum "Si O2"
_cell_formula_units_Z 28
_cell_length_a 9.391273
_cell_length_b 9.100437
_cell_length_c 29.506240
_cell_angle_alpha 90.000000
_cell_angle_beta 38.066492
_cell_angle_gamma 90.000000
_cell_volume 1554.844218
_symmetry_space_group_name_H-M "P 2/M"
_symmetry_group_IT_number 10
_symmetry_cell_setting 'monoclinic'
loop_
_space_group_symop_operation_xyz
x,y,z
-x,y,-z
-x,-y,-z
x,-y,z
loop_
_atom_site_type_symbol
_atom_site_label
_atom_site_fract_x
_atom_site_fract_y
_atom_site_fract_z
Si Si1 0.752998 0.168521 0.439526
Si Si2 0.829001 0.165670 0.719560
Si Si3 0.529442 0.669065 0.726081
Si Si4 0.329741 0.672971 0.002100
Si Si5 0.468176 0.833749 0.878942
Si Si6 0.157241 0.171228 0.869086
Si Si7 0.059810 0.670949 0.435312
O O1 0.500000 0.242729 0.500000
O O2 0.893697 0.183945 0.356240
O O3 0.895760 0.243280 0.442928
O O4 0.723249 0.000000 0.460954
O O5 0.710214 0.291675 0.720018
O O6 0.734188 0.182771 0.794652
O O7 0.755909 0.000000 0.721068
O O8 0.455318 0.500000 0.749140
O O9 0.301176 0.767941 0.789734
O O10 0.667498 0.699102 0.644362
O O11 0.290105 0.500000 0.010933
O O12 0.086807 0.750452 0.069626
O O13 0.500000 0.719506 0.000000
O O14 0.439111 0.721851 0.927133
O O15 0.292168 0.795142 0.882098
O O16 0.420065 0.000000 0.907917
O O17 0.117022 0.000000 0.872137
O O18 0.001599 0.500000 0.444869
O O19 0.000000 0.729682 0.500000
#
# Coordination Sequence:
#
# PCOD8064189 Si02
#       7
#     4   4   4   4   4   4   4
#     4   9  17  30  49  73 101 132 166 206 249 291
#     4   8  15  29  48  71 100 129 161 205 250 290
#     4   9  16  28  49  74  99 128 164 205 246 287
#     4  11  24  38  51  72 103 134 163 198 242 291
#     4   9  18  33  54  77  98 125 164 206 247 293
#     4  10  20  35  56  79 100 125 162 205 247 293
#     4   9  18  32  49  71 101 135 168 203 245 292
#
# _framework density 18.008234999999999
#
# number of rings (size 3 to 8) (size 9 to 14) (size 15 to 20)
#    0.000    2.714    0.000    2.571    0.000    6.857 
#    0.000    1.429    0.000    3.429    0.000    0.000 
#    0.000    0.000    0.000    0.000    0.000    0.000 
#
# Total GULP energy -346957.948639 kJ/mol
# GULP energy per Si atom -12391.355309 kJ/mol
# Density = 1.796725 g / cm^3
# Si number density = 18.008235 Si / 1000 Ang^3
#
#
#
# Elastic Constant Matrix: (Units=GPa)
#
#
# Indices 1 2 3 4 5 6 
#
# 1 66.3447 40.0843 64.3996 0.0000 -3.6696 0.0000
# 2 40.0843 71.2827 59.7331 0.0000 1.3225 0.0000
# 3 64.3996 59.7331 178.4395 0.0000 -5.6582 0.0000
# 4 0.0000 0.0000 0.0000 30.2442 0.0000 0.4105
# 5 -3.6696 1.3225 -5.6582 0.0000 24.5043 0.0000
# 6 0.0000 0.0000 0.0000 0.4105 0.0000 21.3633
#
#
#
# Elastic Compliance Matrix: (Units=1/GPa)
#
#
# Indices 1 2 3 4 5 6 
#
# 1 0.027710 -0.010211 -0.006481 0.000000 0.003204 0.000000
# 2 -0.010211 0.023424 -0.004276 0.000000 -0.003781 0.000000
# 3 -0.006481 -0.004276 0.009420 0.000000 0.001435 0.000000
# 4 0.000000 0.000000 0.000000 0.033073 0.000000 -0.000635
# 5 0.003204 -0.003781 0.001435 0.000000 0.041824 0.000000
# 6 0.000000 0.000000 0.000000 -0.000635 0.000000 0.046821
#
#
# Mechanical properties :
#
#
# Convention : Reuss Voigt Hill
#
# Bulk Modulus (GPa) = 53.70988 71.61120 62.66054
# Shear Modulus (GPa) = 21.70004 25.34570 23.52287
#
# Velocity S-wave (km/s) = 3.47509 3.75567 3.61810
# Velocity P-wave (km/s) = 6.78171 7.65891 7.23362
#
# Compressibility (1/GPa) = 0.01861855
#
# Stress axis : x y z
#
# Youngs Moduli (GPa) = 36.08774 42.69182 106.15625
#
# Poissons Ratio (x) = 0.43592 0.68801
# Poissons Ratio (y) = 0.36848 0.45392
# Poissons Ratio (z) = 0.23389 0.18255
#
# Static dielectric constant tensor:
#      x y z
#    x 2.930900 0.000000 -0.023390 
#    y 0.000000 3.357920 0.000000 
#    z -0.023390 0.000000 3.942710 
# 
# 
# High freq. dielectric constant tensor:
#      x y z
#    x 1.641580 0.000000 -0.003540 
#    y 0.000000 1.702340 0.000000 
#    z -0.003540 0.000000 1.726550 
# 
# From -- ./inp_files/94510.got.cif
#   From: 2010.06.25/outbox.cif.g09.slc.cpg/sg10_48_cif.got.tgz:94510.got - 2010.06.27 22:07:45.
