data_PCOD8064403
_publ_section_title
;
Structure prediction by ZEFSAII (Michael W. Deem and Ramdas Pophale) SiO2 
 PCOD8064403
Probable space group: P 2/M
;
_chemical_formula_sum "Si O2"
_cell_formula_units_Z 32
_cell_length_a 25.108078
_cell_length_b 8.745281
_cell_length_c 14.348230
_cell_angle_alpha 90.000000
_cell_angle_beta 150.807208
_cell_angle_gamma 90.000000
_cell_volume 1536.677393
_symmetry_space_group_name_H-M "P 2/M"
_symmetry_group_IT_number 10
_symmetry_cell_setting 'monoclinic'
loop_
_space_group_symop_operation_xyz
x,y,z
-x,y,-z
-x,-y,-z
x,-y,z
loop_
_atom_site_type_symbol
_atom_site_label
_atom_site_fract_x
_atom_site_fract_y
_atom_site_fract_z
Si Si1 0.820193 0.819302 0.953173
Si Si2 0.610717 0.677136 0.724121
Si Si3 0.967683 0.678021 0.676716
Si Si4 0.877915 0.680795 0.843019
Si Si5 0.347245 0.823503 0.022447
Si Si6 0.388794 0.818125 0.876421
Si Si7 0.108173 0.825806 0.611446
Si Si8 0.802731 0.818898 0.551264
O O1 0.703189 0.774672 0.814698
O O2 0.839983 0.753016 0.881454
O O3 0.830007 0.000000 0.967379
O O4 0.913428 0.749274 0.163285
O O5 0.500000 0.709566 0.500000
O O6 0.643105 0.500000 0.771080
O O7 0.594220 0.728523 0.806583
O O8 0.977144 0.500000 0.711980
O O9 0.885413 0.712837 0.466439
O O10 0.920242 0.760865 0.695215
O O11 0.868646 0.500000 0.837394
O O12 0.789988 0.743620 0.633462
O O13 0.000000 0.731892 0.000000
O O14 0.382485 0.000000 0.085490
O O15 0.379272 0.758918 0.968720
O O16 0.216654 0.804498 0.838418
O O17 0.290892 0.757294 0.661666
O O18 0.384319 0.000000 0.872089
O O19 0.500000 0.757355 0.000000
O O20 0.000000 0.778482 0.500000
O O21 0.101767 0.000000 0.564442
O O22 0.799788 0.000000 0.555861
#
# Coordination Sequence:
#
# PCOD8064403 Si02
#       8
#     4   4   4   4   4   4   4   4
#     4  12  25  42  67  95 125 167 219 268 316 382
#     4  11  26  47  68  93 129 169 211 266 327 382
#     4  12  23  36  58  89 127 165 203 255 320 381
#     4  11  23  39  61  92 132 172 209 261 326 386
#     4  10  20  38  64  94 126 164 212 264 314 371
#     4   9  19  37  62  93 127 162 206 261 312 363
#     4  10  20  35  57  88 123 161 205 255 311 372
#     4  11  21  37  61  89 123 166 213 258 311 373
#
# _framework density 20.824151000000001
#
# number of rings (size 3 to 8) (size 9 to 14) (size 15 to 20)
#    0.000    1.250    2.500    4.125    0.000    4.250 
#    0.000    1.250    0.000    2.625    0.000    0.000 
#    0.000    0.000    0.000    0.000    0.000    0.000 
#
# Total GULP energy -396830.118711 kJ/mol
# GULP energy per Si atom -12400.941210 kJ/mol
# Density = 2.077675 g / cm^3
# Si number density = 20.824151 Si / 1000 Ang^3
#
#
#
# Elastic Constant Matrix: (Units=GPa)
#
#
# Indices 1 2 3 4 5 6 
#
# 1 106.3198 36.1530 46.0394 0.0000 -10.9943 0.0000
# 2 36.1530 101.9962 35.3324 0.0000 -11.1753 0.0000
# 3 46.0394 35.3324 99.5708 0.0000 -17.2897 0.0000
# 4 0.0000 0.0000 0.0000 15.1752 0.0000 7.8396
# 5 -10.9943 -11.1753 -17.2897 0.0000 40.8261 0.0000
# 6 0.0000 0.0000 0.0000 7.8396 0.0000 16.4916
#
#
#
# Elastic Compliance Matrix: (Units=1/GPa)
#
#
# Indices 1 2 3 4 5 6 
#
# 1 0.012415 -0.002715 -0.004669 0.000000 0.000623 0.000000
# 2 -0.002715 0.011857 -0.002715 0.000000 0.001365 0.000000
# 3 -0.004669 -0.002715 0.013835 0.000000 0.003859 0.000000
# 4 0.000000 0.000000 0.000000 0.087348 0.000000 -0.041522
# 5 0.000623 0.001365 0.003859 0.000000 0.026670 0.000000
# 6 0.000000 0.000000 0.000000 -0.041522 0.000000 0.080375
#
#
# Mechanical properties :
#
#
# Convention : Reuss Voigt Hill
#
# Bulk Modulus (GPa) = 55.83696 60.32627 58.08162
# Shear Modulus (GPa) = 19.32991 27.18938 23.25964
#
# Velocity S-wave (km/s) = 3.05002 3.61732 3.34571
# Velocity P-wave (km/s) = 6.26700 6.81755 6.54806
#
# Compressibility (1/GPa) = 0.01790928
#
# Stress axis : x y z
#
# Youngs Moduli (GPa) = 80.54817 84.34100 72.27877
#
# Poissons Ratio (x) = 0.22898 0.33746
# Poissons Ratio (y) = 0.21868 0.19624
# Poissons Ratio (z) = 0.37607 0.22899
#
# Static dielectric constant tensor:
#      x y z
#    x 3.930180 0.000000 -0.101790 
#    y 0.000000 3.552200 0.000000 
#    z -0.101790 0.000000 3.875480 
# 
# 
# High freq. dielectric constant tensor:
#      x y z
#    x 1.823080 0.000000 -0.012490 
#    y 0.000000 1.800000 0.000000 
#    z -0.012490 0.000000 1.815980 
# 
# From -- ./inp_files/71631.got.cif
#   From: 2010.06.25/outbox.cif.g09.slc.cpg/sg10_36_cif.got.tgz:71631.got - 2010.06.27 22:07:45.
