data_PCOD8064985
_publ_section_title
;
Structure prediction by ZEFSAII (Michael W. Deem and Ramdas Pophale) SiO2 
 PCOD8064985
Probable space group: P 2/M
;
_chemical_formula_sum "Si O2"
_cell_formula_units_Z 24
_cell_length_a 12.988520
_cell_length_b 9.692887
_cell_length_c 8.854640
_cell_angle_alpha 90.000000
_cell_angle_beta 80.711151
_cell_angle_gamma 90.000000
_cell_volume 1100.148270
_symmetry_space_group_name_H-M "P 2/M"
_symmetry_group_IT_number 10
_symmetry_cell_setting 'monoclinic'
loop_
_space_group_symop_operation_xyz
x,y,z
-x,y,-z
-x,-y,-z
x,-y,z
loop_
_atom_site_type_symbol
_atom_site_label
_atom_site_fract_x
_atom_site_fract_y
_atom_site_fract_z
Si Si1 0.495217 0.660268 0.331925
Si Si2 0.963450 0.654962 0.729195
Si Si3 0.832468 0.840935 0.965031
Si Si4 0.836266 0.285791 0.484710
Si Si5 0.727560 0.348836 0.220406
Si Si6 0.684332 0.149754 0.723689
O O1 0.500000 0.719385 0.500000
O O2 0.466263 0.500000 0.339052
O O3 0.606292 0.688455 0.227255
O O4 0.404832 0.736109 0.261877
O O5 0.998855 0.500000 0.772984
O O6 0.926962 0.748547 0.877744
O O7 0.873495 0.629142 0.624157
O O8 0.059441 0.743738 0.637307
O O9 0.735776 0.834564 0.874858
O O10 0.867704 0.000000 0.984577
O O11 0.797477 0.770237 0.129560
O O12 0.754853 0.362026 0.392800
O O13 0.773074 0.157192 0.570899
O O14 0.749089 0.500000 0.142172
O O15 0.631806 0.000000 0.720182
#
# Coordination Sequence:
#
# PCOD8064985 Si02
#       6
#     4   4   4   4   4   4
#     4  10  21  37  60  91 120 148 188 244 295 340
#     4  10  20  37  64  91 114 151 196 241 295 347
#     4  10  24  42  57  81 121 160 196 238 287 345
#     4  10  20  36  61  92 118 146 193 247 290 342
#     4  11  22  38  60  87 118 152 192 240 294 347
#     4  10  22  40  61  85 117 160 198 236 287 346
#
# _framework density 21.815241
#
# number of rings (size 3 to 8) (size 9 to 14) (size 15 to 20)
#    0.000    1.833    1.667    2.500    0.000    7.667 
#    0.000    9.167    0.000    0.000    0.000    0.000 
#    0.000    0.000    0.000    0.000    0.000    0.000 
#
# Total GULP energy -297366.923177 kJ/mol
# GULP energy per Si atom -12390.288466 kJ/mol
# Density = 2.176559 g / cm^3
# Si number density = 21.815241 Si / 1000 Ang^3
#
#
#
# Elastic Constant Matrix: (Units=GPa)
#
#
# Indices 1 2 3 4 5 6 
#
# 1 81.8896 25.1858 10.8717 0.0000 -6.4553 0.0000
# 2 25.1858 95.7337 38.1894 0.0000 -11.2614 0.0000
# 3 10.8717 38.1894 69.1687 0.0000 -12.3519 0.0000
# 4 0.0000 0.0000 0.0000 16.2607 0.0000 -4.3828
# 5 -6.4553 -11.2614 -12.3519 0.0000 25.4923 0.0000
# 6 0.0000 0.0000 0.0000 -4.3828 0.0000 20.4044
#
#
#
# Elastic Compliance Matrix: (Units=1/GPa)
#
#
# Indices 1 2 3 4 5 6 
#
# 1 0.013377 -0.003321 0.000081 0.000000 0.001959 0.000000
# 2 -0.003321 0.014374 -0.007040 0.000000 0.002098 0.000000
# 3 0.000081 -0.007040 0.019464 0.000000 0.006342 0.000000
# 4 0.000000 0.000000 0.000000 0.065277 0.000000 0.014021
# 5 0.001959 0.002098 0.006342 0.000000 0.043723 0.000000
# 6 0.000000 0.000000 0.000000 0.014021 0.000000 0.052021
#
#
# Mechanical properties :
#
#
# Convention : Reuss Voigt Hill
#
# Bulk Modulus (GPa) = 37.51569 43.92065 40.71817
# Shear Modulus (GPa) = 21.03665 23.93450 22.48558
#
# Velocity S-wave (km/s) = 3.10870 3.31591 3.21398
# Velocity P-wave (km/s) = 5.48814 5.90230 5.69898
#
# Compressibility (1/GPa) = 0.02665551
#
# Stress axis : x y z
#
# Youngs Moduli (GPa) = 74.75709 69.56836 51.37712
#
# Poissons Ratio (x) = 0.23103 -0.00416
# Poissons Ratio (y) = 0.24827 0.36168
# Poissons Ratio (z) = -0.00605 0.48974
#
# Static dielectric constant tensor:
#      x y z
#    x 3.986680 0.000000 0.045940 
#    y 0.000000 3.741040 0.000000 
#    z 0.045940 0.000000 3.780940 
# 
# 
# High freq. dielectric constant tensor:
#      x y z
#    x 1.864930 0.000000 0.002360 
#    y 0.000000 1.838110 0.000000 
#    z 0.002360 0.000000 1.847790 
# 
# From -- ./inp_files/27055.got.cif
#   From: 2010.06.25/outbox.cif.g09.slc.cpg/sg10_14_cif.got.tgz:27055.got - 2010.06.27 22:07:45.
