data_PCOD8064230
_publ_section_title
;
Structure prediction by ZEFSAII (Michael W. Deem and Ramdas Pophale) SiO2 
 PCOD8064230
Probable space group: P 2/M
;
_chemical_formula_sum "Si O2"
_cell_formula_units_Z 32
_cell_length_a 20.288167
_cell_length_b 8.962174
_cell_length_c 26.153033
_cell_angle_alpha 90.000000
_cell_angle_beta 20.562537
_cell_angle_gamma 90.000000
_cell_volume 1670.203020
_symmetry_space_group_name_H-M "P 2/M"
_symmetry_group_IT_number 10
_symmetry_cell_setting 'monoclinic'
loop_
_space_group_symop_operation_xyz
x,y,z
-x,y,-z
-x,-y,-z
x,-y,z
loop_
_atom_site_type_symbol
_atom_site_label
_atom_site_fract_x
_atom_site_fract_y
_atom_site_fract_z
Si Si1 0.492649 0.326419 0.191884
Si Si2 0.429097 0.675121 0.976405
Si Si3 0.097961 0.827377 0.836504
Si Si4 0.715024 0.325564 0.131649
Si Si5 0.551183 0.172648 0.344740
Si Si6 0.202505 0.323264 0.234686
Si Si7 0.676880 0.668264 0.408617
Si Si8 0.904407 0.176340 0.517039
O O1 0.434960 0.500000 0.232385
O O2 0.598976 0.278750 0.062225
O O3 0.636274 0.291551 0.132766
O O4 0.307857 0.229791 0.332677
O O5 0.437743 0.500000 0.977637
O O6 0.629981 0.734872 0.850172
O O7 0.256706 0.729934 0.137439
O O8 0.260420 0.804480 0.759753
O O9 0.149751 0.747813 0.745504
O O10 0.061466 0.000000 0.851619
O O11 0.913639 0.754531 0.994205
O O12 0.740825 0.500000 0.123223
O O13 0.569740 0.259004 0.278000
O O14 0.373533 0.241783 0.503503
O O15 0.510121 0.000000 0.364080
O O16 0.169772 0.500000 0.262214
O O17 0.013090 0.241937 0.389222
O O18 0.500000 0.668620 0.500000
O O19 0.736377 0.500000 0.379734
O O20 0.000000 0.234925 0.500000
O O21 0.909243 0.000000 0.510657
#
# Coordination Sequence:
#
# PCOD8064230 Si02
#       8
#     4   4   4   4   4   4   4   4
#     4  10  21  38  57  76 104 142 181 221 269 324
#     4   8  15  30  54  81 102 127 171 218 258 308
#     4  10  20  35  56  81 109 145 186 224 272 332
#     4  11  23  36  53  79 108 143 185 230 280 327
#     4  10  20  35  56  81 110 145 184 226 273 330
#     4   9  16  30  56  82 102 131 172 217 262 309
#     4   9  17  31  54  83 111 138 175 227 275 314
#     4  11  22  34  51  80 111 139 173 215 264 318
#
# _framework density 19.159348000000001
#
# number of rings (size 3 to 8) (size 9 to 14) (size 15 to 20)
#    0.000    2.250    1.250    3.000    0.000    6.000 
#    0.000    3.125    0.000    6.000    0.000    0.000 
#    0.000    0.000    0.000    0.000    0.000    0.000 
#
# Total GULP energy -396811.553105 kJ/mol
# GULP energy per Si atom -12400.361035 kJ/mol
# Density = 1.911574 g / cm^3
# Si number density = 19.159348 Si / 1000 Ang^3
#
#
#
# Elastic Constant Matrix: (Units=GPa)
#
#
# Indices 1 2 3 4 5 6 
#
# 1 77.2555 37.6890 28.3075 0.0000 29.8615 0.0000
# 2 37.6890 93.3277 33.3038 0.0000 11.0956 0.0000
# 3 28.3075 33.3038 74.9845 0.0000 32.3038 0.0000
# 4 0.0000 0.0000 0.0000 19.8721 0.0000 1.5105
# 5 29.8615 11.0956 32.3038 0.0000 31.9766 0.0000
# 6 0.0000 0.0000 0.0000 1.5105 0.0000 17.4603
#
#
#
# Elastic Compliance Matrix: (Units=1/GPa)
#
#
# Indices 1 2 3 4 5 6 
#
# 1 0.025631 -0.009305 0.005980 0.000000 -0.026748 0.000000
# 2 -0.009305 0.016206 -0.008864 0.000000 0.012020 0.000000
# 3 0.005980 -0.008864 0.028500 0.000000 -0.031300 0.000000
# 4 0.000000 0.000000 0.000000 0.050655 0.000000 -0.004382
# 5 -0.026748 0.012020 -0.031300 0.000000 0.083701 0.000000
# 6 0.000000 0.000000 0.000000 -0.004382 0.000000 0.057652
#
#
# Mechanical properties :
#
#
# Convention : Reuss Voigt Hill
#
# Bulk Modulus (GPa) = 21.75795 49.35202 35.55499
# Shear Modulus (GPa) = 16.55399 23.61296 20.08348
#
# Velocity S-wave (km/s) = 2.94260 3.51444 3.24116
# Velocity P-wave (km/s) = 4.78813 6.50254 5.71004
#
# Compressibility (1/GPa) = 0.04596020
#
# Stress axis : x y z
#
# Youngs Moduli (GPa) = 39.01497 61.70406 35.08829
#
# Poissons Ratio (x) = 0.57413 -0.20982
# Poissons Ratio (y) = 0.36302 0.31101
# Poissons Ratio (z) = -0.23330 0.54692
#
# Static dielectric constant tensor:
#      x y z
#    x 3.498030 0.000000 0.402310 
#    y 0.000000 3.410960 0.000000 
#    z 0.402310 0.000000 3.529300 
# 
# 
# High freq. dielectric constant tensor:
#      x y z
#    x 1.726000 0.000000 0.029230 
#    y 0.000000 1.737960 0.000000 
#    z 0.029230 0.000000 1.745500 
# 
# From -- ./inp_files/93660.got.cif
#   From: 2010.06.25/outbox.cif.g09.slc.cpg/sg10_47_cif.got.tgz:93660.got - 2010.06.27 22:07:45.
