data_PCOD8064072
_publ_section_title
;
Structure prediction by ZEFSAII (Michael W. Deem and Ramdas Pophale) SiO2 
 PCOD8064072
Probable space group: P 2/M
;
_chemical_formula_sum "Si O2"
_cell_formula_units_Z 28
_cell_length_a 31.510474
_cell_length_b 8.820813
_cell_length_c 9.596476
_cell_angle_alpha 90.000000
_cell_angle_beta 144.986380
_cell_angle_gamma 90.000000
_cell_volume 1530.431993
_symmetry_space_group_name_H-M "P 2/M"
_symmetry_group_IT_number 10
_symmetry_cell_setting 'monoclinic'
loop_
_space_group_symop_operation_xyz
x,y,z
-x,y,-z
-x,-y,-z
x,-y,z
loop_
_atom_site_type_symbol
_atom_site_label
_atom_site_fract_x
_atom_site_fract_y
_atom_site_fract_z
Si Si1 0.401177 0.677282 0.626985
Si Si2 0.995522 0.179129 0.827035
Si Si3 0.855653 0.821931 0.269318
Si Si4 0.415545 0.823965 0.240467
Si Si5 0.703396 0.322279 0.886982
Si Si6 0.072879 0.671812 0.788302
Si Si7 0.560123 0.320611 0.969077
O O1 0.412715 0.500000 0.643413
O O2 0.327465 0.728997 0.347801
O O3 0.393608 0.720398 0.767863
O O4 0.476377 0.743473 0.761425
O O5 0.917618 0.229550 0.548470
O O6 0.060919 0.249819 0.907137
O O7 0.006057 0.000000 0.852103
O O8 0.000000 0.237838 0.000000
O O9 0.864967 0.752091 0.139313
O O10 0.857859 0.000000 0.257397
O O11 0.777619 0.768650 0.121260
O O12 0.500000 0.779872 0.500000
O O13 0.360813 0.719008 0.179262
O O14 0.398902 0.000000 0.223868
O O15 0.399822 0.779125 0.039359
O O16 0.720803 0.500000 0.941677
O O17 0.097509 0.500000 0.882482
O O18 0.000000 0.682753 0.500000
O O19 0.562928 0.500000 0.942525
#
# Coordination Sequence:
#
# PCOD8064072 Si02
#       7
#     4   4   4   4   4   4   4
#     4   8  16  30  52  76  96 123 165 216 261 307
#     4   9  18  34  57  83 110 142 177 213 259 311
#     4  10  20  35  54  78 109 141 174 216 264 314
#     4  11  22  34  49  75 107 138 175 220 267 318
#     4  11  21  35  55  77 103 138 178 219 267 318
#     4   9  17  31  53  80 107 136 173 212 249 300
#     4   9  16  32  54  74  95 124 168 216 262 308
#
# _framework density 18.295487000000001
#
# number of rings (size 3 to 8) (size 9 to 14) (size 15 to 20)
#    0.000    2.429    1.429    2.571    0.000    3.143 
#    0.000    4.286    0.000    0.000    0.000    0.000 
#    0.000    0.000    0.000    0.000    0.000    0.000 
#
# Total GULP energy -347068.054767 kJ/mol
# GULP energy per Si atom -12395.287670 kJ/mol
# Density = 1.825385 g / cm^3
# Si number density = 18.295487 Si / 1000 Ang^3
#
#
#
# Elastic Constant Matrix: (Units=GPa)
#
#
# Indices 1 2 3 4 5 6 
#
# 1 103.0419 25.6155 50.3322 0.0000 -16.7280 0.0000
# 2 25.6155 39.6218 24.6821 0.0000 -5.8102 0.0000
# 3 50.3322 24.6821 82.0069 0.0000 -9.4524 0.0000
# 4 0.0000 0.0000 0.0000 19.4025 0.0000 6.2079
# 5 -16.7280 -5.8102 -9.4524 0.0000 31.4006 0.0000
# 6 0.0000 0.0000 0.0000 6.2079 0.0000 13.7254
#
#
#
# Elastic Compliance Matrix: (Units=1/GPa)
#
#
# Indices 1 2 3 4 5 6 
#
# 1 0.015280 -0.004501 -0.007440 0.000000 0.005068 0.000000
# 2 -0.004501 0.032671 -0.006889 0.000000 0.001574 0.000000
# 3 -0.007440 -0.006889 0.018885 0.000000 0.000447 0.000000
# 4 0.000000 0.000000 0.000000 0.060260 0.000000 -0.027255
# 5 0.005068 0.001574 0.000447 0.000000 0.034972 0.000000
# 6 0.000000 0.000000 0.000000 -0.027255 0.000000 0.085185
#
#
# Mechanical properties :
#
#
# Convention : Reuss Voigt Hill
#
# Bulk Modulus (GPa) = 34.27391 47.32559 40.79975
# Shear Modulus (GPa) = 16.96988 21.17508 19.07248
#
# Velocity S-wave (km/s) = 3.04887 3.40574 3.23223
# Velocity P-wave (km/s) = 5.58286 6.43342 6.02317
#
# Compressibility (1/GPa) = 0.02917671
#
# Stress axis : x y z
#
# Youngs Moduli (GPa) = 65.44298 30.60817 52.95165
#
# Poissons Ratio (x) = 0.13777 0.39394
# Poissons Ratio (y) = 0.29458 0.36479
# Poissons Ratio (z) = 0.48687 0.21086
#
# Static dielectric constant tensor:
#      x y z
#    x 0.000000 0.000000 0.000000 
#    y 0.000000 0.000000 0.000000 
#    z 0.000000 0.000000 0.000000 
# 
# 
# High freq. dielectric constant tensor:
#      x y z
#    x 1.708820 0.000000 -0.013290 
#    y 0.000000 1.699300 0.000000 
#    z -0.013290 0.000000 1.688840 
# 
# From -- ./inp_files/36937.got.cif
#   From: 2010.06.25/outbox.cif.g09.slc.cpg/sg10_19_cif.got.tgz:36937.got - 2010.06.27 22:07:45.
