data_PCOD8064920
_publ_section_title
;
Structure prediction by ZEFSAII (Michael W. Deem and Ramdas Pophale) SiO2 
 PCOD8064920
Probable space group: P 2/M
;
_chemical_formula_sum "Si O2"
_cell_formula_units_Z 32
_cell_length_a 11.591423
_cell_length_b 8.609235
_cell_length_c 17.589169
_cell_angle_alpha 90.000000
_cell_angle_beta 63.891976
_cell_angle_gamma 90.000000
_cell_volume 1576.182534
_symmetry_space_group_name_H-M "P 2/M"
_symmetry_group_IT_number 10
_symmetry_cell_setting 'monoclinic'
loop_
_space_group_symop_operation_xyz
x,y,z
-x,y,-z
-x,-y,-z
x,-y,z
loop_
_atom_site_type_symbol
_atom_site_label
_atom_site_fract_x
_atom_site_fract_y
_atom_site_fract_z
Si Si1 0.292759 0.180421 0.747544
Si Si2 0.660807 0.682163 0.104562
Si Si3 0.484361 0.318673 0.415482
Si Si4 0.031387 0.317912 0.773946
Si Si5 0.024471 0.683606 0.376838
Si Si6 0.586513 0.329686 0.901015
Si Si7 0.204216 0.315559 0.454268
Si Si8 0.195748 0.820504 0.077652
O O1 0.298326 0.279402 0.822697
O O2 0.409355 0.220868 0.658829
O O3 0.161854 0.222859 0.743386
O O4 0.296186 0.000000 0.767337
O O5 0.677362 0.500000 0.083090
O O6 0.509898 0.729784 0.137344
O O7 0.751020 0.773763 0.019896
O O8 0.500000 0.289696 0.500000
O O9 0.501161 0.500000 0.390495
O O10 0.346732 0.251091 0.428118
O O11 0.063131 0.500000 0.766083
O O12 0.967098 0.263719 0.712958
O O13 0.933835 0.275939 0.869818
O O14 0.017780 0.500000 0.384951
O O15 0.150986 0.739574 0.386864
O O16 0.894101 0.749428 0.453319
O O17 0.644765 0.500000 0.863442
O O18 0.702303 0.212118 0.884012
O O19 0.500000 0.346660 0.000000
O O20 0.211130 0.500000 0.457665
O O21 0.160549 0.000000 0.087949
#
# Coordination Sequence:
#
# PCOD8064920 Si02
#       8
#     4   4   4   4   4   4   4   4
#     4  12  26  41  57  82 115 149 188 239 301 353
#     4  10  21  40  63  85 112 149 195 240 281 336
#     4  10  20  36  60  88 117 153 195 232 273 338
#     4  11  22  38  58  80 109 150 200 243 285 343
#     4   8  15  29  53  84 114 143 181 234 283 323
#     4   8  16  33  57  83 110 144 188 233 276 329
#     4   8  14  28  53  86 117 143 180 232 283 324
#     4  11  22  36  57  87 120 152 187 232 291 348
#
# _framework density 20.302216000000001
#
# number of rings (size 3 to 8) (size 9 to 14) (size 15 to 20)
#    0.000    2.250    0.000    5.250    0.000    6.500 
#    0.000    5.000    0.000    0.750    0.000    5.250 
#    0.000    0.000    0.000    0.000    0.000    0.000 
#
# Total GULP energy -396734.107242 kJ/mol
# GULP energy per Si atom -12397.940851 kJ/mol
# Density = 2.025601 g / cm^3
# Si number density = 20.302216 Si / 1000 Ang^3
#
#
#
# Elastic Constant Matrix: (Units=GPa)
#
#
# Indices 1 2 3 4 5 6 
#
# 1 132.3809 19.0775 45.7280 0.0000 -5.2345 0.0000
# 2 19.0775 49.4550 16.5326 0.0000 -0.7666 0.0000
# 3 45.7280 16.5326 82.0431 0.0000 -0.8682 0.0000
# 4 0.0000 0.0000 0.0000 17.5774 0.0000 -0.8771
# 5 -5.2345 -0.7666 -0.8682 0.0000 35.2609 0.0000
# 6 0.0000 0.0000 0.0000 -0.8771 0.0000 14.9321
#
#
#
# Elastic Compliance Matrix: (Units=1/GPa)
#
#
# Indices 1 2 3 4 5 6 
#
# 1 0.009599 -0.002036 -0.004926 0.000000 0.001259 0.000000
# 2 -0.002036 0.022118 -0.003321 0.000000 0.000097 0.000000
# 3 -0.004926 -0.003321 0.015599 0.000000 -0.000419 0.000000
# 4 0.000000 0.000000 0.000000 0.057058 0.000000 0.003352
# 5 0.001259 0.000097 -0.000419 0.000000 0.028539 0.000000
# 6 0.000000 0.000000 0.000000 0.003352 0.000000 0.067167
#
#
# Mechanical properties :
#
#
# Convention : Reuss Voigt Hill
#
# Bulk Modulus (GPa) = 37.38548 47.39504 42.39026
# Shear Modulus (GPa) = 21.78048 25.72348 23.75198
#
# Velocity S-wave (km/s) = 3.27894 3.56340 3.42412
# Velocity P-wave (km/s) = 5.72623 6.35026 6.04630
#
# Compressibility (1/GPa) = 0.02674835
#
# Stress axis : x y z
#
# Youngs Moduli (GPa) = 104.17798 45.21280 64.10543
#
# Poissons Ratio (x) = 0.09207 0.31581
# Poissons Ratio (y) = 0.21215 0.21289
# Poissons Ratio (z) = 0.51323 0.15015
#
# Static dielectric constant tensor:
#      x y z
#    x 4.123260 0.000000 0.069270 
#    y 0.000000 3.313960 0.000000 
#    z 0.069270 0.000000 3.583970 
# 
# 
# High freq. dielectric constant tensor:
#      x y z
#    x 1.806360 0.000000 0.001650 
#    y 0.000000 1.759600 0.000000 
#    z 0.001650 0.000000 1.786220 
# 
# From -- ./inp_files/76175.got.cif
#   From: 2010.06.25/outbox.cif.g09.slc.cpg/sg10_39_cif.got.tgz:76175.got - 2010.06.27 22:07:45.
