data_PCOD8064001
_publ_section_title
;
Structure prediction by ZEFSAII (Michael W. Deem and Ramdas Pophale) SiO2 
 PCOD8064001
Probable space group: P 2/M
;
_chemical_formula_sum "Si O2"
_cell_formula_units_Z 28
_cell_length_a 33.509718
_cell_length_b 7.689768
_cell_length_c 9.960423
_cell_angle_alpha 90.000000
_cell_angle_beta 34.438774
_cell_angle_gamma 90.000000
_cell_volume 1451.489165
_symmetry_space_group_name_H-M "P 2/M"
_symmetry_group_IT_number 10
_symmetry_cell_setting 'monoclinic'
loop_
_space_group_symop_operation_xyz
x,y,z
-x,y,-z
-x,-y,-z
x,-y,z
loop_
_atom_site_type_symbol
_atom_site_label
_atom_site_fract_x
_atom_site_fract_y
_atom_site_fract_z
Si Si1 0.311437 0.800732 0.312174
Si Si2 0.548507 0.299129 0.478589
Si Si3 0.531870 0.293626 0.047500
Si Si4 0.084476 0.500000 0.120709
Si Si5 0.175507 0.201312 0.196779
Si Si6 0.302424 0.795734 0.038449
Si Si7 0.809922 0.202961 0.154281
Si Si8 0.070675 0.500000 0.473497
O O1 0.390538 0.777968 0.141974
O O2 0.258542 0.729445 0.573524
O O3 0.292806 0.000000 0.345955
O O4 0.299112 0.713534 0.198570
O O5 0.500000 0.207783 0.500000
O O6 0.529095 0.500000 0.536571
O O7 0.630725 0.275583 0.226935
O O8 0.522836 0.220146 0.690549
O O9 0.537073 0.500000 0.028097
O O10 0.500000 0.216510 0.000000
O O11 0.068760 0.500000 0.320211
O O12 0.009835 0.500000 0.247964
O O13 0.126315 0.322949 0.968721
O O14 0.109330 0.324107 0.415499
O O15 0.153007 0.000000 0.277669
O O16 0.235026 0.257249 0.137932
O O17 0.203665 0.234115 0.966959
O O18 0.310862 0.000000 0.024727
O O19 0.828217 0.000000 0.130157
#
# Coordination Sequence:
#
# PCOD8064001 Si02
#       8
#     4   4   4   2   4   4   4   2
#     4  10  21  36  53  74 103 140 180 220 267 322
#     4  10  20  35  51  72 101 134 179 225 267 316
#     4  10  22  37  50  73 103 137 178 223 274 319
#     4   9  18  34  57  87 113 143 175 214 266 318
#     4   9  19  35  54  82 112 141 178 222 266 313
#     4  10  21  35  53  75 102 140 180 220 271 319
#     4   9  19  35  54  81 112 142 180 220 263 318
#     4   9  18  34  57  87 115 139 177 215 264 321
#
# _framework density 19.290531999999999
#
# number of rings (size 3 to 8) (size 9 to 14) (size 15 to 20)
#    0.000    2.429    1.429    0.000    4.000    1.714 
#    0.000    2.857    0.000    1.714    0.000    4.000 
#    0.000    0.000    0.000    0.000    0.000    0.000 
#
# Total GULP energy -347033.900869 kJ/mol
# GULP energy per Si atom -12394.067888 kJ/mol
# Density = 1.924663 g / cm^3
# Si number density = 19.290532 Si / 1000 Ang^3
#
#
#
# Elastic Constant Matrix: (Units=GPa)
#
#
# Indices 1 2 3 4 5 6 
#
# 1 142.3337 36.1605 82.6971 0.0000 -4.8788 0.0000
# 2 36.1605 57.6657 31.4000 0.0000 -6.8974 0.0000
# 3 82.6971 31.4000 114.8728 0.0000 -4.9789 0.0000
# 4 0.0000 0.0000 0.0000 23.0903 0.0000 -10.0616
# 5 -4.8788 -6.8974 -4.9789 0.0000 29.5204 0.0000
# 6 0.0000 0.0000 0.0000 -10.0616 0.0000 18.2006
#
#
#
# Elastic Compliance Matrix: (Units=1/GPa)
#
#
# Indices 1 2 3 4 5 6 
#
# 1 0.012650 -0.003505 -0.008153 0.000000 -0.000103 0.000000
# 2 -0.003505 0.021789 -0.003261 0.000000 0.003962 0.000000
# 3 -0.008153 -0.003261 0.015488 0.000000 0.000503 0.000000
# 4 0.000000 0.000000 0.000000 0.057051 0.000000 0.031539
# 5 -0.000103 0.003962 0.000503 0.000000 0.034868 0.000000
# 6 0.000000 0.000000 0.000000 0.031539 0.000000 0.072379
#
#
# Mechanical properties :
#
#
# Convention : Reuss Voigt Hill
#
# Bulk Modulus (GPa) = 49.78001 68.37640 59.07820
# Shear Modulus (GPa) = 19.93956 25.13658 22.53807
#
# Velocity S-wave (km/s) = 3.21852 3.61370 3.42182
# Velocity P-wave (km/s) = 6.29867 7.27559 6.80469
#
# Compressibility (1/GPa) = 0.02008839
#
# Stress axis : x y z
#
# Youngs Moduli (GPa) = 79.05429 45.89533 64.56781
#
# Poissons Ratio (x) = 0.16087 0.52641
# Poissons Ratio (y) = 0.27710 0.21054
# Poissons Ratio (z) = 0.64451 0.14965
#
# Static dielectric constant tensor:
#      x y z
#    x 3.701880 0.000000 0.154250 
#    y 0.000000 3.466040 0.000000 
#    z 0.154250 0.000000 3.716660 
# 
# 
# High freq. dielectric constant tensor:
#      x y z
#    x 1.743170 0.000000 0.002310 
#    y 0.000000 1.747590 0.000000 
#    z 0.002310 0.000000 1.742380 
# 
# From -- ./inp_files/37993.got.cif
#   From: 2010.06.25/outbox.cif.g09.slc.cpg/sg10_19_cif.got.tgz:37993.got - 2010.06.27 22:07:45.
