data_PCOD8064438
_publ_section_title
;
Structure prediction by ZEFSAII (Michael W. Deem and Ramdas Pophale) SiO2 
 PCOD8064438
Probable space group: P 2/M
;
_chemical_formula_sum "Si O2"
_cell_formula_units_Z 24
_cell_length_a 14.699215
_cell_length_b 9.322276
_cell_length_c 14.664757
_cell_angle_alpha 90.000000
_cell_angle_beta 141.979602
_cell_angle_gamma 90.000000
_cell_volume 1237.743839
_symmetry_space_group_name_H-M "P 2/M"
_symmetry_group_IT_number 10
_symmetry_cell_setting 'monoclinic'
loop_
_space_group_symop_operation_xyz
x,y,z
-x,y,-z
-x,-y,-z
x,-y,z
loop_
_atom_site_type_symbol
_atom_site_label
_atom_site_fract_x
_atom_site_fract_y
_atom_site_fract_z
Si Si1 0.467770 0.837001 0.075192
Si Si2 0.452062 0.170547 0.363791
Si Si3 0.311257 0.162695 0.594984
Si Si4 0.864220 0.168008 0.958562
Si Si5 0.808992 0.333432 0.088796
Si Si6 0.968764 0.665841 0.576760
O O1 0.620190 0.830282 0.250233
O O2 0.405579 0.000000 0.024208
O O3 0.500000 0.778893 0.000000
O O4 0.352514 0.734591 0.033563
O O5 0.500000 0.232330 0.500000
O O6 0.571471 0.226252 0.384792
O O7 0.287869 0.224039 0.207792
O O8 0.451139 0.000000 0.364069
O O9 0.164037 0.255010 0.477540
O O10 0.269390 0.000000 0.535525
O O11 0.853861 0.000000 0.973673
O O12 0.896483 0.254135 0.076930
O O13 0.000000 0.202010 0.000000
O O14 0.795679 0.500000 0.053967
O O15 0.887888 0.309537 0.247998
O O16 0.924783 0.500000 0.534579
O O17 0.000000 0.728123 0.500000
#
# Coordination Sequence:
#
# PCOD8064438 Si02
#       6
#     4   4   4   4   4   4
#     4  10  20  36  59  86 115 146 187 240 289 341
#     4   9  18  34  56  85 115 141 180 233 285 339
#     4  10  20  35  58  86 114 144 185 240 287 332
#     4  10  21  38  62  87 113 150 192 237 291 346
#     4  11  23  38  58  84 118 156 192 238 289 342
#     4  10  23  41  57  79 116 158 197 235 279 339
#
# _framework density 19.390118999999999
#
# number of rings (size 3 to 8) (size 9 to 14) (size 15 to 20)
#    0.000    2.000    1.667    1.500    2.333    3.000 
#    0.000    0.000    0.000    1.000    0.000    0.000 
#    0.000    0.000    0.000    0.000    0.000    0.000 
#
# Total GULP energy -297668.869170 kJ/mol
# GULP energy per Si atom -12402.869549 kJ/mol
# Density = 1.934599 g / cm^3
# Si number density = 19.390119 Si / 1000 Ang^3
#
#
#
# Elastic Constant Matrix: (Units=GPa)
#
#
# Indices 1 2 3 4 5 6 
#
# 1 110.0593 35.4303 27.3920 0.0000 -1.6554 0.0000
# 2 35.4303 59.7313 24.2847 0.0000 3.2741 0.0000
# 3 27.3920 24.2847 68.1778 0.0000 -3.8323 0.0000
# 4 0.0000 0.0000 0.0000 20.9295 0.0000 -7.6025
# 5 -1.6554 3.2741 -3.8323 0.0000 42.1119 0.0000
# 6 0.0000 0.0000 0.0000 -7.6025 0.0000 10.4263
#
#
#
# Elastic Compliance Matrix: (Units=1/GPa)
#
#
# Indices 1 2 3 4 5 6 
#
# 1 0.011627 -0.005906 -0.002529 0.000000 0.000686 0.000000
# 2 -0.005906 0.022776 -0.005882 0.000000 -0.002538 0.000000
# 3 -0.002529 -0.005882 0.017891 0.000000 0.001986 0.000000
# 4 0.000000 0.000000 0.000000 0.064994 0.000000 0.047391
# 5 0.000686 -0.002538 0.001986 0.000000 0.024151 0.000000
# 6 0.000000 0.000000 0.000000 0.047391 0.000000 0.130467
#
#
# Mechanical properties :
#
#
# Convention : Reuss Voigt Hill
#
# Bulk Modulus (GPa) = 42.26888 45.79806 44.03347
# Shear Modulus (GPa) = 16.21131 24.75097 20.48114
#
# Velocity S-wave (km/s) = 2.89461 3.57665 3.25355
# Velocity P-wave (km/s) = 5.74614 6.38178 6.07229
#
# Compressibility (1/GPa) = 0.02365807
#
# Stress axis : x y z
#
# Youngs Moduli (GPa) = 86.00612 43.90664 55.89522
#
# Poissons Ratio (x) = 0.25932 0.14137
# Poissons Ratio (y) = 0.50796 0.32880
# Poissons Ratio (z) = 0.21752 0.25828
#
# Static dielectric constant tensor:
#      x y z
#    x 3.637370 0.000000 -0.159610 
#    y 0.000000 3.295540 0.000000 
#    z -0.159610 0.000000 3.560040 
# 
# 
# High freq. dielectric constant tensor:
#      x y z
#    x 1.764370 0.000000 -0.007030 
#    y 0.000000 1.725830 0.000000 
#    z -0.007030 0.000000 1.759710 
# 
# From -- ./inp_files/27072.got.cif
#   From: 2010.06.25/outbox.cif.g09.slc.cpg/sg10_14_cif.got.tgz:27072.got - 2010.06.27 22:07:45.
