data_PCOD8064050
_publ_section_title
;
Structure prediction by ZEFSAII (Michael W. Deem and Ramdas Pophale) SiO2 
 PCOD8064050
Probable space group: P 2/M
;
_chemical_formula_sum "Si O2"
_cell_formula_units_Z 20
_cell_length_a 8.751129
_cell_length_b 16.518942
_cell_length_c 15.477946
_cell_angle_alpha 90.000000
_cell_angle_beta 151.184622
_cell_angle_gamma 90.000000
_cell_volume 1078.441612
_symmetry_space_group_name_H-M "P 2/M"
_symmetry_group_IT_number 10
_symmetry_cell_setting 'monoclinic'
loop_
_space_group_symop_operation_xyz
x,y,z
-x,y,-z
-x,-y,-z
x,-y,z
loop_
_atom_site_type_symbol
_atom_site_label
_atom_site_fract_x
_atom_site_fract_y
_atom_site_fract_z
Si Si1 0.128105 0.591288 0.973939
Si Si2 0.879201 0.591612 0.348048
Si Si3 0.112188 0.000000 0.153663
Si Si4 0.875657 0.878349 0.176739
Si Si5 0.740408 0.000000 0.540173
Si Si6 0.122742 0.694561 0.812813
O O1 0.001036 0.500000 0.897910
O O2 0.503639 0.592779 0.160778
O O3 0.987769 0.645592 0.827663
O O4 0.000000 0.627768 0.000000
O O5 0.002884 0.500000 0.392152
O O6 0.012227 0.651964 0.340514
O O7 0.000000 0.623773 0.500000
O O8 0.502311 0.000000 0.340199
O O9 0.984422 0.920593 0.141023
O O10 0.000000 0.000000 0.000000
O O11 0.997171 0.786347 0.238662
O O12 0.035294 0.921141 0.339624
O O13 0.500000 0.885253 0.000000
O O14 0.500000 0.000000 0.500000
O O15 0.500000 0.691694 0.000000
#
# Coordination Sequence:
#
# PCOD8064050 Si02
#       6
#     4   4   2   4   2   4
#     4   9  17  30  47  68  96 130 167 204 241 285
#     4   9  17  31  49  69  96 130 168 207 244 284
#     4  10  20  35  54  75  98 125 160 198 244 296
#     4   9  17  33  53  72  98 129 161 197 241 293
#     4   8  16  33  52  69  94 125 153 184 238 296
#     4   9  17  30  50  73  96 130 166 199 242 293
#
# _framework density 18.545280999999999
#
# number of rings (size 3 to 8) (size 9 to 14) (size 15 to 20)
#    0.000    3.200    0.000    1.800    0.000    3.200 
#    0.000   15.000    0.000    4.800    0.000    0.000 
#    0.000    0.000    0.000    0.000    0.000    0.000 
#
# Total GULP energy -247867.366854 kJ/mol
# GULP energy per Si atom -12393.368343 kJ/mol
# Density = 1.850307 g / cm^3
# Si number density = 18.545281 Si / 1000 Ang^3
#
#
#
# Elastic Constant Matrix: (Units=GPa)
#
#
# Indices 1 2 3 4 5 6 
#
# 1 93.4045 69.1650 34.8925 0.0000 -33.0241 0.0000
# 2 69.1650 154.7012 51.7401 0.0000 -31.6054 0.0000
# 3 34.8925 51.7401 100.3493 0.0000 -27.6398 0.0000
# 4 0.0000 0.0000 0.0000 13.2655 0.0000 0.6404
# 5 -33.0241 -31.6054 -27.6398 0.0000 37.8234 0.0000
# 6 0.0000 0.0000 0.0000 0.6404 0.0000 18.7497
#
#
#
# Elastic Compliance Matrix: (Units=1/GPa)
#
#
# Indices 1 2 3 4 5 6 
#
# 1 0.019580 -0.006257 -0.000392 0.000000 0.011581 0.000000
# 2 -0.006257 0.010470 -0.002902 0.000000 0.001165 0.000000
# 3 -0.000392 -0.002902 0.013566 0.000000 0.007146 0.000000
# 4 0.000000 0.000000 0.000000 0.075508 0.000000 -0.002579
# 5 0.011581 0.001165 0.007146 0.000000 0.042746 0.000000
# 6 0.000000 0.000000 0.000000 -0.002579 0.000000 0.053422
#
#
# Mechanical properties :
#
#
# Convention : Reuss Voigt Hill
#
# Bulk Modulus (GPa) = 40.79268 73.33888 57.06578
# Shear Modulus (GPa) = 20.61289 26.81155 23.71222
#
# Velocity S-wave (km/s) = 3.33752 3.80641 3.57965
# Velocity P-wave (km/s) = 6.07421 7.67789 6.92265
#
# Compressibility (1/GPa) = 0.02451420
#
# Stress axis : x y z
#
# Youngs Moduli (GPa) = 51.07133 95.51043 73.71305
#
# Poissons Ratio (x) = 0.59761 0.02893
# Poissons Ratio (y) = 0.31955 0.21390
# Poissons Ratio (z) = 0.02004 0.27715
#
# Static dielectric constant tensor:
#      x y z
#    x 3.272240 0.000000 -0.112420 
#    y 0.000000 3.609850 0.000000 
#    z -0.112420 0.000000 3.841810 
# 
# 
# High freq. dielectric constant tensor:
#      x y z
#    x 1.698690 0.000000 -0.003690 
#    y 0.000000 1.717890 0.000000 
#    z -0.003690 0.000000 1.712640 
# 
# From -- ./inp_files/19365.got.cif
#   From: 2010.06.25/outbox.cif.g09.slc.cpg/sg10_10_cif.got.tgz:19365.got - 2010.06.27 22:07:45.
