data_PCOD8064710
_publ_section_title
;
Structure prediction by ZEFSAII (Michael W. Deem and Ramdas Pophale) SiO2 
 PCOD8064710
Probable space group: P 2/M
;
_chemical_formula_sum "Si O2"
_cell_formula_units_Z 32
_cell_length_a 11.821465
_cell_length_b 9.348129
_cell_length_c 28.466695
_cell_angle_alpha 90.000000
_cell_angle_beta 30.933013
_cell_angle_gamma 90.000000
_cell_volume 1617.060315
_symmetry_space_group_name_H-M "P 2/M"
_symmetry_group_IT_number 10
_symmetry_cell_setting 'monoclinic'
loop_
_space_group_symop_operation_xyz
x,y,z
-x,y,-z
-x,-y,-z
x,-y,z
loop_
_atom_site_type_symbol
_atom_site_label
_atom_site_fract_x
_atom_site_fract_y
_atom_site_fract_z
Si Si1 0.553056 0.166263 0.713352
Si Si2 0.078447 0.835229 0.919794
Si Si3 0.040275 0.338522 0.190077
Si Si4 0.692809 0.162469 0.837099
Si Si5 0.654979 0.331172 0.487280
Si Si6 0.263840 0.336836 0.015639
Si Si7 0.553702 0.667076 0.339798
Si Si8 0.902290 0.161897 0.664382
O O1 0.336244 0.199096 0.821593
O O2 0.562379 0.251119 0.661343
O O3 0.766872 0.213456 0.666952
O O4 0.563431 0.000000 0.697086
O O5 0.951078 0.731361 0.930504
O O6 0.024985 0.000000 0.926331
O O7 0.000000 0.799451 0.000000
O O8 0.018806 0.500000 0.217953
O O9 0.810091 0.290972 0.249333
O O10 0.097702 0.231913 0.211693
O O11 0.232495 0.331422 0.082893
O O12 0.731197 0.168458 0.768118
O O13 0.662940 0.000000 0.865265
O O14 0.476477 0.249930 0.925739
O O15 0.500000 0.276059 0.500000
O O16 0.683798 0.500000 0.473569
O O17 0.551103 0.283763 0.573696
O O18 0.894165 0.263266 0.397622
O O19 0.289667 0.500000 0.989236
O O20 0.518832 0.500000 0.343418
O O21 0.988390 0.000000 0.627025
#
# Coordination Sequence:
#
# PCOD8064710 Si02
#       8
#     4   4   4   4   4   4   4   4
#     4  10  21  38  60  85 117 157 198 241 294 351
#     4  10  20  36  58  82 115 159 204 249 293 344
#     4  10  21  38  58  83 119 156 194 244 298 353
#     4  11  23  38  58  84 117 156 199 246 298 355
#     4  10  22  41  66  92 118 153 195 239 295 357
#     4  11  22  36  56  84 117 155 198 245 297 351
#     4  10  21  39  62  88 120 155 194 245 297 352
#     4  10  23  42  61  86 120 155 194 243 295 347
#
# _framework density 19.788996999999998
#
# number of rings (size 3 to 8) (size 9 to 14) (size 15 to 20)
#    0.000    1.750    1.250    2.625    0.000    9.000 
#    0.000    3.750    0.000    0.000    0.000    0.000 
#    0.000    0.000    0.000    0.000    0.000    0.000 
#
# Total GULP energy -396925.110664 kJ/mol
# GULP energy per Si atom -12403.909708 kJ/mol
# Density = 1.974396 g / cm^3
# Si number density = 19.788997 Si / 1000 Ang^3
#
#
#
# Elastic Constant Matrix: (Units=GPa)
#
#
# Indices 1 2 3 4 5 6 
#
# 1 136.3054 54.8457 41.8056 0.0000 -4.9876 0.0000
# 2 54.8457 83.5823 35.1258 0.0000 -5.5042 0.0000
# 3 41.8056 35.1258 88.7046 0.0000 -2.7168 0.0000
# 4 0.0000 0.0000 0.0000 32.5471 0.0000 -2.0158
# 5 -4.9876 -5.5042 -2.7168 0.0000 33.5314 0.0000
# 6 0.0000 0.0000 0.0000 -2.0158 0.0000 30.4517
#
#
#
# Elastic Compliance Matrix: (Units=1/GPa)
#
#
# Indices 1 2 3 4 5 6 
#
# 1 0.010470 -0.005729 -0.002654 0.000000 0.000402 0.000000
# 2 -0.005729 0.017609 -0.004221 0.000000 0.001696 0.000000
# 3 -0.002654 -0.004221 0.014197 0.000000 0.000063 0.000000
# 4 0.000000 0.000000 0.000000 0.030851 0.000000 0.002042
# 5 0.000402 0.001696 0.000063 0.000000 0.030166 0.000000
# 6 0.000000 0.000000 0.000000 0.002042 0.000000 0.032974
#
#
# Mechanical properties :
#
#
# Convention : Reuss Voigt Hill
#
# Bulk Modulus (GPa) = 58.58346 63.57185 61.07765
# Shear Modulus (GPa) = 29.91059 31.09371 30.50215
#
# Velocity S-wave (km/s) = 3.89199 3.96822 3.93029
# Velocity P-wave (km/s) = 7.06152 7.29316 7.17828
#
# Compressibility (1/GPa) = 0.01706966
#
# Stress axis : x y z
#
# Youngs Moduli (GPa) = 95.50953 56.78908 70.43526
#
# Poissons Ratio (x) = 0.32533 0.18691
# Poissons Ratio (y) = 0.54715 0.29731
# Poissons Ratio (z) = 0.25345 0.23971
#
# Static dielectric constant tensor:
#      x y z
#    x 3.732200 0.000000 0.033100 
#    y 0.000000 3.635210 0.000000 
#    z 0.033100 0.000000 3.552920 
# 
# 
# High freq. dielectric constant tensor:
#      x y z
#    x 1.778580 0.000000 0.000350 
#    y 0.000000 1.767810 0.000000 
#    z 0.000350 0.000000 1.774720 
# 
# From -- ./inp_files/49842.got.cif
#   From: 2010.06.25/outbox.cif.g09.slc.cpg/sg10_25_cif.got.tgz:49842.got - 2010.06.27 22:07:45.
