data_PCOD8064258
_publ_section_title
;
Structure prediction by ZEFSAII (Michael W. Deem and Ramdas Pophale) SiO2 
 PCOD8064258
Probable space group: P 2/M
;
_chemical_formula_sum "Si O2"
_cell_formula_units_Z 32
_cell_length_a 14.613793
_cell_length_b 8.854849
_cell_length_c 12.472014
_cell_angle_alpha 90.000000
_cell_angle_beta 87.974884
_cell_angle_gamma 90.000000
_cell_volume 1612.907160
_symmetry_space_group_name_H-M "P 2/M"
_symmetry_group_IT_number 10
_symmetry_cell_setting 'monoclinic'
loop_
_space_group_symop_operation_xyz
x,y,z
-x,y,-z
-x,-y,-z
x,-y,z
loop_
_atom_site_type_symbol
_atom_site_label
_atom_site_fract_x
_atom_site_fract_y
_atom_site_fract_z
Si Si1 0.975139 0.174983 0.884853
Si Si2 0.441762 0.171041 0.903393
Si Si3 0.731356 0.676651 0.030397
Si Si4 0.516033 0.171049 0.333211
Si Si5 0.313616 0.178716 0.396805
Si Si6 0.704632 0.678119 0.384043
Si Si7 0.834281 0.174534 0.203922
Si Si8 0.779179 0.179447 0.818632
O O1 0.055949 0.196681 0.793092
O O2 0.882608 0.241142 0.834879
O O3 0.956682 0.000000 0.907469
O O4 0.000000 0.249916 0.000000
O O5 0.357104 0.284709 0.893817
O O6 0.501513 0.177882 0.793459
O O7 0.406672 0.000000 0.925948
O O8 0.500000 0.231279 0.000000
O O9 0.749552 0.500000 0.026286
O O10 0.814313 0.760948 0.086061
O O11 0.716489 0.744288 0.912562
O O12 0.421097 0.226311 0.389610
O O13 0.601100 0.273867 0.361861
O O14 0.539138 0.000000 0.368567
O O15 0.267708 0.258885 0.500534
O O16 0.258446 0.235401 0.294507
O O17 0.304405 0.000000 0.408902
O O18 0.710198 0.500000 0.383239
O O19 0.779933 0.737604 0.297685
O O20 0.805148 0.000000 0.212083
O O21 0.770324 0.000000 0.827280
#
# Coordination Sequence:
#
# PCOD8064258 Si02
#       8
#     4   4   4   4   4   4   4   4
#     4   9  17  33  62  95 118 144 192 247 296 340
#     4  10  20  35  56  82 114 157 200 239 288 346
#     4  12  23  34  53  86 124 158 190 234 295 354
#     4  10  20  36  59  85 114 152 200 245 284 343
#     4  10  22  40  63  88 114 153 202 245 290 347
#     4  12  25  40  59  85 119 157 198 246 298 350
#     4  11  21  38  63  87 115 152 196 246 291 344
#     4  10  20  39  64  89 118 154 197 245 292 353
#
# _framework density 19.839950999999999
#
# number of rings (size 3 to 8) (size 9 to 14) (size 15 to 20)
#    0.000    1.500    2.500    3.750    0.000    4.750 
#    0.000    3.750    0.000    3.750    0.000    0.000 
#    0.000    0.000    0.000    0.000    0.000    0.000 
#
# Total GULP energy -396767.124920 kJ/mol
# GULP energy per Si atom -12398.972654 kJ/mol
# Density = 1.979479 g / cm^3
# Si number density = 19.839951 Si / 1000 Ang^3
#
#
#
# Elastic Constant Matrix: (Units=GPa)
#
#
# Indices 1 2 3 4 5 6 
#
# 1 78.6392 28.8015 31.3473 0.0000 -6.5975 0.0000
# 2 28.8015 77.7587 39.4077 0.0000 -2.8908 0.0000
# 3 31.3473 39.4077 121.8823 0.0000 -5.3736 0.0000
# 4 0.0000 0.0000 0.0000 15.7415 0.0000 -0.4200
# 5 -6.5975 -2.8908 -5.3736 0.0000 22.2968 0.0000
# 6 0.0000 0.0000 0.0000 -0.4200 0.0000 0.9740
#
#
#
# Elastic Compliance Matrix: (Units=1/GPa)
#
#
# Indices 1 2 3 4 5 6 
#
# 1 0.015592 -0.004415 -0.002430 0.000000 0.003455 0.000000
# 2 -0.004415 0.016645 -0.004254 0.000000 -0.000174 0.000000
# 3 -0.002430 -0.004254 0.010258 0.000000 0.001202 0.000000
# 4 0.000000 0.000000 0.000000 0.064266 0.000000 0.027715
# 5 0.003455 -0.000174 0.001202 0.000000 0.046139 0.000000
# 6 0.000000 0.000000 0.000000 0.027715 0.000000 1.038691
#
#
# Mechanical properties :
#
#
# Convention : Reuss Voigt Hill
#
# Bulk Modulus (GPa) = 49.26952 53.04370 51.15661
# Shear Modulus (GPa) = 4.09650 19.71736 11.90693
#
# Velocity S-wave (km/s) = 1.43849 3.15591 2.45245
# Velocity P-wave (km/s) = 5.25799 6.33037 5.81893
#
# Compressibility (1/GPa) = 0.02029652
#
# Stress axis : x y z
#
# Youngs Moduli (GPa) = 64.13548 60.07799 97.48435
#
# Poissons Ratio (x) = 0.26525 0.23692
# Poissons Ratio (y) = 0.28316 0.41469
# Poissons Ratio (z) = 0.15587 0.25556
#
# Static dielectric constant tensor:
#      x y z
#    x 3.671140 0.000000 0.046940 
#    y 0.000000 3.300490 0.000000 
#    z 0.046940 0.000000 3.734840 
# 
# 
# High freq. dielectric constant tensor:
#      x y z
#    x 1.771020 0.000000 -0.005390 
#    y 0.000000 1.745350 0.000000 
#    z -0.005390 0.000000 1.778510 
# 
# From -- ./inp_files/49814.got.cif
#   From: 2010.06.25/outbox.cif.g09.slc.cpg/sg10_25_cif.got.tgz:49814.got - 2010.06.27 22:07:45.
