data_PCOD8064698
_publ_section_title
;
Structure prediction by ZEFSAII (Michael W. Deem and Ramdas Pophale) SiO2 
 PCOD8064698
Probable space group: P 2/M
;
_chemical_formula_sum "Si O2"
_cell_formula_units_Z 28
_cell_length_a 26.476767
_cell_length_b 8.856798
_cell_length_c 20.600394
_cell_angle_alpha 90.000000
_cell_angle_beta 17.841279
_cell_angle_gamma 90.000000
_cell_volume 1480.059997
_symmetry_space_group_name_H-M "P 2/M"
_symmetry_group_IT_number 10
_symmetry_cell_setting 'monoclinic'
loop_
_space_group_symop_operation_xyz
x,y,z
-x,y,-z
-x,-y,-z
x,-y,z
loop_
_atom_site_type_symbol
_atom_site_label
_atom_site_fract_x
_atom_site_fract_y
_atom_site_fract_z
Si Si1 0.326405 0.835491 0.242422
Si Si2 0.791429 0.822303 0.938606
Si Si3 0.668536 0.665431 0.637243
Si Si4 0.909194 0.679234 0.175433
Si Si5 0.973764 0.678504 0.456231
Si Si6 0.417376 0.175345 0.383461
Si Si7 0.040104 0.333029 0.150790
O O1 0.377367 0.723761 0.236786
O O2 0.198168 0.756036 0.351378
O O3 0.252283 0.000000 0.355102
O O4 0.500000 0.870332 0.000000
O O5 0.880575 0.739190 0.769189
O O6 0.860560 0.780357 0.924981
O O7 0.809694 0.000000 0.904352
O O8 0.600913 0.772728 0.177336
O O9 0.588556 0.500000 0.722344
O O10 0.603076 0.786965 0.666784
O O11 0.863331 0.650043 0.398840
O O12 0.896383 0.500000 0.193782
O O13 0.721852 0.739148 0.404310
O O14 0.016151 0.734151 0.107038
O O15 0.000000 0.738236 0.000000
O O16 0.962053 0.500000 0.459720
O O17 0.000000 0.718172 0.500000
O O18 0.390382 0.000000 0.428539
O O19 0.124288 0.500000 0.045653
#
# Coordination Sequence:
#
# PCOD8064698 Si02
#       7
#     4   4   4   4   4   4   4
#     4  11  24  39  57  82 112 147 189 238 293 349
#     4  11  23  38  58  83 116 156 195 239 289 348
#     4  10  20  36  58  82 108 145 192 239 284 337
#     4   9  19  38  63  90 118 150 190 236 287 344
#     4  11  25  42  59  83 113 152 199 246 297 347
#     4  10  22  37  56  86 118 151 193 234 286 345
#     4   9  18  34  58  85 111 144 187 233 281 340
#
# _framework density 18.918151999999999
#
# number of rings (size 3 to 8) (size 9 to 14) (size 15 to 20)
#    0.000    1.857    1.429    3.000    2.000    7.143 
#    0.000    0.714    0.000    4.286    0.000    0.000 
#    0.000    0.000    0.000    0.000    0.000    0.000 
#
# Total GULP energy -347031.511173 kJ/mol
# GULP energy per Si atom -12393.982542 kJ/mol
# Density = 1.887509 g / cm^3
# Si number density = 18.918152 Si / 1000 Ang^3
#
#
#
# Elastic Constant Matrix: (Units=GPa)
#
#
# Indices 1 2 3 4 5 6 
#
# 1 104.8309 33.3555 77.3549 0.0000 7.0318 0.0000
# 2 33.3555 66.1273 47.0974 0.0000 -3.2918 0.0000
# 3 77.3549 47.0974 99.3041 0.0000 -0.4405 0.0000
# 4 0.0000 0.0000 0.0000 23.1616 0.0000 -1.7368
# 5 7.0318 -3.2918 -0.4405 0.0000 31.6375 0.0000
# 6 0.0000 0.0000 0.0000 -1.7368 0.0000 26.2930
#
#
#
# Elastic Compliance Matrix: (Units=1/GPa)
#
#
# Indices 1 2 3 4 5 6 
#
# 1 0.023421 0.001407 -0.018935 0.000000 -0.005323 0.000000
# 2 0.001407 0.023078 -0.012033 0.000000 0.001921 0.000000
# 3 -0.018935 -0.012033 0.030542 0.000000 0.003382 0.000000
# 4 0.000000 0.000000 0.000000 0.043390 0.000000 0.002866
# 5 -0.005323 0.001921 0.003382 0.000000 0.033038 0.000000
# 6 0.000000 0.000000 0.000000 0.002866 0.000000 0.038222
#
#
# Mechanical properties :
#
#
# Convention : Reuss Voigt Hill
#
# Bulk Modulus (GPa) = 55.80638 65.09756 60.45197
# Shear Modulus (GPa) = 19.47149 23.71540 21.59345
#
# Velocity S-wave (km/s) = 3.21167 3.54443 3.38215
# Velocity P-wave (km/s) = 6.58149 7.15790 6.87574
#
# Compressibility (1/GPa) = 0.01791910
#
# Stress axis : x y z
#
# Youngs Moduli (GPa) = 42.69758 43.33048 32.74195
#
# Poissons Ratio (x) = -0.06098 0.61997
# Poissons Ratio (y) = -0.06009 0.39399
# Poissons Ratio (z) = 0.80848 0.52141
#
# Static dielectric constant tensor:
#      x y z
#    x 3.752560 0.000000 -0.001030 
#    y 0.000000 3.764950 0.000000 
#    z -0.001030 0.000000 3.450140 
# 
# 
# High freq. dielectric constant tensor:
#      x y z
#    x 1.735110 0.000000 -0.003200 
#    y 0.000000 1.746010 0.000000 
#    z -0.003200 0.000000 1.723600 
# 
# From -- ./inp_files/85654.got.cif
#   From: 2010.06.25/outbox.cif.g09.slc.cpg/sg10_43_cif.got.tgz:85654.got - 2010.06.27 22:07:45.
