data_PCOD8064433
_publ_section_title
;
Structure prediction by ZEFSAII (Michael W. Deem and Ramdas Pophale) SiO2 
 PCOD8064433
Probable space group: P 2/M
;
_chemical_formula_sum "Si O2"
_cell_formula_units_Z 32
_cell_length_a 27.487466
_cell_length_b 8.936695
_cell_length_c 11.050982
_cell_angle_alpha 90.000000
_cell_angle_beta 33.638597
_cell_angle_gamma 90.000000
_cell_volume 1503.782590
_symmetry_space_group_name_H-M "P 2/M"
_symmetry_group_IT_number 10
_symmetry_cell_setting 'monoclinic'
loop_
_space_group_symop_operation_xyz
x,y,z
-x,y,-z
-x,-y,-z
x,-y,z
loop_
_atom_site_type_symbol
_atom_site_label
_atom_site_fract_x
_atom_site_fract_y
_atom_site_fract_z
Si Si1 0.381809 0.831762 0.979082
Si Si2 0.063633 0.822964 0.978976
Si Si3 0.784730 0.831955 0.805170
Si Si4 0.975966 0.821233 0.413153
Si Si5 0.401260 0.167568 0.209624
Si Si6 0.719374 0.168101 0.202796
Si Si7 0.238825 0.325171 0.656691
Si Si8 0.540241 0.332549 0.548213
O O1 0.468326 0.731798 0.788576
O O2 0.399149 0.000000 0.891173
O O3 0.299324 0.751128 0.082334
O O4 0.357318 0.838587 0.169604
O O5 0.158659 0.751810 0.750791
O O6 0.073437 0.000000 0.958412
O O7 0.000000 0.772340 0.000000
O O8 0.034062 0.768855 0.176383
O O9 0.878654 0.758270 0.581044
O O10 0.783464 0.000000 0.755034
O O11 0.777548 0.831869 0.963514
O O12 0.000000 0.760692 0.500000
O O13 0.975062 0.000000 0.421600
O O14 0.337034 0.268819 0.422046
O O15 0.406658 0.000000 0.254733
O O16 0.500000 0.235412 0.000000
O O17 0.771718 0.279950 0.181709
O O18 0.621950 0.222869 0.376775
O O19 0.715376 0.000000 0.265443
O O20 0.233076 0.500000 0.646679
O O21 0.500000 0.335367 0.500000
O O22 0.567465 0.500000 0.533279
#
# Coordination Sequence:
#
# PCOD8064433 Si02
#       8
#     4   4   4   4   4   4   4   4
#     4  10  20  35  58  85 116 154 205 257 303 359
#     4  10  22  40  67  97 124 161 213 267 314 368
#     4   9  18  31  55  89 116 148 193 253 311 358
#     4   9  17  32  57  89 122 151 192 253 316 365
#     4  10  22  40  63  91 121 157 207 262 308 359
#     4  11  21  37  62  88 119 157 210 261 305 360
#     4  12  26  42  63  90 128 169 206 250 312 383
#     4  11  22  35  53  83 127 168 202 244 302 373
#
# _framework density 21.279674
#
# number of rings (size 3 to 8) (size 9 to 14) (size 15 to 20)
#    0.000    1.750    1.250    3.375    1.750    4.500 
#    0.000    0.000    0.000    4.125    0.000    0.000 
#    0.000    0.000    0.000    0.000    0.000    0.000 
#
# Total GULP energy -396612.514842 kJ/mol
# GULP energy per Si atom -12394.141089 kJ/mol
# Density = 2.123124 g / cm^3
# Si number density = 21.279674 Si / 1000 Ang^3
#
#
#
# Elastic Constant Matrix: (Units=GPa)
#
#
# Indices 1 2 3 4 5 6 
#
# 1 92.3363 17.6471 31.6436 0.0000 -5.8671 0.0000
# 2 17.6471 60.0114 30.3544 0.0000 -4.2026 0.0000
# 3 31.6436 30.3544 107.0454 0.0000 -19.6574 0.0000
# 4 0.0000 0.0000 0.0000 13.2671 0.0000 0.9209
# 5 -5.8671 -4.2026 -19.6574 0.0000 40.1546 0.0000
# 6 0.0000 0.0000 0.0000 0.9209 0.0000 18.5151
#
#
#
# Elastic Compliance Matrix: (Units=1/GPa)
#
#
# Indices 1 2 3 4 5 6 
#
# 1 0.012267 -0.002073 -0.003021 0.000000 0.000097 0.000000
# 2 -0.002073 0.019823 -0.005146 0.000000 -0.000747 0.000000
# 3 -0.003021 -0.005146 0.012651 0.000000 0.005213 0.000000
# 4 0.000000 0.000000 0.000000 0.075635 0.000000 -0.003762
# 5 0.000097 -0.000747 0.005213 0.000000 0.027392 0.000000
# 6 0.000000 0.000000 0.000000 -0.003762 0.000000 0.054197
#
#
# Mechanical properties :
#
#
# Convention : Reuss Voigt Hill
#
# Bulk Modulus (GPa) = 41.21382 46.52037 43.86709
# Shear Modulus (GPa) = 21.68884 26.37056 24.02970
#
# Velocity S-wave (km/s) = 3.19600 3.52410 3.36405
# Velocity P-wave (km/s) = 5.74708 6.20225 5.97900
#
# Compressibility (1/GPa) = 0.02426371
#
# Stress axis : x y z
#
# Youngs Moduli (GPa) = 81.51620 50.44527 79.04274
#
# Poissons Ratio (x) = 0.10455 0.23878
# Poissons Ratio (y) = 0.16895 0.40674
# Poissons Ratio (z) = 0.24625 0.25958
#
# Static dielectric constant tensor:
#      x y z
#    x 3.969860 0.000000 -0.008510 
#    y 0.000000 3.528450 0.000000 
#    z -0.008510 0.000000 3.869590 
# 
# 
# High freq. dielectric constant tensor:
#      x y z
#    x 1.849540 0.000000 -0.007970 
#    y 0.000000 1.785180 0.000000 
#    z -0.007970 0.000000 1.839520 
# 
# From -- ./inp_files/58133.got.cif
#   From: 2010.06.25/outbox.cif.g09.slc.cpg/sg10_30_cif.got.tgz:58133.got - 2010.06.27 22:07:45.
