data_PCOD8064863
_publ_section_title
;
Structure prediction by ZEFSAII (Michael W. Deem and Ramdas Pophale) SiO2 
 PCOD8064863
Probable space group: P 2/M
;
_chemical_formula_sum "Si O2"
_cell_formula_units_Z 32
_cell_length_a 8.983672
_cell_length_b 23.667302
_cell_length_c 15.252155
_cell_angle_alpha 90.000000
_cell_angle_beta 150.473899
_cell_angle_gamma 90.000000
_cell_volume 1598.167050
_symmetry_space_group_name_H-M "P 2/M"
_symmetry_group_IT_number 10
_symmetry_cell_setting 'monoclinic'
loop_
_space_group_symop_operation_xyz
x,y,z
-x,y,-z
-x,-y,-z
x,-y,z
loop_
_atom_site_type_symbol
_atom_site_label
_atom_site_fract_x
_atom_site_fract_y
_atom_site_fract_z
Si Si1 0.953122 0.747774 0.339007
Si Si2 0.840925 0.140419 0.180508
Si Si3 0.220351 0.134987 0.042914
Si Si4 0.138302 0.358998 0.815169
Si Si5 0.205524 0.359964 0.179454
Si Si6 0.495169 0.751193 0.739174
Si Si7 0.685499 0.562810 0.506214
Si Si8 0.182901 0.935150 0.682300
O O1 0.259814 0.768663 0.542476
O O2 0.837926 0.797522 0.218726
O O3 0.014013 0.694533 0.309249
O O4 0.694624 0.729156 0.274881
O O5 0.994473 0.095896 0.327511
O O6 0.500000 0.118851 0.000000
O O7 0.966403 0.141705 0.145045
O O8 0.312123 0.195334 0.130900
O O9 0.501201 0.094691 0.173345
O O10 0.000000 0.105363 0.000000
O O11 0.006683 0.357124 0.844833
O O12 0.018593 0.413222 0.699348
O O13 0.500000 0.358405 0.000000
O O14 0.290576 0.297553 0.188724
O O15 0.507979 0.396945 0.347355
O O16 0.000000 0.389706 0.000000
O O17 0.500000 0.560320 0.500000
O O18 0.721259 0.500000 0.484161
O O19 0.000000 0.928003 0.500000
O O20 0.232276 0.000000 0.733192
#
# Coordination Sequence:
#
# PCOD8064863 Si02
#       8
#     4   4   4   4   4   4   4   4
#     4  11  21  36  59  86 122 161 204 254 309 372
#     4  10  20  36  59  88 122 161 206 249 309 372
#     4  11  24  38  57  93 128 161 204 256 317 370
#     4  11  23  38  62  92 122 164 212 255 315 379
#     4  11  23  39  60  91 124 162 210 255 319 381
#     4  11  22  37  58  84 127 162 197 257 313 375
#     4   9  20  42  64  87 123 164 211 261 313 375
#     4  10  21  42  68  88 117 165 218 261 307 374
#
# _framework density 20.022938
#
# number of rings (size 3 to 8) (size 9 to 14) (size 15 to 20)
#    0.000    1.500    3.750    2.250    3.500    3.000 
#    0.000    1.875    0.000    6.750    0.000    0.000 
#    0.000    0.000    0.000    0.000    0.000    0.000 
#
# Total GULP energy -396644.955186 kJ/mol
# GULP energy per Si atom -12395.154850 kJ/mol
# Density = 1.997736 g / cm^3
# Si number density = 20.022938 Si / 1000 Ang^3
#
#
#
# Elastic Constant Matrix: (Units=GPa)
#
#
# Indices 1 2 3 4 5 6 
#
# 1 117.7160 44.3367 52.8288 0.0000 -18.1209 0.0000
# 2 44.3367 125.7058 49.4168 0.0000 -13.8521 0.0000
# 3 52.8288 49.4168 95.1814 0.0000 -17.1923 0.0000
# 4 0.0000 0.0000 0.0000 8.5306 0.0000 4.8545
# 5 -18.1209 -13.8521 -17.1923 0.0000 27.6846 0.0000
# 6 0.0000 0.0000 0.0000 4.8545 0.0000 14.2704
#
#
#
# Elastic Compliance Matrix: (Units=1/GPa)
#
#
# Indices 1 2 3 4 5 6 
#
# 1 0.012038 -0.001846 -0.005031 0.000000 0.003832 0.000000
# 2 -0.001846 0.010378 -0.004104 0.000000 0.001436 0.000000
# 3 -0.005031 -0.004104 0.016291 0.000000 0.004770 0.000000
# 4 0.000000 0.000000 0.000000 0.145367 0.000000 -0.049451
# 5 0.003832 0.001436 0.004770 0.000000 0.042310 0.000000
# 6 0.000000 0.000000 0.000000 -0.049451 0.000000 0.086898
#
#
# Mechanical properties :
#
#
# Convention : Reuss Voigt Hill
#
# Bulk Modulus (GPa) = 59.72035 70.19642 64.95838
# Shear Modulus (GPa) = 14.67030 22.89850 18.78440
#
# Velocity S-wave (km/s) = 2.70973 3.38540 3.06624
# Velocity P-wave (km/s) = 6.29928 7.10038 6.71179
#
# Compressibility (1/GPa) = 0.01674471
#
# Stress axis : x y z
#
# Youngs Moduli (GPa) = 83.07118 96.36045 61.38329
#
# Poissons Ratio (x) = 0.17786 0.30882
# Poissons Ratio (y) = 0.15333 0.25193
# Poissons Ratio (z) = 0.41793 0.39548
#
# Static dielectric constant tensor:
#      x y z
#    x 3.936980 0.000000 -0.415570 
#    y 0.000000 3.705130 0.000000 
#    z -0.415570 0.000000 4.023970 
# 
# 
# High freq. dielectric constant tensor:
#      x y z
#    x 1.776670 0.000000 -0.021190 
#    y 0.000000 1.771560 0.000000 
#    z -0.021190 0.000000 1.790560 
# 
# From -- ./inp_files/62723.got.cif
#   From: 2010.06.25/outbox.cif.g09.slc.cpg/sg10_32_cif.got.tgz:62723.got - 2010.06.27 22:07:45.
