data_PCOD8064263
_publ_section_title
;
Structure prediction by ZEFSAII (Michael W. Deem and Ramdas Pophale) SiO2 
 PCOD8064263
Probable space group: P 2/M
;
_chemical_formula_sum "Si O2"
_cell_formula_units_Z 32
_cell_length_a 14.216692
_cell_length_b 9.324810
_cell_length_c 12.536153
_cell_angle_alpha 90.000000
_cell_angle_beta 85.244465
_cell_angle_gamma 90.000000
_cell_volume 1656.171059
_symmetry_space_group_name_H-M "P 2/M"
_symmetry_group_IT_number 10
_symmetry_cell_setting 'monoclinic'
loop_
_space_group_symop_operation_xyz
x,y,z
-x,y,-z
-x,-y,-z
x,-y,z
loop_
_atom_site_type_symbol
_atom_site_label
_atom_site_fract_x
_atom_site_fract_y
_atom_site_fract_z
Si Si1 0.275137 0.162954 0.370247
Si Si2 0.968556 0.832464 0.883705
Si Si3 0.242557 0.829496 0.138379
Si Si4 0.399748 0.830718 0.959218
Si Si5 0.877776 0.666585 0.264248
Si Si6 0.610304 0.338655 0.472382
Si Si7 0.668428 0.666271 0.234980
Si Si8 0.899138 0.162846 0.469432
O O1 0.274383 0.228474 0.251128
O O2 0.345832 0.249370 0.436610
O O3 0.168927 0.172007 0.422986
O O4 0.311632 0.000000 0.365169
O O5 0.862165 0.774022 0.880105
O O6 0.036243 0.747243 0.798740
O O7 0.976382 0.000000 0.854584
O O8 0.000000 0.800136 0.000000
O O9 0.241721 0.000000 0.139927
O O10 0.317001 0.772912 0.044349
O O11 0.389250 0.755613 0.846372
O O12 0.392008 0.000000 0.942064
O O13 0.500000 0.788101 0.000000
O O14 0.903199 0.500000 0.272324
O O15 0.780723 0.688700 0.207925
O O16 0.860742 0.731655 0.382644
O O17 0.500000 0.334179 0.500000
O O18 0.650258 0.500000 0.475351
O O19 0.637528 0.274802 0.354153
O O20 0.640360 0.500000 0.225922
O O21 0.000000 0.217099 0.500000
O O22 0.904783 0.000000 0.424348
#
# Coordination Sequence:
#
# PCOD8064263 Si02
#       8
#     4   4   4   4   4   4   4   4
#     4  10  20  35  58  85 116 151 188 238 286 335
#     4  10  20  36  60  84 111 155 200 237 284 344
#     4   9  19  37  57  84 121 151 185 236 291 341
#     4  10  22  39  62  90 116 147 190 241 291 341
#     4  11  22  36  56  83 117 151 186 238 290 336
#     4  10  22  40  60  82 113 153 193 236 286 344
#     4  10  22  40  59  83 117 153 190 236 288 344
#     4  10  20  35  56  83 113 151 194 231 278 343
#
# _framework density 19.321676
#
# number of rings (size 3 to 8) (size 9 to 14) (size 15 to 20)
#    0.000    2.000    1.250    1.875    1.750    5.500 
#    0.000    3.125    0.000    0.000    0.000    0.000 
#    0.000    0.000    0.000    0.000    0.000    0.000 
#
# Total GULP energy -396900.026454 kJ/mol
# GULP energy per Si atom -12403.125827 kJ/mol
# Density = 1.927770 g / cm^3
# Si number density = 19.321676 Si / 1000 Ang^3
#
#
#
# Elastic Constant Matrix: (Units=GPa)
#
#
# Indices 1 2 3 4 5 6 
#
# 1 106.8312 33.8408 52.5878 0.0000 7.9482 0.0000
# 2 33.8408 53.8716 45.2663 0.0000 12.1007 0.0000
# 3 52.5878 45.2663 135.0745 0.0000 13.1132 0.0000
# 4 0.0000 0.0000 0.0000 125.3219 0.0000 47.0719
# 5 7.9482 12.1007 13.1132 0.0000 38.3097 0.0000
# 6 0.0000 0.0000 0.0000 47.0719 0.0000 39.4924
#
#
#
# Elastic Compliance Matrix: (Units=1/GPa)
#
#
# Indices 1 2 3 4 5 6 
#
# 1 0.012570 -0.005294 -0.003133 0.000000 0.000137 0.000000
# 2 -0.005294 0.029185 -0.007169 0.000000 -0.005666 0.000000
# 3 -0.003133 -0.007169 0.011112 0.000000 -0.000889 0.000000
# 4 0.000000 0.000000 0.000000 0.014448 0.000000 -0.017220
# 5 0.000137 -0.005666 -0.000889 0.000000 0.028169 0.000000
# 6 0.000000 0.000000 0.000000 -0.017220 0.000000 0.045847
#
#
# Mechanical properties :
#
#
# Convention : Reuss Voigt Hill
#
# Bulk Modulus (GPa) = 46.13816 62.12970 54.13393
# Shear Modulus (GPa) = 27.81691 51.56363 39.69027
#
# Velocity S-wave (km/s) = 3.79842 5.17154 4.53723
# Velocity P-wave (km/s) = 6.57025 8.23924 7.45162
#
# Compressibility (1/GPa) = 0.02167404
#
# Stress axis : x y z
#
# Youngs Moduli (GPa) = 79.55757 34.26389 89.99408
#
# Poissons Ratio (x) = 0.18140 0.28192
# Poissons Ratio (y) = 0.42120 0.64520
# Poissons Ratio (z) = 0.24923 0.24565
#
# Static dielectric constant tensor:
#      x y z
#    x 3.631750 0.000000 -0.100610 
#    y 0.000000 3.352000 0.000000 
#    z -0.100610 0.000000 3.714000 
# 
# 
# High freq. dielectric constant tensor:
#      x y z
#    x 1.763270 0.000000 -0.002130 
#    y 0.000000 1.728260 0.000000 
#    z -0.002130 0.000000 1.761410 
# 
# From -- ./inp_files/49926.got.cif
#   From: 2010.06.25/outbox.cif.g09.slc.cpg/sg10_25_cif.got.tgz:49926.got - 2010.06.27 22:07:45.
