data_PCOD8064657
_publ_section_title
;
Structure prediction by ZEFSAII (Michael W. Deem and Ramdas Pophale) SiO2 
 PCOD8064657
Probable space group: P 2/M
;
_chemical_formula_sum "Si O2"
_cell_formula_units_Z 28
_cell_length_a 15.885978
_cell_length_b 7.894137
_cell_length_c 11.458279
_cell_angle_alpha 90.000000
_cell_angle_beta 73.347588
_cell_angle_gamma 90.000000
_cell_volume 1376.673955
_symmetry_space_group_name_H-M "P 2/M"
_symmetry_group_IT_number 10
_symmetry_cell_setting 'monoclinic'
loop_
_space_group_symop_operation_xyz
x,y,z
-x,y,-z
-x,-y,-z
x,-y,z
loop_
_atom_site_type_symbol
_atom_site_label
_atom_site_fract_x
_atom_site_fract_y
_atom_site_fract_z
Si Si1 0.956550 0.803008 0.641612
Si Si2 0.397331 0.814224 0.563137
Si Si3 0.760607 0.192411 0.765190
Si Si4 0.248234 0.191010 0.964139
Si Si5 0.139757 0.500000 0.934597
Si Si6 0.583136 0.690588 0.204618
Si Si7 0.392139 0.309648 0.323149
Si Si8 0.005384 0.500000 0.199422
O O1 0.852738 0.770735 0.665230
O O2 0.993285 0.671015 0.722798
O O3 0.000000 0.765019 0.500000
O O4 0.973280 0.000000 0.674486
O O5 0.500000 0.808252 0.500000
O O6 0.376153 0.691754 0.679840
O O7 0.351749 0.767444 0.458389
O O8 0.364507 0.000000 0.613154
O O9 0.683030 0.305873 0.743963
O O10 0.730201 0.000000 0.759576
O O11 0.773171 0.237628 0.894681
O O12 0.198739 0.329916 0.905052
O O13 0.353357 0.200460 0.903500
O O14 0.215295 0.000000 0.948206
O O15 0.083831 0.500000 0.838859
O O16 0.084593 0.500000 0.075899
O O17 0.582270 0.500000 0.156511
O O18 0.484700 0.773993 0.242918
O O19 0.419256 0.500000 0.341751
#
# Coordination Sequence:
#
# PCOD8064657 Si02
#       8
#     4   4   4   4   2   4   4   2
#     4  10  22  43  68  95 129 165 204 256 317 377
#     4   9  17  32  52  74 109 153 198 249 301 355
#     4  10  22  39  60  85 118 160 203 251 303 365
#     4  11  23  41  63  87 125 167 201 251 308 358
#     4  11  24  42  66  96 127 163 207 258 307 379
#     4  10  20  36  57  84 121 162 207 252 301 360
#     4  10  21  34  56  87 118 159 205 254 304 356
#     4  11  23  42  72  97 122 164 207 254 317 375
#
# _framework density 20.338874000000001
#
# number of rings (size 3 to 8) (size 9 to 14) (size 15 to 20)
#    0.000    1.857    2.143    1.500    2.000    4.571 
#    2.571    4.286    0.000    0.000    0.000    0.000 
#    0.000    0.000    0.000    0.000    0.000    0.000 
#
# Total GULP energy -347080.496745 kJ/mol
# GULP energy per Si atom -12395.732027 kJ/mol
# Density = 2.029258 g / cm^3
# Si number density = 20.338874 Si / 1000 Ang^3
#
#
#
# Elastic Constant Matrix: (Units=GPa)
#
#
# Indices 1 2 3 4 5 6 
#
# 1 110.5121 45.6569 48.2660 0.0000 -0.4513 0.0000
# 2 45.6569 103.4847 35.8562 0.0000 11.0889 0.0000
# 3 48.2660 35.8562 90.6020 0.0000 -13.9866 0.0000
# 4 0.0000 0.0000 0.0000 30.2256 0.0000 0.7010
# 5 -0.4513 11.0889 -13.9866 0.0000 28.1507 0.0000
# 6 0.0000 0.0000 0.0000 0.7010 0.0000 23.2492
#
#
#
# Elastic Compliance Matrix: (Units=1/GPa)
#
#
# Indices 1 2 3 4 5 6 
#
# 1 0.013035 -0.003659 -0.005677 0.000000 -0.001170 0.000000
# 2 -0.003659 0.013740 -0.004693 0.000000 -0.007803 0.000000
# 3 -0.005677 -0.004693 0.017535 0.000000 0.010470 0.000000
# 4 0.000000 0.000000 0.000000 0.033108 0.000000 -0.000998
# 5 -0.001170 -0.007803 0.010470 0.000000 0.043780 0.000000
# 6 0.000000 0.000000 0.000000 -0.000998 0.000000 0.043042
#
#
# Mechanical properties :
#
#
# Convention : Reuss Voigt Hill
#
# Bulk Modulus (GPa) = 61.52815 62.68412 62.10613
# Shear Modulus (GPa) = 25.28914 27.97975 26.63444
#
# Velocity S-wave (km/s) = 3.53000 3.71304 3.62267
# Velocity P-wave (km/s) = 6.85067 7.01919 6.93544
#
# Compressibility (1/GPa) = 0.01625272
#
# Stress axis : x y z
#
# Youngs Moduli (GPa) = 76.71757 72.78266 57.02879
#
# Poissons Ratio (x) = 0.26628 0.32374
# Poissons Ratio (y) = 0.28068 0.26764
# Poissons Ratio (z) = 0.43551 0.34157
#
# Static dielectric constant tensor:
#      x y z
#    x 3.425870 0.000000 -0.098650 
#    y 0.000000 3.727700 0.000000 
#    z -0.098650 0.000000 3.774530 
# 
# 
# High freq. dielectric constant tensor:
#      x y z
#    x 1.769650 0.000000 -0.008210 
#    y 0.000000 1.801180 0.000000 
#    z -0.008210 0.000000 1.794730 
# 
# From -- ./inp_files/49228.got.cif
#   From: 2010.06.25/outbox.cif.g09.slc.cpg/sg10_25_cif.got.tgz:49228.got - 2010.06.27 22:07:45.
