data_PCOD8064730
_publ_section_title
;
Structure prediction by ZEFSAII (Michael W. Deem and Ramdas Pophale) SiO2 
 PCOD8064730
Probable space group: P 2/M
;
_chemical_formula_sum "Si O2"
_cell_formula_units_Z 28
_cell_length_a 29.808694
_cell_length_b 7.622160
_cell_length_c 9.703035
_cell_angle_alpha 90.000000
_cell_angle_beta 36.284718
_cell_angle_gamma 90.000000
_cell_volume 1304.674720
_symmetry_space_group_name_H-M "P 2/M"
_symmetry_group_IT_number 10
_symmetry_cell_setting 'monoclinic'
loop_
_space_group_symop_operation_xyz
x,y,z
-x,y,-z
-x,-y,-z
x,-y,z
loop_
_atom_site_type_symbol
_atom_site_label
_atom_site_fract_x
_atom_site_fract_y
_atom_site_fract_z
Si Si1 0.896664 0.196029 0.522066
Si Si2 0.413700 0.000000 0.879644
Si Si3 0.937533 0.797233 0.928542
Si Si4 0.339837 0.293389 0.246023
Si Si5 0.659589 0.696601 0.442151
Si Si6 0.822468 0.202764 0.974060
Si Si7 0.825330 0.695414 0.432120
Si Si8 0.592845 0.000000 0.422004
O O1 0.845908 0.185908 0.511270
O O2 0.978276 0.286912 0.293138
O O3 0.914971 0.000000 0.528801
O O4 0.848115 0.285528 0.763968
O O5 0.503445 0.000000 0.655474
O O6 0.381683 0.000000 0.801911
O O7 0.388316 0.823427 0.020947
O O8 0.941448 0.000000 0.964277
O O9 0.894622 0.771633 0.892054
O O10 0.893212 0.694161 0.155601
O O11 0.352715 0.500000 0.182312
O O12 0.363664 0.249033 0.344260
O O13 0.252030 0.237148 0.445861
O O14 0.629599 0.500000 0.485718
O O15 0.750676 0.691487 0.207968
O O16 0.624357 0.826448 0.417570
O O17 0.797197 0.000000 0.024771
O O18 0.814388 0.500000 0.516348
#
# Coordination Sequence:
#
# PCOD8064730 Si02
#       8
#     4   2   4   4   4   4   4   2
#     4  10  22  36  54  85 122 164 216 270 326 380
#     4  11  27  47  77  99 140 173 206 260 328 396
#     4  10  20  36  58  83 118 166 216 270 324 375
#     4  10  24  43  68 103 135 176 225 269 320 387
#     4  11  23  42  70 101 137 176 221 272 322 385
#     4  10  20  36  61  89 123 166 218 271 323 381
#     4  11  23  37  55  84 121 163 214 266 316 375
#     4  11  27  49  69 111 134 169 212 258 328 396
#
# _framework density 21.461286999999999
#
# number of rings (size 3 to 8) (size 9 to 14) (size 15 to 20)
#    0.000    1.571    2.143    1.714    4.000    6.857 
#    0.000    2.857    0.000    2.571    0.000    0.000 
#    0.000    0.000    0.000    0.000    0.000    0.000 
#
# Total GULP energy -347213.536351 kJ/mol
# GULP energy per Si atom -12400.483441 kJ/mol
# Density = 2.141244 g / cm^3
# Si number density = 21.461287 Si / 1000 Ang^3
#
#
#
# Elastic Constant Matrix: (Units=GPa)
#
#
# Indices 1 2 3 4 5 6 
#
# 1 119.8318 44.3262 41.5656 0.0000 20.4673 0.0000
# 2 44.3262 83.4954 36.0929 0.0000 8.6238 0.0000
# 3 41.5656 36.0929 114.4104 0.0000 22.2078 0.0000
# 4 0.0000 0.0000 0.0000 3.0818 0.0000 -5.6474
# 5 20.4673 8.6238 22.2078 0.0000 38.0915 0.0000
# 6 0.0000 0.0000 0.0000 -5.6474 0.0000 5.0724
#
#
#
# Elastic Compliance Matrix: (Units=1/GPa)
#
#
# Indices 1 2 3 4 5 6 
#
# 1 0.011473 -0.004877 -0.001857 0.000000 -0.003977 0.000000
# 2 -0.004877 0.015956 -0.003461 0.000000 0.001026 0.000000
# 3 -0.001857 -0.003461 0.011458 0.000000 -0.004899 0.000000
# 4 0.000000 0.000000 0.000000 -0.311927 0.000000 -0.347292
# 5 -0.003977 0.001026 -0.004899 0.000000 0.031013 0.000000
# 6 0.000000 0.000000 0.000000 -0.347292 0.000000 -0.189518
#
#
# Mechanical properties :
#
#
# Convention : Reuss Voigt Hill
#
# Bulk Modulus (GPa) = 54.06608 62.41189 58.23898
# Shear Modulus (GPa) = -12.34599 22.29931 4.97666
#
# Velocity S-wave (km/s) = -2.40108 3.22692 1.52445
# Velocity P-wave (km/s) = 4.19049 6.55960 5.50402
#
# Compressibility (1/GPa) = 0.01849589
#
# Stress axis : x y z
#
# Youngs Moduli (GPa) = 87.16373 62.67280 87.27564
#
# Poissons Ratio (x) = 0.30565 0.16211
# Poissons Ratio (y) = 0.42509 0.30205
# Poissons Ratio (z) = 0.16191 0.21691
#
# Static dielectric constant tensor:
#      x y z
#    x 3.861220 0.000000 0.066440 
#    y 0.000000 3.803560 0.000000 
#    z 0.066440 0.000000 3.886020 
# 
# 
# High freq. dielectric constant tensor:
#      x y z
#    x 1.843490 0.000000 0.008540 
#    y 0.000000 1.833190 0.000000 
#    z 0.008540 0.000000 1.843270 
# 
# From -- ./inp_files/37218.got.cif
#   From: 2010.06.25/outbox.cif.g09.slc.cpg/sg10_19_cif.got.tgz:37218.got - 2010.06.27 22:07:45.
