data_PCOD8064164
_publ_section_title
;
Structure prediction by ZEFSAII (Michael W. Deem and Ramdas Pophale) SiO2 
 PCOD8064164
Probable space group: P 2/M
;
_chemical_formula_sum "Si O2"
_cell_formula_units_Z 28
_cell_length_a 11.337781
_cell_length_b 8.475249
_cell_length_c 16.333562
_cell_angle_alpha 90.000000
_cell_angle_beta 60.226137
_cell_angle_gamma 90.000000
_cell_volume 1362.313919
_symmetry_space_group_name_H-M "P 2/M"
_symmetry_group_IT_number 10
_symmetry_cell_setting 'monoclinic'
loop_
_space_group_symop_operation_xyz
x,y,z
-x,y,-z
-x,-y,-z
x,-y,z
loop_
_atom_site_type_symbol
_atom_site_label
_atom_site_fract_x
_atom_site_fract_y
_atom_site_fract_z
Si Si1 0.187661 0.315432 0.075248
Si Si2 0.897760 0.816384 0.169752
Si Si3 0.868554 0.315677 0.352620
Si Si4 0.334969 0.183205 0.875557
Si Si5 0.591096 0.684385 0.705780
Si Si6 0.170515 0.685944 0.264412
Si Si7 0.384945 0.816007 0.477047
O O1 0.217602 0.500000 0.055920
O O2 0.209728 0.252570 0.160252
O O3 0.032097 0.283052 0.103576
O O4 0.291758 0.219321 0.983180
O O5 0.838062 0.779460 0.280120
O O6 0.785962 0.764800 0.142732
O O7 0.933529 0.000000 0.149787
O O8 0.869162 0.500000 0.330925
O O9 0.754859 0.276515 0.458558
O O10 0.015414 0.265037 0.338759
O O11 0.465966 0.286868 0.809438
O O12 0.370660 0.000000 0.852916
O O13 0.604703 0.500000 0.680939
O O14 0.726985 0.753450 0.702673
O O15 0.565921 0.779750 0.631245
O O16 0.186457 0.500000 0.257917
O O17 0.500000 0.755596 0.500000
O O18 0.358477 0.000000 0.498226
#
# Coordination Sequence:
#
# PCOD8064164 Si02
#       7
#     4   4   4   4   4   4   4
#     4  10  20  36  59  84 111 147 192 234 275 332
#     4  10  20  35  55  82 118 152 182 228 288 336
#     4  10  20  37  62  87 112 146 189 231 274 331
#     4  11  23  37  53  80 118 153 186 231 287 333
#     4  11  23  40  61  82 109 147 191 233 274 330
#     4   8  19  39  59  83 113 144 182 234 285 322
#     4  11  24  41  59  84 119 150 178 223 283 335
#
# _framework density 20.553266000000001
#
# number of rings (size 3 to 8) (size 9 to 14) (size 15 to 20)
#    0.000    1.857    0.000    4.714    0.000    9.714 
#    0.000   14.286    0.000    0.000    0.000    0.000 
#    0.000    0.000    0.000    0.000    0.000    0.000 
#
# Total GULP energy -347322.457155 kJ/mol
# GULP energy per Si atom -12404.373470 kJ/mol
# Density = 2.050649 g / cm^3
# Si number density = 20.553266 Si / 1000 Ang^3
#
#
#
# Elastic Constant Matrix: (Units=GPa)
#
#
# Indices 1 2 3 4 5 6 
#
# 1 131.8209 30.1360 55.6741 0.0000 10.0408 0.0000
# 2 30.1360 42.9493 10.4656 0.0000 5.0580 0.0000
# 3 55.6741 10.4656 104.0233 0.0000 -13.0494 0.0000
# 4 0.0000 0.0000 0.0000 36.1561 0.0000 -4.5026
# 5 10.0408 5.0580 -13.0494 0.0000 26.1409 0.0000
# 6 0.0000 0.0000 0.0000 -4.5026 0.0000 6.3285
#
#
#
# Elastic Compliance Matrix: (Units=1/GPa)
#
#
# Indices 1 2 3 4 5 6 
#
# 1 0.012477 -0.006235 -0.006935 0.000000 -0.007048 0.000000
# 2 -0.006235 0.027967 0.000155 0.000000 -0.002939 0.000000
# 3 -0.006935 0.000155 0.014551 0.000000 0.009897 0.000000
# 4 0.000000 0.000000 0.000000 0.030347 0.000000 0.021591
# 5 -0.007048 -0.002939 0.009897 0.000000 0.046471 0.000000
# 6 0.000000 0.000000 0.000000 0.021591 0.000000 0.173377
#
#
# Mechanical properties :
#
#
# Convention : Reuss Voigt Hill
#
# Bulk Modulus (GPa) = 34.52516 52.37167 43.44841
# Shear Modulus (GPa) = 14.66820 25.89295 20.28058
#
# Velocity S-wave (km/s) = 2.67435 3.55321 3.14464
# Velocity P-wave (km/s) = 5.13523 6.50923 5.86262
#
# Compressibility (1/GPa) = 0.02896439
#
# Stress axis : x y z
#
# Youngs Moduli (GPa) = 80.14660 35.75699 68.72481
#
# Poissons Ratio (x) = 0.22294 0.47659
# Poissons Ratio (y) = 0.49971 -0.01063
# Poissons Ratio (z) = 0.55579 -0.00553
#
# Static dielectric constant tensor:
#      x y z
#    x 3.925110 0.000000 0.059840 
#    y 0.000000 3.510520 0.000000 
#    z 0.059840 0.000000 3.657140 
# 
# 
# High freq. dielectric constant tensor:
#      x y z
#    x 1.804200 0.000000 -0.003100 
#    y 0.000000 1.795070 0.000000 
#    z -0.003100 0.000000 1.807080 
# 
# From -- ./inp_files/63309.got.cif
#   From: 2010.06.25/outbox.cif.g09.slc.cpg/sg10_32_cif.got.tgz:63309.got - 2010.06.27 22:07:45.
