data_PCOD8064731
_publ_section_title
;
Structure prediction by ZEFSAII (Michael W. Deem and Ramdas Pophale) SiO2 
 PCOD8064731
Probable space group: P 2/M
;
_chemical_formula_sum "Si O2"
_cell_formula_units_Z 24
_cell_length_a 19.326747
_cell_length_b 14.676431
_cell_length_c 11.510933
_cell_angle_alpha 90.000000
_cell_angle_beta 158.012481
_cell_angle_gamma 90.000000
_cell_volume 1222.449520
_symmetry_space_group_name_H-M "P 2/M"
_symmetry_group_IT_number 10
_symmetry_cell_setting 'monoclinic'
loop_
_space_group_symop_operation_xyz
x,y,z
-x,y,-z
-x,-y,-z
x,-y,z
loop_
_atom_site_type_symbol
_atom_site_label
_atom_site_fract_x
_atom_site_fract_y
_atom_site_fract_z
Si Si1 0.887782 0.323528 0.709424
Si Si2 0.551254 0.696747 0.334856
Si Si3 0.817433 0.802672 0.916400
Si Si4 0.670498 0.000000 0.935109
Si Si5 0.485550 0.500000 0.176952
Si Si6 0.725979 0.000000 0.747987
Si Si7 0.793823 0.192921 0.149315
Si Si8 0.214291 0.500000 0.557663
O O1 0.676253 0.296549 0.412284
O O2 0.904241 0.408466 0.646753
O O3 0.000000 0.349943 0.000000
O O4 0.979479 0.237970 0.787629
O O5 0.660396 0.742912 0.609969
O O6 0.510641 0.589543 0.296262
O O7 0.354271 0.746357 0.010675
O O8 0.833055 0.905475 0.889354
O O9 0.757371 0.798843 0.956004
O O10 0.765549 0.912408 0.142419
O O11 0.685076 0.000000 0.819964
O O12 0.450430 0.000000 0.612600
O O13 0.631910 0.500000 0.301891
O O14 0.287272 0.500000 0.803456
O O15 0.000000 0.225522 0.500000
#
# Coordination Sequence:
#
# PCOD8064731 Si02
#       8
#     4   4   4   2   2   2   4   2
#     4   9  19  34  57  85 112 143 189 230 272 333
#     4  10  20  38  56  80 113 145 188 228 275 329
#     4  10  20  36  58  84 113 148 183 232 277 327
#     4   9  17  34  57  79 104 150 188 227 265 332
#     4   9  20  34  57  81 108 150 189 230 268 339
#     4   9  16  32  58  82 108 146 191 219 268 338
#     4  11  22  35  57  84 112 143 188 233 279 330
#     4   9  17  34  57  80 110 149 189 223 279 324
#
# _framework density 19.632712999999999
#
# number of rings (size 3 to 8) (size 9 to 14) (size 15 to 20)
#    0.000    2.333    1.667    1.000    2.333    2.000 
#    0.000    7.500    0.000    0.000    0.000    4.667 
#    0.000    0.000    0.000    0.000    0.000    0.000 
#
# Total GULP energy -297464.964043 kJ/mol
# GULP energy per Si atom -12394.373502 kJ/mol
# Density = 1.958803 g / cm^3
# Si number density = 19.632713 Si / 1000 Ang^3
#
#
#
# Elastic Constant Matrix: (Units=GPa)
#
#
# Indices 1 2 3 4 5 6 
#
# 1 39.6641 46.2370 24.7847 0.0000 14.1472 0.0000
# 2 46.2370 186.8935 64.7468 0.0000 14.4678 0.0000
# 3 24.7847 64.7468 91.1016 0.0000 22.6394 0.0000
# 4 0.0000 0.0000 0.0000 32.2716 0.0000 5.6927
# 5 14.1472 14.4678 22.6394 0.0000 34.8163 0.0000
# 6 0.0000 0.0000 0.0000 5.6927 0.0000 10.1484
#
#
#
# Elastic Compliance Matrix: (Units=1/GPa)
#
#
# Indices 1 2 3 4 5 6 
#
# 1 0.040429 -0.008347 -0.002202 0.000000 -0.011527 0.000000
# 2 -0.008347 0.008826 -0.004692 0.000000 0.002775 0.000000
# 3 -0.002202 -0.004692 0.016941 0.000000 -0.008171 0.000000
# 4 0.000000 0.000000 0.000000 0.034390 0.000000 -0.019291
# 5 -0.011527 0.002775 -0.008171 0.000000 0.037567 0.000000
# 6 0.000000 0.000000 0.000000 -0.019291 0.000000 0.109359
#
#
# Mechanical properties :
#
#
# Convention : Reuss Voigt Hill
#
# Bulk Modulus (GPa) = 27.99928 65.46624 46.73276
# Shear Modulus (GPa) = 17.24744 27.57332 22.41038
#
# Velocity S-wave (km/s) = 2.96717 3.75168 3.38225
# Velocity P-wave (km/s) = 5.10209 7.22389 6.25364
#
# Compressibility (1/GPa) = 0.03571520
#
# Stress axis : x y z
#
# Youngs Moduli (GPa) = 24.73454 113.29942 59.02889
#
# Poissons Ratio (x) = 0.94569 0.12999
# Poissons Ratio (y) = 0.20646 0.27694
# Poissons Ratio (z) = 0.05447 0.53155
#
# Static dielectric constant tensor:
#      x y z
#    x 3.230180 0.000000 0.155940 
#    y 0.000000 3.974110 0.000000 
#    z 0.155940 0.000000 3.612750 
# 
# 
# High freq. dielectric constant tensor:
#      x y z
#    x 1.718680 0.000000 0.007190 
#    y 0.000000 1.779390 0.000000 
#    z 0.007190 0.000000 1.762790 
# 
# From -- ./inp_files/56074.got.cif
#   From: 2010.06.25/outbox.cif.g09.slc.cpg/sg10_29_cif.got.tgz:56074.got - 2010.06.27 22:07:45.
