data_PCOD8064428
_publ_section_title
;
Structure prediction by ZEFSAII (Michael W. Deem and Ramdas Pophale) SiO2 
 PCOD8064428
Probable space group: P 2/M
;
_chemical_formula_sum "Si O2"
_cell_formula_units_Z 32
_cell_length_a 12.384375
_cell_length_b 8.924552
_cell_length_c 15.042896
_cell_angle_alpha 90.000000
_cell_angle_beta 92.810717
_cell_angle_gamma 90.000000
_cell_volume 1660.615905
_symmetry_space_group_name_H-M "P 2/M"
_symmetry_group_IT_number 10
_symmetry_cell_setting 'monoclinic'
loop_
_space_group_symop_operation_xyz
x,y,z
-x,y,-z
-x,-y,-z
x,-y,z
loop_
_atom_site_type_symbol
_atom_site_label
_atom_site_fract_x
_atom_site_fract_y
_atom_site_fract_z
Si Si1 0.769380 0.171897 0.067725
Si Si2 0.971151 0.677943 0.162729
Si Si3 0.553720 0.675568 0.094824
Si Si4 0.382002 0.324411 0.235700
Si Si5 0.192364 0.172101 0.131815
Si Si6 0.598371 0.677524 0.561810
Si Si7 0.972153 0.677935 0.362092
Si Si8 0.829995 0.678364 0.515215
O O1 0.873394 0.265165 0.099621
O O2 0.664780 0.235945 0.113441
O O3 0.786400 0.000000 0.095654
O O4 0.751747 0.190380 0.961733
O O5 0.973631 0.500000 0.160598
O O6 0.956969 0.740861 0.262446
O O7 0.081138 0.738138 0.125531
O O8 0.579695 0.500000 0.097049
O O9 0.476685 0.723238 0.172579
O O10 0.500000 0.723864 0.000000
O O11 0.356555 0.500000 0.227112
O O12 0.271930 0.238529 0.208963
O O13 0.418577 0.278530 0.336062
O O14 0.168100 0.000000 0.153323
O O15 0.500000 0.745936 0.500000
O O16 0.600461 0.500000 0.550845
O O17 0.711404 0.745723 0.529922
O O18 0.974664 0.500000 0.361080
O O19 0.872208 0.731988 0.419980
O O20 0.085858 0.736895 0.406708
O O21 0.825480 0.500000 0.518946
#
# Coordination Sequence:
#
# PCOD8064428 Si02
#       8
#     4   4   4   4   4   4   4   4
#     4  11  24  39  55  77 109 148 186 224 271 329
#     4  11  22  35  55  83 113 142 179 226 278 327
#     4  10  20  36  58  83 110 139 179 231 278 319
#     4  10  20  35  58  85 111 142 184 230 276 324
#     4  11  23  38  56  78 108 145 186 227 271 329
#     4   9  17  28  46  77 112 140 169 216 273 321
#     4   8  15  27  46  74 103 134 170 214 265 316
#     4   8  13  25  45  70 104 137 168 209 262 319
#
# _framework density 19.269959
#
# number of rings (size 3 to 8) (size 9 to 14) (size 15 to 20)
#    0.000    2.250    1.250    3.000    0.000    6.750 
#    0.000    3.750    0.000    0.375    0.000   20.125 
#    0.000    0.000    0.000    0.000    0.000    0.000 
#
# Total GULP energy -396821.649113 kJ/mol
# GULP energy per Si atom -12400.676535 kJ/mol
# Density = 1.922610 g / cm^3
# Si number density = 19.269959 Si / 1000 Ang^3
#
#
#
# Elastic Constant Matrix: (Units=GPa)
#
#
# Indices 1 2 3 4 5 6 
#
# 1 153.9119 38.7910 59.8336 0.0000 -3.3789 0.0000
# 2 38.7910 53.5398 23.0224 0.0000 2.2341 0.0000
# 3 59.8336 23.0224 96.6804 0.0000 0.1833 0.0000
# 4 0.0000 0.0000 0.0000 0.7726 0.0000 -36.2979
# 5 -3.3789 2.2341 0.1833 0.0000 33.4225 0.0000
# 6 0.0000 0.0000 0.0000 -36.2979 0.0000 -119.3813
#
#
#
# Elastic Compliance Matrix: (Units=1/GPa)
#
#
# Indices 1 2 3 4 5 6 
#
# 1 0.009642 -0.004985 -0.004783 0.000000 0.001334 0.000000
# 2 -0.004985 0.023448 -0.002495 0.000000 -0.002058 0.000000
# 3 -0.004783 -0.002495 0.013898 0.000000 -0.000393 0.000000
# 4 0.000000 0.000000 0.000000 0.084681 0.000000 -0.025747
# 5 0.001334 -0.002058 -0.000393 0.000000 0.030195 0.000000
# 6 0.000000 0.000000 0.000000 -0.025747 0.000000 -0.000548
#
#
# Mechanical properties :
#
#
# Convention : Reuss Voigt Hill
#
# Bulk Modulus (GPa) = 44.51681 60.82511 52.67096
# Shear Modulus (GPa) = 25.86263 -4.87157 10.49553
#
# Velocity S-wave (km/s) = 3.66747 -1.59171 2.33632
# Velocity P-wave (km/s) = 6.40981 5.31556 5.88816
#
# Compressibility (1/GPa) = 0.02246342
#
# Stress axis : x y z
#
# Youngs Moduli (GPa) = 103.71005 42.64745 71.95205
#
# Poissons Ratio (x) = 0.21260 0.34414
# Poissons Ratio (y) = 0.51700 0.17949
# Poissons Ratio (z) = 0.49603 0.10639
#
# Static dielectric constant tensor:
#      x y z
#    x 3.691360 0.000000 -0.088030 
#    y 0.000000 3.099580 0.000000 
#    z -0.088030 0.000000 3.730070 
# 
# 
# High freq. dielectric constant tensor:
#      x y z
#    x 1.758890 0.000000 -0.006150 
#    y 0.000000 1.706180 0.000000 
#    z -0.006150 0.000000 1.755870 
# 
# From -- ./inp_files/58184.got.cif
#   From: 2010.06.25/outbox.cif.g09.slc.cpg/sg10_30_cif.got.tgz:58184.got - 2010.06.27 22:07:45.
