data_PCOD8064319
_publ_section_title
;
Structure prediction by ZEFSAII (Michael W. Deem and Ramdas Pophale) SiO2 
 PCOD8064319
Probable space group: P 2/M
;
_chemical_formula_sum "Si O2"
_cell_formula_units_Z 32
_cell_length_a 29.467906
_cell_length_b 8.727388
_cell_length_c 12.345263
_cell_angle_alpha 90.000000
_cell_angle_beta 149.138150
_cell_angle_gamma 90.000000
_cell_volume 1628.642282
_symmetry_space_group_name_H-M "P 2/M"
_symmetry_group_IT_number 10
_symmetry_cell_setting 'monoclinic'
loop_
_space_group_symop_operation_xyz
x,y,z
-x,y,-z
-x,-y,-z
x,-y,z
loop_
_atom_site_type_symbol
_atom_site_label
_atom_site_fract_x
_atom_site_fract_y
_atom_site_fract_z
Si Si1 0.594343 0.181297 0.234428
Si Si2 0.634247 0.319785 0.966824
Si Si3 0.739964 0.180267 0.367755
Si Si4 0.058969 0.180446 0.222986
Si Si5 0.311864 0.321821 0.160754
Si Si6 0.977675 0.682060 0.620607
Si Si7 0.560567 0.679044 0.383540
Si Si8 0.127027 0.819390 0.782087
O O1 0.674068 0.247603 0.324299
O O2 0.611286 0.236912 0.390612
O O3 0.594439 0.000000 0.231163
O O4 0.500000 0.246798 0.000000
O O5 0.637526 0.500000 0.988297
O O6 0.648250 0.272421 0.872012
O O7 0.539087 0.255791 0.810161
O O8 0.713207 0.246741 0.196969
O O9 0.840458 0.227953 0.599330
O O10 0.730050 0.000000 0.341461
O O11 0.026673 0.267521 0.263717
O O12 0.050034 0.000000 0.226318
O O13 0.000000 0.232222 0.000000
O O14 0.284269 0.500000 0.106666
O O15 0.387908 0.283407 0.401616
O O16 0.227778 0.218178 0.015924
O O17 0.972467 0.500000 0.602267
O O18 0.896873 0.753454 0.385839
O O19 0.068859 0.740762 0.756065
O O20 0.559237 0.500000 0.356430
O O21 0.109906 0.000000 0.748433
#
# Coordination Sequence:
#
# PCOD8064319 Si02
#       8
#     4   4   4   4   4   4   4   4
#     4  10  20  36  56  79 111 148 190 240 288 336
#     4  10  20  35  57  82 112 150 191 234 284 344
#     4  10  21  37  58  82 110 149 192 237 289 340
#     4  10  22  40  60  85 119 156 196 242 292 349
#     4  10  21  37  55  82 119 152 186 234 292 346
#     4  11  22  39  63  88 117 151 191 240 294 347
#     4  10  21  36  56  82 113 151 192 236 286 343
#     4  11  22  38  61  88 116 151 195 239 288 351
#
# _framework density 19.648268999999999
#
# number of rings (size 3 to 8) (size 9 to 14) (size 15 to 20)
#    0.000    1.750    1.250    4.125    0.000    7.000 
#    0.000    1.250    0.000    2.250    0.000    0.000 
#    0.000    0.000    0.000    0.000    0.000    0.000 
#
# Total GULP energy -396921.118085 kJ/mol
# GULP energy per Si atom -12403.784940 kJ/mol
# Density = 1.960355 g / cm^3
# Si number density = 19.648269 Si / 1000 Ang^3
#
#
#
# Elastic Constant Matrix: (Units=GPa)
#
#
# Indices 1 2 3 4 5 6 
#
# 1 134.3806 32.7576 64.0223 0.0000 -10.9502 0.0000
# 2 32.7576 46.0081 29.0728 0.0000 1.1993 0.0000
# 3 64.0223 29.0728 137.2461 0.0000 -7.5883 0.0000
# 4 0.0000 0.0000 0.0000 28.2587 0.0000 -1.6808
# 5 -10.9502 1.1993 -7.5883 0.0000 35.2825 0.0000
# 6 0.0000 0.0000 0.0000 -1.6808 0.0000 5.8636
#
#
#
# Elastic Compliance Matrix: (Units=1/GPa)
#
#
# Indices 1 2 3 4 5 6 
#
# 1 0.010746 -0.005368 -0.003726 0.000000 0.002716 0.000000
# 2 -0.005368 0.027919 -0.003597 0.000000 -0.003389 0.000000
# 3 -0.003726 -0.003597 0.009846 0.000000 0.001084 0.000000
# 4 0.000000 0.000000 0.000000 0.036001 0.000000 0.010320
# 5 0.002716 -0.003389 0.001084 0.000000 0.029534 0.000000
# 6 0.000000 0.000000 0.000000 0.010320 0.000000 0.173503
#
#
# Mechanical properties :
#
#
# Convention : Reuss Voigt Hill
#
# Bulk Modulus (GPa) = 43.23518 63.26001 53.24759
# Shear Modulus (GPa) = 15.59376 26.66642 21.13009
#
# Velocity S-wave (km/s) = 2.82023 3.68800 3.28291
# Velocity P-wave (km/s) = 5.71465 7.09938 6.44432
#
# Compressibility (1/GPa) = 0.02312931
#
# Stress axis : x y z
#
# Youngs Moduli (GPa) = 93.05399 35.81817 101.56321
#
# Poissons Ratio (x) = 0.19227 0.37839
# Poissons Ratio (y) = 0.49951 0.36536
# Poissons Ratio (z) = 0.34669 0.12885
#
# Static dielectric constant tensor:
#      x y z
#    x 3.750940 0.000000 0.105640 
#    y 0.000000 3.416760 0.000000 
#    z 0.105640 0.000000 3.636530 
# 
# 
# High freq. dielectric constant tensor:
#      x y z
#    x 1.777650 0.000000 0.002390 
#    y 0.000000 1.754400 0.000000 
#    z 0.002390 0.000000 1.767570 
# 
# From -- ./inp_files/58246.got.cif
#   From: 2010.06.25/outbox.cif.g09.slc.cpg/sg10_30_cif.got.tgz:58246.got - 2010.06.27 22:07:45.
