data_PCOD8064289
_publ_section_title
;
Structure prediction by ZEFSAII (Michael W. Deem and Ramdas Pophale) SiO2 
 PCOD8064289
Probable space group: P 2/M
;
_chemical_formula_sum "Si O2"
_cell_formula_units_Z 24
_cell_length_a 13.813235
_cell_length_b 12.479255
_cell_length_c 13.813234
_cell_angle_alpha 90.000000
_cell_angle_beta 32.723479
_cell_angle_gamma 90.000000
_cell_volume 1287.192531
_symmetry_space_group_name_H-M "P 2/M"
_symmetry_group_IT_number 10
_symmetry_cell_setting 'monoclinic'
loop_
_space_group_symop_operation_xyz
x,y,z
-x,y,-z
-x,-y,-z
x,-y,z
loop_
_atom_site_type_symbol
_atom_site_label
_atom_site_fract_x
_atom_site_fract_y
_atom_site_fract_z
Si Si1 0.493222 0.377738 0.895662
Si Si2 0.559248 0.874905 0.559247
Si Si3 0.934028 0.193668 0.316731
Si Si4 0.490171 0.000000 0.894318
Si Si5 0.316732 0.193667 0.934027
Si Si6 0.894318 0.000000 0.490171
Si Si7 0.895662 0.377738 0.493222
O O1 0.424364 0.500000 0.952170
O O2 0.356956 0.309122 0.946408
O O3 0.686268 0.365640 0.686267
O O4 0.500000 0.335190 0.000000
O O5 0.500000 0.857240 0.500000
O O6 0.751584 0.819291 0.410110
O O7 0.410111 0.819291 0.751583
O O8 0.574155 0.000000 0.574153
O O9 0.950412 0.105215 0.385697
O O10 0.946409 0.309122 0.356955
O O11 0.102124 0.182619 0.102123
O O12 0.385697 0.105215 0.950413
O O13 0.683246 0.000000 0.683246
O O14 0.500000 0.000000 0.000000
O O15 0.000000 0.000000 0.500000
O O16 0.952170 0.500000 0.424365
O O17 0.000000 0.335189 0.500000
#
# Coordination Sequence:
#
# PCOD8064289 Si02
#       7
#     4   4   4   2   4   2   4
#     4  10  20  35  56  86 124 164 202 239 286 352
#     4  11  24  44  65  87 119 155 202 257 305 358
#     4  12  22  38  60  86 120 154 196 245 300 354
#     4  12  22  36  54  84 123 157 194 236 290 359
#     4  12  22  38  60  86 120 154 196 245 300 354
#     4  12  22  36  54  84 123 157 194 236 290 359
#     4  10  20  35  56  86 124 164 202 239 286 352
#
# _framework density 18.645227999999999
#
# number of rings (size 3 to 8) (size 9 to 14) (size 15 to 20)
#    0.000    0.833    5.000    3.500    0.000    2.667 
#    0.000    1.667    0.000    2.000    0.000    2.333 
#    0.000    0.000    0.000    0.000    0.000    0.000 
#
# Total GULP energy -297716.294080 kJ/mol
# GULP energy per Si atom -12404.845587 kJ/mol
# Density = 1.860279 g / cm^3
# Si number density = 18.645228 Si / 1000 Ang^3
#
#
#
# Elastic Constant Matrix: (Units=GPa)
#
#
# Indices 1 2 3 4 5 6 
#
# 1 107.0653 42.2898 54.1354 0.0000 -1.4199 0.0000
# 2 42.2898 89.0004 36.1730 0.0000 1.7657 0.0000
# 3 54.1354 36.1730 151.4107 0.0000 -11.3820 0.0000
# 4 0.0000 0.0000 0.0000 197.8568 0.0000 -45.5382
# 5 -1.4199 1.7657 -11.3820 0.0000 31.7995 0.0000
# 6 0.0000 0.0000 0.0000 -45.5382 0.0000 40.1692
#
#
#
# Elastic Compliance Matrix: (Units=1/GPa)
#
#
# Indices 1 2 3 4 5 6 
#
# 1 0.012995 -0.004723 -0.003550 0.000000 -0.000428 0.000000
# 2 -0.004723 0.014263 -0.001844 0.000000 -0.001663 0.000000
# 3 -0.003550 -0.001844 0.008540 0.000000 0.003001 0.000000
# 4 0.000000 0.000000 0.000000 0.006838 0.000000 0.007752
# 5 -0.000428 -0.001663 0.003001 0.000000 0.032594 0.000000
# 6 0.000000 0.000000 0.000000 0.007752 0.000000 0.033683
#
#
# Mechanical properties :
#
#
# Convention : Reuss Voigt Hill
#
# Bulk Modulus (GPa) = 64.25311 68.07473 66.16392
# Shear Modulus (GPa) = 37.22026 68.29033 52.75530
#
# Velocity S-wave (km/s) = 4.47277 6.05852 5.32501
# Velocity P-wave (km/s) = 7.82368 9.24828 8.56565
#
# Compressibility (1/GPa) = 0.01556345
#
# Stress axis : x y z
#
# Youngs Moduli (GPa) = 76.95191 70.11336 117.09849
#
# Poissons Ratio (x) = 0.33118 0.41570
# Poissons Ratio (y) = 0.36348 0.21588
# Poissons Ratio (z) = 0.27318 0.12926
#
# Static dielectric constant tensor:
#      x y z
#    x 3.169950 0.000000 -0.139740 
#    y 0.000000 3.526050 0.000000 
#    z -0.139740 0.000000 3.654040 
# 
# 
# High freq. dielectric constant tensor:
#      x y z
#    x 1.699700 0.000000 -0.011800 
#    y 0.000000 1.726620 0.000000 
#    z -0.011800 0.000000 1.740580 
# 
# From -- ./inp_files/67268.got.cif
#   From: 2010.06.25/outbox.cif.g09.slc.cpg/sg10_34_cif.got.tgz:67268.got - 2010.06.27 22:07:45.
