data_PCOD8064542
_publ_section_title
;
Structure prediction by ZEFSAII (Michael W. Deem and Ramdas Pophale) SiO2 
 PCOD8064542
Probable space group: P 2/M
;
_chemical_formula_sum "Si O2"
_cell_formula_units_Z 24
_cell_length_a 9.711561
_cell_length_b 7.463326
_cell_length_c 24.356986
_cell_angle_alpha 90.000000
_cell_angle_beta 41.953246
_cell_angle_gamma 90.000000
_cell_volume 1180.217321
_symmetry_space_group_name_H-M "P 2/M"
_symmetry_group_IT_number 10
_symmetry_cell_setting 'monoclinic'
loop_
_space_group_symop_operation_xyz
x,y,z
-x,y,-z
-x,-y,-z
x,-y,z
loop_
_atom_site_type_symbol
_atom_site_label
_atom_site_fract_x
_atom_site_fract_y
_atom_site_fract_z
Si Si1 0.244455 0.000000 0.918558
Si Si2 0.600493 0.301089 0.304034
Si Si3 0.916614 0.699878 0.849849
Si Si4 0.894283 0.712028 0.734776
Si Si5 0.496710 0.715285 0.218144
Si Si6 0.351909 0.285072 0.591309
Si Si7 0.297440 0.000000 0.025141
O O1 0.314461 0.180284 0.866222
O O2 0.355485 0.000000 0.944400
O O3 0.000000 0.000000 0.000000
O O4 0.513468 0.500000 0.336556
O O5 0.483232 0.218333 0.285955
O O6 0.569501 0.206392 0.372755
O O7 0.839388 0.302201 0.218332
O O8 0.828093 0.500000 0.884984
O O9 0.847460 0.777349 0.810757
O O10 0.832878 0.823044 0.922992
O O11 0.903498 0.500000 0.733263
O O12 0.716897 0.778776 0.746368
O O13 0.118847 0.783516 0.648829
O O14 0.534049 0.500000 0.202334
O O15 0.500000 0.208992 0.500000
O O16 0.354815 0.500000 0.592503
O O17 0.500000 0.000000 0.000000
#
# Coordination Sequence:
#
# PCOD8064542 Si02
#       7
#     2   4   4   4   4   4   2
#     4  12  26  38  52  78 103 129 168 211 267 314
#     4   8  15  29  50  71  95 134 172 198 240 299
#     4   9  18  34  51  68  95 130 166 203 245 298
#     4   8  15  29  50  73 100 138 174 203 247 300
#     4  10  20  36  54  73 101 135 173 211 245 299
#     4   8  13  24  46  79 112 134 163 211 252 287
#     4  12  24  34  50  76  97 121 164 209 255 306
#
# _framework density 20.335236999999999
#
# number of rings (size 3 to 8) (size 9 to 14) (size 15 to 20)
#    0.000    2.833    0.000    4.000    0.000    1.333 
#    0.000    0.833    0.000    5.000    0.000   22.167 
#    0.000    0.000    0.000    0.000    0.000    0.000 
#
# Total GULP energy -297355.687181 kJ/mol
# GULP energy per Si atom -12389.820299 kJ/mol
# Density = 2.028895 g / cm^3
# Si number density = 20.335237 Si / 1000 Ang^3
#
#
#
# Elastic Constant Matrix: (Units=GPa)
#
#
# Indices 1 2 3 4 5 6 
#
# 1 142.2284 13.0943 49.0433 0.0000 24.5914 0.0000
# 2 13.0943 66.2264 32.8807 0.0000 3.1287 0.0000
# 3 49.0433 32.8807 118.0336 0.0000 20.0661 0.0000
# 4 0.0000 0.0000 0.0000 36.0113 0.0000 -2.8227
# 5 24.5914 3.1287 20.0661 0.0000 31.9031 0.0000
# 6 0.0000 0.0000 0.0000 -2.8227 0.0000 9.1218
#
#
#
# Elastic Compliance Matrix: (Units=1/GPa)
#
#
# Indices 1 2 3 4 5 6 
#
# 1 0.008884 -0.000131 -0.002791 0.000000 -0.005079 0.000000
# 2 -0.000131 0.017591 -0.005117 0.000000 0.001594 0.000000
# 3 -0.002791 -0.005117 0.011876 0.000000 -0.004816 0.000000
# 4 0.000000 0.000000 0.000000 0.028459 0.000000 0.008806
# 5 -0.005079 0.001594 -0.004816 0.000000 0.038133 0.000000
# 6 0.000000 0.000000 0.000000 0.008806 0.000000 0.112353
#
#
# Mechanical properties :
#
#
# Convention : Reuss Voigt Hill
#
# Bulk Modulus (GPa) = 44.89793 57.39166 51.14480
# Shear Modulus (GPa) = 20.76430 30.83857 25.80143
#
# Velocity S-wave (km/s) = 3.19893 3.89846 3.56589
# Velocity P-wave (km/s) = 5.98089 6.96764 6.49304
#
# Compressibility (1/GPa) = 0.02227274
#
# Stress axis : x y z
#
# Youngs Moduli (GPa) = 112.56600 56.84794 84.20197
#
# Poissons Ratio (x) = 0.00743 0.23503
# Poissons Ratio (y) = 0.01471 0.43086
# Poissons Ratio (z) = 0.31421 0.29089
#
# Static dielectric constant tensor:
#      x y z
#    x 4.035330 0.000000 0.267030 
#    y 0.000000 3.304070 0.000000 
#    z 0.267030 0.000000 3.825510 
# 
# 
# High freq. dielectric constant tensor:
#      x y z
#    x 1.801130 0.000000 0.017290 
#    y 0.000000 1.775190 0.000000 
#    z 0.017290 0.000000 1.773480 
# 
# From -- ./inp_files/81956.got.cif
#   From: 2010.06.25/outbox.cif.g09.slc.cpg/sg10_41_cif.got.tgz:81956.got - 2010.06.27 22:07:45.
