data_PCOD8064598
_publ_section_title
;
Structure prediction by ZEFSAII (Michael W. Deem and Ramdas Pophale) SiO2 
 PCOD8064598
Probable space group: P 2/M
;
_chemical_formula_sum "Si O2"
_cell_formula_units_Z 22
_cell_length_a 7.584798
_cell_length_b 13.495353
_cell_length_c 11.994935
_cell_angle_alpha 90.000000
_cell_angle_beta 59.983547
_cell_angle_gamma 90.000000
_cell_volume 1063.126081
_symmetry_space_group_name_H-M "P 2/M"
_symmetry_group_IT_number 10
_symmetry_cell_setting 'monoclinic'
loop_
_space_group_symop_operation_xyz
x,y,z
-x,y,-z
-x,-y,-z
x,-y,z
loop_
_atom_site_type_symbol
_atom_site_label
_atom_site_fract_x
_atom_site_fract_y
_atom_site_fract_z
Si Si1 0.297686 0.886277 0.770974
Si Si2 0.574346 0.607867 0.856562
Si Si3 0.130872 0.227883 0.624588
Si Si4 0.000000 0.751324 0.000000
Si Si5 0.000237 0.392041 0.806690
Si Si6 0.688676 0.223412 0.672111
O O1 0.231581 0.860118 0.664801
O O2 0.540019 0.871387 0.713325
O O3 0.244799 0.000000 0.809559
O O4 0.179005 0.820400 0.898621
O O5 0.468361 0.500000 0.864150
O O6 0.814365 0.588959 0.783126
O O7 0.544965 0.688080 0.767379
O O8 0.500000 0.648397 0.000000
O O9 0.245247 0.248098 0.473904
O O10 0.164797 0.328808 0.684844
O O11 0.889911 0.201951 0.682795
O O12 0.084825 0.675686 0.065781
O O13 0.088529 0.500000 0.816819
#
# Coordination Sequence:
#
# PCOD8064598 Si02
#       6
#     4   4   4   2   4   4
#     4  11  23  39  59  81 108 145 189 236 284 329
#     4   9  17  30  51  80 111 144 183 222 266 328
#     4   9  21  37  55  83 115 144 184 231 270 325
#     4  10  20  36  56  82 116 144 180 234 278 326
#     4   9  17  31  54  81 112 150 181 215 271 330
#     4  10  20  37  58  81 112 149 183 225 279 326
#
# _framework density 20.693688999999999
#
# number of rings (size 3 to 8) (size 9 to 14) (size 15 to 20)
#    0.000    2.364    0.000    2.182    0.000    2.909 
#    0.000    9.091    0.000   16.909    0.000    0.000 
#    0.000    0.000    0.000    0.000    0.000    0.000 
#
# Total GULP energy -272567.960724 kJ/mol
# GULP energy per Si atom -12389.452760 kJ/mol
# Density = 2.064659 g / cm^3
# Si number density = 20.693689 Si / 1000 Ang^3
#
#
#
# Elastic Constant Matrix: (Units=GPa)
#
#
# Indices 1 2 3 4 5 6 
#
# 1 75.3680 40.8491 26.9344 0.0000 2.1341 0.0000
# 2 40.8491 147.5653 54.7054 0.0000 8.2520 0.0000
# 3 26.9344 54.7054 117.4726 0.0000 2.0910 0.0000
# 4 0.0000 0.0000 0.0000 16.3927 0.0000 1.0870
# 5 2.1341 8.2520 2.0910 0.0000 22.7356 0.0000
# 6 0.0000 0.0000 0.0000 1.0870 0.0000 21.9825
#
#
#
# Elastic Compliance Matrix: (Units=1/GPa)
#
#
# Indices 1 2 3 4 5 6 
#
# 1 0.015967 -0.003703 -0.001937 0.000000 0.000023 0.000000
# 2 -0.003703 0.009209 -0.003392 0.000000 -0.002683 0.000000
# 3 -0.001937 -0.003392 0.010528 0.000000 0.000445 0.000000
# 4 0.000000 0.000000 0.000000 0.061203 0.000000 -0.003026
# 5 0.000023 -0.002683 0.000445 0.000000 0.044915 0.000000
# 6 0.000000 0.000000 0.000000 -0.003026 0.000000 0.045640
#
#
# Mechanical properties :
#
#
# Convention : Reuss Voigt Hill
#
# Bulk Modulus (GPa) = 56.68689 65.04262 60.86476
# Shear Modulus (GPa) = 23.65110 26.74996 25.20053
#
# Velocity S-wave (km/s) = 3.38437 3.59926 3.49347
# Velocity P-wave (km/s) = 6.53642 6.98372 6.76376
#
# Compressibility (1/GPa) = 0.01764076
#
# Stress axis : x y z
#
# Youngs Moduli (GPa) = 62.62967 108.58664 94.98226
#
# Poissons Ratio (x) = 0.40213 0.18396
# Poissons Ratio (y) = 0.23193 0.32216
# Poissons Ratio (z) = 0.12130 0.36830
#
# Static dielectric constant tensor:
#      x y z
#    x 3.656920 0.000000 0.031950 
#    y 0.000000 3.911420 0.000000 
#    z 0.031950 0.000000 3.756150 
# 
# 
# High freq. dielectric constant tensor:
#      x y z
#    x 1.800140 0.000000 -0.002310 
#    y 0.000000 1.799040 0.000000 
#    z -0.002310 0.000000 1.811210 
# 
# From -- ./inp_files/41947.got.cif
#   From: 2010.06.25/outbox.cif.g09.slc.cpg/sg10_21_cif.got.tgz:41947.got - 2010.06.27 22:07:45.
