data_PCOD8064132
_publ_section_title
;
Structure prediction by ZEFSAII (Michael W. Deem and Ramdas Pophale) SiO2 
 PCOD8064132
Probable space group: P 2/M
;
_chemical_formula_sum "Si O2"
_cell_formula_units_Z 32
_cell_length_a 24.712200
_cell_length_b 9.245983
_cell_length_c 15.958168
_cell_angle_alpha 90.000000
_cell_angle_beta 26.601111
_cell_angle_gamma 90.000000
_cell_volume 1632.708896
_symmetry_space_group_name_H-M "P 2/M"
_symmetry_group_IT_number 10
_symmetry_cell_setting 'monoclinic'
loop_
_space_group_symop_operation_xyz
x,y,z
-x,y,-z
-x,-y,-z
x,-y,z
loop_
_atom_site_type_symbol
_atom_site_label
_atom_site_fract_x
_atom_site_fract_y
_atom_site_fract_z
Si Si1 0.751788 0.335807 0.875151
Si Si2 0.722700 0.829619 0.365915
Si Si3 0.826432 0.334716 0.585129
Si Si4 0.402663 0.329080 0.199199
Si Si5 0.892952 0.835222 0.980533
Si Si6 0.927375 0.834402 0.748018
Si Si7 0.521229 0.329578 0.724050
Si Si8 0.914560 0.661391 0.197685
O O1 0.780345 0.500000 0.861321
O O2 0.754885 0.316894 0.771246
O O3 0.853402 0.238577 0.776519
O O4 0.619499 0.290315 0.089963
O O5 0.780562 0.790760 0.195343
O O6 0.590500 0.756858 0.554271
O O7 0.799888 0.759092 0.334293
O O8 0.714016 0.000000 0.392123
O O9 0.869382 0.500000 0.514072
O O10 0.733778 0.288186 0.639748
O O11 0.940968 0.232352 0.424447
O O12 0.420359 0.500000 0.173875
O O13 0.428441 0.271199 0.256679
O O14 0.500000 0.260208 0.000000
O O15 0.930856 0.000000 0.949150
O O16 0.854948 0.817915 0.936242
O O17 0.009948 0.734543 0.832286
O O18 0.944435 0.000000 0.699423
O O19 0.543413 0.500000 0.682631
O O20 0.872190 0.500000 0.284005
O O21 0.000000 0.651111 0.000000
#
# Coordination Sequence:
#
# PCOD8064132 Si02
#       8
#     4   4   4   4   4   4   4   4
#     4  10  21  39  60  82 112 148 188 232 281 338
#     4  10  20  35  55  78 111 152 187 222 276 339
#     4  10  20  36  60  87 114 146 184 224 278 345
#     4   9  16  32  58  86 114 145 179 221 275 334
#     4   9  20  38  54  74 109 151 190 230 276 331
#     4  11  24  39  57  81 111 147 193 240 280 325
#     4  10  20  35  58  87 115 144 186 233 275 328
#     4   9  17  30  51  78 106 138 178 226 275 323
#
# _framework density 19.599329000000001
#
# number of rings (size 3 to 8) (size 9 to 14) (size 15 to 20)
#    0.000    2.250    1.250    1.500    1.750    5.500 
#    0.000    0.625    0.000    4.500    0.000    0.000 
#    0.000    0.000    0.000    0.000    0.000    0.000 
#
# Total GULP energy -396808.802267 kJ/mol
# GULP energy per Si atom -12400.275071 kJ/mol
# Density = 1.955472 g / cm^3
# Si number density = 19.599329 Si / 1000 Ang^3
#
#
#
# Elastic Constant Matrix: (Units=GPa)
#
#
# Indices 1 2 3 4 5 6 
#
# 1 57.8741 25.1476 8.1571 0.0000 -12.5463 0.0000
# 2 25.1476 82.4441 37.1371 0.0000 -10.3890 0.0000
# 3 8.1571 37.1371 90.9258 0.0000 -12.1052 0.0000
# 4 0.0000 0.0000 0.0000 25.0900 0.0000 4.8711
# 5 -12.5463 -10.3890 -12.1052 0.0000 23.0781 0.0000
# 6 0.0000 0.0000 0.0000 4.8711 0.0000 11.2743
#
#
#
# Elastic Compliance Matrix: (Units=1/GPa)
#
#
# Indices 1 2 3 4 5 6 
#
# 1 0.021931 -0.006293 0.001949 0.000000 0.010112 0.000000
# 2 -0.006293 0.016982 -0.006245 0.000000 0.000948 0.000000
# 3 0.001949 -0.006245 0.014127 0.000000 0.005658 0.000000
# 4 0.000000 0.000000 0.000000 0.043506 0.000000 -0.018797
# 5 0.010112 0.000948 0.005658 0.000000 0.052223 0.000000
# 6 0.000000 0.000000 0.000000 -0.018797 0.000000 0.096818
#
#
# Mechanical properties :
#
#
# Convention : Reuss Voigt Hill
#
# Bulk Modulus (GPa) = 31.38617 41.34751 36.36684
# Shear Modulus (GPa) = 18.02546 22.60865 20.31706
#
# Velocity S-wave (km/s) = 3.03594 3.40007 3.22315
# Velocity P-wave (km/s) = 5.32334 6.04617 5.69623
#
# Compressibility (1/GPa) = 0.03186117
#
# Stress axis : x y z
#
# Youngs Moduli (GPa) = 45.59791 58.88756 70.78581
#
# Poissons Ratio (x) = 0.37059 -0.13797
# Poissons Ratio (y) = 0.28696 0.44206
# Poissons Ratio (z) = -0.08888 0.36776
#
# Static dielectric constant tensor:
#      x y z
#    x 3.447110 0.000000 0.101010 
#    y 0.000000 3.468490 0.000000 
#    z 0.101010 0.000000 3.660280 
# 
# 
# High freq. dielectric constant tensor:
#      x y z
#    x 1.748280 0.000000 0.006120 
#    y 0.000000 1.747000 0.000000 
#    z 0.006120 0.000000 1.772380 
# 
# From -- ./inp_files/71399.got.cif
#   From: 2010.06.25/outbox.cif.g09.slc.cpg/sg10_36_cif.got.tgz:71399.got - 2010.06.27 22:07:45.
