data_PCOD8064606
_publ_section_title
;
Structure prediction by ZEFSAII (Michael W. Deem and Ramdas Pophale) SiO2 
 PCOD8064606
Probable space group: P 2/M
;
_chemical_formula_sum "Si O2"
_cell_formula_units_Z 32
_cell_length_a 29.782081
_cell_length_b 9.034218
_cell_length_c 11.372744
_cell_angle_alpha 90.000000
_cell_angle_beta 145.765264
_cell_angle_gamma 90.000000
_cell_volume 1721.467332
_symmetry_space_group_name_H-M "P 2/M"
_symmetry_group_IT_number 10
_symmetry_cell_setting 'monoclinic'
loop_
_space_group_symop_operation_xyz
x,y,z
-x,y,-z
-x,-y,-z
x,-y,z
loop_
_atom_site_type_symbol
_atom_site_label
_atom_site_fract_x
_atom_site_fract_y
_atom_site_fract_z
Si Si1 0.545906 0.327489 0.777954
Si Si2 0.996344 0.665994 0.813142
Si Si3 0.132131 0.333146 0.299135
Si Si4 0.233268 0.823732 0.115761
Si Si5 0.426200 0.175241 0.916790
Si Si6 0.930411 0.673767 0.258593
Si Si7 0.378734 0.673167 0.304761
Si Si8 0.735441 0.825670 0.551977
O O1 0.551189 0.500000 0.817438
O O2 0.603463 0.287955 0.792935
O O3 0.455303 0.283644 0.549306
O O4 0.574691 0.240288 0.954485
O O5 0.974879 0.500000 0.726636
O O6 0.912341 0.732957 0.680331
O O7 0.033276 0.748498 0.781032
O O8 0.063985 0.663221 0.055792
O O9 0.164632 0.500000 0.390382
O O10 0.202790 0.228650 0.412140
O O11 0.304394 0.769076 0.186718
O O12 0.246913 0.763615 0.278916
O O13 0.230607 0.000000 0.106322
O O14 0.150940 0.758760 0.885851
O O15 0.350065 0.229665 0.677902
O O16 0.428522 0.000000 0.935605
O O17 0.500000 0.234377 0.000000
O O18 0.909623 0.500000 0.201344
O O19 0.000000 0.704555 0.500000
O O20 0.359262 0.500000 0.276174
O O21 0.740178 0.000000 0.566270
#
# Coordination Sequence:
#
# PCOD8064606 Si02
#       8
#     4   4   4   4   4   4   4   4
#     4   9  19  37  59  84 111 140 181 229 271 315
#     4   8  15  30  52  77 100 127 170 215 260 317
#     4   9  16  30  54  76  98 132 175 221 261 311
#     4  11  22  36  56  81 109 142 185 227 265 320
#     4  10  21  37  55  77 113 153 182 216 267 325
#     4  10  20  36  57  78 105 141 178 222 278 328
#     4   9  19  37  60  83 110 143 179 225 274 318
#     4  10  21  35  51  77 110 142 180 223 269 318
#
# _framework density 18.588792999999999
#
# number of rings (size 3 to 8) (size 9 to 14) (size 15 to 20)
#    0.000    2.500    1.250    2.625    0.000    3.500 
#    2.250    3.125    0.000    0.000    0.000    0.000 
#    0.000    0.000    0.000    0.000    0.000    0.000 
#
# Total GULP energy -396596.265231 kJ/mol
# GULP energy per Si atom -12393.633288 kJ/mol
# Density = 1.854648 g / cm^3
# Si number density = 18.588793 Si / 1000 Ang^3
#
#
#
# Elastic Constant Matrix: (Units=GPa)
#
#
# Indices 1 2 3 4 5 6 
#
# 1 122.7857 36.3469 59.0881 0.0000 23.4196 0.0000
# 2 36.3469 34.7677 40.5551 0.0000 2.5542 0.0000
# 3 59.0881 40.5551 109.5737 0.0000 15.2292 0.0000
# 4 0.0000 0.0000 0.0000 43.5519 0.0000 2.8896
# 5 23.4196 2.5542 15.2292 0.0000 33.2491 0.0000
# 6 0.0000 0.0000 0.0000 2.8896 0.0000 16.9687
#
#
#
# Elastic Compliance Matrix: (Units=1/GPa)
#
#
# Indices 1 2 3 4 5 6 
#
# 1 0.014212 -0.011678 -0.002216 0.000000 -0.008098 0.000000
# 2 -0.011678 0.061003 -0.017913 0.000000 0.011744 0.000000
# 3 -0.002216 -0.017913 0.017668 0.000000 -0.005155 0.000000
# 4 0.000000 0.000000 0.000000 0.023224 0.000000 -0.003955
# 5 -0.008098 0.011744 -0.005155 0.000000 0.037239 0.000000
# 6 0.000000 0.000000 0.000000 -0.003955 0.000000 0.059605
#
#
# Mechanical properties :
#
#
# Convention : Reuss Voigt Hill
#
# Bulk Modulus (GPa) = 34.16635 59.90081 47.03358
# Shear Modulus (GPa) = 17.46287 27.49640 22.47963
#
# Velocity S-wave (km/s) = 3.06834 3.85020 3.48129
# Velocity P-wave (km/s) = 5.56533 7.21523 6.44331
#
# Compressibility (1/GPa) = 0.02926856
#
# Stress axis : x y z
#
# Youngs Moduli (GPa) = 70.36148 16.39276 56.59954
#
# Poissons Ratio (x) = 0.19143 0.12545
# Poissons Ratio (y) = 0.82165 1.01388
# Poissons Ratio (z) = 0.15595 0.29365
#
# Static dielectric constant tensor:
#      x y z
#    x 3.562890 0.000000 0.028490 
#    y 0.000000 3.157430 0.000000 
#    z 0.028490 0.000000 3.349050 
# 
# 
# High freq. dielectric constant tensor:
#      x y z
#    x 1.738240 0.000000 0.008500 
#    y 0.000000 1.694420 0.000000 
#    z 0.008500 0.000000 1.713390 
# 
# From -- ./inp_files/58377.got.cif
#   From: 2010.06.25/outbox.cif.g09.slc.cpg/sg10_30_cif.got.tgz:58377.got - 2010.06.27 22:07:45.
