data_PCOD8064833
_publ_section_title
;
Structure prediction by ZEFSAII (Michael W. Deem and Ramdas Pophale) SiO2 
 PCOD8064833
Probable space group: P 2/M
;
_chemical_formula_sum "Si O2"
_cell_formula_units_Z 28
_cell_length_a 14.841461
_cell_length_b 9.340783
_cell_length_c 11.029598
_cell_angle_alpha 90.000000
_cell_angle_beta 66.074808
_cell_angle_gamma 90.000000
_cell_volume 1397.660853
_symmetry_space_group_name_H-M "P 2/M"
_symmetry_group_IT_number 10
_symmetry_cell_setting 'monoclinic'
loop_
_space_group_symop_operation_xyz
x,y,z
-x,y,-z
-x,-y,-z
x,-y,z
loop_
_atom_site_type_symbol
_atom_site_label
_atom_site_fract_x
_atom_site_fract_y
_atom_site_fract_z
Si Si1 0.456725 0.168814 0.150981
Si Si2 0.051920 0.160264 0.308633
Si Si3 0.438921 0.167895 0.655566
Si Si4 0.755399 0.167574 0.651536
Si Si5 0.242050 0.663074 0.784639
Si Si6 0.857879 0.337215 0.409698
Si Si7 0.901480 0.161516 0.994345
O O1 0.509479 0.221492 0.246885
O O2 0.342147 0.214529 0.222046
O O3 0.468335 0.000000 0.138048
O O4 0.500000 0.234130 0.000000
O O5 0.148065 0.211707 0.326966
O O6 0.085060 0.163433 0.154109
O O7 0.960860 0.262461 0.387830
O O8 0.019702 0.000000 0.364335
O O9 0.500000 0.200721 0.500000
O O10 0.339821 0.255834 0.692639
O O11 0.415338 0.000000 0.677351
O O12 0.765164 0.256446 0.522011
O O13 0.749455 0.000000 0.623434
O O14 0.267783 0.500000 0.804326
O O15 0.160975 0.671060 0.722840
O O16 0.192804 0.740857 0.926012
O O17 0.862601 0.500000 0.452926
O O18 0.882526 0.000000 0.053447
O O19 0.000000 0.226021 0.000000
#
# Coordination Sequence:
#
# PCOD8064833 Si02
#       7
#     4   4   4   4   4   4   4
#     4   9  19  36  60  88 117 148 188 243 299 346
#     4  10  21  36  58  88 117 148 190 237 286 340
#     4  10  21  38  63  91 115 148 198 251 298 348
#     4  10  21  37  60  86 114 148 189 237 288 343
#     4  11  24  38  57  85 118 157 194 236 291 347
#     4  11  23  38  56  82 118 157 192 231 282 343
#     4  10  20  36  59  86 115 150 192 241 288 339
#
# _framework density 20.033472
#
# number of rings (size 3 to 8) (size 9 to 14) (size 15 to 20)
#    0.000    1.857    1.429    2.143    2.000    6.286 
#    0.000    0.714    0.000    0.857    0.000    0.000 
#    0.000    0.000    0.000    0.000    0.000    0.000 
#
# Total GULP energy -347151.169435 kJ/mol
# GULP energy per Si atom -12398.256051 kJ/mol
# Density = 1.998787 g / cm^3
# Si number density = 20.033472 Si / 1000 Ang^3
#
#
#
# Elastic Constant Matrix: (Units=GPa)
#
#
# Indices 1 2 3 4 5 6 
#
# 1 91.2319 43.2706 44.1072 0.0000 -12.6744 0.0000
# 2 43.2706 77.5599 45.2989 0.0000 -21.7519 0.0000
# 3 44.1072 45.2989 131.4320 0.0000 -14.3539 0.0000
# 4 0.0000 0.0000 0.0000 18.5272 0.0000 9.7817
# 5 -12.6744 -21.7519 -14.3539 0.0000 40.1933 0.0000
# 6 0.0000 0.0000 0.0000 9.7817 0.0000 8.8602
#
#
#
# Elastic Compliance Matrix: (Units=1/GPa)
#
#
# Indices 1 2 3 4 5 6 
#
# 1 0.015696 -0.007082 -0.002814 0.000000 0.000112 0.000000
# 2 -0.007082 0.021498 -0.004169 0.000000 0.007912 0.000000
# 3 -0.002814 -0.004169 0.010038 0.000000 0.000441 0.000000
# 4 0.000000 0.000000 0.000000 0.129396 0.000000 -0.142853
# 5 0.000112 0.007912 0.000441 0.000000 0.029355 0.000000
# 6 0.000000 0.000000 0.000000 -0.142853 0.000000 0.270574
#
#
# Mechanical properties :
#
#
# Convention : Reuss Voigt Hill
#
# Bulk Modulus (GPa) = 52.34979 62.84190 57.59584
# Shear Modulus (GPa) = 9.78369 24.68594 17.23482
#
# Velocity S-wave (km/s) = 2.21230 3.51413 2.93627
# Velocity P-wave (km/s) = 5.71958 6.92113 6.34884
#
# Compressibility (1/GPa) = 0.01910227
#
# Stress axis : x y z
#
# Youngs Moduli (GPa) = 63.71017 46.51618 99.62164
#
# Poissons Ratio (x) = 0.32941 0.28038
# Poissons Ratio (y) = 0.45117 0.41530
# Poissons Ratio (z) = 0.17931 0.19391
#
# Static dielectric constant tensor:
#      x y z
#    x 4.792940 0.000000 1.025250 
#    y 0.000000 3.518620 0.000000 
#    z 1.025250 0.000000 4.634620 
# 
# 
# High freq. dielectric constant tensor:
#      x y z
#    x 1.783240 0.000000 -0.000150 
#    y 0.000000 1.754570 0.000000 
#    z -0.000150 0.000000 1.797410 
# 
# From -- ./inp_files/49582.got.cif
#   From: 2010.06.25/outbox.cif.g09.slc.cpg/sg10_25_cif.got.tgz:49582.got - 2010.06.27 22:07:45.
