data_PCOD8064934
_publ_section_title
;
Structure prediction by ZEFSAII (Michael W. Deem and Ramdas Pophale) SiO2 
 PCOD8064934
Probable space group: P 2/M
;
_chemical_formula_sum "Si O2"
_cell_formula_units_Z 24
_cell_length_a 13.489207
_cell_length_b 8.537554
_cell_length_c 14.354384
_cell_angle_alpha 90.000000
_cell_angle_beta 138.930953
_cell_angle_gamma 90.000000
_cell_volume 1086.047181
_symmetry_space_group_name_H-M "P 2/M"
_symmetry_group_IT_number 10
_symmetry_cell_setting 'monoclinic'
loop_
_space_group_symop_operation_xyz
x,y,z
-x,y,-z
-x,-y,-z
x,-y,z
loop_
_atom_site_type_symbol
_atom_site_label
_atom_site_fract_x
_atom_site_fract_y
_atom_site_fract_z
Si Si1 0.975877 0.817795 0.843526
Si Si2 0.482786 0.816177 0.594361
Si Si3 0.267672 0.316322 0.583114
Si Si4 0.218041 0.680756 0.144412
Si Si5 0.964559 0.184838 0.322925
Si Si6 0.639228 0.185799 0.162789
O O1 0.837769 0.720773 0.790259
O O2 0.004659 0.759106 0.760051
O O3 0.932516 0.000000 0.815426
O O4 0.128107 0.789151 0.009021
O O5 0.500000 0.761915 0.500000
O O6 0.323341 0.768025 0.527032
O O7 0.607260 0.722697 0.742114
O O8 0.508909 0.000000 0.622113
O O9 0.278821 0.500000 0.578064
O O10 0.372594 0.262362 0.743528
O O11 0.094215 0.263650 0.478733
O O12 0.188221 0.500000 0.100239
O O13 0.797346 0.243106 0.230554
O O14 0.976583 0.000000 0.344437
O O15 0.632630 0.000000 0.168949
O O16 0.500000 0.244661 0.000000
#
# Coordination Sequence:
#
# PCOD8064934 Si02
#       6
#     4   4   4   4   4   4
#     4  10  20  36  60  89 122 167 218 262 311 377
#     4  11  24  42  65  90 122 167 217 265 313 378
#     4  12  26  42  64  97 133 172 210 262 330 389
#     4  11  22  36  56  88 128 166 207 262 325 381
#     4  10  22  41  66  94 124 166 219 267 314 375
#     4  10  23  44  70  97 126 167 219 272 320 376
#
# _framework density 22.098489000000001
#
# number of rings (size 3 to 8) (size 9 to 14) (size 15 to 20)
#    0.000    1.333    0.000    6.500    2.333    9.667 
#    0.000    0.000    0.000    0.000    0.000    0.000 
#    0.000    0.000    0.000    0.000    0.000    0.000 
#
# Total GULP energy -297705.599010 kJ/mol
# GULP energy per Si atom -12404.399959 kJ/mol
# Density = 2.204819 g / cm^3
# Si number density = 22.098489 Si / 1000 Ang^3
#
#
#
# Elastic Constant Matrix: (Units=GPa)
#
#
# Indices 1 2 3 4 5 6 
#
# 1 98.1321 23.9068 50.1841 0.0000 4.4924 0.0000
# 2 23.9068 61.3235 23.0113 0.0000 -1.6848 0.0000
# 3 50.1841 23.0113 112.6242 0.0000 9.8170 0.0000
# 4 0.0000 0.0000 0.0000 10.8889 0.0000 1.3706
# 5 4.4924 -1.6848 9.8170 0.0000 40.3755 0.0000
# 6 0.0000 0.0000 0.0000 1.3706 0.0000 18.2251
#
#
#
# Elastic Compliance Matrix: (Units=1/GPa)
#
#
# Indices 1 2 3 4 5 6 
#
# 1 0.013802 -0.003351 -0.005435 0.000000 -0.000354 0.000000
# 2 -0.003351 0.018583 -0.002456 0.000000 0.001745 0.000000
# 3 -0.005435 -0.002456 0.012013 0.000000 -0.002419 0.000000
# 4 0.000000 0.000000 0.000000 0.092715 0.000000 -0.006973
# 5 -0.000354 0.001745 -0.002419 0.000000 0.025468 0.000000
# 6 0.000000 0.000000 0.000000 -0.006973 0.000000 0.055394
#
#
# Mechanical properties :
#
#
# Convention : Reuss Voigt Hill
#
# Bulk Modulus (GPa) = 45.63003 51.80937 48.71970
# Shear Modulus (GPa) = 20.18062 25.56306 22.87184
#
# Velocity S-wave (km/s) = 3.02522 3.40483 3.22062
# Velocity P-wave (km/s) = 5.73550 6.24122 5.99369
#
# Compressibility (1/GPa) = 0.02191539
#
# Stress axis : x y z
#
# Youngs Moduli (GPa) = 72.45247 53.81302 83.24160
#
# Poissons Ratio (x) = 0.18034 0.45238
# Poissons Ratio (y) = 0.24280 0.20442
# Poissons Ratio (z) = 0.39374 0.13215
#
# Static dielectric constant tensor:
#      x y z
#    x 4.151920 0.000000 0.057220 
#    y 0.000000 3.681280 0.000000 
#    z 0.057220 0.000000 4.075150 
# 
# 
# High freq. dielectric constant tensor:
#      x y z
#    x 1.875130 0.000000 0.003990 
#    y 0.000000 1.855200 0.000000 
#    z 0.003990 0.000000 1.878430 
# 
# From -- ./inp_files/66681.got.cif
#   From: 2010.06.25/outbox.cif.g09.slc.cpg/sg10_34_cif.got.tgz:66681.got - 2010.06.27 22:07:45.
