data_PCOD8064357
_publ_section_title
;
Structure prediction by ZEFSAII (Michael W. Deem and Ramdas Pophale) SiO2 
 PCOD8064357
Probable space group: P 2/M
;
_chemical_formula_sum "Si O2"
_cell_formula_units_Z 20
_cell_length_a 9.637183
_cell_length_b 11.937353
_cell_length_c 12.720404
_cell_angle_alpha 90.000000
_cell_angle_beta 136.200396
_cell_angle_gamma 90.000000
_cell_volume 1012.865683
_symmetry_space_group_name_H-M "P 2/M"
_symmetry_group_IT_number 10
_symmetry_cell_setting 'monoclinic'
loop_
_space_group_symop_operation_xyz
x,y,z
-x,y,-z
-x,-y,-z
x,-y,z
loop_
_atom_site_type_symbol
_atom_site_label
_atom_site_fract_x
_atom_site_fract_y
_atom_site_fract_z
Si Si1 0.578564 0.759080 0.855598
Si Si2 0.876598 0.000000 0.330822
Si Si3 0.552253 0.000000 0.902847
Si Si4 0.376572 0.370287 0.327177
Si Si5 0.124964 0.759707 0.675251
Si Si6 0.066150 0.371465 0.841184
O O1 0.552832 0.719358 0.721168
O O2 0.362418 0.741728 0.790972
O O3 0.658787 0.886925 0.918152
O O4 0.746219 0.684080 0.000444
O O5 0.909528 0.882836 0.287122
O O6 0.000000 0.000000 0.500000
O O7 0.661329 0.000000 0.269527
O O8 0.500000 0.000000 0.000000
O O9 0.500000 0.343242 0.500000
O O10 0.416070 0.500000 0.314773
O O11 0.140297 0.349329 0.211405
O O12 0.038448 0.668662 0.706561
O O13 0.000000 0.749139 0.500000
O O14 0.119191 0.500000 0.866357
#
# Coordination Sequence:
#
# PCOD8064357 Si02
#       6
#     4   2   2   4   4   4
#     4  11  21  37  60  84 112 149 191 232 279 338
#     4   8  16  32  53  77 106 142 178 218 274 328
#     4  10  20  36  57  85 117 148 182 230 287 334
#     4  10  22  41  61  81 112 152 190 233 287 340
#     4  10  20  35  57  84 113 146 188 235 282 336
#     4  11  23  37  55  82 114 148 187 234 286 335
#
# _framework density 19.745956
#
# number of rings (size 3 to 8) (size 9 to 14) (size 15 to 20)
#    0.000    1.800    0.000    5.400    0.000    4.400 
#    0.000    3.500    0.000    0.000    0.000    0.000 
#    0.000    0.000    0.000    0.000    0.000    0.000 
#
# Total GULP energy -247770.150737 kJ/mol
# GULP energy per Si atom -12388.507537 kJ/mol
# Density = 1.970101 g / cm^3
# Si number density = 19.745956 Si / 1000 Ang^3
#
#
#
# Elastic Constant Matrix: (Units=GPa)
#
#
# Indices 1 2 3 4 5 6 
#
# 1 55.7016 59.0853 20.5790 0.0000 -12.4773 0.0000
# 2 59.0853 142.7343 47.7583 0.0000 -11.8706 0.0000
# 3 20.5790 47.7583 105.0820 0.0000 -1.3071 0.0000
# 4 0.0000 0.0000 0.0000 27.6708 0.0000 3.4230
# 5 -12.4773 -11.8706 -1.3071 0.0000 36.2259 0.0000
# 6 0.0000 0.0000 0.0000 3.4230 0.0000 19.9237
#
#
#
# Elastic Compliance Matrix: (Units=1/GPa)
#
#
# Indices 1 2 3 4 5 6 
#
# 1 0.033786 -0.013204 -0.000525 0.000000 0.007291 0.000000
# 2 -0.013204 0.013670 -0.003629 0.000000 -0.000199 0.000000
# 3 -0.000525 -0.003629 0.011257 0.000000 -0.000964 0.000000
# 4 0.000000 0.000000 0.000000 0.036924 0.000000 -0.006344
# 5 0.007291 -0.000199 -0.000964 0.000000 0.030016 0.000000
# 6 0.000000 0.000000 0.000000 -0.006344 0.000000 0.051281
#
#
# Mechanical properties :
#
#
# Convention : Reuss Voigt Hill
#
# Bulk Modulus (GPa) = 41.67347 62.04036 51.85691
# Shear Modulus (GPa) = 22.76375 28.50376 25.63375
#
# Velocity S-wave (km/s) = 3.39902 3.80350 3.60693
# Velocity P-wave (km/s) = 6.04608 7.12575 6.60800
#
# Compressibility (1/GPa) = 0.02399608
#
# Stress axis : x y z
#
# Youngs Moduli (GPa) = 29.59825 73.15555 88.83629
#
# Poissons Ratio (x) = 0.96592 0.04663
# Poissons Ratio (y) = 0.39081 0.32241
# Poissons Ratio (z) = 0.01554 0.26550
#
# Static dielectric constant tensor:
#      x y z
#    x 3.414930 0.000000 0.082220 
#    y 0.000000 3.958420 0.000000 
#    z 0.082220 0.000000 3.832790 
# 
# 
# High freq. dielectric constant tensor:
#      x y z
#    x 1.737950 0.000000 0.011530 
#    y 0.000000 1.782410 0.000000 
#    z 0.011530 0.000000 1.796340 
# 
# From -- ./inp_files/24249.got.cif
#   From: 2010.06.25/outbox.cif.g09.slc.cpg/sg10_13_cif.got.tgz:24249.got - 2010.06.27 22:07:45.
