data_PCOD8064287
_publ_section_title
;
Structure prediction by ZEFSAII (Michael W. Deem and Ramdas Pophale) SiO2 
 PCOD8064287
Probable space group: P 2/M
;
_chemical_formula_sum "Si O2"
_cell_formula_units_Z 24
_cell_length_a 24.621227
_cell_length_b 7.680730
_cell_length_c 12.422634
_cell_angle_alpha 90.000000
_cell_angle_beta 32.709669
_cell_angle_gamma 90.000000
_cell_volume 1269.483366
_symmetry_space_group_name_H-M "P 2/M"
_symmetry_group_IT_number 10
_symmetry_cell_setting 'monoclinic'
loop_
_space_group_symop_operation_xyz
x,y,z
-x,y,-z
-x,-y,-z
x,-y,z
loop_
_atom_site_type_symbol
_atom_site_label
_atom_site_fract_x
_atom_site_fract_y
_atom_site_fract_z
Si Si1 0.383389 0.000000 0.321363
Si Si2 0.382814 0.000000 0.069051
Si Si3 0.243335 0.698151 0.236185
Si Si4 0.880732 0.196526 0.986111
Si Si5 0.097791 0.296867 0.670041
Si Si6 0.755290 0.696020 0.386431
Si Si7 0.893766 0.792929 0.722115
O O1 0.361516 0.000000 0.231247
O O2 0.338324 0.173725 0.450435
O O3 0.500328 0.000000 0.152818
O O4 0.337632 0.173935 0.090991
O O5 0.279141 0.500000 0.198718
O O6 0.158379 0.757276 0.462385
O O7 0.197130 0.712073 0.194394
O O8 0.880777 0.274816 0.865669
O O9 0.992935 0.196687 0.846909
O O10 0.840931 0.000000 0.051848
O O11 0.804265 0.306323 0.186476
O O12 0.073551 0.500000 0.712932
O O13 0.160947 0.239337 0.668701
O O14 0.718462 0.500000 0.475514
O O15 0.000000 0.722982 0.500000
O O16 0.889831 0.000000 0.721784
#
# Coordination Sequence:
#
# PCOD8064287 Si02
#       7
#     2   2   4   4   4   4   4
#     4  11  24  42  65  90 112 154 190 245 315 347
#     4  11  24  42  65  89 120 143 194 253 300 355
#     4  11  22  37  61  88 122 160 192 235 294 348
#     4  11  22  33  57  88 121 166 202 232 282 347
#     4  10  21  34  52  85 123 160 195 232 281 346
#     4  11  23  40  59  85 122 157 198 242 289 354
#     4  10  20  35  56  85 123 162 199 239 279 335
#
# _framework density 18.905328000000001
#
# number of rings (size 3 to 8) (size 9 to 14) (size 15 to 20)
#    0.000    1.333    5.000    1.000    2.333    4.333 
#    0.000    1.667    0.000    2.000    0.000    2.333 
#    0.000    0.000    0.000    0.000    0.000    0.000 
#
# Total GULP energy -297712.779086 kJ/mol
# GULP energy per Si atom -12404.699129 kJ/mol
# Density = 1.886230 g / cm^3
# Si number density = 18.905328 Si / 1000 Ang^3
#
#
#
# Elastic Constant Matrix: (Units=GPa)
#
#
# Indices 1 2 3 4 5 6 
#
# 1 95.7133 31.2340 59.8956 0.0000 0.0497 0.0000
# 2 31.2340 91.7980 46.0850 0.0000 -12.2489 0.0000
# 3 59.8956 46.0850 112.2600 0.0000 0.1228 0.0000
# 4 0.0000 0.0000 0.0000 13.8092 0.0000 6.1636
# 5 0.0497 -12.2489 0.1228 0.0000 31.7321 0.0000
# 6 0.0000 0.0000 0.0000 6.1636 0.0000 17.3810
#
#
#
# Elastic Compliance Matrix: (Units=1/GPa)
#
#
# Indices 1 2 3 4 5 6 
#
# 1 0.015846 -0.001545 -0.007820 0.000000 -0.000591 0.000000
# 2 -0.001545 0.014832 -0.005271 0.000000 0.005748 0.000000
# 3 -0.007820 -0.005271 0.015246 0.000000 -0.002081 0.000000
# 4 0.000000 0.000000 0.000000 0.086033 0.000000 -0.030509
# 5 -0.000591 0.005748 -0.002081 0.000000 0.033742 0.000000
# 6 0.000000 0.000000 0.000000 -0.030509 0.000000 0.068353
#
#
# Mechanical properties :
#
#
# Convention : Reuss Voigt Hill
#
# Bulk Modulus (GPa) = 60.04780 63.80007 61.92393
# Shear Modulus (GPa) = 18.59612 23.42156 21.00884
#
# Velocity S-wave (km/s) = 3.13971 3.52360 3.33718
# Velocity P-wave (km/s) = 6.70634 7.09752 6.90470
#
# Compressibility (1/GPa) = 0.01665340
#
# Stress axis : x y z
#
# Youngs Moduli (GPa) = 63.10914 67.42052 65.59027
#
# Poissons Ratio (x) = 0.10414 0.51289
# Poissons Ratio (y) = 0.09748 0.34573
# Poissons Ratio (z) = 0.49349 0.35538
#
# Static dielectric constant tensor:
#      x y z
#    x 3.453400 0.000000 0.185020 
#    y 0.000000 3.403100 0.000000 
#    z 0.185020 0.000000 3.260540 
# 
# 
# High freq. dielectric constant tensor:
#      x y z
#    x 1.727230 0.000000 0.016850 
#    y 0.000000 1.742790 0.000000 
#    z 0.016850 0.000000 1.709070 
# 
# From -- ./inp_files/55062.got.cif
#   From: 2010.06.25/outbox.cif.g09.slc.cpg/sg10_28_cif.got.tgz:55062.got - 2010.06.27 22:07:45.
