data_PCOD8064617
_publ_section_title
;
Structure prediction by ZEFSAII (Michael W. Deem and Ramdas Pophale) SiO2 
 PCOD8064617
Probable space group: P 2/M
;
_chemical_formula_sum "Si O2"
_cell_formula_units_Z 32
_cell_length_a 23.855758
_cell_length_b 8.797158
_cell_length_c 14.381870
_cell_angle_alpha 90.000000
_cell_angle_beta 32.405270
_cell_angle_gamma 90.000000
_cell_volume 1617.477832
_symmetry_space_group_name_H-M "P 2/M"
_symmetry_group_IT_number 10
_symmetry_cell_setting 'monoclinic'
loop_
_space_group_symop_operation_xyz
x,y,z
-x,y,-z
-x,-y,-z
x,-y,z
loop_
_atom_site_type_symbol
_atom_site_label
_atom_site_fract_x
_atom_site_fract_y
_atom_site_fract_z
Si Si1 0.101461 0.679596 0.305327
Si Si2 0.541093 0.819838 0.188951
Si Si3 0.696389 0.820117 0.482388
Si Si4 0.195539 0.818730 0.483015
Si Si5 0.709505 0.319645 0.831168
Si Si6 0.228817 0.824496 0.820367
Si Si7 0.959815 0.825529 0.793309
Si Si8 0.401511 0.677876 0.700464
O O1 0.097720 0.500000 0.306936
O O2 0.203352 0.736340 0.217374
O O3 0.103729 0.740072 0.197823
O O4 0.000000 0.745520 0.500000
O O5 0.422210 0.758939 0.353472
O O6 0.595759 0.768588 0.207351
O O7 0.547360 0.000000 0.171374
O O8 0.598713 0.745018 0.020196
O O9 0.757372 0.755791 0.486326
O O10 0.756449 0.765262 0.305476
O O11 0.695397 0.000000 0.488571
O O12 0.265181 0.748818 0.304342
O O13 0.076120 0.758399 0.644059
O O14 0.200346 0.000000 0.471058
O O15 0.705209 0.500000 0.829500
O O16 0.296943 0.722018 0.793320
O O17 0.265152 0.000000 0.778628
O O18 0.106784 0.806104 0.018590
O O19 0.968186 0.000000 0.752064
O O20 0.500000 0.725167 0.500000
O O21 0.400523 0.500000 0.724996
#
# Coordination Sequence:
#
# PCOD8064617 Si02
#       8
#     4   4   4   4   4   4   4   4
#     4  10  20  36  57  79 110 150 185 221 278 346
#     4  11  22  38  61  86 113 151 192 234 281 337
#     4   9  20  38  60  82 111 151 194 234 280 335
#     4  10  21  39  59  83 113 149 192 238 283 333
#     4  11  23  39  59  85 115 150 188 234 288 341
#     4  10  20  37  59  86 116 151 191 231 281 339
#     4  10  21  34  57  89 116 143 184 237 283 329
#     4  11  22  36  57  87 120 152 186 231 284 337
#
# _framework density 19.783887
#
# number of rings (size 3 to 8) (size 9 to 14) (size 15 to 20)
#    0.000    1.750    2.500    1.875    0.000    5.250 
#    0.000    6.875    0.000    0.000    0.000    2.625 
#    0.000    0.000    0.000    0.000    0.000    0.000 
#
# Total GULP energy -396913.120091 kJ/mol
# GULP energy per Si atom -12403.535003 kJ/mol
# Density = 1.973886 g / cm^3
# Si number density = 19.783887 Si / 1000 Ang^3
#
#
#
# Elastic Constant Matrix: (Units=GPa)
#
#
# Indices 1 2 3 4 5 6 
#
# 1 134.1624 18.4568 47.9504 0.0000 19.5025 0.0000
# 2 18.4568 32.4281 19.8566 0.0000 5.2413 0.0000
# 3 47.9504 19.8566 132.7656 0.0000 25.4503 0.0000
# 4 0.0000 0.0000 0.0000 20.8897 0.0000 -6.3380
# 5 19.5025 5.2413 25.4503 0.0000 22.2357 0.0000
# 6 0.0000 0.0000 0.0000 -6.3380 0.0000 4.8206
#
#
#
# Elastic Compliance Matrix: (Units=1/GPa)
#
#
# Indices 1 2 3 4 5 6 
#
# 1 0.009345 -0.003323 -0.001867 0.000000 -0.005277 0.000000
# 2 -0.003323 0.035265 -0.003894 0.000000 -0.000941 0.000000
# 3 -0.001867 -0.003894 0.010631 0.000000 -0.009613 0.000000
# 4 0.000000 0.000000 0.000000 0.079639 0.000000 0.104706
# 5 -0.005277 -0.000941 -0.009613 0.000000 0.060826 0.000000
# 6 0.000000 0.000000 0.000000 0.104706 0.000000 0.345107
#
#
# Mechanical properties :
#
#
# Convention : Reuss Voigt Hill
#
# Bulk Modulus (GPa) = 26.97241 52.43153 39.70197
# Shear Modulus (GPa) = 8.75138 23.79534 16.27336
#
# Velocity S-wave (km/s) = 2.10549 3.47185 2.87114
# Velocity P-wave (km/s) = 4.42424 6.52927 5.57697
#
# Compressibility (1/GPa) = 0.03707492
#
# Stress axis : x y z
#
# Youngs Moduli (GPa) = 107.00964 28.35665 94.06093
#
# Poissons Ratio (x) = 0.09423 0.17558
# Poissons Ratio (y) = 0.35559 0.36624
# Poissons Ratio (z) = 0.19975 0.11041
#
# Static dielectric constant tensor:
#      x y z
#    x 3.659710 0.000000 0.003500 
#    y 0.000000 3.354570 0.000000 
#    z 0.003500 0.000000 3.848260 
# 
# 
# High freq. dielectric constant tensor:
#      x y z
#    x 1.765750 0.000000 0.005580 
#    y 0.000000 1.751320 0.000000 
#    z 0.005580 0.000000 1.789180 
# 
# From -- ./inp_files/66623.got.cif
#   From: 2010.06.25/outbox.cif.g09.slc.cpg/sg10_34_cif.got.tgz:66623.got - 2010.06.27 22:07:45.
