data_PCOD8064432
_publ_section_title
;
Structure prediction by ZEFSAII (Michael W. Deem and Ramdas Pophale) SiO2 
 PCOD8064432
Probable space group: P 2/M
;
_chemical_formula_sum "Si O2"
_cell_formula_units_Z 28
_cell_length_a 24.937005
_cell_length_b 9.358649
_cell_length_c 7.887891
_cell_angle_alpha 90.000000
_cell_angle_beta 50.755910
_cell_angle_gamma 90.000000
_cell_volume 1425.660667
_symmetry_space_group_name_H-M "P 2/M"
_symmetry_group_IT_number 10
_symmetry_cell_setting 'monoclinic'
loop_
_space_group_symop_operation_xyz
x,y,z
-x,y,-z
-x,-y,-z
x,-y,z
loop_
_atom_site_type_symbol
_atom_site_label
_atom_site_fract_x
_atom_site_fract_y
_atom_site_fract_z
Si Si1 0.921538 0.162430 0.355898
Si Si2 0.577321 0.169734 0.345358
Si Si3 0.921538 0.162430 0.957951
Si Si4 0.795439 0.661926 0.102188
Si Si5 0.669685 0.835115 0.849896
Si Si6 0.204561 0.338074 0.283942
Si Si7 0.669685 0.164885 0.471365
O O1 0.910366 0.180804 0.179269
O O2 0.871171 0.269057 0.554147
O O3 0.905121 0.000000 0.443321
O O4 0.000000 0.201963 0.249674
O O5 0.500000 0.235025 0.500000
O O6 0.615913 0.223839 0.438555
O O7 0.573352 0.000000 0.353295
O O8 0.615913 0.223839 0.097793
O O9 0.871171 0.269057 0.961169
O O10 0.905121 0.000000 0.936196
O O11 0.799231 0.500000 0.162063
O O12 0.741077 0.748726 0.323564
O O13 0.769861 0.666849 0.960278
O O14 0.741077 0.748726 0.712128
O O15 0.637712 0.817324 0.724576
O O16 0.687334 0.000000 0.852517
O O17 0.200769 0.500000 0.358989
O O18 0.687335 0.000000 0.398145
#
# Coordination Sequence:
#
# PCOD8064432 Si02
#       7
#     4   4   4   4   4   4   4
#     4   9  19  36  56  78 105 139 182 231 282 336
#     4   9  18  34  57  87 120 147 176 223 277 326
#     4   9  19  36  56  78 105 139 182 231 282 336
#     4  11  23  36  52  77 110 147 187 232 279 328
#     4  10  20  35  58  85 112 147 188 227 273 330
#     4  11  23  36  52  77 110 147 187 232 279 328
#     4  10  20  35  58  85 112 147 188 227 273 330
#
# _framework density 19.640017
#
# number of rings (size 3 to 8) (size 9 to 14) (size 15 to 20)
#    0.000    2.143    1.429    2.571    0.000    8.000 
#    0.000    7.143    0.000    1.714    0.000    2.000 
#    0.000    0.000    0.000    0.000    0.000    0.000 
#
# Total GULP energy -347234.691405 kJ/mol
# GULP energy per Si atom -12401.238979 kJ/mol
# Density = 1.959532 g / cm^3
# Si number density = 19.640017 Si / 1000 Ang^3
#
#
#
# Elastic Constant Matrix: (Units=GPa)
#
#
# Indices 1 2 3 4 5 6 
#
# 1 111.0986 44.3754 56.6090 0.0000 -5.9922 0.0000
# 2 44.3754 88.3440 45.1145 0.0000 -9.5904 0.0000
# 3 56.6090 45.1145 112.0588 0.0000 -6.4641 0.0000
# 4 0.0000 0.0000 0.0000 12.1152 0.0000 8.3348
# 5 -5.9922 -9.5904 -6.4641 0.0000 33.5991 0.0000
# 6 0.0000 0.0000 0.0000 8.3348 0.0000 12.7575
#
#
#
# Elastic Compliance Matrix: (Units=1/GPa)
#
#
# Indices 1 2 3 4 5 6 
#
# 1 0.013183 -0.004031 -0.005023 0.000000 0.000234 0.000000
# 2 -0.004031 0.015786 -0.004147 0.000000 0.002989 0.000000
# 3 -0.005023 -0.004147 0.013157 0.000000 0.000452 0.000000
# 4 0.000000 0.000000 0.000000 0.149929 0.000000 -0.097953
# 5 0.000234 0.002989 0.000452 0.000000 0.030745 0.000000
# 6 0.000000 0.000000 0.000000 -0.097953 0.000000 0.142380
#
#
# Mechanical properties :
#
#
# Convention : Reuss Voigt Hill
#
# Bulk Modulus (GPa) = 63.59633 67.07771 65.33702
# Shear Modulus (GPa) = 12.60001 22.72119 17.66060
#
# Velocity S-wave (km/s) = 2.53563 3.40499 3.00194
# Velocity P-wave (km/s) = 6.40499 7.04885 6.73462
#
# Compressibility (1/GPa) = 0.01572418
#
# Stress axis : x y z
#
# Youngs Moduli (GPa) = 75.85240 63.34564 76.00492
#
# Poissons Ratio (x) = 0.25537 0.38180
# Poissons Ratio (y) = 0.30579 0.31516
# Poissons Ratio (z) = 0.38104 0.26267
#
# Static dielectric constant tensor:
#      x y z
#    x 3.575080 0.000000 0.006140 
#    y 0.000000 3.381760 0.000000 
#    z 0.006140 0.000000 3.574600 
# 
# 
# High freq. dielectric constant tensor:
#      x y z
#    x 1.765150 0.000000 0.007240 
#    y 0.000000 1.740310 0.000000 
#    z 0.007240 0.000000 1.764600 
# 
# From -- ./inp_files/36957.got.cif
#   From: 2010.06.25/outbox.cif.g09.slc.cpg/sg10_19_cif.got.tgz:36957.got - 2010.06.27 22:07:45.
