data_PCOD8064103
_publ_section_title
;
Structure prediction by ZEFSAII (Michael W. Deem and Ramdas Pophale) SiO2 
 PCOD8064103
Probable space group: P 2/M
;
_chemical_formula_sum "Si O2"
_cell_formula_units_Z 32
_cell_length_a 27.931259
_cell_length_b 9.190174
_cell_length_c 21.692811
_cell_angle_alpha 90.000000
_cell_angle_beta 18.773824
_cell_angle_gamma 90.000000
_cell_volume 1792.094439
_symmetry_space_group_name_H-M "P 2/M"
_symmetry_group_IT_number 10
_symmetry_cell_setting 'monoclinic'
loop_
_space_group_symop_operation_xyz
x,y,z
-x,y,-z
-x,-y,-z
x,-y,z
loop_
_atom_site_type_symbol
_atom_site_label
_atom_site_fract_x
_atom_site_fract_y
_atom_site_fract_z
Si Si1 0.857694 0.670185 0.066771
Si Si2 0.815667 0.172053 0.474749
Si Si3 0.341545 0.668101 0.573042
Si Si4 0.316701 0.330734 0.841654
Si Si5 0.834439 0.827012 0.314376
Si Si6 0.342169 0.173617 0.213988
Si Si7 0.047278 0.827515 0.508122
Si Si8 0.886618 0.828872 0.825089
O O1 0.897324 0.500000 0.015780
O O2 0.749507 0.705826 0.254992
O O3 0.776210 0.723529 0.104185
O O4 0.006592 0.760442 0.896332
O O5 0.782866 0.225097 0.445515
O O6 0.691217 0.227749 0.675185
O O7 0.977811 0.228114 0.297673
O O8 0.819235 0.000000 0.474072
O O9 0.320689 0.500000 0.579616
O O10 0.511963 0.706123 0.379258
O O11 0.289148 0.768911 0.581194
O O12 0.292275 0.500000 0.882169
O O13 0.262137 0.249441 0.969926
O O14 0.846015 0.000000 0.295836
O O15 0.210015 0.230736 0.330345
O O16 0.347451 0.000000 0.205285
O O17 0.500000 0.240145 0.000000
O O18 0.000000 0.758832 0.500000
O O19 0.922315 0.784816 0.710928
O O20 0.056997 0.000000 0.491265
O O21 0.862369 0.000000 0.860693
#
# Coordination Sequence:
#
# PCOD8064103 Si02
#       8
#     4   4   4   4   4   4   4   4
#     4  10  20  36  58  76  93 128 174 212 250 298
#     4   8  15  28  45  67  98 132 160 195 242 290
#     4  10  22  38  52  72 103 132 164 212 258 296
#     4  10  20  35  55  76  98 128 171 213 252 298
#     4  11  21  34  52  76 107 135 164 203 252 304
#     4   8  13  23  40  61  90 126 160 192 231 279
#     4   8  14  25  42  67  96 126 160 197 238 286
#     4   9  16  30  51  72 101 134 162 201 251 295
#
# _framework density 17.856200999999999
#
# number of rings (size 3 to 8) (size 9 to 14) (size 15 to 20)
#    0.000    2.750    1.250    2.625    0.000    4.000 
#    2.250    0.000    0.000    2.625    0.000    0.000 
#    0.000    4.500    0.000    0.000    0.000    0.000 
#
# Total GULP energy -396688.798613 kJ/mol
# GULP energy per Si atom -12396.524957 kJ/mol
# Density = 1.781556 g / cm^3
# Si number density = 17.856201 Si / 1000 Ang^3
#
#
#
# Elastic Constant Matrix: (Units=GPa)
#
#
# Indices 1 2 3 4 5 6 
#
# 1 109.9652 25.4041 40.6654 0.0000 16.0129 0.0000
# 2 25.4041 27.6672 21.9653 0.0000 4.4339 0.0000
# 3 40.6654 21.9653 104.2451 0.0000 19.3278 0.0000
# 4 0.0000 0.0000 0.0000 17.7674 0.0000 -2.6384
# 5 16.0129 4.4339 19.3278 0.0000 27.6804 0.0000
# 6 0.0000 0.0000 0.0000 -2.6384 0.0000 12.9915
#
#
#
# Elastic Compliance Matrix: (Units=1/GPa)
#
#
# Indices 1 2 3 4 5 6 
#
# 1 0.012658 -0.009182 -0.002203 0.000000 -0.004313 0.000000
# 2 -0.009182 0.050076 -0.007429 0.000000 0.002478 0.000000
# 3 -0.002203 -0.007429 0.013280 0.000000 -0.006808 0.000000
# 4 0.000000 0.000000 0.000000 0.058033 0.000000 0.011786
# 5 -0.004313 0.002478 -0.006808 0.000000 0.042979 0.000000
# 6 0.000000 0.000000 0.000000 0.011786 0.000000 0.079367
#
#
# Mechanical properties :
#
#
# Convention : Reuss Voigt Hill
#
# Bulk Modulus (GPa) = 26.05193 46.43856 36.24524
# Shear Modulus (GPa) = 16.29642 21.94403 19.12022
#
# Velocity S-wave (km/s) = 3.02428 3.50941 3.27584
# Velocity P-wave (km/s) = 5.17847 6.51803 5.88648
#
# Compressibility (1/GPa) = 0.03838488
#
# Stress axis : x y z
#
# Youngs Moduli (GPa) = 79.00205 19.96981 75.30188
#
# Poissons Ratio (x) = 0.18336 0.16592
# Poissons Ratio (y) = 0.72540 0.55941
# Poissons Ratio (z) = 0.17407 0.14835
#
# Static dielectric constant tensor:
#      x y z
#    x 3.572840 0.000000 0.145400 
#    y 0.000000 2.888020 0.000000 
#    z 0.145400 0.000000 3.455270 
# 
# 
# High freq. dielectric constant tensor:
#      x y z
#    x 1.694880 0.000000 0.011430 
#    y 0.000000 1.646140 0.000000 
#    z 0.011430 0.000000 1.695520 
# 
# From -- ./inp_files/86774.got.cif
#   From: 2010.06.25/outbox.cif.g09.slc.cpg/sg10_44_cif.got.tgz:86774.got - 2010.06.27 22:07:45.
