data_PCOD8064295
_publ_section_title
;
Structure prediction by ZEFSAII (Michael W. Deem and Ramdas Pophale) SiO2 
 PCOD8064295
Probable space group: P 2/M
;
_chemical_formula_sum "Si O2"
_cell_formula_units_Z 20
_cell_length_a 7.806955
_cell_length_b 24.694820
_cell_length_c 8.688766
_cell_angle_alpha 90.000000
_cell_angle_beta 35.687637
_cell_angle_gamma 90.000000
_cell_volume 977.207371
_symmetry_space_group_name_H-M "P 2/M"
_symmetry_group_IT_number 10
_symmetry_cell_setting 'monoclinic'
loop_
_space_group_symop_operation_xyz
x,y,z
-x,y,-z
-x,-y,-z
x,-y,z
loop_
_atom_site_type_symbol
_atom_site_label
_atom_site_fract_x
_atom_site_fract_y
_atom_site_fract_z
Si Si1 0.342160 0.557076 0.776853
Si Si2 0.345785 0.124858 0.448529
Si Si3 0.844514 0.060752 0.949233
Si Si4 0.344052 0.674614 0.776484
Si Si5 0.333436 0.234233 0.275642
O O1 0.500000 0.557267 0.500000
O O2 0.432785 0.500000 0.798504
O O3 0.412542 0.615129 0.804522
O O4 0.000000 0.555430 0.000000
O O5 0.500000 0.129526 0.500000
O O6 0.312805 0.184584 0.407598
O O7 0.027037 0.097606 0.697494
O O8 0.525469 0.087088 0.200261
O O9 0.813736 0.000000 0.905726
O O10 0.000000 0.058923 0.000000
O O11 0.500000 0.681007 0.500000
O O12 0.466555 0.718174 0.804367
O O13 0.000000 0.684297 0.000000
O O14 0.000000 0.255683 0.500000
O O15 0.500000 0.215262 0.000000
#
# Coordination Sequence:
#
# PCOD8064295 Si02
#       5
#     4   4   4   4   4
#     4   8  14  26  48  79 108 133 170 224 274 313
#     4  10  20  35  57  80 104 139 181 219 261 322
#     4   9  17  31  55  85 108 128 167 224 272 312
#     4  10  20  36  59  83 108 143 189 230 267 323
#     4  12  25  39  55  78 114 150 183 228 278 322
#
# _framework density 20.466487000000001
#
# number of rings (size 3 to 8) (size 9 to 14) (size 15 to 20)
#    0.000    2.200    0.000    3.600    0.000    4.800 
#    0.000    0.000    0.000   13.200    0.000    0.000 
#    0.000    0.000    0.000    0.000    0.000    0.000 
#
# Total GULP energy -247805.938757 kJ/mol
# GULP energy per Si atom -12390.296938 kJ/mol
# Density = 2.041990 g / cm^3
# Si number density = 20.466487 Si / 1000 Ang^3
#
#
#
# Elastic Constant Matrix: (Units=GPa)
#
#
# Indices 1 2 3 4 5 6 
#
# 1 40.9726 44.4231 31.8084 0.0000 -12.0673 0.0000
# 2 44.4231 204.6703 53.3230 0.0000 -2.4974 0.0000
# 3 31.8084 53.3230 164.5932 0.0000 -17.3333 0.0000
# 4 0.0000 0.0000 0.0000 30.9979 0.0000 -5.6758
# 5 -12.0673 -2.4974 -17.3333 0.0000 22.1244 0.0000
# 6 0.0000 0.0000 0.0000 -5.6758 0.0000 -6.6474
#
#
#
# Elastic Compliance Matrix: (Units=1/GPa)
#
#
# Indices 1 2 3 4 5 6 
#
# 1 0.041058 -0.007789 -0.003429 0.000000 0.018829 0.000000
# 2 -0.007789 0.006827 -0.001169 0.000000 -0.004394 0.000000
# 3 -0.003429 -0.001169 0.007527 0.000000 0.003895 0.000000
# 4 0.000000 0.000000 0.000000 0.027899 0.000000 -0.023821
# 5 0.018829 -0.004394 0.003895 0.000000 0.058025 0.000000
# 6 0.000000 0.000000 0.000000 -0.023821 0.000000 -0.130096
#
#
# Mechanical properties :
#
#
# Convention : Reuss Voigt Hill
#
# Bulk Modulus (GPa) = 32.63717 74.37169 53.50443
# Shear Modulus (GPa) = 108.16374 28.00708 68.08541
#
# Velocity S-wave (km/s) = 7.27763 3.70325 5.77399
# Velocity P-wave (km/s) = 9.30590 7.39612 8.40543
#
# Compressibility (1/GPa) = 0.03063991
#
# Stress axis : x y z
#
# Youngs Moduli (GPa) = 24.35559 146.46767 132.85123
#
# Poissons Ratio (x) = 1.14078 0.45549
# Poissons Ratio (y) = 0.18970 0.15535
# Poissons Ratio (z) = 0.08350 0.17128
#
# Static dielectric constant tensor:
#      x y z
#    x 3.241830 0.000000 -0.155500 
#    y 0.000000 4.395350 0.000000 
#    z -0.155500 0.000000 3.983420 
# 
# 
# High freq. dielectric constant tensor:
#      x y z
#    x 1.742230 0.000000 -0.015350 
#    y 0.000000 1.827790 0.000000 
#    z -0.015350 0.000000 1.827020 
# 
# From -- ./inp_files/4836.got.cif
#   From: 2010.06.25/outbox.cif.g09.slc.cpg/sg10_3_cif.got.tgz:4836.got - 2010.06.27 22:07:45.
