data_PCOD8064272
_publ_section_title
;
Structure prediction by ZEFSAII (Michael W. Deem and Ramdas Pophale) SiO2 
 PCOD8064272
Probable space group: P 2/M
;
_chemical_formula_sum "Si O2"
_cell_formula_units_Z 32
_cell_length_a 31.519620
_cell_length_b 8.904214
_cell_length_c 12.725195
_cell_angle_alpha 90.000000
_cell_angle_beta 153.432854
_cell_angle_gamma 90.000000
_cell_volume 1597.304671
_symmetry_space_group_name_H-M "P 2/M"
_symmetry_group_IT_number 10
_symmetry_cell_setting 'monoclinic'
loop_
_space_group_symop_operation_xyz
x,y,z
-x,y,-z
-x,-y,-z
x,-y,z
loop_
_atom_site_type_symbol
_atom_site_label
_atom_site_fract_x
_atom_site_fract_y
_atom_site_fract_z
Si Si1 0.084957 0.172518 0.478405
Si Si2 0.217124 0.322634 0.941678
Si Si3 0.869286 0.827715 0.049087
Si Si4 0.606913 0.176156 0.755127
Si Si5 0.356424 0.668330 0.951134
Si Si6 0.410883 0.825570 0.872294
Si Si7 0.858315 0.668724 0.597754
Si Si8 0.202555 0.175232 0.335801
O O1 0.158903 0.261502 0.713539
O O2 0.080283 0.237537 0.349966
O O3 0.982158 0.188174 0.302152
O O4 0.117625 0.000000 0.545689
O O5 0.218845 0.500000 0.936165
O O6 0.171574 0.275674 0.950348
O O7 0.324350 0.260535 0.174455
O O8 0.839000 0.000000 0.002296
O O9 0.827631 0.769262 0.846394
O O10 0.500000 0.231157 0.500000
O O11 0.617996 0.000000 0.761092
O O12 0.635287 0.217052 0.935583
O O13 0.388359 0.500000 0.053698
O O14 0.421578 0.728187 0.001137
O O15 0.249115 0.670127 0.677099
O O16 0.313707 0.787262 0.595908
O O17 0.413968 0.000000 0.910255
O O18 0.500000 0.778797 0.000000
O O19 0.898774 0.500000 0.693532
O O20 0.863376 0.741659 0.724622
O O21 0.181597 0.000000 0.302502
#
# Coordination Sequence:
#
# PCOD8064272 Si02
#       8
#     4   4   4   4   4   4   4   4
#     4  11  22  38  63  88 115 157 208 253 298 358
#     4  12  25  41  62  89 122 158 197 248 308 364
#     4  10  23  41  60  86 120 162 207 251 300 359
#     4  11  24  41  63  89 116 153 199 244 293 353
#     4  10  20  35  56  83 116 151 188 239 297 351
#     4   9  18  33  56  84 112 150 199 244 289 350
#     4  10  20  35  58  87 118 152 193 244 302 358
#     4   9  19  37  58  81 116 156 197 247 300 355
#
# _framework density 20.033749
#
# number of rings (size 3 to 8) (size 9 to 14) (size 15 to 20)
#    0.000    1.750    1.250    3.000    0.000    6.750 
#    0.000    5.000    0.000    0.000    0.000    0.000 
#    0.000    0.000    0.000    0.000    0.000    0.000 
#
# Total GULP energy -396928.101009 kJ/mol
# GULP energy per Si atom -12404.003157 kJ/mol
# Density = 1.998815 g / cm^3
# Si number density = 20.033749 Si / 1000 Ang^3
#
#
#
# Elastic Constant Matrix: (Units=GPa)
#
#
# Indices 1 2 3 4 5 6 
#
# 1 129.9654 57.7734 32.0575 0.0000 2.7286 0.0000
# 2 57.7734 114.2150 33.2340 0.0000 5.7795 0.0000
# 3 32.0575 33.2340 54.2260 0.0000 0.4840 0.0000
# 4 0.0000 0.0000 0.0000 14.8860 0.0000 -2.4122
# 5 2.7286 5.7795 0.4840 0.0000 28.9948 0.0000
# 6 0.0000 0.0000 0.0000 -2.4122 0.0000 26.6832
#
#
#
# Elastic Compliance Matrix: (Units=1/GPa)
#
#
# Indices 1 2 3 4 5 6 
#
# 1 0.010469 -0.004248 -0.003584 0.000000 -0.000079 0.000000
# 2 -0.004248 0.012499 -0.005131 0.000000 -0.002006 0.000000
# 3 -0.003584 -0.005131 0.023696 0.000000 0.000965 0.000000
# 4 0.000000 0.000000 0.000000 0.068176 0.000000 0.006163
# 5 -0.000079 -0.002006 0.000965 0.000000 0.034880 0.000000
# 6 0.000000 0.000000 0.000000 0.006163 0.000000 0.038034
#
#
# Mechanical properties :
#
#
# Convention : Reuss Voigt Hill
#
# Bulk Modulus (GPa) = 48.22396 60.50403 54.36400
# Shear Modulus (GPa) = 22.66613 25.80223 24.23418
#
# Velocity S-wave (km/s) = 3.36727 3.59268 3.48180
# Velocity P-wave (km/s) = 6.26432 6.89031 6.58476
#
# Compressibility (1/GPa) = 0.02073658
#
# Stress axis : x y z
#
# Youngs Moduli (GPa) = 95.52293 80.00739 42.20059
#
# Poissons Ratio (x) = 0.33990 0.15127
# Poissons Ratio (y) = 0.40582 0.21652
# Poissons Ratio (z) = 0.34240 0.41050
#
# Static dielectric constant tensor:
#      x y z
#    x 3.783730 0.000000 -0.004080 
#    y 0.000000 3.718910 0.000000 
#    z -0.004080 0.000000 3.655270 
# 
# 
# High freq. dielectric constant tensor:
#      x y z
#    x 1.792810 0.000000 0.000910 
#    y 0.000000 1.783790 0.000000 
#    z 0.000910 0.000000 1.773920 
# 
# From -- ./inp_files/58236.got.cif
#   From: 2010.06.25/outbox.cif.g09.slc.cpg/sg10_30_cif.got.tgz:58236.got - 2010.06.27 22:07:45.
