data_PCOD8064384
_publ_section_title
;
Structure prediction by ZEFSAII (Michael W. Deem and Ramdas Pophale) SiO2 
 PCOD8064384
Probable space group: P 2/M
;
_chemical_formula_sum "Si O2"
_cell_formula_units_Z 28
_cell_length_a 27.116022
_cell_length_b 9.057835
_cell_length_c 9.737711
_cell_angle_alpha 90.000000
_cell_angle_beta 38.053781
_cell_angle_gamma 90.000000
_cell_volume 1474.247874
_symmetry_space_group_name_H-M "P 2/M"
_symmetry_group_IT_number 10
_symmetry_cell_setting 'monoclinic'
loop_
_space_group_symop_operation_xyz
x,y,z
-x,y,-z
-x,-y,-z
x,-y,z
loop_
_atom_site_type_symbol
_atom_site_label
_atom_site_fract_x
_atom_site_fract_y
_atom_site_fract_z
Si Si1 0.431271 0.168344 0.247270
Si Si2 0.723308 0.670747 0.507395
Si Si3 0.466765 0.831091 0.717632
Si Si4 0.304703 0.673986 0.124519
Si Si5 0.816959 0.824689 0.807149
Si Si6 0.988406 0.837706 0.363882
Si Si7 0.857359 0.672117 0.000298
O O1 0.347888 0.249220 0.414679
O O2 0.458389 0.182388 0.344587
O O3 0.417602 0.000000 0.231232
O O4 0.500000 0.239110 0.000000
O O5 0.701956 0.500000 0.546881
O O6 0.731716 0.719644 0.647648
O O7 0.805467 0.707309 0.248984
O O8 0.500000 0.775777 0.500000
O O9 0.435308 0.000000 0.779706
O O10 0.396374 0.724667 0.921425
O O11 0.299087 0.500000 0.110547
O O12 0.258234 0.757751 0.106361
O O13 0.896806 0.783882 0.543753
O O14 0.820634 0.758387 0.951808
O O15 0.807572 0.000000 0.842335
O O16 0.000000 0.849630 0.500000
O O17 0.052369 0.724017 0.160684
O O18 0.001816 0.000000 0.268287
O O19 0.858801 0.500000 0.960753
#
# Coordination Sequence:
#
# PCOD8064384 Si02
#       7
#     4   4   4   4   4   4   4
#     4  10  20  36  58  81 105 142 188 225 267 325
#     4  10  23  39  55  80 115 149 183 226 274 326
#     4  10  22  39  57  81 112 143 181 229 277 326
#     4  11  23  39  57  80 112 150 187 225 276 329
#     4  10  21  37  58  83 113 146 183 230 278 325
#     4   8  16  33  55  81 111 144 182 225 274 324
#     4  10  20  35  57  86 114 144 184 227 272 328
#
# _framework density 18.992735
#
# number of rings (size 3 to 8) (size 9 to 14) (size 15 to 20)
#    0.000    2.143    1.429    2.143    2.000    6.000 
#    0.000    0.714    0.000    4.286    0.000    0.000 
#    0.000    0.000    0.000    0.000    0.000    0.000 
#
# Total GULP energy -347206.884668 kJ/mol
# GULP energy per Si atom -12400.245881 kJ/mol
# Density = 1.894951 g / cm^3
# Si number density = 18.992735 Si / 1000 Ang^3
#
#
#
# Elastic Constant Matrix: (Units=GPa)
#
#
# Indices 1 2 3 4 5 6 
#
# 1 43.8947 22.2097 13.8463 0.0000 6.2763 0.0000
# 2 22.2097 74.2464 45.0056 0.0000 1.4795 0.0000
# 3 13.8463 45.0056 104.7330 0.0000 9.6605 0.0000
# 4 0.0000 0.0000 0.0000 31.0322 0.0000 -10.6418
# 5 6.2763 1.4795 9.6605 0.0000 29.2208 0.0000
# 6 0.0000 0.0000 0.0000 -10.6418 0.0000 -23.6058
#
#
#
# Elastic Compliance Matrix: (Units=1/GPa)
#
#
# Indices 1 2 3 4 5 6 
#
# 1 0.027731 -0.008489 0.000507 0.000000 -0.005694 0.000000
# 2 -0.008489 0.020895 -0.008177 0.000000 0.003469 0.000000
# 3 0.000507 -0.008177 0.013374 0.000000 -0.004117 0.000000
# 4 0.000000 0.000000 0.000000 0.027910 0.000000 -0.012582
# 5 -0.005694 0.003469 -0.004117 0.000000 0.036631 0.000000
# 6 0.000000 0.000000 0.000000 -0.012582 0.000000 -0.036690
#
#
# Mechanical properties :
#
#
# Convention : Reuss Voigt Hill
#
# Bulk Modulus (GPa) = 33.68908 42.77748 38.23328
# Shear Modulus (GPa) = 37.86037 16.78359 27.32198
#
# Velocity S-wave (km/s) = 4.46961 2.97591 3.79694
# Velocity P-wave (km/s) = 6.66430 5.86345 6.27666
#
# Compressibility (1/GPa) = 0.02968321
#
# Stress axis : x y z
#
# Youngs Moduli (GPa) = 36.06013 47.85725 74.76926
#
# Poissons Ratio (x) = 0.40627 -0.03791
# Poissons Ratio (y) = 0.30613 0.61137
# Poissons Ratio (z) = -0.01828 0.39132
#
# Static dielectric constant tensor:
#      x y z
#    x 3.445820 0.000000 -0.105410 
#    y 0.000000 3.481910 0.000000 
#    z -0.105410 0.000000 3.604680 
# 
# 
# High freq. dielectric constant tensor:
#      x y z
#    x 1.728580 0.000000 -0.007490 
#    y 0.000000 1.738150 0.000000 
#    z -0.007490 0.000000 1.739810 
# 
# From -- ./inp_files/36998.got.cif
#   From: 2010.06.25/outbox.cif.g09.slc.cpg/sg10_19_cif.got.tgz:36998.got - 2010.06.27 22:07:45.
