data_PCOD8064512
_publ_section_title
;
Structure prediction by ZEFSAII (Michael W. Deem and Ramdas Pophale) SiO2 
 PCOD8064512
Probable space group: P 2/M
;
_chemical_formula_sum "Si O2"
_cell_formula_units_Z 32
_cell_length_a 15.556701
_cell_length_b 8.882658
_cell_length_c 26.261255
_cell_angle_alpha 90.000000
_cell_angle_beta 26.990583
_cell_angle_gamma 90.000000
_cell_volume 1646.958169
_symmetry_space_group_name_H-M "P 2/M"
_symmetry_group_IT_number 10
_symmetry_cell_setting 'monoclinic'
loop_
_space_group_symop_operation_xyz
x,y,z
-x,y,-z
-x,-y,-z
x,-y,z
loop_
_atom_site_type_symbol
_atom_site_label
_atom_site_fract_x
_atom_site_fract_y
_atom_site_fract_z
Si Si1 0.373340 0.326645 0.490650
Si Si2 0.846198 0.822352 0.042636
Si Si3 0.771868 0.677758 0.719746
Si Si4 0.176897 0.824208 0.501824
Si Si5 0.871009 0.177844 0.916272
Si Si6 0.779212 0.327406 0.318712
Si Si7 0.507829 0.821803 0.937445
Si Si8 0.418239 0.175470 0.275820
O O1 0.350359 0.500000 0.485867
O O2 0.300310 0.216481 0.485725
O O3 0.591883 0.287741 0.385640
O O4 0.252856 0.295754 0.604925
O O5 0.635733 0.782333 0.173029
O O6 0.875852 0.000000 0.024820
O O7 0.881161 0.754411 0.967898
O O8 0.000000 0.750054 0.000000
O O9 0.767363 0.500000 0.725675
O O10 0.688653 0.745467 0.815724
O O11 0.649140 0.730391 0.736744
O O12 0.986297 0.730105 0.600362
O O13 0.295912 0.780755 0.389214
O O14 0.127742 0.000000 0.528857
O O15 0.053201 0.222190 0.788041
O O16 0.859248 0.000000 0.924479
O O17 0.682245 0.239652 0.988961
O O18 0.835564 0.500000 0.280094
O O19 0.530437 0.000000 0.920149
O O20 0.500000 0.771062 0.000000
O O21 0.398473 0.000000 0.272159
#
# Coordination Sequence:
#
# PCOD8064512 Si02
#       8
#     4   4   4   4   4   4   4   4
#     4   9  20  40  59  82 118 162 198 237 295 350
#     4   9  18  34  59  87 118 152 188 237 295 350
#     4  12  25  41  62  87 119 156 195 242 298 361
#     4  11  24  38  62  91 116 150 199 252 298 350
#     4  10  20  35  60  90 118 152 196 247 294 346
#     4   9  20  38  59  81 119 163 196 235 291 356
#     4  10  22  41  63  88 121 158 198 248 299 347
#     4  10  21  41  63  85 116 155 197 242 297 352
#
# _framework density 19.429760000000002
#
# number of rings (size 3 to 8) (size 9 to 14) (size 15 to 20)
#    0.000    2.000    1.250    2.625    3.500    4.250 
#    0.000    1.250    0.000    0.750    0.000    0.000 
#    0.000    0.000    0.000    0.000    0.000    0.000 
#
# Total GULP energy -396899.148044 kJ/mol
# GULP energy per Si atom -12403.098376 kJ/mol
# Density = 1.938554 g / cm^3
# Si number density = 19.429760 Si / 1000 Ang^3
#
#
#
# Elastic Constant Matrix: (Units=GPa)
#
#
# Indices 1 2 3 4 5 6 
#
# 1 129.1273 40.1860 53.2955 0.0000 11.6357 0.0000
# 2 40.1860 44.8414 38.0718 0.0000 4.7424 0.0000
# 3 53.2955 38.0718 142.5407 0.0000 6.9589 0.0000
# 4 0.0000 0.0000 0.0000 17.0787 0.0000 -4.3187
# 5 11.6357 4.7424 6.9589 0.0000 26.3387 0.0000
# 6 0.0000 0.0000 0.0000 -4.3187 0.0000 25.6735
#
#
#
# Elastic Compliance Matrix: (Units=1/GPa)
#
#
# Indices 1 2 3 4 5 6 
#
# 1 0.011371 -0.008258 -0.001898 0.000000 -0.003035 0.000000
# 2 -0.008258 0.035107 -0.006239 0.000000 -0.001024 0.000000
# 3 -0.001898 -0.006239 0.009417 0.000000 -0.000526 0.000000
# 4 0.000000 0.000000 0.000000 0.061154 0.000000 0.010287
# 5 -0.003035 -0.001024 -0.000526 0.000000 0.039631 0.000000
# 6 0.000000 0.000000 0.000000 0.010287 0.000000 0.040681
#
#
# Mechanical properties :
#
#
# Convention : Reuss Voigt Hill
#
# Bulk Modulus (GPa) = 43.28017 64.40176 53.84097
# Shear Modulus (GPa) = 21.02128 26.14860 23.58494
#
# Velocity S-wave (km/s) = 3.29281 3.67250 3.48782
# Velocity P-wave (km/s) = 6.06468 7.15548 6.63254
#
# Compressibility (1/GPa) = 0.02310527
#
# Stress axis : x y z
#
# Youngs Moduli (GPa) = 87.94186 28.48398 106.18837
#
# Poissons Ratio (x) = 0.23523 0.20151
# Poissons Ratio (y) = 0.72626 0.66253
# Poissons Ratio (z) = 0.16689 0.17772
#
# Static dielectric constant tensor:
#      x y z
#    x 3.751120 0.000000 0.007710 
#    y 0.000000 3.273160 0.000000 
#    z 0.007710 0.000000 3.643590 
# 
# 
# High freq. dielectric constant tensor:
#      x y z
#    x 1.767640 0.000000 -0.000060 
#    y 0.000000 1.732600 0.000000 
#    z -0.000060 0.000000 1.770920 
# 
# From -- ./inp_files/89357.got.cif
#   From: 2010.06.25/outbox.cif.g09.slc.cpg/sg10_45_cif.got.tgz:89357.got - 2010.06.27 22:07:45.
