data_PCOD8064202
_publ_section_title
;
Structure prediction by ZEFSAII (Michael W. Deem and Ramdas Pophale) SiO2 
 PCOD8064202
Probable space group: P 2/M
;
_chemical_formula_sum "Si O2"
_cell_formula_units_Z 28
_cell_length_a 20.268564
_cell_length_b 9.296121
_cell_length_c 23.183272
_cell_angle_alpha 90.000000
_cell_angle_beta 160.272438
_cell_angle_gamma 90.000000
_cell_volume 1474.467356
_symmetry_space_group_name_H-M "P 2/M"
_symmetry_group_IT_number 10
_symmetry_cell_setting 'monoclinic'
loop_
_space_group_symop_operation_xyz
x,y,z
-x,y,-z
-x,-y,-z
x,-y,z
loop_
_atom_site_type_symbol
_atom_site_label
_atom_site_fract_x
_atom_site_fract_y
_atom_site_fract_z
Si Si1 0.199851 0.846167 0.693186
Si Si2 0.117431 0.665304 0.246022
Si Si3 0.333852 0.667163 0.110512
Si Si4 0.805821 0.829690 0.805769
Si Si5 0.554910 0.169301 0.908571
Si Si6 0.498309 0.665174 0.626658
Si Si7 0.700447 0.336935 0.129130
O O1 0.347029 0.789308 0.765268
O O2 0.149400 0.734407 0.702708
O O3 0.000000 0.880296 0.500000
O O4 0.282327 0.000000 0.785578
O O5 0.122393 0.500000 0.229042
O O6 0.189444 0.766248 0.254113
O O7 0.265797 0.687471 0.422487
O O8 0.895695 0.708536 0.079151
O O9 0.362036 0.500000 0.118565
O O10 0.439807 0.764225 0.150427
O O11 0.443250 0.706602 0.260085
O O12 0.617156 0.767077 0.681938
O O13 0.784739 0.000000 0.784411
O O14 0.000000 0.783462 0.000000
O O15 0.597523 0.000000 0.940254
O O16 0.711693 0.248779 0.078860
O O17 0.558291 0.500000 0.664097
O O18 0.756863 0.500000 0.161741
O O19 0.500000 0.320531 0.000000
#
# Coordination Sequence:
#
# PCOD8064202 Si02
#       7
#     4   4   4   4   4   4   4
#     4   9  18  34  55  80 112 143 178 223 271 325
#     4  10  21  38  60  83 108 144 190 230 278 336
#     4  10  21  38  57  78 113 150 184 231 275 326
#     4  11  22  35  56  85 115 146 184 232 283 329
#     4  10  20  35  56  79 107 145 181 217 270 331
#     4  10  21  38  60  83 108 145 189 230 278 333
#     4   9  17  31  53  78 103 133 174 219 262 310
#
# _framework density 18.989909000000001
#
# number of rings (size 3 to 8) (size 9 to 14) (size 15 to 20)
#    0.000    2.143    1.429    1.714    0.000    6.571 
#    2.571    0.000    0.000    0.000    0.000    0.000 
#    0.000    0.000    0.000    0.000    0.000    0.000 
#
# Total GULP energy -347065.033311 kJ/mol
# GULP energy per Si atom -12395.179761 kJ/mol
# Density = 1.894669 g / cm^3
# Si number density = 18.989909 Si / 1000 Ang^3
#
#
#
# Elastic Constant Matrix: (Units=GPa)
#
#
# Indices 1 2 3 4 5 6 
#
# 1 113.1864 61.6619 45.9877 0.0000 -16.8812 0.0000
# 2 61.6619 96.8899 34.6452 0.0000 -12.3551 0.0000
# 3 45.9877 34.6452 110.0177 0.0000 -18.5493 0.0000
# 4 0.0000 0.0000 0.0000 20.4740 0.0000 -5.0911
# 5 -16.8812 -12.3551 -18.5493 0.0000 20.7177 0.0000
# 6 0.0000 0.0000 0.0000 -5.0911 0.0000 28.0584
#
#
#
# Elastic Compliance Matrix: (Units=1/GPa)
#
#
# Indices 1 2 3 4 5 6 
#
# 1 0.015090 -0.007909 -0.002991 0.000000 0.004901 0.000000
# 2 -0.007909 0.016112 -0.001454 0.000000 0.001862 0.000000
# 3 -0.002991 -0.001454 0.012061 0.000000 0.007495 0.000000
# 4 0.000000 0.000000 0.000000 0.051150 0.000000 0.009281
# 5 0.004901 0.001862 0.007495 0.000000 0.060083 0.000000
# 6 0.000000 0.000000 0.000000 0.009281 0.000000 0.037324
#
#
# Mechanical properties :
#
#
# Convention : Reuss Voigt Hill
#
# Bulk Modulus (GPa) = 53.89138 67.18707 60.53922
# Shear Modulus (GPa) = 22.45064 25.70330 24.07697
#
# Velocity S-wave (km/s) = 3.44210 3.68302 3.56460
# Velocity P-wave (km/s) = 6.65116 7.31733 6.99219
#
# Compressibility (1/GPa) = 0.01855584
#
# Stress axis : x y z
#
# Youngs Moduli (GPa) = 66.27047 62.06713 82.91204
#
# Poissons Ratio (x) = 0.49088 0.24796
# Poissons Ratio (y) = 0.52413 0.12053
# Poissons Ratio (z) = 0.19819 0.09023
#
# Static dielectric constant tensor:
#      x y z
#    x 3.320860 0.000000 -0.176870 
#    y 0.000000 3.508110 0.000000 
#    z -0.176870 0.000000 3.546340 
# 
# 
# High freq. dielectric constant tensor:
#      x y z
#    x 1.725290 0.000000 -0.016000 
#    y 0.000000 1.744030 0.000000 
#    z -0.016000 0.000000 1.733660 
# 
# From -- ./inp_files/86536.got.cif
#   From: 2010.06.25/outbox.cif.g09.slc.cpg/sg10_44_cif.got.tgz:86536.got - 2010.06.27 22:07:45.
