data_PCOD8064370
_publ_section_title
;
Structure prediction by ZEFSAII (Michael W. Deem and Ramdas Pophale) SiO2 
 PCOD8064370
Probable space group: P 2/M
;
_chemical_formula_sum "Si O2"
_cell_formula_units_Z 20
_cell_length_a 10.108745
_cell_length_b 16.584084
_cell_length_c 14.413929
_cell_angle_alpha 90.000000
_cell_angle_beta 26.530841
_cell_angle_gamma 90.000000
_cell_volume 1079.361944
_symmetry_space_group_name_H-M "P 2/M"
_symmetry_group_IT_number 10
_symmetry_cell_setting 'monoclinic'
loop_
_space_group_symop_operation_xyz
x,y,z
-x,y,-z
-x,-y,-z
x,-y,z
loop_
_atom_site_type_symbol
_atom_site_label
_atom_site_fract_x
_atom_site_fract_y
_atom_site_fract_z
Si Si1 0.675899 0.090837 0.672901
Si Si2 0.218108 0.500000 0.609758
Si Si3 0.757556 0.910602 0.410127
Si Si4 0.311208 0.383948 0.026020
Si Si5 0.698172 0.802701 0.964888
Si Si6 0.338179 0.500000 0.319610
O O1 0.624786 0.093946 0.595812
O O2 0.000000 0.121216 0.500000
O O3 0.626692 0.000000 0.742245
O O4 0.436274 0.151286 0.863686
O O5 0.500000 0.500000 0.500000
O O6 0.349057 0.500000 0.423817
O O7 0.014411 0.421741 0.756363
O O8 0.500000 0.894416 0.500000
O O9 0.985061 0.838992 0.255114
O O10 0.899144 0.000000 0.305497
O O11 0.268709 0.290510 0.030672
O O12 0.500000 0.400174 0.000000
O O13 0.490352 0.421733 0.827304
O O14 0.500000 0.817245 0.000000
O O15 0.000000 0.500000 0.500000
#
# Coordination Sequence:
#
# PCOD8064370 Si02
#       6
#     4   2   4   4   4   2
#     4  10  20  35  57  85 112 149 200 236 273 337
#     4  11  23  41  63  87 117 149 183 233 286 334
#     4  10  22  39  57  81 116 155 193 235 286 337
#     4  10  22  38  59  92 115 143 197 230 273 353
#     4  11  22  36  59  87 118 148 186 243 286 324
#     4  11  19  39  67  82 111 157 185 226 281 337
#
# _framework density 18.529465999999999
#
# number of rings (size 3 to 8) (size 9 to 14) (size 15 to 20)
#    0.000    1.600    4.000    1.200    0.000    6.400 
#    0.000    5.000    0.000    0.000    0.000    0.000 
#    0.000    0.000    0.000    0.000    0.000    0.000 
#
# Total GULP energy -248037.492058 kJ/mol
# GULP energy per Si atom -12401.874603 kJ/mol
# Density = 1.848729 g / cm^3
# Si number density = 18.529466 Si / 1000 Ang^3
#
#
#
# Elastic Constant Matrix: (Units=GPa)
#
#
# Indices 1 2 3 4 5 6 
#
# 1 124.1118 47.7513 49.2947 0.0000 1.3931 0.0000
# 2 47.7513 151.0161 76.8929 0.0000 -3.2286 0.0000
# 3 49.2947 76.8929 117.0588 0.0000 7.1938 0.0000
# 4 0.0000 0.0000 0.0000 72.1646 0.0000 45.8013
# 5 1.3931 -3.2286 7.1938 0.0000 27.0258 0.0000
# 6 0.0000 0.0000 0.0000 45.8013 0.0000 79.0733
#
#
#
# Elastic Compliance Matrix: (Units=1/GPa)
#
#
# Indices 1 2 3 4 5 6 
#
# 1 0.009901 -0.001502 -0.003193 0.000000 0.000160 0.000000
# 2 -0.001502 0.010419 -0.006397 0.000000 0.003025 0.000000
# 3 -0.003193 -0.006397 0.014361 0.000000 -0.004422 0.000000
# 4 0.000000 0.000000 0.000000 0.021913 0.000000 -0.012693
# 5 0.000160 0.003025 -0.004422 0.000000 0.038532 0.000000
# 6 0.000000 0.000000 0.000000 -0.012693 0.000000 0.019998
#
#
# Mechanical properties :
#
#
# Convention : Reuss Voigt Hill
#
# Bulk Modulus (GPa) = 80.01619 82.22940 81.12279
# Shear Modulus (GPa) = 35.34214 50.20258 42.77236
#
# Velocity S-wave (km/s) = 4.37206 5.21078 4.80973
# Velocity P-wave (km/s) = 8.29237 8.98203 8.64408
#
# Compressibility (1/GPa) = 0.01249747
#
# Stress axis : x y z
#
# Youngs Moduli (GPa) = 100.99572 95.98244 69.63145
#
# Poissons Ratio (x) = 0.14413 0.22234
# Poissons Ratio (y) = 0.15165 0.44545
# Poissons Ratio (z) = 0.32249 0.61402
#
# Static dielectric constant tensor:
#      x y z
#    x 3.352290 0.000000 0.110500 
#    y 0.000000 3.501120 0.000000 
#    z 0.110500 0.000000 3.396410 
# 
# 
# High freq. dielectric constant tensor:
#      x y z
#    x 1.716930 0.000000 0.006340 
#    y 0.000000 1.722960 0.000000 
#    z 0.006340 0.000000 1.722090 
# 
# From -- ./inp_files/7060.got.cif
#   From: 2010.06.25/outbox.cif.g09.slc.cpg/sg10_4_cif.got.tgz:7060.got - 2010.06.27 22:07:45.
