data_PCOD8064515
_publ_section_title
;
Structure prediction by ZEFSAII (Michael W. Deem and Ramdas Pophale) SiO2 
 PCOD8064515
Probable space group: P 2/M
;
_chemical_formula_sum "Si O2"
_cell_formula_units_Z 28
_cell_length_a 29.568715
_cell_length_b 8.392082
_cell_length_c 9.989713
_cell_angle_alpha 90.000000
_cell_angle_beta 146.151043
_cell_angle_gamma 90.000000
_cell_volume 1380.748661
_symmetry_space_group_name_H-M "P 2/M"
_symmetry_group_IT_number 10
_symmetry_cell_setting 'monoclinic'
loop_
_space_group_symop_operation_xyz
x,y,z
-x,y,-z
-x,-y,-z
x,-y,z
loop_
_atom_site_type_symbol
_atom_site_label
_atom_site_fract_x
_atom_site_fract_y
_atom_site_fract_z
Si Si1 0.756394 0.185705 0.117773
Si Si2 0.334237 0.315660 0.344799
Si Si3 0.256588 0.816571 0.408742
Si Si4 0.500447 0.814630 0.654096
Si Si5 0.089659 0.314011 0.071550
Si Si6 0.080647 0.184403 0.339321
Si Si7 0.336243 0.683347 0.861595
O O1 0.850843 0.217306 0.381659
O O2 0.698323 0.275950 0.077945
O O3 0.734488 0.000000 0.069253
O O4 0.739443 0.255627 0.929615
O O5 0.352604 0.500000 0.364778
O O6 0.308906 0.288752 0.435505
O O7 0.414220 0.214892 0.510027
O O8 0.162572 0.766846 0.169938
O O9 0.290541 0.790953 0.640921
O O10 0.264682 0.000000 0.388245
O O11 0.500000 0.754120 0.500000
O O12 0.522554 0.000000 0.715005
O O13 0.567847 0.718251 0.903180
O O14 0.089246 0.500000 0.039947
O O15 0.100652 0.286791 0.257051
O O16 0.005789 0.236886 0.812672
O O17 0.078533 0.000000 0.291168
O O18 0.320176 0.500000 0.786777
#
# Coordination Sequence:
#
# PCOD8064515 Si02
#       7
#     4   4   4   4   4   4   4
#     4  11  22  39  63  93 126 166 210 252 306 372
#     4  12  26  43  65  93 127 163 207 260 316 368
#     4  12  25  44  65  89 127 169 209 252 314 381
#     4  11  23  41  66  93 126 164 209 254 306 370
#     4  11  21  35  59  91 127 161 205 259 313 361
#     4  10  20  35  60  91 125 163 209 254 305 367
#     4  12  24  39  65  96 126 160 208 261 310 361
#
# _framework density 20.278852000000001
#
# number of rings (size 3 to 8) (size 9 to 14) (size 15 to 20)
#    0.000    0.714    2.857    7.286    0.000    2.857 
#    0.000    3.571    0.000    4.286    0.000    0.000 
#    0.000    0.000    0.000    0.000    0.000    0.000 
#
# Total GULP energy -347433.460899 kJ/mol
# GULP energy per Si atom -12408.337889 kJ/mol
# Density = 2.023270 g / cm^3
# Si number density = 20.278852 Si / 1000 Ang^3
#
#
#
# Elastic Constant Matrix: (Units=GPa)
#
#
# Indices 1 2 3 4 5 6 
#
# 1 87.0765 8.7646 21.4991 0.0000 14.9829 0.0000
# 2 8.7646 92.3801 26.0296 0.0000 3.6594 0.0000
# 3 21.4991 26.0296 89.2771 0.0000 16.5038 0.0000
# 4 0.0000 0.0000 0.0000 27.8145 0.0000 -1.7949
# 5 14.9829 3.6594 16.5038 0.0000 28.2071 0.0000
# 6 0.0000 0.0000 0.0000 -1.7949 0.0000 28.9211
#
#
#
# Elastic Compliance Matrix: (Units=1/GPa)
#
#
# Indices 1 2 3 4 5 6 
#
# 1 0.012991 -0.000460 -0.001939 0.000000 -0.005706 0.000000
# 2 -0.000460 0.011817 -0.003472 0.000000 0.000743 0.000000
# 3 -0.001939 -0.003472 0.013911 0.000000 -0.006659 0.000000
# 4 0.000000 0.000000 0.000000 0.036097 0.000000 0.002240
# 5 -0.005706 0.000743 -0.006659 0.000000 0.042283 0.000000
# 6 0.000000 0.000000 0.000000 0.002240 0.000000 0.034716
#
#
# Mechanical properties :
#
#
# Convention : Reuss Voigt Hill
#
# Bulk Modulus (GPa) = 37.06871 42.36891 39.71881
# Shear Modulus (GPa) = 28.97697 31.15122 30.06409
#
# Velocity S-wave (km/s) = 3.78421 3.92362 3.85455
# Velocity P-wave (km/s) = 6.11661 6.43932 6.28004
#
# Compressibility (1/GPa) = 0.02697693
#
# Stress axis : x y z
#
# Youngs Moduli (GPa) = 76.97555 84.62134 71.88356
#
# Poissons Ratio (x) = 0.03893 0.13942
# Poissons Ratio (y) = 0.03541 0.24958
# Poissons Ratio (z) = 0.14929 0.29380
#
# Static dielectric constant tensor:
#      x y z
#    x 3.489340 0.000000 0.216000 
#    y 0.000000 3.700770 0.000000 
#    z 0.216000 0.000000 3.809280 
# 
# 
# High freq. dielectric constant tensor:
#      x y z
#    x 1.774790 0.000000 0.018450 
#    y 0.000000 1.806860 0.000000 
#    z 0.018450 0.000000 1.798820 
# 
# From -- ./inp_files/37353.got.cif
#   From: 2010.06.25/outbox.cif.g09.slc.cpg/sg10_19_cif.got.tgz:37353.got - 2010.06.27 22:07:45.
