data_PCOD8064214
_publ_section_title
;
Structure prediction by ZEFSAII (Michael W. Deem and Ramdas Pophale) SiO2 
 PCOD8064214
Probable space group: P 2/M
;
_chemical_formula_sum "Si O2"
_cell_formula_units_Z 32
_cell_length_a 19.975270
_cell_length_b 8.491304
_cell_length_c 11.322952
_cell_angle_alpha 90.000000
_cell_angle_beta 124.523931
_cell_angle_gamma 90.000000
_cell_volume 1582.325055
_symmetry_space_group_name_H-M "P 2/M"
_symmetry_group_IT_number 10
_symmetry_cell_setting 'monoclinic'
loop_
_space_group_symop_operation_xyz
x,y,z
-x,y,-z
-x,-y,-z
x,-y,z
loop_
_atom_site_type_symbol
_atom_site_label
_atom_site_fract_x
_atom_site_fract_y
_atom_site_fract_z
Si Si1 0.746318 0.317747 0.271441
Si Si2 0.595009 0.821349 0.527792
Si Si3 0.565176 0.682645 0.729678
Si Si4 0.053350 0.813926 0.872906
Si Si5 0.080479 0.315744 0.646794
Si Si6 0.888513 0.186159 0.824536
Si Si7 0.578249 0.185349 0.004031
Si Si8 0.251937 0.820321 0.477948
O O1 0.739198 0.500000 0.230508
O O2 0.832469 0.245943 0.310335
O O3 0.665906 0.233432 0.142502
O O4 0.748085 0.296075 0.412870
O O5 0.623464 0.759243 0.686347
O O6 0.525366 0.709029 0.407950
O O7 0.662422 0.813526 0.497364
O O8 0.563742 0.000000 0.509793
O O9 0.585354 0.500000 0.763992
O O10 0.575856 0.762980 0.866424
O O11 0.076802 0.718031 0.781236
O O12 0.965780 0.753562 0.828686
O O13 0.056015 0.000000 0.848055
O O14 0.113811 0.763160 0.040071
O O15 0.081218 0.500000 0.621961
O O16 0.000000 0.242951 0.500000
O O17 0.810140 0.250339 0.679634
O O18 0.892916 0.000000 0.828761
O O19 0.572432 0.000000 0.004880
O O20 0.500000 0.254778 0.000000
O O21 0.230277 0.000000 0.494420
#
# Coordination Sequence:
#
# PCOD8064214 Si02
#       8
#     4   4   4   4   4   4   4   4
#     4  11  24  39  57  84 116 151 192 237 283 337
#     4  10  20  35  56  82 112 147 187 231 280 336
#     4  11  22  37  58  83 112 146 185 230 281 336
#     4   9  17  32  56  81 106 141 185 230 275 327
#     4  10  22  39  56  79 117 157 189 229 281 334
#     4   8  16  32  53  80 110 137 175 230 283 328
#     4  11  24  42  63  85 113 151 191 235 289 345
#     4  10  20  35  56  80 108 143 183 229 280 333
#
# _framework density 20.223403999999999
#
# number of rings (size 3 to 8) (size 9 to 14) (size 15 to 20)
#    0.000    2.000    0.000    5.250    0.000    7.250 
#    0.000    3.125    0.000    0.000    0.000    0.000 
#    0.000    0.000    0.000    0.000    0.000    0.000 
#
# Total GULP energy -396563.795539 kJ/mol
# GULP energy per Si atom -12392.618611 kJ/mol
# Density = 2.017737 g / cm^3
# Si number density = 20.223404 Si / 1000 Ang^3
#
#
#
# Elastic Constant Matrix: (Units=GPa)
#
#
# Indices 1 2 3 4 5 6 
#
# 1 115.4660 20.8444 53.2093 0.0000 -11.1831 0.0000
# 2 20.8444 42.8632 14.3542 0.0000 2.2121 0.0000
# 3 53.2093 14.3542 111.3958 0.0000 -10.4553 0.0000
# 4 0.0000 0.0000 0.0000 -43.1379 0.0000 68.1035
# 5 -11.1831 2.2121 -10.4553 0.0000 36.3329 0.0000
# 6 0.0000 0.0000 0.0000 68.1035 0.0000 -91.6463
#
#
#
# Elastic Compliance Matrix: (Units=1/GPa)
#
#
# Indices 1 2 3 4 5 6 
#
# 1 0.011945 -0.004293 -0.004916 0.000000 0.002523 0.000000
# 2 -0.004293 0.026140 -0.001635 0.000000 -0.003383 0.000000
# 3 -0.004916 -0.001635 0.011720 0.000000 0.001959 0.000000
# 4 0.000000 0.000000 0.000000 0.133858 0.000000 0.099472
# 5 0.002523 -0.003383 0.001959 0.000000 0.029070 0.000000
# 6 0.000000 0.000000 0.000000 0.099472 0.000000 0.063007
#
#
# Mechanical properties :
#
#
# Convention : Reuss Voigt Hill
#
# Bulk Modulus (GPa) = 35.56598 49.61565 42.59081
# Shear Modulus (GPa) = 16.29725 -7.60247 4.34739
#
# Velocity S-wave (km/s) = 2.84185 -1.94098 1.46777
# Velocity P-wave (km/s) = 5.32849 4.42310 4.89677
#
# Compressibility (1/GPa) = 0.02811676
#
# Stress axis : x y z
#
# Youngs Moduli (GPa) = 83.71551 38.25563 85.32689
#
# Poissons Ratio (x) = 0.16423 0.41944
# Poissons Ratio (y) = 0.35939 0.13954
# Poissons Ratio (z) = 0.41152 0.06256
#
# Static dielectric constant tensor:
#      x y z
#    x 3.949800 0.000000 0.067010 
#    y 0.000000 3.476480 0.000000 
#    z 0.067010 0.000000 4.612830 
# 
# 
# High freq. dielectric constant tensor:
#      x y z
#    x 1.798210 0.000000 -0.008600 
#    y 0.000000 1.768720 0.000000 
#    z -0.008600 0.000000 1.799950 
# 
# From -- ./inp_files/55395.got.cif
#   From: 2010.06.25/outbox.cif.g09.slc.cpg/sg10_28_cif.got.tgz:55395.got - 2010.06.27 22:07:45.
