data_PCOD8064832
_publ_section_title
;
Structure prediction by ZEFSAII (Michael W. Deem and Ramdas Pophale) SiO2 
 PCOD8064832
Probable space group: P 2/M
;
_chemical_formula_sum "Si O2"
_cell_formula_units_Z 20
_cell_length_a 15.199375
_cell_length_b 9.257573
_cell_length_c 23.153541
_cell_angle_alpha 90.000000
_cell_angle_beta 161.043972
_cell_angle_gamma 90.000000
_cell_volume 1058.310305
_symmetry_space_group_name_H-M "P 2/M"
_symmetry_group_IT_number 10
_symmetry_cell_setting 'monoclinic'
loop_
_space_group_symop_operation_xyz
x,y,z
-x,y,-z
-x,-y,-z
x,-y,z
loop_
_atom_site_type_symbol
_atom_site_label
_atom_site_fract_x
_atom_site_fract_y
_atom_site_fract_z
Si Si1 0.230902 0.166737 0.986853
Si Si2 0.799356 0.836447 0.162763
Si Si3 0.625117 0.167478 0.638660
Si Si4 0.714089 0.669214 0.347544
Si Si5 0.270905 0.330488 0.509465
O O1 0.191805 0.218470 0.897136
O O2 0.946203 0.193235 0.841914
O O3 0.318136 0.000000 0.043167
O O4 0.465882 0.258135 0.161178
O O5 0.977886 0.730404 0.311740
O O6 0.913641 0.000000 0.237781
O O7 0.500000 0.827515 0.000000
O O8 0.500000 0.221207 0.500000
O O9 0.502364 0.257231 0.614977
O O10 0.550068 0.000000 0.600450
O O11 0.694791 0.500000 0.323800
O O12 0.681420 0.707460 0.394293
O O13 0.000000 0.728186 0.500000
O O14 0.275931 0.500000 0.501077
#
# Coordination Sequence:
#
# PCOD8064832 Si02
#       5
#     4   4   4   4   4
#     4  10  21  37  60  88 113 149 196 240 290 342
#     4  10  20  36  59  86 115 149 194 245 293 343
#     4  10  20  39  62  84 119 154 189 242 293 344
#     4  10  23  42  59  81 120 161 192 234 291 346
#     4  11  23  37  58  87 117 153 197 239 288 347
#
# _framework density 18.898049
#
# number of rings (size 3 to 8) (size 9 to 14) (size 15 to 20)
#    0.000    1.800    2.000    1.800    0.000    5.200 
#    0.000    4.000    0.000    0.000    0.000    0.000 
#    0.000    0.000    0.000    0.000    0.000    0.000 
#
# Total GULP energy -248067.992753 kJ/mol
# GULP energy per Si atom -12403.399638 kJ/mol
# Density = 1.885504 g / cm^3
# Si number density = 18.898049 Si / 1000 Ang^3
#
#
#
# Elastic Constant Matrix: (Units=GPa)
#
#
# Indices 1 2 3 4 5 6 
#
# 1 36.2135 18.0167 -33.1603 0.0000 33.1952 0.0000
# 2 18.0167 43.3884 8.6756 0.0000 6.8911 0.0000
# 3 -33.1603 8.6756 37.6372 0.0000 33.3277 0.0000
# 4 0.0000 0.0000 0.0000 42.0284 0.0000 3.0775
# 5 33.1952 6.8911 33.3277 0.0000 16.0606 0.0000
# 6 0.0000 0.0000 0.0000 3.0775 0.0000 30.1655
#
#
#
# Elastic Compliance Matrix: (Units=1/GPa)
#
#
# Indices 1 2 3 4 5 6 
#
# 1 0.003493 -0.001853 -0.010977 0.000000 0.016354 0.000000
# 2 -0.001853 0.025117 0.001517 0.000000 -0.010095 0.000000
# 3 -0.010977 0.001517 0.003541 0.000000 0.014689 0.000000
# 4 0.000000 0.000000 0.000000 0.023973 0.000000 -0.002446
# 5 0.016354 -0.010095 0.014689 0.000000 0.002312 0.000000
# 6 0.000000 0.000000 0.000000 -0.002446 0.000000 0.033400
#
#
# Mechanical properties :
#
#
# Convention : Reuss Voigt Hill
#
# Bulk Modulus (GPa) = 104.98498 11.58924 58.28711
# Shear Modulus (GPa) = 42.50388 25.89804 34.20096
#
# Velocity S-wave (km/s) = 4.74763 3.70592 4.25874
# Velocity P-wave (km/s) = 9.25890 4.94546 7.42243
#
# Compressibility (1/GPa) = 0.00952517
#
# Stress axis : x y z
#
# Youngs Moduli (GPa) = 286.28611 39.81353 282.39958
#
# Poissons Ratio (x) = 0.07377 3.09994
# Poissons Ratio (y) = 0.53049 -0.42844
# Poissons Ratio (z) = 3.14260 -0.06040
#
# Static dielectric constant tensor:
#      x y z
#    x 3.630340 0.000000 0.058790 
#    y 0.000000 3.411270 0.000000 
#    z 0.058790 0.000000 3.442080 
# 
# 
# High freq. dielectric constant tensor:
#      x y z
#    x 1.750590 0.000000 0.008150 
#    y 0.000000 1.726480 0.000000 
#    z 0.008150 0.000000 1.740380 
# 
# From -- ./inp_files/22102.got.cif
#   From: 2010.06.25/outbox.cif.g09.slc.cpg/sg10_12_cif.got.tgz:22102.got - 2010.06.27 22:07:45.
