data_PCOD8064123
_publ_section_title
;
Structure prediction by ZEFSAII (Michael W. Deem and Ramdas Pophale) SiO2 
 PCOD8064123
Probable space group: P 2/M
;
_chemical_formula_sum "Si O2"
_cell_formula_units_Z 32
_cell_length_a 8.373035
_cell_length_b 28.245365
_cell_length_c 14.250010
_cell_angle_alpha 90.000000
_cell_angle_beta 31.685302
_cell_angle_gamma 90.000000
_cell_volume 1770.166509
_symmetry_space_group_name_H-M "P 2/M"
_symmetry_group_IT_number 10
_symmetry_cell_setting 'monoclinic'
loop_
_space_group_symop_operation_xyz
x,y,z
-x,y,-z
-x,-y,-z
x,-y,z
loop_
_atom_site_type_symbol
_atom_site_label
_atom_site_fract_x
_atom_site_fract_y
_atom_site_fract_z
Si Si1 0.351371 0.704751 0.324314
Si Si2 0.641390 0.947671 0.679304
Si Si3 0.354093 0.373559 0.472374
Si Si4 0.361131 0.128607 0.171699
Si Si5 0.361129 0.871393 0.467171
Si Si6 0.354093 0.373559 0.173533
Si Si7 0.357870 0.195615 0.821066
Si Si8 0.363421 0.446916 0.318290
O O1 0.424872 0.674148 0.379807
O O2 0.424871 0.674148 0.195321
O O3 0.575946 0.748901 0.212026
O O4 0.000000 0.721270 0.500000
O O5 0.539741 0.919039 0.822776
O O6 0.539745 0.919040 0.637478
O O7 0.000000 0.952787 0.500000
O O8 0.489600 0.000000 0.755199
O O9 0.500000 0.369994 0.500000
O O10 0.481222 0.419085 0.351706
O O11 0.000000 0.379999 0.663629
O O12 0.495074 0.173670 0.158912
O O13 0.000001 0.134128 0.347251
O O14 0.500000 0.125639 0.000000
O O15 0.500000 0.874358 0.500000
O O16 0.495067 0.826331 0.346014
O O17 0.481222 0.419085 0.167073
O O18 0.500000 0.369995 0.000000
O O19 0.000000 0.186202 0.000000
O O20 0.497426 0.500000 0.251287
O O21 0.000000 0.447036 0.500000
#
# Coordination Sequence:
#
# PCOD8064123 Si02
#       8
#     4   4   4   4   4   4   4   4
#     4   9  19  36  52  69  99 135 168 202 250 307
#     4   8  16  32  53  77 106 139 173 210 253 300
#     4   9  18  32  51  73  98 130 165 204 247 294
#     4  10  20  35  55  78 107 140 173 212 256 303
#     4  10  20  35  55  78 107 140 173 212 256 303
#     4   9  18  32  51  73  98 130 165 204 247 294
#     4  11  22  36  55  78 103 133 172 215 261 309
#     4   8  15  30  50  71  98 133 167 196 238 298
#
# _framework density 18.077397000000001
#
# number of rings (size 3 to 8) (size 9 to 14) (size 15 to 20)
#    0.000    2.750    0.000    4.125    0.000    3.000 
#    0.000    4.375    0.000   13.500    0.000    0.000 
#    0.000    0.000    0.000    0.000    0.000    0.000 
#
# Total GULP energy -396726.814992 kJ/mol
# GULP energy per Si atom -12397.712968 kJ/mol
# Density = 1.803625 g / cm^3
# Si number density = 18.077397 Si / 1000 Ang^3
#
#
#
# Elastic Constant Matrix: (Units=GPa)
#
#
# Indices 1 2 3 4 5 6 
#
# 1 151.4548 66.6273 56.8216 0.0000 27.1284 0.0000
# 2 66.6273 137.5808 54.1734 0.0000 12.5977 0.0000
# 3 56.8216 54.1734 100.6188 0.0000 24.2901 0.0000
# 4 0.0000 0.0000 0.0000 17.5480 0.0000 -0.6484
# 5 27.1284 12.5977 24.2901 0.0000 36.7776 0.0000
# 6 0.0000 0.0000 0.0000 -0.6484 0.0000 16.9071
#
#
#
# Elastic Compliance Matrix: (Units=1/GPa)
#
#
# Indices 1 2 3 4 5 6 
#
# 1 0.009859 -0.003296 -0.002748 0.000000 -0.004328 0.000000
# 2 -0.003296 0.010327 -0.004082 0.000000 0.001590 0.000000
# 3 -0.002748 -0.004082 0.015301 0.000000 -0.006680 0.000000
# 4 0.000000 0.000000 0.000000 0.057067 0.000000 0.002189
# 5 -0.004328 0.001590 -0.006680 0.000000 0.034250 0.000000
# 6 0.000000 0.000000 0.000000 0.002189 0.000000 0.059231
#
#
# Mechanical properties :
#
#
# Convention : Reuss Voigt Hill
#
# Bulk Modulus (GPa) = 65.64510 82.76655 74.20582
# Shear Modulus (GPa) = 23.65569 28.38202 26.01886
#
# Velocity S-wave (km/s) = 3.62135 3.96666 3.79793
# Velocity P-wave (km/s) = 7.34015 8.17699 7.76984
#
# Compressibility (1/GPa) = 0.01523343
#
# Stress axis : x y z
#
# Youngs Moduli (GPa) = 101.43153 96.83819 65.35522
#
# Poissons Ratio (x) = 0.31918 0.17960
# Poissons Ratio (y) = 0.33432 0.26680
# Poissons Ratio (z) = 0.27874 0.39533
#
# Static dielectric constant tensor:
#      x y z
#    x 3.188160 0.000000 0.055650 
#    y 0.000000 3.580760 0.000000 
#    z 0.055650 0.000000 3.133130 
# 
# 
# High freq. dielectric constant tensor:
#      x y z
#    x 1.698680 0.000000 0.012050 
#    y 0.000000 1.705480 0.000000 
#    z 0.012050 0.000000 1.686770 
# 
# From -- ./inp_files/62742.got.cif
#   From: 2010.06.25/outbox.cif.g09.slc.cpg/sg10_32_cif.got.tgz:62742.got - 2010.06.27 22:07:45.
