data_PCOD8064938
_publ_section_title
;
Structure prediction by ZEFSAII (Michael W. Deem and Ramdas Pophale) SiO2 
 PCOD8064938
Probable space group: P 2/M
;
_chemical_formula_sum "Si O2"
_cell_formula_units_Z 32
_cell_length_a 14.908696
_cell_length_b 9.046854
_cell_length_c 22.976638
_cell_angle_alpha 90.000000
_cell_angle_beta 30.976865
_cell_angle_gamma 90.000000
_cell_volume 1595.038157
_symmetry_space_group_name_H-M "P 2/M"
_symmetry_group_IT_number 10
_symmetry_cell_setting 'monoclinic'
loop_
_space_group_symop_operation_xyz
x,y,z
-x,y,-z
-x,-y,-z
x,-y,z
loop_
_atom_site_type_symbol
_atom_site_label
_atom_site_fract_x
_atom_site_fract_y
_atom_site_fract_z
Si Si1 0.817085 0.666428 0.958085
Si Si2 0.392048 0.825266 0.506006
Si Si3 0.460213 0.175855 0.338131
Si Si4 0.984944 0.167711 0.246582
Si Si5 0.864589 0.168697 0.715808
Si Si6 0.184026 0.825491 0.921626
Si Si7 0.883631 0.324699 0.508797
Si Si8 0.465112 0.667091 0.083475
O O1 0.866817 0.500000 0.947932
O O2 0.970355 0.730181 0.832781
O O3 0.789076 0.764538 0.029563
O O4 0.639147 0.673594 0.022659
O O5 0.500000 0.756461 0.500000
O O6 0.452077 0.765759 0.409407
O O7 0.194534 0.777173 0.625885
O O8 0.415622 0.000000 0.492213
O O9 0.651190 0.224083 0.209140
O O10 0.309630 0.252570 0.382527
O O11 0.431694 0.000000 0.350000
O O12 0.126018 0.179869 0.219428
O O13 0.969975 0.000000 0.231718
O O14 0.677070 0.234958 0.803151
O O15 0.018870 0.263203 0.602013
O O16 0.880802 0.000000 0.685202
O O17 0.175769 0.000000 0.929891
O O18 0.000000 0.762722 0.000000
O O19 0.862712 0.500000 0.516514
O O20 0.000000 0.278909 0.500000
O O21 0.392429 0.500000 0.119090
O O22 0.500000 0.732014 0.000000
#
# Coordination Sequence:
#
# PCOD8064938 Si02
#       8
#     4   4   4   4   4   4   4   4
#     4  11  24  40  61  87 123 166 209 253 302 364
#     4   9  18  34  62  93 119 151 189 244 309 364
#     4  10  21  41  65  94 125 156 205 258 306 362
#     4  10  20  36  60  90 122 153 199 253 307 366
#     4  11  22  37  60  89 121 156 200 257 308 359
#     4  10  24  44  67  92 122 163 211 263 314 366
#     4  11  25  42  61  86 121 167 208 247 305 374
#     4  10  21  38  57  83 122 164 199 239 298 367
#
# _framework density 20.062217
#
# number of rings (size 3 to 8) (size 9 to 14) (size 15 to 20)
#    0.000    1.750    2.500    1.125    3.500    3.500 
#    0.000    0.000    0.000    0.750    0.000    0.000 
#    0.000    0.000    0.000    0.000    0.000    0.000 
#
# Total GULP energy -396814.814719 kJ/mol
# GULP energy per Si atom -12400.462960 kJ/mol
# Density = 2.001655 g / cm^3
# Si number density = 20.062217 Si / 1000 Ang^3
#
#
#
# Elastic Constant Matrix: (Units=GPa)
#
#
# Indices 1 2 3 4 5 6 
#
# 1 100.7297 23.1428 51.5023 0.0000 -1.4189 0.0000
# 2 23.1428 19.4283 37.5371 0.0000 -9.4314 0.0000
# 3 51.5023 37.5371 150.0559 0.0000 -0.9623 0.0000
# 4 0.0000 0.0000 0.0000 24.2422 0.0000 5.9673
# 5 -1.4189 -9.4314 -0.9623 0.0000 29.6848 0.0000
# 6 0.0000 0.0000 0.0000 5.9673 0.0000 32.0754
#
#
#
# Elastic Compliance Matrix: (Units=1/GPa)
#
#
# Indices 1 2 3 4 5 6 
#
# 1 0.014425 -0.019900 -0.000009 0.000000 -0.005634 0.000000
# 2 -0.019900 0.166496 -0.034493 0.000000 0.050829 0.000000
# 3 -0.000009 -0.034493 0.015229 0.000000 -0.010466 0.000000
# 4 0.000000 0.000000 0.000000 0.043230 0.000000 -0.008043
# 5 -0.005634 0.050829 -0.010466 0.000000 0.049228 0.000000
# 6 0.000000 0.000000 0.000000 -0.008043 0.000000 0.032673
#
#
# Mechanical properties :
#
#
# Convention : Reuss Voigt Hill
#
# Bulk Modulus (GPa) = 11.44896 54.95311 33.20104
# Shear Modulus (GPa) = 10.88848 27.73592 19.31220
#
# Velocity S-wave (km/s) = 2.33220 3.72223 3.10597
# Velocity P-wave (km/s) = 3.60157 6.77673 5.42657
#
# Compressibility (1/GPa) = 0.08734417
#
# Stress axis : x y z
#
# Youngs Moduli (GPa) = 69.32458 6.00615 65.66521
#
# Poissons Ratio (x) = 0.11953 0.00058
# Poissons Ratio (y) = 1.37959 2.26502
# Poissons Ratio (z) = 0.00061 0.20717
#
# Static dielectric constant tensor:
#      x y z
#    x 3.689490 0.000000 -0.056470 
#    y 0.000000 3.525150 0.000000 
#    z -0.056470 0.000000 3.723560 
# 
# 
# High freq. dielectric constant tensor:
#      x y z
#    x 1.784340 0.000000 -0.002090 
#    y 0.000000 1.762940 0.000000 
#    z -0.002090 0.000000 1.793080 
# 
# From -- ./inp_files/89570.got.cif
#   From: 2010.06.25/outbox.cif.g09.slc.cpg/sg10_45_cif.got.tgz:89570.got - 2010.06.27 22:07:45.
