data_PCOD8064455
_publ_section_title
;
Structure prediction by ZEFSAII (Michael W. Deem and Ramdas Pophale) SiO2 
 PCOD8064455
Probable space group: P 2/M
;
_chemical_formula_sum "Si O2"
_cell_formula_units_Z 32
_cell_length_a 24.568460
_cell_length_b 8.980884
_cell_length_c 16.092710
_cell_angle_alpha 90.000000
_cell_angle_beta 26.481904
_cell_angle_gamma 90.000000
_cell_volume 1583.355462
_symmetry_space_group_name_H-M "P 2/M"
_symmetry_group_IT_number 10
_symmetry_cell_setting 'monoclinic'
loop_
_space_group_symop_operation_xyz
x,y,z
-x,y,-z
-x,-y,-z
x,-y,z
loop_
_atom_site_type_symbol
_atom_site_label
_atom_site_fract_x
_atom_site_fract_y
_atom_site_fract_z
Si Si1 0.056357 0.329666 0.336078
Si Si2 0.475020 0.675007 0.790646
Si Si3 0.819285 0.824437 0.090152
Si Si4 0.181209 0.668781 0.441153
Si Si5 0.076840 0.671864 0.755305
Si Si6 0.594562 0.174867 0.941767
Si Si7 0.276242 0.824523 0.957374
Si Si8 0.733898 0.327318 0.365825
O O1 0.103540 0.500000 0.274564
O O2 0.000000 0.280982 0.500000
O O3 0.956124 0.307356 0.402296
O O4 0.168766 0.220869 0.166836
O O5 0.451207 0.500000 0.827129
O O6 0.436866 0.743406 0.930382
O O7 0.399113 0.743663 0.818216
O O8 0.615655 0.714468 0.581292
O O9 0.758382 0.769217 0.087636
O O10 0.735201 0.765007 0.279269
O O11 0.821765 0.000000 0.089917
O O12 0.957374 0.769974 0.909434
O O13 0.225791 0.500000 0.362614
O O14 0.174628 0.702608 0.548256
O O15 0.270878 0.781435 0.272634
O O16 0.035707 0.500000 0.810238
O O17 0.145119 0.712912 0.747206
O O18 0.589884 0.000000 0.964674
O O19 0.500000 0.224949 0.000000
O O20 0.296429 0.000000 0.934126
O O21 0.732598 0.500000 0.343774
#
# Coordination Sequence:
#
# PCOD8064455 Si02
#       8
#     4   4   4   4   4   4   4   4
#     4  10  20  35  58  88 117 152 200 247 297 356
#     4  11  24  43  66  90 120 161 212 260 304 361
#     4  11  24  40  61  91 125 162 201 248 310 372
#     4  10  20  35  59  89 121 159 202 251 301 355
#     4  10  20  38  63  91 123 158 201 254 309 364
#     4  11  24  40  60  90 128 167 204 247 304 367
#     4  11  24  41  61  88 125 163 201 249 307 370
#     4  10  23  41  63  90 118 156 207 260 310 362
#
# _framework density 20.210242999999998
#
# number of rings (size 3 to 8) (size 9 to 14) (size 15 to 20)
#    0.000    1.500    1.250    3.375    0.000    9.250 
#    0.000    2.500    0.000    0.000    0.000    0.000 
#    0.000    0.000    0.000    0.000    0.000    0.000 
#
# Total GULP energy -396968.455128 kJ/mol
# GULP energy per Si atom -12405.264223 kJ/mol
# Density = 2.016424 g / cm^3
# Si number density = 20.210243 Si / 1000 Ang^3
#
#
#
# Elastic Constant Matrix: (Units=GPa)
#
#
# Indices 1 2 3 4 5 6 
#
# 1 113.8674 44.4309 33.5773 0.0000 6.6141 0.0000
# 2 44.4309 70.7018 34.8168 0.0000 -0.4106 0.0000
# 3 33.5773 34.8168 80.4691 0.0000 3.3565 0.0000
# 4 0.0000 0.0000 0.0000 17.2496 0.0000 0.5457
# 5 6.6141 -0.4106 3.3565 0.0000 31.4372 0.0000
# 6 0.0000 0.0000 0.0000 0.5457 0.0000 31.9366
#
#
#
# Elastic Compliance Matrix: (Units=1/GPa)
#
#
# Indices 1 2 3 4 5 6 
#
# 1 0.012114 -0.006592 -0.002102 0.000000 -0.002410 0.000000
# 2 -0.006592 0.021596 -0.006693 0.000000 0.002383 0.000000
# 3 -0.002102 -0.006693 0.016258 0.000000 -0.001381 0.000000
# 4 0.000000 0.000000 0.000000 0.058004 0.000000 -0.000991
# 5 -0.002410 0.002383 -0.001381 0.000000 0.032495 0.000000
# 6 0.000000 0.000000 0.000000 -0.000991 0.000000 0.031329
#
#
# Mechanical properties :
#
#
# Convention : Reuss Voigt Hill
#
# Bulk Modulus (GPa) = 52.09895 54.52093 53.30994
# Shear Modulus (GPa) = 23.92718 26.27224 25.09971
#
# Velocity S-wave (km/s) = 3.44454 3.60939 3.52793
# Velocity P-wave (km/s) = 6.45401 6.66376 6.55972
#
# Compressibility (1/GPa) = 0.01919424
#
# Stress axis : x y z
#
# Youngs Moduli (GPa) = 82.54851 46.30494 61.50888
#
# Poissons Ratio (x) = 0.30522 0.12931
# Poissons Ratio (y) = 0.54412 0.41168
# Poissons Ratio (z) = 0.17354 0.30992
#
# Static dielectric constant tensor:
#      x y z
#    x 3.945810 0.000000 0.056300 
#    y 0.000000 3.584460 0.000000 
#    z 0.056300 0.000000 3.596240 
# 
# 
# High freq. dielectric constant tensor:
#      x y z
#    x 1.804780 0.000000 0.005540 
#    y 0.000000 1.783810 0.000000 
#    z 0.005540 0.000000 1.792890 
# 
# From -- ./inp_files/66550.got.cif
#   From: 2010.06.25/outbox.cif.g09.slc.cpg/sg10_34_cif.got.tgz:66550.got - 2010.06.27 22:07:45.
