data_PCOD8064893
_publ_section_title
;
Structure prediction by ZEFSAII (Michael W. Deem and Ramdas Pophale) SiO2 
 PCOD8064893
Probable space group: P 2/M
;
_chemical_formula_sum "Si O2"
_cell_formula_units_Z 28
_cell_length_a 9.718661
_cell_length_b 8.834290
_cell_length_c 26.872758
_cell_angle_alpha 90.000000
_cell_angle_beta 141.595813
_cell_angle_gamma 90.000000
_cell_volume 1433.261064
_symmetry_space_group_name_H-M "P 2/M"
_symmetry_group_IT_number 10
_symmetry_cell_setting 'monoclinic'
loop_
_space_group_symop_operation_xyz
x,y,z
-x,y,-z
-x,-y,-z
x,-y,z
loop_
_atom_site_type_symbol
_atom_site_label
_atom_site_fract_x
_atom_site_fract_y
_atom_site_fract_z
Si Si1 0.289762 0.823431 0.970731
Si Si2 0.126897 0.320976 0.197082
Si Si3 0.756315 0.823437 0.931435
Si Si4 0.994001 0.822298 0.366937
Si Si5 0.805078 0.822030 0.681355
Si Si6 0.604892 0.330131 0.475576
Si Si7 0.509772 0.179801 0.765357
O O1 0.071195 0.731819 0.894700
O O2 0.242399 0.000000 0.946966
O O3 0.500000 0.763361 0.000000
O O4 0.353468 0.793615 0.046183
O O5 0.137380 0.500000 0.201046
O O6 0.082341 0.259343 0.239832
O O7 0.359327 0.256117 0.242824
O O8 0.605170 0.755763 0.844737
O O9 0.781733 0.000000 0.927560
O O10 0.000000 0.747966 0.000000
O O11 0.745800 0.771074 0.309254
O O12 0.054437 0.774756 0.327542
O O13 0.150655 0.741021 0.451688
O O14 0.029557 0.000000 0.383074
O O15 0.549903 0.768802 0.604420
O O16 0.810443 0.000000 0.691898
O O17 0.500000 0.328488 0.500000
O O18 0.620985 0.500000 0.458812
O O19 0.534016 0.000000 0.767918
#
# Coordination Sequence:
#
# PCOD8064893 Si02
#       7
#     4   4   4   4   4   4   4
#     4  10  21  37  61  85 109 143 189 237 281 329
#     4  12  25  39  54  79 119 156 187 226 284 341
#     4   9  16  31  57  83 106 138 183 232 276 320
#     4   9  19  34  59  89 113 141 187 240 281 327
#     4  10  20  36  60  86 113 146 191 237 280 328
#     4   9  17  32  55  83 118 152 182 220 279 343
#     4  10  20  37  59  83 112 146 190 237 279 329
#
# _framework density 19.535869000000002
#
# number of rings (size 3 to 8) (size 9 to 14) (size 15 to 20)
#    0.000    2.143    1.429    2.143    2.000    3.143 
#    0.000    2.143    0.000    4.286    0.000    0.000 
#    0.000    0.000    0.000    0.000    0.000    0.000 
#
# Total GULP energy -347227.267881 kJ/mol
# GULP energy per Si atom -12400.973853 kJ/mol
# Density = 1.949140 g / cm^3
# Si number density = 19.535869 Si / 1000 Ang^3
#
#
#
# Elastic Constant Matrix: (Units=GPa)
#
#
# Indices 1 2 3 4 5 6 
#
# 1 80.2930 22.4557 12.0982 0.0000 17.4585 0.0000
# 2 22.4557 68.7498 23.0818 0.0000 7.5285 0.0000
# 3 12.0982 23.0818 60.0045 0.0000 16.0226 0.0000
# 4 0.0000 0.0000 0.0000 15.9901 0.0000 -1.8948
# 5 17.4585 7.5285 16.0226 0.0000 33.9215 0.0000
# 6 0.0000 0.0000 0.0000 -1.8948 0.0000 17.3605
#
#
#
# Elastic Compliance Matrix: (Units=1/GPa)
#
#
# Indices 1 2 3 4 5 6 
#
# 1 0.015127 -0.004337 0.000504 0.000000 -0.007061 0.000000
# 2 -0.004337 0.017963 -0.006370 0.000000 0.001254 0.000000
# 3 0.000504 -0.006370 0.021406 0.000000 -0.008956 0.000000
# 4 0.000000 0.000000 0.000000 0.063358 0.000000 0.006915
# 5 -0.007061 0.001254 -0.008956 0.000000 0.037066 0.000000
# 6 0.000000 0.000000 0.000000 0.006915 0.000000 0.058357
#
#
# Mechanical properties :
#
#
# Convention : Reuss Voigt Hill
#
# Bulk Modulus (GPa) = 29.33498 36.03542 32.68520
# Shear Modulus (GPa) = 20.40429 23.54854 21.97642
#
# Velocity S-wave (km/s) = 3.23531 3.47565 3.35763
# Velocity P-wave (km/s) = 5.38561 5.88156 5.63904
#
# Compressibility (1/GPa) = 0.03408899
#
# Stress axis : x y z
#
# Youngs Moduli (GPa) = 66.10880 55.66863 46.71601
#
# Poissons Ratio (x) = 0.24142 -0.02353
# Poissons Ratio (y) = 0.28670 0.29760
# Poissons Ratio (z) = -0.03330 0.35464
#
# Static dielectric constant tensor:
#      x y z
#    x 3.490350 0.000000 0.027470 
#    y 0.000000 3.358290 0.000000 
#    z 0.027470 0.000000 3.692040 
# 
# 
# High freq. dielectric constant tensor:
#      x y z
#    x 1.750850 0.000000 0.001320 
#    y 0.000000 1.737530 0.000000 
#    z 0.001320 0.000000 1.767570 
# 
# From -- ./inp_files/92098.got.cif
#   From: 2010.06.25/outbox.cif.g09.slc.cpg/sg10_47_cif.got.tgz:92098.got - 2010.06.27 22:07:45.
