data_PCOD8064470
_publ_section_title
;
Structure prediction by ZEFSAII (Michael W. Deem and Ramdas Pophale) SiO2 
 PCOD8064470
Probable space group: P 2/M
;
_chemical_formula_sum "Si O2"
_cell_formula_units_Z 18
_cell_length_a 9.252030
_cell_length_b 7.507127
_cell_length_c 23.355113
_cell_angle_alpha 90.000000
_cell_angle_beta 143.238689
_cell_angle_gamma 90.000000
_cell_volume 970.832750
_symmetry_space_group_name_H-M "P 2/M"
_symmetry_group_IT_number 10
_symmetry_cell_setting 'monoclinic'
loop_
_space_group_symop_operation_xyz
x,y,z
-x,y,-z
-x,-y,-z
x,-y,z
loop_
_atom_site_type_symbol
_atom_site_label
_atom_site_fract_x
_atom_site_fract_y
_atom_site_fract_z
Si Si1 0.019890 0.801979 0.067283
Si Si2 0.498122 0.299114 0.739424
Si Si3 0.746109 0.000000 0.542912
Si Si4 0.283671 0.000000 0.752108
Si Si5 0.584049 0.000000 0.962127
Si Si6 0.253826 0.700263 0.549851
O O1 0.752645 0.822587 0.009628
O O2 0.209742 0.695642 0.166028
O O3 0.135136 0.000000 0.093056
O O4 0.000000 0.702343 0.000000
O O5 0.395945 0.500000 0.715226
O O6 0.441166 0.230477 0.657409
O O7 0.379551 0.176500 0.750580
O O8 0.500000 0.000000 0.500000
O O9 0.742965 0.823461 0.504062
O O10 0.989960 0.000000 0.659001
O O11 0.373598 0.000000 0.847115
O O12 0.500000 0.000000 0.000000
O O13 0.315155 0.500000 0.548896
O O14 0.000000 0.710408 0.500000
#
# Coordination Sequence:
#
# PCOD8064470 Si02
#       6
#     4   4   2   2   2   4
#     4   9  16  33  54  84 112 140 190 240 276 322
#     4  11  20  33  64  91 111 149 193 245 292 328
#     4  12  26  37  61  90 118 163 192 234 297 359
#     4  12  20  40  56  84 120 142 202 240 278 360
#     4  10  20  35  59  82 114 165 180 226 297 341
#     4  10  21  38  60  89 117 148 198 249 287 334
#
# _framework density 18.540785
#
# number of rings (size 3 to 8) (size 9 to 14) (size 15 to 20)
#    0.667    0.889    5.556    1.000    0.000    2.667 
#    0.000    0.000    0.000    2.667    0.000    0.000 
#    0.000    0.000    0.000    0.000    0.000    0.000 
#
# Total GULP energy -223022.515068 kJ/mol
# GULP energy per Si atom -12390.139726 kJ/mol
# Density = 1.849859 g / cm^3
# Si number density = 18.540785 Si / 1000 Ang^3
#
#
#
# Elastic Constant Matrix: (Units=GPa)
#
#
# Indices 1 2 3 4 5 6 
#
# 1 107.1074 29.0812 59.4293 0.0000 -2.1177 0.0000
# 2 29.0812 73.6508 31.0258 0.0000 -8.7939 0.0000
# 3 59.4293 31.0258 182.5122 0.0000 1.4389 0.0000
# 4 0.0000 0.0000 0.0000 42.1108 0.0000 -16.5610
# 5 -2.1177 -8.7939 1.4389 0.0000 29.2170 0.0000
# 6 0.0000 0.0000 0.0000 -16.5610 0.0000 29.1013
#
#
#
# Elastic Compliance Matrix: (Units=1/GPa)
#
#
# Indices 1 2 3 4 5 6 
#
# 1 0.012123 -0.003360 -0.003376 0.000000 0.000034 0.000000
# 2 -0.003360 0.016180 -0.001693 0.000000 0.004710 0.000000
# 3 -0.003376 -0.001693 0.006875 0.000000 -0.001093 0.000000
# 4 0.000000 0.000000 0.000000 0.030594 0.000000 0.017410
# 5 0.000034 0.004710 -0.001093 0.000000 0.035701 0.000000
# 6 0.000000 0.000000 0.000000 0.017410 0.000000 0.044271
#
#
# Mechanical properties :
#
#
# Convention : Reuss Voigt Hill
#
# Bulk Modulus (GPa) = 54.59263 66.92702 60.75983
# Shear Modulus (GPa) = 29.63668 36.33476 32.98572
#
# Velocity S-wave (km/s) = 4.00241 4.43168 4.22250
# Velocity P-wave (km/s) = 7.13215 7.89695 7.52428
#
# Compressibility (1/GPa) = 0.01831749
#
# Stress axis : x y z
#
# Youngs Moduli (GPa) = 82.48826 61.80404 145.45416
#
# Poissons Ratio (x) = 0.20769 0.49112
# Poissons Ratio (y) = 0.27719 0.24632
# Poissons Ratio (z) = 0.27852 0.10466
#
# Static dielectric constant tensor:
#      x y z
#    x 2.880640 0.000000 0.202020 
#    y 0.000000 3.393680 0.000000 
#    z 0.202020 0.000000 3.769850 
# 
# 
# High freq. dielectric constant tensor:
#      x y z
#    x 1.673180 0.000000 0.005100 
#    y 0.000000 1.709470 0.000000 
#    z 0.005100 0.000000 1.749520 
# 
# From -- ./inp_files/81816.got.cif
#   From: 2010.06.25/outbox.cif.g09.slc.cpg/sg10_41_cif.got.tgz:81816.got - 2010.06.27 22:07:45.
