data_PCOD8064844
_publ_section_title
;
Structure prediction by ZEFSAII (Michael W. Deem and Ramdas Pophale) SiO2 
 PCOD8064844
Probable space group: P 2/M
;
_chemical_formula_sum "Si O2"
_cell_formula_units_Z 32
_cell_length_a 27.465202
_cell_length_b 8.667204
_cell_length_c 21.532113
_cell_angle_alpha 90.000000
_cell_angle_beta 161.504845
_cell_angle_gamma 90.000000
_cell_volume 1625.979772
_symmetry_space_group_name_H-M "P 2/M"
_symmetry_group_IT_number 10
_symmetry_cell_setting 'monoclinic'
loop_
_space_group_symop_operation_xyz
x,y,z
-x,y,-z
-x,-y,-z
x,-y,z
loop_
_atom_site_type_symbol
_atom_site_label
_atom_site_fract_x
_atom_site_fract_y
_atom_site_fract_z
Si Si1 0.921541 0.317273 0.500661
Si Si2 0.061697 0.325819 0.136608
Si Si3 0.549424 0.683038 0.246106
Si Si4 0.085870 0.681821 0.919366
Si Si5 0.578296 0.326010 0.421434
Si Si6 0.849116 0.181262 0.543305
Si Si7 0.412951 0.178995 0.332053
Si Si8 0.772466 0.317597 0.192854
O O1 0.915155 0.500000 0.504327
O O2 0.851872 0.231108 0.475202
O O3 0.814744 0.267226 0.313662
O O4 0.096107 0.262103 0.696758
O O5 0.995933 0.500000 0.056789
O O6 0.241433 0.323305 0.355192
O O7 0.995602 0.245714 0.118264
O O8 0.000000 0.239743 0.000000
O O9 0.565124 0.500000 0.259423
O O10 0.533628 0.731998 0.298887
O O11 0.699601 0.752810 0.396388
O O12 0.395346 0.748801 0.027071
O O13 0.059988 0.500000 0.881525
O O14 0.007234 0.759492 0.764862
O O15 0.264160 0.718475 0.140269
O O16 0.515787 0.500000 0.357823
O O17 0.518494 0.206785 0.400018
O O18 0.841953 0.000000 0.539657
O O19 0.500000 0.233759 0.500000
O O20 0.368611 0.000000 0.283383
O O21 0.768159 0.500000 0.183564
#
# Coordination Sequence:
#
# PCOD8064844 Si02
#       8
#     4   4   4   4   4   4   4   4
#     4   9  18  37  63  90 118 154 198 246 295 347
#     4   9  17  32  57  86 111 138 184 245 295 335
#     4  10  20  38  61  87 116 153 201 250 297 348
#     4  11  22  40  64  87 114 153 201 251 293 342
#     4  10  20  36  59  87 115 149 200 250 290 344
#     4  12  25  39  56  86 125 161 195 238 296 361
#     4  11  25  42  58  85 126 162 193 237 298 363
#     4   8  17  35  63  93 117 146 197 254 297 341
#
# _framework density 19.680441999999999
#
# number of rings (size 3 to 8) (size 9 to 14) (size 15 to 20)
#    0.000    2.000    1.250    3.375    1.750    3.000 
#    0.000    5.000    0.000    2.625    0.000    0.000 
#    0.000    0.000    0.000    0.000    0.000    0.000 
#
# Total GULP energy -396766.737503 kJ/mol
# GULP energy per Si atom -12398.960547 kJ/mol
# Density = 1.963565 g / cm^3
# Si number density = 19.680442 Si / 1000 Ang^3
#
#
#
# Elastic Constant Matrix: (Units=GPa)
#
#
# Indices 1 2 3 4 5 6 
#
# 1 144.6934 40.9137 58.3295 0.0000 -8.7241 0.0000
# 2 40.9137 53.6512 28.0652 0.0000 -2.9612 0.0000
# 3 58.3295 28.0652 132.2982 0.0000 -13.0523 0.0000
# 4 0.0000 0.0000 0.0000 18.3210 0.0000 -0.2999
# 5 -8.7241 -2.9612 -13.0523 0.0000 31.4272 0.0000
# 6 0.0000 0.0000 0.0000 -0.2999 0.0000 18.2016
#
#
#
# Elastic Compliance Matrix: (Units=1/GPa)
#
#
# Indices 1 2 3 4 5 6 
#
# 1 0.009840 -0.005884 -0.002998 0.000000 0.000932 0.000000
# 2 -0.005884 0.024484 -0.002642 0.000000 -0.000423 0.000000
# 3 -0.002998 -0.002642 0.009733 0.000000 0.002961 0.000000
# 4 0.000000 0.000000 0.000000 0.054597 0.000000 0.000900
# 5 0.000932 -0.000423 0.002961 0.000000 0.033268 0.000000
# 6 0.000000 0.000000 0.000000 0.000900 0.000000 0.054955
#
#
# Mechanical properties :
#
#
# Convention : Reuss Voigt Hill
#
# Bulk Modulus (GPa) = 47.59673 65.02886 56.31279
# Shear Modulus (GPa) = 23.04913 27.14558 25.09736
#
# Velocity S-wave (km/s) = 3.42595 3.71795 3.57493
# Velocity P-wave (km/s) = 6.31560 7.17948 6.76135
#
# Compressibility (1/GPa) = 0.02100985
#
# Stress axis : x y z
#
# Youngs Moduli (GPa) = 101.62910 40.84245 102.74241
#
# Poissons Ratio (x) = 0.24031 0.30804
# Poissons Ratio (y) = 0.59797 0.27141
# Poissons Ratio (z) = 0.30470 0.10789
#
# Static dielectric constant tensor:
#      x y z
#    x 3.639040 0.000000 -0.145540 
#    y 0.000000 3.248380 0.000000 
#    z -0.145540 0.000000 3.852790 
# 
# 
# High freq. dielectric constant tensor:
#      x y z
#    x 1.780300 0.000000 -0.004830 
#    y 0.000000 1.731680 0.000000 
#    z -0.004830 0.000000 1.778850 
# 
# From -- ./inp_files/87017.got.cif
#   From: 2010.06.25/outbox.cif.g09.slc.cpg/sg10_44_cif.got.tgz:87017.got - 2010.06.27 22:07:45.
