data_PCOD8064499
_publ_section_title
;
Structure prediction by ZEFSAII (Michael W. Deem and Ramdas Pophale) SiO2 
 PCOD8064499
Probable space group: P 2/M
;
_chemical_formula_sum "Si O2"
_cell_formula_units_Z 24
_cell_length_a 14.271613
_cell_length_b 14.265955
_cell_length_c 11.174120
_cell_angle_alpha 90.000000
_cell_angle_beta 32.035272
_cell_angle_gamma 90.000000
_cell_volume 1206.770033
_symmetry_space_group_name_H-M "P 2/M"
_symmetry_group_IT_number 10
_symmetry_cell_setting 'monoclinic'
loop_
_space_group_symop_operation_xyz
x,y,z
-x,y,-z
-x,-y,-z
x,-y,z
loop_
_atom_site_type_symbol
_atom_site_label
_atom_site_fract_x
_atom_site_fract_y
_atom_site_fract_z
Si Si1 0.787457 0.393826 0.445920
Si Si2 0.016224 0.894091 0.620143
Si Si3 0.573478 0.899632 0.787526
Si Si4 0.293696 0.392711 0.734631
Si Si5 0.539154 0.703589 0.097435
Si Si6 0.874795 0.287883 0.867481
O O1 0.822823 0.500000 0.443881
O O2 0.804398 0.379710 0.285422
O O3 0.589926 0.368557 0.698644
O O4 0.932753 0.333340 0.359212
O O5 0.217558 0.886794 0.441060
O O6 0.000000 0.862131 0.500000
O O7 0.899845 0.824510 0.828513
O O8 0.942692 0.000000 0.715788
O O9 0.490247 0.808324 0.814453
O O10 0.525086 0.000000 0.777079
O O11 0.500000 0.903865 0.000000
O O12 0.500000 0.369727 0.500000
O O13 0.267141 0.500000 0.809678
O O14 0.205780 0.317519 0.917982
O O15 0.500000 0.702092 0.000000
O O16 0.740579 0.675367 0.909414
#
# Coordination Sequence:
#
# PCOD8064499 Si02
#       6
#     4   4   4   4   4   4
#     4  11  24  42  63  89 119 158 210 258 305 365
#     4  10  20  35  59  92 127 163 204 246 297 370
#     4   9  17  33  56  83 118 158 200 245 290 350
#     4  10  21  42  68  90 113 155 215 265 307 361
#     4  11  23  38  59  89 127 163 200 246 306 372
#     4  12  23  37  66  91 122 160 206 258 312 355
#
# _framework density 19.887799999999999
#
# number of rings (size 3 to 8) (size 9 to 14) (size 15 to 20)
#    0.000    1.500    3.333    3.000    0.000    4.333 
#    0.000    0.833    0.000    3.500    0.000    0.000 
#    0.000    0.000    0.000    0.000    0.000    0.000 
#
# Total GULP energy -297498.817005 kJ/mol
# GULP energy per Si atom -12395.784042 kJ/mol
# Density = 1.984253 g / cm^3
# Si number density = 19.887800 Si / 1000 Ang^3
#
#
#
# Elastic Constant Matrix: (Units=GPa)
#
#
# Indices 1 2 3 4 5 6 
#
# 1 81.4673 45.5099 27.9663 0.0000 -16.5452 0.0000
# 2 45.5099 123.3317 50.9558 0.0000 10.7082 0.0000
# 3 27.9663 50.9558 92.7233 0.0000 -6.3537 0.0000
# 4 0.0000 0.0000 0.0000 43.9686 0.0000 6.6850
# 5 -16.5452 10.7082 -6.3537 0.0000 34.6173 0.0000
# 6 0.0000 0.0000 0.0000 6.6850 0.0000 18.2040
#
#
#
# Elastic Compliance Matrix: (Units=1/GPa)
#
#
# Indices 1 2 3 4 5 6 
#
# 1 0.019192 -0.007773 -0.000733 0.000000 0.011443 0.000000
# 2 -0.007773 0.014330 -0.006166 0.000000 -0.009279 0.000000
# 3 -0.000733 -0.006166 0.014686 0.000000 0.004253 0.000000
# 4 0.000000 0.000000 0.000000 0.024088 0.000000 -0.008846
# 5 0.011443 -0.009279 0.004253 0.000000 0.038007 0.000000
# 6 0.000000 0.000000 0.000000 -0.008846 0.000000 0.058181
#
#
# Mechanical properties :
#
#
# Convention : Reuss Voigt Hill
#
# Bulk Modulus (GPa) = 53.01146 60.70960 56.86053
# Shear Modulus (GPa) = 24.49568 30.89734 27.69651
#
# Velocity S-wave (km/s) = 3.51336 3.94583 3.73586
# Velocity P-wave (km/s) = 6.57049 7.16601 6.87470
#
# Compressibility (1/GPa) = 0.01886385
#
# Stress axis : x y z
#
# Youngs Moduli (GPa) = 52.10373 69.78476 68.09201
#
# Poissons Ratio (x) = 0.54242 0.04992
# Poissons Ratio (y) = 0.40499 0.41988
# Poissons Ratio (z) = 0.03820 0.43032
#
# Static dielectric constant tensor:
#      x y z
#    x 3.496500 0.000000 -0.284870 
#    y 0.000000 4.084800 0.000000 
#    z -0.284870 0.000000 3.567820 
# 
# 
# High freq. dielectric constant tensor:
#      x y z
#    x 1.753160 0.000000 -0.033520 
#    y 0.000000 1.782640 0.000000 
#    z -0.033520 0.000000 1.775210 
# 
# From -- ./inp_files/51491.got.cif
#   From: 2010.06.25/outbox.cif.g09.slc.cpg/sg10_26_cif.got.tgz:51491.got - 2010.06.27 22:07:45.
