data_PCOD8064687
_publ_section_title
;
Structure prediction by ZEFSAII (Michael W. Deem and Ramdas Pophale) SiO2 
 PCOD8064687
Probable space group: P 2/M
;
_chemical_formula_sum "Si O2"
_cell_formula_units_Z 28
_cell_length_a 30.789449
_cell_length_b 9.051175
_cell_length_c 10.241755
_cell_angle_alpha 90.000000
_cell_angle_beta 147.448175
_cell_angle_gamma 90.000000
_cell_volume 1535.726170
_symmetry_space_group_name_H-M "P 2/M"
_symmetry_group_IT_number 10
_symmetry_cell_setting 'monoclinic'
loop_
_space_group_symop_operation_xyz
x,y,z
-x,y,-z
-x,-y,-z
x,-y,z
loop_
_atom_site_type_symbol
_atom_site_label
_atom_site_fract_x
_atom_site_fract_y
_atom_site_fract_z
Si Si1 0.738249 0.325791 0.105745
Si Si2 0.323810 0.669411 0.333863
Si Si3 0.235802 0.825865 0.343057
Si Si4 0.505153 0.669618 0.863964
Si Si5 0.084471 0.325129 0.053185
Si Si6 0.092191 0.325825 0.367115
Si Si7 0.342977 0.825339 0.858834
O O1 0.729878 0.500000 0.108720
O O2 0.831670 0.273115 0.354486
O O3 0.684022 0.243983 0.073751
O O4 0.708140 0.279166 0.887397
O O5 0.299932 0.500000 0.303035
O O6 0.284241 0.773581 0.340212
O O7 0.419723 0.689264 0.577095
O O8 0.146755 0.755014 0.114799
O O9 0.283346 0.772457 0.592517
O O10 0.227434 0.000000 0.316858
O O11 0.534844 0.500000 0.935393
O O12 0.500000 0.724734 0.000000
O O13 0.567201 0.770714 0.943374
O O14 0.096473 0.500000 0.069376
O O15 0.101609 0.266831 0.243365
O O16 0.992807 0.275032 0.783743
O O17 0.088508 0.500000 0.346422
O O18 0.343687 0.000000 0.874050
#
# Coordination Sequence:
#
# PCOD8064687 Si02
#       7
#     4   4   4   4   4   4   4
#     4  10  20  37  59  82 110 141 177 222 271 319
#     4  10  22  38  58  82 106 140 182 223 271 321
#     4  11  22  35  53  81 112 144 181 220 265 319
#     4  10  20  36  58  81 106 138 181 229 269 307
#     4   9  16  30  55  82 106 136 180 224 263 310
#     4   8  15  29  53  83 108 135 173 223 270 308
#     4  11  23  36  55  82 111 144 181 218 266 325
#
# _framework density 18.232419
#
# number of rings (size 3 to 8) (size 9 to 14) (size 15 to 20)
#    0.000    2.143    2.857    1.714    0.000    3.143 
#    0.000    5.714    0.000    4.286    0.000    0.000 
#    0.000    0.000    0.000    0.000    0.000    0.000 
#
# Total GULP energy -347219.322670 kJ/mol
# GULP energy per Si atom -12400.690095 kJ/mol
# Density = 1.819092 g / cm^3
# Si number density = 18.232419 Si / 1000 Ang^3
#
#
#
# Elastic Constant Matrix: (Units=GPa)
#
#
# Indices 1 2 3 4 5 6 
#
# 1 87.9095 41.9650 38.1699 0.0000 9.0457 0.0000
# 2 41.9650 51.0144 28.4315 0.0000 1.9861 0.0000
# 3 38.1699 28.4315 109.1391 0.0000 1.2214 0.0000
# 4 0.0000 0.0000 0.0000 9.8219 0.0000 -12.0402
# 5 9.0457 1.9861 1.2214 0.0000 31.3539 0.0000
# 6 0.0000 0.0000 0.0000 -12.0402 0.0000 7.6537
#
#
#
# Elastic Compliance Matrix: (Units=1/GPa)
#
#
# Indices 1 2 3 4 5 6 
#
# 1 0.020284 -0.014712 -0.003208 0.000000 -0.004795 0.000000
# 2 -0.014712 0.033648 -0.003646 0.000000 0.002255 0.000000
# 3 -0.003208 -0.003646 0.011226 0.000000 0.000719 0.000000
# 4 0.000000 0.000000 0.000000 -0.109666 0.000000 -0.172517
# 5 -0.004795 0.002255 0.000719 0.000000 0.033107 0.000000
# 6 0.000000 0.000000 0.000000 -0.172517 0.000000 -0.140733
#
#
# Mechanical properties :
#
#
# Convention : Reuss Voigt Hill
#
# Bulk Modulus (GPa) = 45.39612 51.68843 48.54227
# Shear Modulus (GPa) = -49.18343 19.06569 -15.05887
#
# Velocity S-wave (km/s) = -5.19946 3.23724 -2.87703
# Velocity P-wave (km/s) = 3.33065 6.51032 3.95544
#
# Compressibility (1/GPa) = 0.02202832
#
# Stress axis : x y z
#
# Youngs Moduli (GPa) = 49.29874 29.71924 89.07678
#
# Poissons Ratio (x) = 0.43722 0.28576
# Poissons Ratio (y) = 0.72526 0.32474
# Poissons Ratio (z) = 0.15815 0.10835
#
# Static dielectric constant tensor:
#      x y z
#    x 3.261390 0.000000 0.185940 
#    y 0.000000 3.121550 0.000000 
#    z 0.185940 0.000000 3.720750 
# 
# 
# High freq. dielectric constant tensor:
#      x y z
#    x 1.703980 0.000000 0.016900 
#    y 0.000000 1.686280 0.000000 
#    z 0.016900 0.000000 1.708510 
# 
# From -- ./inp_files/37352.got.cif
#   From: 2010.06.25/outbox.cif.g09.slc.cpg/sg10_19_cif.got.tgz:37352.got - 2010.06.27 22:07:45.
