data_PCOD8064036
_publ_section_title
;
Structure prediction by ZEFSAII (Michael W. Deem and Ramdas Pophale) SiO2 
 PCOD8064036
Probable space group: P 2/M
;
_chemical_formula_sum "Si O2"
_cell_formula_units_Z 26
_cell_length_a 23.131769
_cell_length_b 7.983496
_cell_length_c 13.050131
_cell_angle_alpha 90.000000
_cell_angle_beta 36.805312
_cell_angle_gamma 90.000000
_cell_volume 1443.825071
_symmetry_space_group_name_H-M "P 2/M"
_symmetry_group_IT_number 10
_symmetry_cell_setting 'monoclinic'
loop_
_space_group_symop_operation_xyz
x,y,z
-x,y,-z
-x,-y,-z
x,-y,z
loop_
_atom_site_type_symbol
_atom_site_label
_atom_site_fract_x
_atom_site_fract_y
_atom_site_fract_z
Si Si1 0.248407 0.500000 0.028000
Si Si2 0.102667 0.500000 0.414094
Si Si3 0.152480 0.185510 0.066493
Si Si4 0.230125 0.694671 0.762336
Si Si5 0.089245 0.197383 0.806784
Si Si6 0.558794 0.820059 0.522371
Si Si7 0.933694 0.191501 0.396150
Si Si8 0.529596 0.500000 0.335345
O O1 0.198465 0.500000 0.209246
O O2 0.219890 0.327950 0.015189
O O3 0.362369 0.500000 0.857217
O O4 0.115316 0.330358 0.462533
O O5 0.000000 0.500000 0.500000
O O6 0.046411 0.197728 0.263707
O O7 0.194737 0.000000 0.029489
O O8 0.148134 0.220963 0.950857
O O9 0.246475 0.500000 0.762954
O O10 0.190166 0.723399 0.704407
O O11 0.327670 0.791483 0.653021
O O12 0.081686 0.247740 0.698989
O O13 0.093340 0.000000 0.813477
O O14 0.000000 0.271542 0.000000
O O15 0.500000 0.823261 0.500000
O O16 0.517245 0.666500 0.648762
O O17 0.543995 0.000000 0.598655
O O18 0.895220 0.000000 0.470479
O O19 0.500000 0.500000 0.500000
#
# Coordination Sequence:
#
# PCOD8064036 Si02
#       8
#     2   2   4   4   4   4   4   2
#     4  12  24  38  57  84 113 151 199 239 292 345
#     4  12  24  40  57  81 116 155 203 248 283 341
#     4  11  20  33  53  80 114 153 197 236 280 334
#     4  12  22  32  54  85 120 158 192 230 290 358
#     4  10  20  35  53  81 118 156 198 241 284 344
#     4  10  20  35  53  76 112 151 184 227 278 340
#     4  10  22  38  56  79 116 159 198 243 285 327
#     4  10  20  36  55  78 111 139 180 238 285 345
#
# _framework density 18.007721
#
# number of rings (size 3 to 8) (size 9 to 14) (size 15 to 20)
#    0.000    1.231    4.615    3.231    1.077    3.077 
#    0.000    0.000    0.000    0.000    0.000    2.154 
#    0.000    3.692    0.000    0.000    0.000    0.000 
#
# Total GULP energy -322125.757585 kJ/mol
# GULP energy per Si atom -12389.452215 kJ/mol
# Density = 1.796673 g / cm^3
# Si number density = 18.007721 Si / 1000 Ang^3
#
#
#
# Elastic Constant Matrix: (Units=GPa)
#
#
# Indices 1 2 3 4 5 6 
#
# 1 61.8507 28.1496 31.4132 0.0000 -2.8500 0.0000
# 2 28.1496 161.3089 44.8744 0.0000 5.0676 0.0000
# 3 31.4132 44.8744 93.9661 0.0000 0.9236 0.0000
# 4 0.0000 0.0000 0.0000 22.0938 0.0000 -1.1501
# 5 -2.8500 5.0676 0.9236 0.0000 22.9731 0.0000
# 6 0.0000 0.0000 0.0000 -1.1501 0.0000 34.2539
#
#
#
# Elastic Compliance Matrix: (Units=1/GPa)
#
#
# Indices 1 2 3 4 5 6 
#
# 1 0.020183 -0.002002 -0.005822 0.000000 0.003180 0.000000
# 2 -0.002002 0.007396 -0.002845 0.000000 -0.001765 0.000000
# 3 -0.005822 -0.002845 0.013954 0.000000 -0.000656 0.000000
# 4 0.000000 0.000000 0.000000 0.045341 0.000000 0.001522
# 5 0.003180 -0.001765 -0.000656 0.000000 0.044339 0.000000
# 6 0.000000 0.000000 0.000000 0.001522 0.000000 0.029245
#
#
# Mechanical properties :
#
#
# Convention : Reuss Voigt Hill
#
# Bulk Modulus (GPa) = 49.52248 58.44447 53.98347
# Shear Modulus (GPa) = 26.52134 30.04339 28.28236
#
# Velocity S-wave (km/s) = 3.84184 4.08899 3.96734
# Velocity P-wave (km/s) = 6.87314 7.40397 7.14349
#
# Compressibility (1/GPa) = 0.02019285
#
# Stress axis : x y z
#
# Youngs Moduli (GPa) = 49.54718 135.21475 71.66552
#
# Poissons Ratio (x) = 0.27073 0.41725
# Poissons Ratio (y) = 0.09921 0.20390
# Poissons Ratio (z) = 0.28848 0.38471
#
# Static dielectric constant tensor:
#      x y z
#    x 3.158960 0.000000 -0.035630 
#    y 0.000000 4.046670 0.000000 
#    z -0.035630 0.000000 3.148100 
# 
# 
# High freq. dielectric constant tensor:
#      x y z
#    x 1.668640 0.000000 -0.015560 
#    y 0.000000 1.730320 0.000000 
#    z -0.015560 0.000000 1.659080 
# 
# From -- ./inp_files/55150.got.cif
#   From: 2010.06.25/outbox.cif.g09.slc.cpg/sg10_28_cif.got.tgz:55150.got - 2010.06.27 22:07:45.
