data_PCOD8064450
_publ_section_title
;
Structure prediction by ZEFSAII (Michael W. Deem and Ramdas Pophale) SiO2 
 PCOD8064450
Probable space group: P 2/M
;
_chemical_formula_sum "Si O2"
_cell_formula_units_Z 28
_cell_length_a 15.080626
_cell_length_b 9.306534
_cell_length_c 11.806084
_cell_angle_alpha 90.000000
_cell_angle_beta 119.477138
_cell_angle_gamma 90.000000
_cell_volume 1442.473955
_symmetry_space_group_name_H-M "P 2/M"
_symmetry_group_IT_number 10
_symmetry_cell_setting 'monoclinic'
loop_
_space_group_symop_operation_xyz
x,y,z
-x,y,-z
-x,-y,-z
x,-y,z
loop_
_atom_site_type_symbol
_atom_site_label
_atom_site_fract_x
_atom_site_fract_y
_atom_site_fract_z
Si Si1 0.824732 0.330870 0.640684
Si Si2 0.327478 0.662580 0.640442
Si Si3 0.192413 0.664487 0.765861
Si Si4 0.723452 0.161993 0.995339
Si Si5 0.502531 0.837216 0.130328
Si Si6 0.117318 0.167759 0.099428
Si Si7 0.003358 0.840144 0.369237
O O1 0.846710 0.500000 0.664904
O O2 0.713631 0.303535 0.512697
O O3 0.834608 0.258099 0.768446
O O4 0.904426 0.259876 0.606494
O O5 0.366965 0.500000 0.673235
O O6 0.230833 0.684463 0.662460
O O7 0.421237 0.759649 0.735912
O O8 0.164351 0.500000 0.773889
O O9 0.097892 0.764732 0.738281
O O10 0.278519 0.722849 0.904379
O O11 0.607586 0.171079 0.877033
O O12 0.808698 0.205439 0.957770
O O13 0.744991 0.000000 0.053049
O O14 0.541976 0.000000 0.145141
O O15 0.500000 0.772684 0.000000
O O16 0.121572 0.000000 0.133210
O O17 0.000000 0.213762 0.000000
O O18 0.000000 0.854256 0.500000
O O19 0.011879 0.000000 0.319477
#
# Coordination Sequence:
#
# PCOD8064450 Si02
#       7
#     4   4   4   4   4   4   4
#     4  11  23  40  60  84 119 156 197 246 296 351
#     4  10  22  37  55  84 120 155 189 239 298 351
#     4  11  21  34  55  84 119 154 190 236 295 354
#     4  10  21  38  59  86 119 152 196 249 297 348
#     4  10  20  35  58  87 118 155 197 243 294 352
#     4  10  22  41  63  86 116 154 198 246 295 351
#     4  11  22  34  53  82 115 152 192 233 287 353
#
# _framework density 19.411095
#
# number of rings (size 3 to 8) (size 9 to 14) (size 15 to 20)
#    0.000    1.571    2.857    2.143    0.000    5.143 
#    0.000    0.714    0.000    4.286    0.000    0.000 
#    0.000    0.000    0.000    0.000    0.000    0.000 
#
# Total GULP energy -347092.990235 kJ/mol
# GULP energy per Si atom -12396.178223 kJ/mol
# Density = 1.936691 g / cm^3
# Si number density = 19.411095 Si / 1000 Ang^3
#
#
#
# Elastic Constant Matrix: (Units=GPa)
#
#
# Indices 1 2 3 4 5 6 
#
# 1 82.6136 32.4160 34.2646 0.0000 10.9437 0.0000
# 2 32.4160 100.3173 68.3439 0.0000 6.3459 0.0000
# 3 34.2646 68.3439 121.0793 0.0000 9.7847 0.0000
# 4 0.0000 0.0000 0.0000 37.3010 0.0000 1.1920
# 5 10.9437 6.3459 9.7847 0.0000 27.7991 0.0000
# 6 0.0000 0.0000 0.0000 1.1920 0.0000 -27.2420
#
#
#
# Elastic Compliance Matrix: (Units=1/GPa)
#
#
# Indices 1 2 3 4 5 6 
#
# 1 0.014754 -0.003066 -0.002091 0.000000 -0.004372 0.000000
# 2 -0.003066 0.016841 -0.008672 0.000000 0.000415 0.000000
# 3 -0.002091 -0.008672 0.013915 0.000000 -0.002095 0.000000
# 4 0.000000 0.000000 0.000000 0.026771 0.000000 0.001171
# 5 -0.004372 0.000415 -0.002095 0.000000 0.038336 0.000000
# 6 0.000000 0.000000 0.000000 0.001171 0.000000 -0.036657
#
#
# Mechanical properties :
#
#
# Convention : Reuss Voigt Hill
#
# Bulk Modulus (GPa) = 56.01763 63.78438 59.90100
# Shear Modulus (GPa) = 46.48143 18.83733 32.65938
#
# Velocity S-wave (km/s) = 4.89875 3.11857 4.10629
# Velocity P-wave (km/s) = 7.80502 6.77484 7.30810
#
# Compressibility (1/GPa) = 0.01785152
#
# Stress axis : x y z
#
# Youngs Moduli (GPa) = 67.77708 59.37967 71.86536
#
# Poissons Ratio (x) = 0.18208 0.15028
# Poissons Ratio (y) = 0.20783 0.62319
# Poissons Ratio (z) = 0.14174 0.51492
#
# Static dielectric constant tensor:
#      x y z
#    x 3.464370 0.000000 0.075140 
#    y 0.000000 3.600950 0.000000 
#    z 0.075140 0.000000 3.523610 
# 
# 
# High freq. dielectric constant tensor:
#      x y z
#    x 1.742260 0.000000 0.011720 
#    y 0.000000 1.759140 0.000000 
#    z 0.011720 0.000000 1.754410 
# 
# From -- ./inp_files/49585.got.cif
#   From: 2010.06.25/outbox.cif.g09.slc.cpg/sg10_25_cif.got.tgz:49585.got - 2010.06.27 22:07:45.
