data_PCOD8064835
_publ_section_title
;
Structure prediction by ZEFSAII (Michael W. Deem and Ramdas Pophale) SiO2 
 PCOD8064835
Probable space group: P 2/M
;
_chemical_formula_sum "Si O2"
_cell_formula_units_Z 28
_cell_length_a 9.204902
_cell_length_b 8.537848
_cell_length_c 29.160457
_cell_angle_alpha 90.000000
_cell_angle_beta 37.907355
_cell_angle_gamma 90.000000
_cell_volume 1408.002968
_symmetry_space_group_name_H-M "P 2/M"
_symmetry_group_IT_number 10
_symmetry_cell_setting 'monoclinic'
loop_
_space_group_symop_operation_xyz
x,y,z
-x,y,-z
-x,-y,-z
x,-y,z
loop_
_atom_site_type_symbol
_atom_site_label
_atom_site_fract_x
_atom_site_fract_y
_atom_site_fract_z
Si Si1 0.195635 0.818917 0.355114
Si Si2 0.997206 0.814673 0.766383
Si Si3 0.488814 0.318031 0.363346
Si Si4 0.588509 0.821246 0.931419
Si Si5 0.328656 0.681275 0.228036
Si Si6 0.312687 0.682438 0.507755
Si Si7 0.739162 0.820502 0.071784
O O1 0.319764 0.778241 0.372043
O O2 0.314475 0.718834 0.285207
O O3 0.918781 0.784580 0.427108
O O4 0.234712 0.000000 0.334417
O O5 0.827396 0.750642 0.849640
O O6 0.871132 0.778881 0.749322
O O7 0.239592 0.723935 0.712290
O O8 0.039292 0.000000 0.758663
O O9 0.447904 0.500000 0.363787
O O10 0.424048 0.273407 0.431284
O O11 0.377646 0.807067 0.948434
O O12 0.648139 0.000000 0.928571
O O13 0.500000 0.734437 0.000000
O O14 0.276879 0.500000 0.232422
O O15 0.592937 0.722690 0.145577
O O16 0.500000 0.728379 0.500000
O O17 0.244272 0.500000 0.527749
O O18 0.749740 0.000000 0.086294
O O19 0.000000 0.749419 0.000000
#
# Coordination Sequence:
#
# PCOD8064835 Si02
#       7
#     4   4   4   4   4   4   4
#     4  12  25  40  60  86 117 151 193 244 291 337
#     4  10  20  36  59  86 115 150 196 242 285 340
#     4  11  23  39  60  87 121 156 189 231 287 346
#     4   8  15  29  50  77 108 143 183 228 277 329
#     4  11  22  38  59  82 114 154 196 241 292 349
#     4  10  22  41  64  88 116 152 190 229 283 348
#     4   9  18  33  54  80 111 147 189 237 287 340
#
# _framework density 19.886320999999999
#
# number of rings (size 3 to 8) (size 9 to 14) (size 15 to 20)
#    0.000    1.857    0.000    5.571    0.000    5.714 
#    0.000    2.857    0.000   10.714    0.000    0.000 
#    0.000    0.000    0.000    0.000    0.000    0.000 
#
# Total GULP energy -347260.170683 kJ/mol
# GULP energy per Si atom -12402.148953 kJ/mol
# Density = 1.984106 g / cm^3
# Si number density = 19.886321 Si / 1000 Ang^3
#
#
#
# Elastic Constant Matrix: (Units=GPa)
#
#
# Indices 1 2 3 4 5 6 
#
# 1 96.5235 12.5189 65.9710 0.0000 -1.7751 0.0000
# 2 12.5189 50.9376 35.2833 0.0000 -1.2174 0.0000
# 3 65.9710 35.2833 135.9209 0.0000 0.5977 0.0000
# 4 0.0000 0.0000 0.0000 22.6168 0.0000 -7.0498
# 5 -1.7751 -1.2174 0.5977 0.0000 40.6469 0.0000
# 6 0.0000 0.0000 0.0000 -7.0498 0.0000 27.6277
#
#
#
# Elastic Compliance Matrix: (Units=1/GPa)
#
#
# Indices 1 2 3 4 5 6 
#
# 1 0.015656 0.001754 -0.008058 0.000000 0.000855 0.000000
# 2 0.001754 0.024159 -0.007127 0.000000 0.000905 0.000000
# 3 -0.008058 -0.007127 0.013122 0.000000 -0.000758 0.000000
# 4 0.000000 0.000000 0.000000 0.048036 0.000000 0.012257
# 5 0.000855 0.000905 -0.000758 0.000000 0.024678 0.000000
# 6 0.000000 0.000000 0.000000 0.012257 0.000000 0.039323
#
#
# Mechanical properties :
#
#
# Convention : Reuss Voigt Hill
#
# Bulk Modulus (GPa) = 38.35032 56.76979 47.56005
# Shear Modulus (GPa) = 24.93454 29.48554 27.21004
#
# Velocity S-wave (km/s) = 3.54482 3.85477 3.70304
# Velocity P-wave (km/s) = 6.00674 6.95855 6.50009
#
# Compressibility (1/GPa) = 0.02607540
#
# Stress axis : x y z
#
# Youngs Moduli (GPa) = 63.87473 41.39263 76.21073
#
# Poissons Ratio (x) = -0.07261 0.61409
# Poissons Ratio (y) = -0.11205 0.54313
# Poissons Ratio (z) = 0.51469 0.29499
#
# Static dielectric constant tensor:
#      x y z
#    x 3.608970 0.000000 0.081550 
#    y 0.000000 3.445190 0.000000 
#    z 0.081550 0.000000 3.926710 
# 
# 
# High freq. dielectric constant tensor:
#      x y z
#    x 1.775020 0.000000 0.000330 
#    y 0.000000 1.759740 0.000000 
#    z 0.000330 0.000000 1.792900 
# 
# From -- ./inp_files/91968.got.cif
#   From: 2010.06.25/outbox.cif.g09.slc.cpg/sg10_46_cif.got.tgz:91968.got - 2010.06.27 22:07:45.
