data_PCOD8064498
_publ_section_title
;
Structure prediction by ZEFSAII (Michael W. Deem and Ramdas Pophale) SiO2 
 PCOD8064498
Probable space group: P 2/M
;
_chemical_formula_sum "Si O2"
_cell_formula_units_Z 28
_cell_length_a 12.536477
_cell_length_b 14.028797
_cell_length_c 9.690771
_cell_angle_alpha 90.000000
_cell_angle_beta 57.478569
_cell_angle_gamma 90.000000
_cell_volume 1437.076643
_symmetry_space_group_name_H-M "P 2/M"
_symmetry_group_IT_number 10
_symmetry_cell_setting 'monoclinic'
loop_
_space_group_symop_operation_xyz
x,y,z
-x,y,-z
-x,-y,-z
x,-y,z
loop_
_atom_site_type_symbol
_atom_site_label
_atom_site_fract_x
_atom_site_fract_y
_atom_site_fract_z
Si Si1 0.847424 0.889908 0.722722
Si Si2 0.211158 0.206223 0.509996
Si Si3 0.613625 0.193811 0.026759
Si Si4 0.039877 0.887441 0.822997
Si Si5 0.532485 0.110543 0.634513
Si Si6 0.854335 0.393812 0.559958
Si Si7 0.645872 0.396225 0.944963
O O1 0.869749 0.834832 0.563441
O O2 0.940686 0.853590 0.777221
O O3 0.868665 0.000000 0.674296
O O4 0.709627 0.872309 0.877964
O O5 0.170961 0.160345 0.684375
O O6 0.356704 0.179007 0.388864
O O7 0.188640 0.319737 0.528802
O O8 0.586106 0.138611 0.187994
O O9 0.500000 0.204783 0.000000
O O10 0.662877 0.301870 0.028496
O O11 0.058407 0.000000 0.817236
O O12 0.000000 0.847473 0.000000
O O13 0.500000 0.132764 0.500000
O O14 0.569607 0.000000 0.629475
O O15 0.845080 0.500000 0.504053
O O16 0.751302 0.381403 0.752824
O O17 0.000000 0.373193 0.500000
O O18 0.674480 0.500000 0.996859
O O19 0.500000 0.399988 0.000000
#
# Coordination Sequence:
#
# PCOD8064498 Si02
#       7
#     4   4   4   4   4   4   4
#     4  11  21  33  55  84 113 146 188 242 287 341
#     4  12  21  38  61  84 115 152 197 247 296 351
#     4  11  20  35  57  85 114 146 191 243 297 350
#     4  10  23  38  54  80 114 155 195 234 287 353
#     4  11  25  40  57  84 121 163 199 241 297 364
#     4  10  20  35  59  92 124 153 194 250 308 361
#     4   9  17  32  55  85 118 150 191 245 304 360
#
# _framework density 19.484000000000002
#
# number of rings (size 3 to 8) (size 9 to 14) (size 15 to 20)
#    0.000    1.429    2.857    3.857    2.000    1.714 
#    0.000    0.000    0.000    2.143    0.000    0.000 
#    0.000    0.000    0.000    0.000    0.000    0.000 
#
# Total GULP energy -346999.775356 kJ/mol
# GULP energy per Si atom -12392.849120 kJ/mol
# Density = 1.943965 g / cm^3
# Si number density = 19.484000 Si / 1000 Ang^3
#
#
#
# Elastic Constant Matrix: (Units=GPa)
#
#
# Indices 1 2 3 4 5 6 
#
# 1 47.1162 28.0055 24.5702 0.0000 -4.5851 0.0000
# 2 28.0055 95.8965 32.2783 0.0000 10.3212 0.0000
# 3 24.5702 32.2783 130.4116 0.0000 -0.4159 0.0000
# 4 0.0000 0.0000 0.0000 23.2162 0.0000 -5.8355
# 5 -4.5851 10.3212 -0.4159 0.0000 33.7497 0.0000
# 6 0.0000 0.0000 0.0000 -5.8355 0.0000 17.6461
#
#
#
# Elastic Compliance Matrix: (Units=1/GPa)
#
#
# Indices 1 2 3 4 5 6 
#
# 1 0.028196 -0.007763 -0.003371 0.000000 0.006163 0.000000
# 2 -0.007763 0.013945 -0.002006 0.000000 -0.005344 0.000000
# 3 -0.003371 -0.002006 0.008801 0.000000 0.000264 0.000000
# 4 0.000000 0.000000 0.000000 0.046978 0.000000 0.015536
# 5 0.006163 -0.005344 0.000264 0.000000 0.032105 0.000000
# 6 0.000000 0.000000 0.000000 0.015536 0.000000 0.061807
#
#
# Mechanical properties :
#
#
# Convention : Reuss Voigt Hill
#
# Bulk Modulus (GPa) = 40.54898 49.23693 44.89295
# Shear Modulus (GPa) = 22.09129 27.49375 24.79252
#
# Velocity S-wave (km/s) = 3.37087 3.76053 3.57102
# Velocity P-wave (km/s) = 6.00058 6.64686 6.33197
#
# Compressibility (1/GPa) = 0.02466154
#
# Stress axis : x y z
#
# Youngs Moduli (GPa) = 35.46586 71.70820 113.62910
#
# Poissons Ratio (x) = 0.55667 0.38307
# Poissons Ratio (y) = 0.27532 0.22795
# Poissons Ratio (z) = 0.11956 0.14385
#
# Static dielectric constant tensor:
#      x y z
#    x 3.522020 0.000000 -0.403680 
#    y 0.000000 3.932160 0.000000 
#    z -0.403680 0.000000 3.785150 
# 
# 
# High freq. dielectric constant tensor:
#      x y z
#    x 1.733880 0.000000 -0.036220 
#    y 0.000000 1.766250 0.000000 
#    z -0.036220 0.000000 1.760650 
# 
# From -- ./inp_files/25072.got.cif
#   From: 2010.06.25/outbox.cif.g09.slc.cpg/sg10_13_cif.got.tgz:25072.got - 2010.06.27 22:07:45.
