data_PCOD8064281
_publ_section_title
;
Structure prediction by ZEFSAII (Michael W. Deem and Ramdas Pophale) SiO2 
 PCOD8064281
Probable space group: P 2/M
;
_chemical_formula_sum "Si O2"
_cell_formula_units_Z 32
_cell_length_a 11.471196
_cell_length_b 8.378501
_cell_length_c 17.077516
_cell_angle_alpha 90.000000
_cell_angle_beta 104.043699
_cell_angle_gamma 90.000000
_cell_volume 1592.286180
_symmetry_space_group_name_H-M "P 2/M"
_symmetry_group_IT_number 10
_symmetry_cell_setting 'monoclinic'
loop_
_space_group_symop_operation_xyz
x,y,z
-x,y,-z
-x,-y,-z
x,-y,z
loop_
_atom_site_type_symbol
_atom_site_label
_atom_site_fract_x
_atom_site_fract_y
_atom_site_fract_z
Si Si1 0.254907 0.313541 0.689796
Si Si2 0.080388 0.816110 0.782918
Si Si3 0.563773 0.812919 0.159360
Si Si4 0.618464 0.685854 0.608181
Si Si5 0.176719 0.314748 0.239756
Si Si6 0.638722 0.185311 0.445221
Si Si7 0.257791 0.313823 0.933171
Si Si8 0.287553 0.186665 0.105074
O O1 0.230127 0.500000 0.681274
O O2 0.140125 0.228662 0.709831
O O3 0.374889 0.282029 0.759732
O O4 0.268968 0.243736 0.605419
O O5 0.139481 0.710739 0.861230
O O6 0.939473 0.785291 0.755197
O O7 0.106386 0.000000 0.805808
O O8 0.626597 0.768081 0.087833
O O9 0.426018 0.759959 0.132501
O O10 0.578375 0.000000 0.177565
O O11 0.588405 0.500000 0.613142
O O12 0.716025 0.744126 0.686777
O O13 0.497699 0.784685 0.604975
O O14 0.667450 0.718127 0.528985
O O15 0.148871 0.500000 0.248087
O O16 0.211373 0.283393 0.155930
O O17 0.657550 0.000000 0.464914
O O18 0.283021 0.500000 0.948163
O O19 0.234233 0.231356 0.012279
O O20 0.271996 0.000000 0.118250
#
# Coordination Sequence:
#
# PCOD8064281 Si02
#       8
#     4   4   4   4   4   4   4   4
#     4  11  21  36  59  85 115 150 191 233 278 333
#     4  11  23  41  62  82 110 147 189 235 283 334
#     4  10  20  35  56  84 118 150 185 231 283 337
#     4  10  21  38  60  87 120 153 185 227 280 334
#     4  11  24  41  60  83 112 147 189 234 281 334
#     4  11  21  35  59  90 122 152 187 228 274 332
#     4  11  22  37  58  83 113 148 189 234 282 335
#     4  11  23  37  56  83 114 149 189 233 282 336
#
# _framework density 20.096889000000001
#
# number of rings (size 3 to 8) (size 9 to 14) (size 15 to 20)
#    0.000    1.250    0.000    9.375    0.000    8.000 
#    0.000    3.125    0.000    3.750    0.000    0.000 
#    0.000    0.000    0.000    0.000    0.000    0.000 
#
# Total GULP energy -397035.059771 kJ/mol
# GULP energy per Si atom -12407.345618 kJ/mol
# Density = 2.005115 g / cm^3
# Si number density = 20.096889 Si / 1000 Ang^3
#
#
#
# Elastic Constant Matrix: (Units=GPa)
#
#
# Indices 1 2 3 4 5 6 
#
# 1 75.6929 17.5795 33.9910 0.0000 -13.9317 0.0000
# 2 17.5795 73.7132 1.2368 0.0000 -1.2323 0.0000
# 3 33.9910 1.2368 95.9730 0.0000 -25.0912 0.0000
# 4 0.0000 0.0000 0.0000 27.8975 0.0000 -5.8293
# 5 -13.9317 -1.2323 -25.0912 0.0000 21.9008 0.0000
# 6 0.0000 0.0000 0.0000 -5.8293 0.0000 26.8598
#
#
#
# Elastic Compliance Matrix: (Units=1/GPa)
#
#
# Indices 1 2 3 4 5 6 
#
# 1 0.017199 -0.003933 -0.004623 0.000000 0.005423 0.000000
# 2 -0.003933 0.014479 0.001093 0.000000 -0.000436 0.000000
# 3 -0.004623 0.001093 0.016118 0.000000 0.015586 0.000000
# 4 0.000000 0.000000 0.000000 0.037548 0.000000 0.008149
# 5 0.005423 -0.000436 0.015586 0.000000 0.066942 0.000000
# 6 0.000000 0.000000 0.000000 0.008149 0.000000 0.038999
#
#
# Mechanical properties :
#
#
# Convention : Reuss Voigt Hill
#
# Bulk Modulus (GPa) = 30.42500 38.99932 34.71216
# Shear Modulus (GPa) = 23.02362 28.16975 25.59669
#
# Velocity S-wave (km/s) = 3.38839 3.74799 3.57272
# Velocity P-wave (km/s) = 5.52089 6.17881 5.85909
#
# Compressibility (1/GPa) = 0.03286770
#
# Stress axis : x y z
#
# Youngs Moduli (GPa) = 58.14315 69.06772 62.04347
#
# Poissons Ratio (x) = 0.27168 0.28682
# Poissons Ratio (y) = 0.22870 -0.06779
# Poissons Ratio (z) = 0.26879 -0.07547
#
# Static dielectric constant tensor:
#      x y z
#    x 3.556080 0.000000 -0.098940 
#    y 0.000000 3.679590 0.000000 
#    z -0.098940 0.000000 3.695000 
# 
# 
# High freq. dielectric constant tensor:
#      x y z
#    x 1.771760 0.000000 -0.011320 
#    y 0.000000 1.798950 0.000000 
#    z -0.011320 0.000000 1.787750 
# 
# From -- ./inp_files/63813.got.cif
#   From: 2010.06.25/outbox.cif.g09.slc.cpg/sg10_32_cif.got.tgz:63813.got - 2010.06.27 22:07:45.
