data_PCOD8064089
_publ_section_title
;
Structure prediction by ZEFSAII (Michael W. Deem and Ramdas Pophale) SiO2 
 PCOD8064089
Probable space group: P 2/M
;
_chemical_formula_sum "Si O2"
_cell_formula_units_Z 28
_cell_length_a 10.152985
_cell_length_b 7.606398
_cell_length_c 28.605804
_cell_angle_alpha 90.000000
_cell_angle_beta 142.242221
_cell_angle_gamma 90.000000
_cell_volume 1352.722378
_symmetry_space_group_name_H-M "P 2/M"
_symmetry_group_IT_number 10
_symmetry_cell_setting 'monoclinic'
loop_
_space_group_symop_operation_xyz
x,y,z
-x,y,-z
-x,-y,-z
x,-y,z
loop_
_atom_site_type_symbol
_atom_site_label
_atom_site_fract_x
_atom_site_fract_y
_atom_site_fract_z
Si Si1 0.253520 0.299554 0.707234
Si Si2 0.671610 0.298343 0.684086
Si Si3 0.942613 0.298525 0.033408
Si Si4 0.348208 0.000000 0.580827
Si Si5 0.878545 0.207829 0.227559
Si Si6 0.074357 0.000000 0.596539
Si Si7 0.714501 0.707161 0.800356
Si Si8 0.493955 0.792682 0.945698
O O1 0.215848 0.500000 0.679882
O O2 0.217202 0.286799 0.752129
O O3 0.496039 0.236954 0.764960
O O4 0.094114 0.174104 0.633779
O O5 0.588034 0.500000 0.661656
O O6 0.720248 0.219694 0.749269
O O7 0.887054 0.289097 0.714075
O O8 0.487478 0.175482 0.610560
O O9 0.015701 0.500000 0.050946
O O10 0.085006 0.209612 0.114621
O O11 0.690975 0.285834 0.972199
O O12 0.000000 0.206838 0.000000
O O13 0.163304 0.000000 0.490573
O O14 0.252822 0.000000 0.606188
O O15 0.725288 0.265454 0.141479
O O16 0.894133 0.000000 0.236013
O O17 0.737535 0.500000 0.803420
O O18 0.519270 0.000000 0.953665
O O19 0.500000 0.715671 0.000000
#
# Coordination Sequence:
#
# PCOD8064089 Si02
#       8
#     4   4   4   2   4   2   4   4
#     4  11  22  41  65  94 128 165 209 255 308 371
#     4  11  22  40  64  94 125 164 208 250 307 366
#     4  10  20  35  54  81 117 156 204 259 307 352
#     4  11  24  43  69 101 131 156 198 252 303 375
#     4  11  22  38  62  88 127 170 213 263 311 366
#     4  11  24  43  69 103 129 159 198 243 315 375
#     4   9  19  35  58  86 118 159 210 257 304 366
#     4  10  22  38  54  85 123 162 210 259 311 362
#
# _framework density 20.698999000000001
#
# number of rings (size 3 to 8) (size 9 to 14) (size 15 to 20)
#    0.000    1.571    2.857    2.143    0.000    3.429 
#    2.571    2.857    0.000    1.714    0.000    0.000 
#    0.000    0.000    0.000    0.000    0.000    0.000 
#
# Total GULP energy -347272.600545 kJ/mol
# GULP energy per Si atom -12402.592877 kJ/mol
# Density = 2.065189 g / cm^3
# Si number density = 20.698999 Si / 1000 Ang^3
#
#
#
# Elastic Constant Matrix: (Units=GPa)
#
#
# Indices 1 2 3 4 5 6 
#
# 1 108.3741 10.5454 21.9511 0.0000 7.7225 0.0000
# 2 10.5454 86.5666 42.0424 0.0000 2.2566 0.0000
# 3 21.9511 42.0424 111.8499 0.0000 8.5005 0.0000
# 4 0.0000 0.0000 0.0000 16.4803 0.0000 6.0525
# 5 7.7225 2.2566 8.5005 0.0000 31.4088 0.0000
# 6 0.0000 0.0000 0.0000 6.0525 0.0000 25.9101
#
#
#
# Elastic Compliance Matrix: (Units=1/GPa)
#
#
# Indices 1 2 3 4 5 6 
#
# 1 0.009729 -0.000341 -0.001635 0.000000 -0.001925 0.000000
# 2 -0.000341 0.014149 -0.005289 0.000000 0.000499 0.000000
# 3 -0.001635 -0.005289 0.011425 0.000000 -0.002310 0.000000
# 4 0.000000 0.000000 0.000000 0.066373 0.000000 -0.015505
# 5 -0.001925 0.000499 -0.002310 0.000000 0.032901 0.000000
# 6 0.000000 0.000000 0.000000 -0.015505 0.000000 0.042217
#
#
# Mechanical properties :
#
#
# Convention : Reuss Voigt Hill
#
# Bulk Modulus (GPa) = 48.14019 50.65206 49.39613
# Shear Modulus (GPa) = 25.22088 30.24327 27.73207
#
# Velocity S-wave (km/s) = 3.49443 3.82658 3.66427
# Velocity P-wave (km/s) = 6.29199 6.63683 6.46671
#
# Compressibility (1/GPa) = 0.02077266
#
# Stress axis : x y z
#
# Youngs Moduli (GPa) = 102.78769 70.67515 87.52598
#
# Poissons Ratio (x) = 0.02410 0.14309
# Poissons Ratio (y) = 0.03505 0.46296
# Poissons Ratio (z) = 0.16804 0.37383
#
# Static dielectric constant tensor:
#      x y z
#    x 3.770160 0.000000 -0.114900 
#    y 0.000000 3.641360 0.000000 
#    z -0.114900 0.000000 3.745770 
# 
# 
# High freq. dielectric constant tensor:
#      x y z
#    x 1.816650 0.000000 -0.000210 
#    y 0.000000 1.806290 0.000000 
#    z -0.000210 0.000000 1.799070 
# 
# From -- ./inp_files/92116.got.cif
#   From: 2010.06.25/outbox.cif.g09.slc.cpg/sg10_47_cif.got.tgz:92116.got - 2010.06.27 22:07:45.
