data_PCOD8064827
_publ_section_title
;
Structure prediction by ZEFSAII (Michael W. Deem and Ramdas Pophale) SiO2 
 PCOD8064827
Probable space group: P 2/M
;
_chemical_formula_sum "Si O2"
_cell_formula_units_Z 28
_cell_length_a 14.883526
_cell_length_b 7.445568
_cell_length_c 21.271374
_cell_angle_alpha 90.000000
_cell_angle_beta 146.689231
_cell_angle_gamma 90.000000
_cell_volume 1294.535140
_symmetry_space_group_name_H-M "P 2/M"
_symmetry_group_IT_number 10
_symmetry_cell_setting 'monoclinic'
loop_
_space_group_symop_operation_xyz
x,y,z
-x,y,-z
-x,-y,-z
x,-y,z
loop_
_atom_site_type_symbol
_atom_site_label
_atom_site_fract_x
_atom_site_fract_y
_atom_site_fract_z
Si Si1 0.559203 0.787308 0.605602
Si Si2 0.325095 0.786784 0.915888
Si Si3 0.923135 0.214299 0.330116
Si Si4 0.295260 0.204787 0.688362
Si Si5 0.176128 0.500000 0.040604
Si Si6 0.288411 0.787051 0.546091
Si Si7 0.344184 0.796940 0.065193
Si Si8 0.807666 0.500000 0.800245
O O1 0.500000 0.744218 0.500000
O O2 0.417859 0.715991 0.570495
O O3 0.722728 0.676902 0.719943
O O4 0.596390 0.000000 0.634633
O O5 0.186658 0.705555 0.789911
O O6 0.334531 0.000000 0.915021
O O7 0.500000 0.702454 0.000000
O O8 0.276182 0.733425 0.958147
O O9 0.852050 0.287811 0.355542
O O10 0.106179 0.280408 0.423049
O O11 0.912839 0.000000 0.325208
O O12 0.322291 0.294729 0.635596
O O13 0.460033 0.222189 0.824776
O O14 0.248321 0.000000 0.646691
O O15 0.270902 0.678543 0.077044
O O16 0.188949 0.500000 0.122600
O O17 0.002356 0.500000 0.902058
O O18 0.300969 0.000000 0.552266
O O19 0.293994 0.000000 0.052020
#
# Coordination Sequence:
#
# PCOD8064827 Si02
#       8
#     4   4   4   4   2   4   4   2
#     4  10  22  42  69  96 121 154 201 256 320 386
#     4   9  15  27  48  76 113 159 200 233 282 343
#     4   9  15  24  44  77 115 153 195 237 280 343
#     4   9  15  26  48  76 112 156 192 230 289 348
#     4  11  26  42  61  93 121 158 215 259 310 379
#     4   9  17  28  47  81 115 144 188 241 290 352
#     4  10  20  36  59  85 118 159 204 252 298 354
#     4  11  25  46  66  87 124 161 199 263 327 378
#
# _framework density 21.629384000000002
#
# number of rings (size 3 to 8) (size 9 to 14) (size 15 to 20)
#    0.000    2.429    1.429    1.500    0.000    5.143 
#    0.000    4.643    0.000    0.857    0.000    3.000 
#    0.000    0.000    0.000    0.000    0.000    0.000 
#
# Total GULP energy -346966.554019 kJ/mol
# GULP energy per Si atom -12391.662644 kJ/mol
# Density = 2.158015 g / cm^3
# Si number density = 21.629384 Si / 1000 Ang^3
#
#
#
# Elastic Constant Matrix: (Units=GPa)
#
#
# Indices 1 2 3 4 5 6 
#
# 1 74.3010 14.5988 21.0767 0.0000 -9.6077 0.0000
# 2 14.5988 66.5930 19.3076 0.0000 0.8862 0.0000
# 3 21.0767 19.3076 109.2957 0.0000 -20.0169 0.0000
# 4 0.0000 0.0000 0.0000 9.3465 0.0000 -6.7980
# 5 -9.6077 0.8862 -20.0169 0.0000 35.9168 0.0000
# 6 0.0000 0.0000 0.0000 -6.7980 0.0000 29.5342
#
#
#
# Elastic Compliance Matrix: (Units=1/GPa)
#
#
# Indices 1 2 3 4 5 6 
#
# 1 0.014917 -0.002780 -0.001829 0.000000 0.003040 0.000000
# 2 -0.002780 0.016499 -0.002884 0.000000 -0.002758 0.000000
# 3 -0.001829 -0.002884 0.011064 0.000000 0.005748 0.000000
# 4 0.000000 0.000000 0.000000 0.128505 0.000000 0.029578
# 5 0.003040 -0.002758 0.005748 0.000000 0.031927 0.000000
# 6 0.000000 0.000000 0.000000 0.029578 0.000000 0.040667
#
#
# Mechanical properties :
#
#
# Convention : Reuss Voigt Hill
#
# Bulk Modulus (GPa) = 36.37056 40.01732 38.19394
# Shear Modulus (GPa) = 18.67562 27.97328 23.32445
#
# Velocity S-wave (km/s) = 2.94162 3.60015 3.28742
# Velocity P-wave (km/s) = 5.32817 5.98523 5.66623
#
# Compressibility (1/GPa) = 0.02749477
#
# Stress axis : x y z
#
# Youngs Moduli (GPa) = 67.03829 60.61026 90.38086
#
# Poissons Ratio (x) = 0.16852 0.16528
# Poissons Ratio (y) = 0.18639 0.26061
# Poissons Ratio (z) = 0.12259 0.17477
#
# Static dielectric constant tensor:
#      x y z
#    x 4.004560 0.000000 -0.076710 
#    y 0.000000 3.438120 0.000000 
#    z -0.076710 0.000000 4.094590 
# 
# 
# High freq. dielectric constant tensor:
#      x y z
#    x 1.848640 0.000000 -0.012130 
#    y 0.000000 1.818630 0.000000 
#    z -0.012130 0.000000 1.854940 
# 
# From -- ./inp_files/85040.got.cif
#   From: 2010.06.25/outbox.cif.g09.slc.cpg/sg10_43_cif.got.tgz:85040.got - 2010.06.27 22:07:45.
