data_PCOD8064814
_publ_section_title
;
Structure prediction by ZEFSAII (Michael W. Deem and Ramdas Pophale) SiO2 
 PCOD8064814
Probable space group: P 2/M
;
_chemical_formula_sum "Si O2"
_cell_formula_units_Z 28
_cell_length_a 29.223056
_cell_length_b 8.926806
_cell_length_c 9.423455
_cell_angle_alpha 90.000000
_cell_angle_beta 36.134458
_cell_angle_gamma 90.000000
_cell_volume 1449.605713
_symmetry_space_group_name_H-M "P 2/M"
_symmetry_group_IT_number 10
_symmetry_cell_setting 'monoclinic'
loop_
_space_group_symop_operation_xyz
x,y,z
-x,y,-z
-x,-y,-z
x,-y,z
loop_
_atom_site_type_symbol
_atom_site_label
_atom_site_fract_x
_atom_site_fract_y
_atom_site_fract_z
Si Si1 0.809440 0.674683 0.082153
Si Si2 0.371131 0.672507 0.474227
Si Si3 0.193418 0.823954 0.615655
Si Si4 0.927038 0.675572 0.282216
Si Si5 0.073447 0.174555 0.415278
Si Si6 0.507013 0.176319 0.640515
Si Si7 0.628310 0.826274 0.814488
O O1 0.829981 0.500000 0.044276
O O2 0.719495 0.702837 0.276504
O O3 0.834928 0.754038 0.164548
O O4 0.853014 0.746911 0.840488
O O5 0.392387 0.500000 0.425107
O O6 0.416229 0.753564 0.486128
O O7 0.398951 0.735731 0.254227
O O8 0.148811 0.748544 0.597406
O O9 0.283747 0.788036 0.362073
O O10 0.175957 0.000000 0.663549
O O11 0.912597 0.500000 0.339374
O O12 0.943778 0.750616 0.390971
O O13 0.000000 0.709069 0.000000
O O14 0.000000 0.201945 0.500000
O O15 0.091449 0.000000 0.391808
O O16 0.500000 0.239620 0.500000
O O17 0.518732 0.000000 0.612845
O O18 0.428269 0.223460 0.917695
O O19 0.619606 0.000000 0.798532
#
# Coordination Sequence:
#
# PCOD8064814 Si02
#       7
#     4   4   4   4   4   4   4
#     4  10  21  38  59  84 115 148 184 228 282 341
#     4  10  21  36  56  83 111 143 184 228 274 327
#     4  10  20  36  59  85 113 146 189 237 280 328
#     4  11  24  40  59  84 116 153 188 226 277 334
#     4  11  24  40  60  86 114 146 187 234 279 327
#     4  10  21  36  54  78 110 147 186 229 277 329
#     4   9  19  36  57  81 109 145 186 227 275 330
#
# _framework density 19.315597
#
# number of rings (size 3 to 8) (size 9 to 14) (size 15 to 20)
#    0.000    1.857    0.000    3.429    0.000   10.571 
#    0.000    1.429    0.000    0.000    0.000    0.000 
#    0.000    0.000    0.000    0.000    0.000    0.000 
#
# Total GULP energy -347363.241062 kJ/mol
# GULP energy per Si atom -12405.830038 kJ/mol
# Density = 1.927163 g / cm^3
# Si number density = 19.315597 Si / 1000 Ang^3
#
#
#
# Elastic Constant Matrix: (Units=GPa)
#
#
# Indices 1 2 3 4 5 6 
#
# 1 147.8516 68.5388 59.1061 0.0000 16.2757 0.0000
# 2 68.5388 100.1039 61.8331 0.0000 9.5007 0.0000
# 3 59.1061 61.8331 117.7211 0.0000 22.3554 0.0000
# 4 0.0000 0.0000 0.0000 22.5114 0.0000 -8.1745
# 5 16.2757 9.5007 22.3554 0.0000 28.1232 0.0000
# 6 0.0000 0.0000 0.0000 -8.1745 0.0000 18.2462
#
#
#
# Elastic Compliance Matrix: (Units=1/GPa)
#
#
# Indices 1 2 3 4 5 6 
#
# 1 0.010447 -0.005883 -0.001630 0.000000 -0.002762 0.000000
# 2 -0.005883 0.018147 -0.007138 0.000000 0.002948 0.000000
# 3 -0.001630 -0.007138 0.014634 0.000000 -0.008278 0.000000
# 4 0.000000 0.000000 0.000000 0.053053 0.000000 0.023768
# 5 -0.002762 0.002948 -0.008278 0.000000 0.042741 0.000000
# 6 0.000000 0.000000 0.000000 0.023768 0.000000 0.065454
#
#
# Mechanical properties :
#
#
# Convention : Reuss Voigt Hill
#
# Bulk Modulus (GPa) = 71.81186 82.73695 77.27441
# Shear Modulus (GPa) = 20.97139 25.52274 23.24707
#
# Velocity S-wave (km/s) = 3.29861 3.63899 3.47297
# Velocity P-wave (km/s) = 7.19490 7.78354 7.49500
#
# Compressibility (1/GPa) = 0.01392528
#
# Stress axis : x y z
#
# Youngs Moduli (GPa) = 95.72399 55.10607 68.33300
#
# Poissons Ratio (x) = 0.32421 0.11140
# Poissons Ratio (y) = 0.56318 0.48773
# Poissons Ratio (z) = 0.15606 0.39332
#
# Static dielectric constant tensor:
#      x y z
#    x 3.601860 0.000000 -0.003810 
#    y 0.000000 3.616130 0.000000 
#    z -0.003810 0.000000 3.609560 
# 
# 
# High freq. dielectric constant tensor:
#      x y z
#    x 1.756850 0.000000 -0.003130 
#    y 0.000000 1.760540 0.000000 
#    z -0.003130 0.000000 1.757920 
# 
# From -- ./inp_files/31515.got.cif
#   From: 2010.06.25/outbox.cif.g09.slc.cpg/sg10_16_cif.got.tgz:31515.got - 2010.06.27 22:07:45.
