data_PCOD8064115
_publ_section_title
;
Structure prediction by ZEFSAII (Michael W. Deem and Ramdas Pophale) SiO2 
 PCOD8064115
Probable space group: P 2/M
;
_chemical_formula_sum "Si O2"
_cell_formula_units_Z 28
_cell_length_a 25.938399
_cell_length_b 9.012777
_cell_length_c 9.370155
_cell_angle_alpha 90.000000
_cell_angle_beta 139.354670
_cell_angle_gamma 90.000000
_cell_volume 1426.853762
_symmetry_space_group_name_H-M "P 2/M"
_symmetry_group_IT_number 10
_symmetry_cell_setting 'monoclinic'
loop_
_space_group_symop_operation_xyz
x,y,z
-x,y,-z
-x,-y,-z
x,-y,z
loop_
_atom_site_type_symbol
_atom_site_label
_atom_site_fract_x
_atom_site_fract_y
_atom_site_fract_z
Si Si1 0.225810 0.673954 0.829822
Si Si2 0.483686 0.668553 0.631608
Si Si3 0.328954 0.833094 0.267274
Si Si4 0.427053 0.174615 0.949476
Si Si5 0.264899 0.672944 0.588085
Si Si6 0.184850 0.165363 0.178948
Si Si7 0.910019 0.825384 0.286242
O O1 0.227710 0.500000 0.864819
O O2 0.234166 0.710909 0.681024
O O3 0.142986 0.739512 0.710289
O O4 0.300271 0.746225 0.066774
O O5 0.500000 0.677338 0.500000
O O6 0.477371 0.500000 0.672396
O O7 0.402744 0.753086 0.496287
O O8 0.556066 0.749161 0.862920
O O9 0.262261 0.834534 0.245340
O O10 0.352591 0.000000 0.272163
O O11 0.417977 0.000000 0.949369
O O12 0.500000 0.216188 0.000000
O O13 0.344906 0.238802 0.717176
O O14 0.281772 0.500000 0.604153
O O15 0.195668 0.723441 0.333989
O O16 0.168612 0.000000 0.204700
O O17 0.112904 0.217867 0.925018
O O18 0.000000 0.778038 0.500000
O O19 0.895410 0.000000 0.279374
#
# Coordination Sequence:
#
# PCOD8064115 Si02
#       7
#     4   4   4   4   4   4   4
#     4  10  21  36  55  82 113 145 182 223 270 324
#     4  11  23  36  51  75 106 139 179 228 279 329
#     4  10  20  35  55  78 103 137 184 230 272 323
#     4  11  24  39  55  77 106 143 188 235 281 328
#     4  11  23  37  54  79 111 146 185 226 270 325
#     4   9  19  35  56  81 107 137 175 218 264 318
#     4   9  19  38  63  89 114 141 178 221 265 320
#
# _framework density 19.623595000000002
#
# number of rings (size 3 to 8) (size 9 to 14) (size 15 to 20)
#    0.000    1.857    0.000    4.714    0.000   14.571 
#    0.000    0.714    0.000    4.286    0.000    0.000 
#    0.000    0.000    0.000    0.000    0.000    0.000 
#
# Total GULP energy -347298.684421 kJ/mol
# GULP energy per Si atom -12403.524444 kJ/mol
# Density = 1.957893 g / cm^3
# Si number density = 19.623595 Si / 1000 Ang^3
#
#
#
# Elastic Constant Matrix: (Units=GPa)
#
#
# Indices 1 2 3 4 5 6 
#
# 1 52.5299 42.2955 37.1062 0.0000 -6.5975 0.0000
# 2 42.2955 110.9832 50.3367 0.0000 -10.1155 0.0000
# 3 37.1062 50.3367 132.5204 0.0000 -3.1536 0.0000
# 4 0.0000 0.0000 0.0000 24.2952 0.0000 -11.9156
# 5 -6.5975 -10.1155 -3.1536 0.0000 31.6499 0.0000
# 6 0.0000 0.0000 0.0000 -11.9156 0.0000 18.4850
#
#
#
# Elastic Compliance Matrix: (Units=1/GPa)
#
#
# Indices 1 2 3 4 5 6 
#
# 1 0.030126 -0.008965 -0.004961 0.000000 0.002920 0.000000
# 2 -0.008965 0.013860 -0.002700 0.000000 0.002292 0.000000
# 3 -0.004961 -0.002700 0.009939 0.000000 -0.000907 0.000000
# 4 0.000000 0.000000 0.000000 0.060189 0.000000 0.038799
# 5 0.002920 0.002292 -0.000907 0.000000 0.032847 0.000000
# 6 0.000000 0.000000 0.000000 0.038799 0.000000 0.079108
#
#
# Mechanical properties :
#
#
# Convention : Reuss Voigt Hill
#
# Bulk Modulus (GPa) = 48.36929 61.72336 55.04633
# Shear Modulus (GPa) = 18.78203 25.97235 22.37719
#
# Velocity S-wave (km/s) = 3.09708 3.64198 3.38053
# Velocity P-wave (km/s) = 6.12301 7.01479 6.58402
#
# Compressibility (1/GPa) = 0.02067427
#
# Stress axis : x y z
#
# Youngs Moduli (GPa) = 33.19396 72.14811 100.61372
#
# Poissons Ratio (x) = 0.64680 0.49911
# Poissons Ratio (y) = 0.29758 0.27166
# Poissons Ratio (z) = 0.16466 0.19480
#
# Static dielectric constant tensor:
#      x y z
#    x 3.325210 0.000000 -0.024960 
#    y 0.000000 3.694520 0.000000 
#    z -0.024960 0.000000 3.999790 
# 
# 
# High freq. dielectric constant tensor:
#      x y z
#    x 1.745610 0.000000 -0.009190 
#    y 0.000000 1.772520 0.000000 
#    z -0.009190 0.000000 1.772660 
# 
# From -- ./inp_files/37098.got.cif
#   From: 2010.06.25/outbox.cif.g09.slc.cpg/sg10_19_cif.got.tgz:37098.got - 2010.06.27 22:07:45.
