data_PCOD8064155
_publ_section_title
;
Structure prediction by ZEFSAII (Michael W. Deem and Ramdas Pophale) SiO2 
 PCOD8064155
Probable space group: P 2/M
;
_chemical_formula_sum "Si O2"
_cell_formula_units_Z 28
_cell_length_a 15.257978
_cell_length_b 19.562768
_cell_length_c 9.089564
_cell_angle_alpha 90.000000
_cell_angle_beta 32.932313
_cell_angle_gamma 90.000000
_cell_volume 1474.986487
_symmetry_space_group_name_H-M "P 2/M"
_symmetry_group_IT_number 10
_symmetry_cell_setting 'monoclinic'
loop_
_space_group_symop_operation_xyz
x,y,z
-x,y,-z
-x,-y,-z
x,-y,z
loop_
_atom_site_type_symbol
_atom_site_label
_atom_site_fract_x
_atom_site_fract_y
_atom_site_fract_z
Si Si1 0.244317 0.192582 0.307990
Si Si2 0.172302 0.341489 0.316153
Si Si3 0.552307 0.192582 0.692010
Si Si4 0.743919 0.924313 0.303744
Si Si5 0.047663 0.075687 0.696256
Si Si6 0.660501 0.576864 0.678999
Si Si7 0.488455 0.341489 0.683847
O O1 0.162617 0.261572 0.367093
O O2 0.313011 0.206437 0.373978
O O3 0.110672 0.132626 0.493717
O O4 0.386665 0.168690 0.000000
O O5 0.202677 0.383848 0.422328
O O6 0.000000 0.366207 0.500000
O O7 0.310931 0.356102 0.000000
O O8 0.604389 0.132626 0.506283
O O9 0.529710 0.261572 0.632907
O O10 0.839330 0.924252 0.321339
O O11 0.668664 0.000000 0.385239
O O12 0.865176 0.906042 0.000000
O O13 0.053902 0.000000 0.614762
O O14 0.718999 0.500000 0.562003
O O15 0.625005 0.616151 0.577672
O O16 0.500000 0.576824 0.000000
O O17 0.500000 0.366207 0.500000
#
# Coordination Sequence:
#
# PCOD8064155 Si02
#       7
#     4   4   4   4   4   4   4
#     4   9  16  28  47  69  97 134 175 217 258 307
#     4  10  20  35  55  81 110 141 179 220 262 312
#     4   9  16  28  47  69  97 134 175 217 258 307
#     4   8  14  24  39  64  98 132 168 213 264 314
#     4   8  14  24  39  64  98 132 168 213 264 314
#     4   9  18  36  61  83 108 145 180 210 257 321
#     4  10  20  35  55  81 110 141 179 220 262 312
#
# _framework density 18.983224
#
# number of rings (size 3 to 8) (size 9 to 14) (size 15 to 20)
#    0.000    3.000    1.429    0.857    0.000    2.286 
#    0.000    3.571    0.000    1.714    0.000    0.000 
#    0.000    0.000    0.000    0.000    0.000    0.000 
#
# Total GULP energy -347131.927177 kJ/mol
# GULP energy per Si atom -12397.568828 kJ/mol
# Density = 1.894002 g / cm^3
# Si number density = 18.983224 Si / 1000 Ang^3
#
#
#
# Elastic Constant Matrix: (Units=GPa)
#
#
# Indices 1 2 3 4 5 6 
#
# 1 93.2709 48.4543 49.7635 0.0000 0.2140 0.0000
# 2 48.4543 119.9161 61.8424 0.0000 0.4214 0.0000
# 3 49.7635 61.8424 80.4298 0.0000 -0.6179 0.0000
# 4 0.0000 0.0000 0.0000 17.5346 0.0000 0.3841
# 5 0.2140 0.4214 -0.6179 0.0000 25.1250 0.0000
# 6 0.0000 0.0000 0.0000 0.3841 0.0000 5.3344
#
#
#
# Elastic Compliance Matrix: (Units=1/GPa)
#
#
# Indices 1 2 3 4 5 6 
#
# 1 0.016383 -0.002303 -0.008368 0.000000 -0.000307 0.000000
# 2 -0.002303 0.014149 -0.009457 0.000000 -0.000450 0.000000
# 3 -0.008368 -0.009457 0.024889 0.000000 0.000842 0.000000
# 4 0.000000 0.000000 0.000000 0.057120 0.000000 -0.004113
# 5 -0.000307 -0.000450 0.000842 0.000000 0.039832 0.000000
# 6 0.000000 0.000000 0.000000 -0.004113 0.000000 0.187760
#
#
# Mechanical properties :
#
#
# Convention : Reuss Voigt Hill
#
# Bulk Modulus (GPa) = 65.94739 68.19304 67.07021
# Shear Modulus (GPa) = 12.97203 18.50256 15.73730
#
# Velocity S-wave (km/s) = 2.61692 3.12537 2.88238
# Velocity P-wave (km/s) = 6.62920 7.00177 6.81803
#
# Compressibility (1/GPa) = 0.01516360
#
# Stress axis : x y z
#
# Youngs Moduli (GPa) = 61.03717 70.67783 40.17881
#
# Poissons Ratio (x) = 0.16280 0.33622
# Poissons Ratio (y) = 0.14060 0.37998
# Poissons Ratio (z) = 0.51076 0.66841
#
# Static dielectric constant tensor:
#      x y z
#    x 3.161640 0.000000 0.006290 
#    y 0.000000 3.699070 0.000000 
#    z 0.006290 0.000000 3.361540 
# 
# 
# High freq. dielectric constant tensor:
#      x y z
#    x 1.716620 0.000000 0.000000 
#    y 0.000000 1.740290 0.000000 
#    z 0.000000 0.000000 1.716690 
# 
# From -- ./inp_files/30374.got.cif
#   From: 2010.06.25/outbox.cif.g09.slc.cpg/sg10_16_cif.got.tgz:30374.got - 2010.06.27 22:07:45.
