data_PCOD8064854
_publ_section_title
;
Structure prediction by ZEFSAII (Michael W. Deem and Ramdas Pophale) SiO2 
 PCOD8064854
Probable space group: P 2/M
;
_chemical_formula_sum "Si O2"
_cell_formula_units_Z 28
_cell_length_a 9.591605
_cell_length_b 8.966071
_cell_length_c 28.654847
_cell_angle_alpha 90.000000
_cell_angle_beta 34.490824
_cell_angle_gamma 90.000000
_cell_volume 1395.463117
_symmetry_space_group_name_H-M "P 2/M"
_symmetry_group_IT_number 10
_symmetry_cell_setting 'monoclinic'
loop_
_space_group_symop_operation_xyz
x,y,z
-x,y,-z
-x,-y,-z
x,-y,z
loop_
_atom_site_type_symbol
_atom_site_label
_atom_site_fract_x
_atom_site_fract_y
_atom_site_fract_z
Si Si1 0.577779 0.671051 0.669058
Si Si2 0.518596 0.330122 0.408342
Si Si3 0.679573 0.823053 0.991025
Si Si4 0.236291 0.826194 0.838189
Si Si5 0.967524 0.175929 0.426352
Si Si6 0.485566 0.173927 0.144486
Si Si7 0.968460 0.324645 0.688090
O O1 0.634410 0.500000 0.665334
O O2 0.438380 0.689210 0.658566
O O3 0.412968 0.736871 0.755369
O O4 0.837294 0.757080 0.590763
O O5 0.447502 0.500000 0.440522
O O6 0.769456 0.280639 0.363086
O O7 0.307681 0.225480 0.486794
O O8 0.958984 0.766830 0.906473
O O9 0.677093 0.000000 0.990067
O O10 0.500000 0.758205 0.000000
O O11 0.593525 0.768994 0.065644
O O12 0.313958 0.796611 0.870311
O O13 0.259488 0.000000 0.819437
O O14 0.064579 0.235178 0.350301
O O15 0.981429 0.000000 0.423571
O O16 0.241784 0.271000 0.218905
O O17 0.413810 0.000000 0.162368
O O18 0.945545 0.500000 0.685321
#
# Coordination Sequence:
#
# PCOD8064854 Si02
#       7
#     4   4   4   4   4   4   4
#     4  11  23  40  62  87 121 162 201 245 300 360
#     4  10  24  42  60  85 120 163 203 244 302 360
#     4   9  19  35  58  89 122 158 196 241 298 353
#     4  10  20  36  59  87 120 157 200 246 292 349
#     4  12  24  40  62  91 120 153 202 254 300 352
#     4  10  20  36  59  87 120 157 200 246 292 349
#     4  11  23  40  62  87 121 162 201 245 300 360
#
# _framework density 20.065024000000001
#
# number of rings (size 3 to 8) (size 9 to 14) (size 15 to 20)
#    0.000    1.571    1.429    3.429    2.000    7.429 
#    0.000    0.714    0.000    2.571    0.000    0.000 
#    0.000    0.000    0.000    0.000    0.000    0.000 
#
# Total GULP energy -347306.244555 kJ/mol
# GULP energy per Si atom -12403.794448 kJ/mol
# Density = 2.001936 g / cm^3
# Si number density = 20.065024 Si / 1000 Ang^3
#
#
#
# Elastic Constant Matrix: (Units=GPa)
#
#
# Indices 1 2 3 4 5 6 
#
# 1 74.9110 34.1166 41.1988 0.0000 -11.8488 0.0000
# 2 34.1166 94.1612 42.7952 0.0000 -9.7678 0.0000
# 3 41.1988 42.7952 106.7649 0.0000 -14.2232 0.0000
# 4 0.0000 0.0000 0.0000 -26.5922 0.0000 -3.7436
# 5 -11.8488 -9.7678 -14.2232 0.0000 36.5656 0.0000
# 6 0.0000 0.0000 0.0000 -3.7436 0.0000 20.5302
#
#
#
# Elastic Compliance Matrix: (Units=1/GPa)
#
#
# Indices 1 2 3 4 5 6 
#
# 1 0.018473 -0.004069 -0.005110 0.000000 0.002912 0.000000
# 2 -0.004069 0.013963 -0.003908 0.000000 0.000891 0.000000
# 3 -0.005110 -0.003908 0.013230 0.000000 0.002447 0.000000
# 4 0.000000 0.000000 0.000000 -0.036664 0.000000 -0.006686
# 5 0.002912 0.000891 0.002447 0.000000 0.029481 0.000000
# 6 0.000000 0.000000 0.000000 -0.006686 0.000000 0.047490
#
#
# Mechanical properties :
#
#
# Convention : Reuss Voigt Hill
#
# Bulk Modulus (GPa) = 51.29921 56.89537 54.09729
# Shear Modulus (GPa) = 42.14282 16.61581 29.37932
#
# Velocity S-wave (km/s) = 4.58789 2.88079 3.83064
# Velocity P-wave (km/s) = 7.32714 6.28350 6.82529
#
# Compressibility (1/GPa) = 0.01949348
#
# Stress axis : x y z
#
# Youngs Moduli (GPa) = 54.13335 71.61823 75.58308
#
# Poissons Ratio (x) = 0.29140 0.38620
# Poissons Ratio (y) = 0.22026 0.29538
# Poissons Ratio (z) = 0.27660 0.27988
#
# Static dielectric constant tensor:
#      x y z
#    x 3.954590 0.000000 -0.054990 
#    y 0.000000 3.484880 0.000000 
#    z -0.054990 0.000000 3.655480 
# 
# 
# High freq. dielectric constant tensor:
#      x y z
#    x 1.798540 0.000000 -0.002070 
#    y 0.000000 1.764430 0.000000 
#    z -0.002070 0.000000 1.790790 
# 
# From -- ./inp_files/37343.got.cif
#   From: 2010.06.25/outbox.cif.g09.slc.cpg/sg10_19_cif.got.tgz:37343.got - 2010.06.27 22:07:45.
