data_PCOD8064994
_publ_section_title
;
Structure prediction by ZEFSAII (Michael W. Deem and Ramdas Pophale) SiO2 
 PCOD8064994
Probable space group: P 2/M
;
_chemical_formula_sum "Si O2"
_cell_formula_units_Z 32
_cell_length_a 10.930613
_cell_length_b 8.531665
_cell_length_c 19.437145
_cell_angle_alpha 90.000000
_cell_angle_beta 122.003785
_cell_angle_gamma 90.000000
_cell_volume 1537.139709
_symmetry_space_group_name_H-M "P 2/M"
_symmetry_group_IT_number 10
_symmetry_cell_setting 'monoclinic'
loop_
_space_group_symop_operation_xyz
x,y,z
-x,y,-z
-x,-y,-z
x,-y,z
loop_
_atom_site_type_symbol
_atom_site_label
_atom_site_fract_x
_atom_site_fract_y
_atom_site_fract_z
Si Si1 0.334348 0.823074 0.370241
Si Si2 0.605362 0.186717 0.376156
Si Si3 0.909101 0.320715 0.301326
Si Si4 0.393321 0.817152 0.775547
Si Si5 0.950560 0.822956 0.784328
Si Si6 0.912690 0.315934 0.043001
Si Si7 0.165200 0.814468 0.449717
Si Si8 0.588380 0.186743 0.957805
O O1 0.481067 0.740024 0.388124
O O2 0.268333 0.746637 0.419609
O O3 0.222565 0.817264 0.273268
O O4 0.373731 0.000000 0.402185
O O5 0.585837 0.259291 0.294126
O O6 0.761843 0.229092 0.455400
O O7 0.588947 0.000000 0.367210
O O8 0.864777 0.500000 0.298891
O O9 0.769756 0.213682 0.252040
O O10 0.989598 0.298333 0.253453
O O11 0.008936 0.266046 0.395375
O O12 0.501089 0.747863 0.865299
O O13 0.421811 0.000000 0.780442
O O14 0.994301 0.771479 0.872497
O O15 0.006136 0.000000 0.785898
O O16 0.912434 0.500000 0.056049
O O17 0.747931 0.257735 0.998656
O O18 0.000000 0.272696 0.000000
O O19 0.141985 0.000000 0.434041
O O20 0.601716 0.000000 0.962279
O O21 0.500000 0.241351 0.000000
#
# Coordination Sequence:
#
# PCOD8064994 Si02
#       8
#     4   4   4   4   4   4   4   4
#     4   8  15  28  52  84 111 138 178 231 286 339
#     4   9  17  30  52  82 112 143 183 238 292 337
#     4  11  22  37  57  80 113 151 191 233 284 349
#     4  10  21  36  57  83 112 144 191 247 294 342
#     4  10  20  36  62  88 112 145 191 242 289 338
#     4  11  25  41  59  89 129 166 198 238 296 366
#     4   9  17  32  55  81 110 145 188 233 282 342
#     4  10  22  40  63  89 117 155 206 260 306 354
#
# _framework density 20.817886000000001
#
# number of rings (size 3 to 8) (size 9 to 14) (size 15 to 20)
#    0.000    2.250    0.000    3.750    1.750    4.750 
#    0.000    3.125    0.000    7.500    0.000    0.000 
#    0.000    0.000    0.000    0.000    0.000    0.000 
#
# Total GULP energy -396583.771032 kJ/mol
# GULP energy per Si atom -12393.242845 kJ/mol
# Density = 2.077050 g / cm^3
# Si number density = 20.817886 Si / 1000 Ang^3
#
#
#
# Elastic Constant Matrix: (Units=GPa)
#
#
# Indices 1 2 3 4 5 6 
#
# 1 77.4518 15.7807 34.3793 0.0000 5.9993 0.0000
# 2 15.7807 27.8819 25.1588 0.0000 -2.1719 0.0000
# 3 34.3793 25.1588 156.9354 0.0000 -5.6238 0.0000
# 4 0.0000 0.0000 0.0000 8.0227 0.0000 -4.2792
# 5 5.9993 -2.1719 -5.6238 0.0000 25.5895 0.0000
# 6 0.0000 0.0000 0.0000 -4.2792 0.0000 16.9903
#
#
#
# Elastic Compliance Matrix: (Units=1/GPa)
#
#
# Indices 1 2 3 4 5 6 
#
# 1 0.015846 -0.007082 -0.002510 0.000000 -0.004868 0.000000
# 2 -0.007082 0.045209 -0.005543 0.000000 0.004279 0.000000
# 3 -0.002510 -0.005543 0.007877 0.000000 0.001849 0.000000
# 4 0.000000 0.000000 0.000000 0.143990 0.000000 0.036265
# 5 -0.004868 0.004279 0.001849 0.000000 0.040989 0.000000
# 6 0.000000 0.000000 0.000000 0.036265 0.000000 0.067991
#
#
# Mechanical properties :
#
#
# Convention : Reuss Voigt Hill
#
# Bulk Modulus (GPa) = 25.86624 45.87852 35.87238
# Shear Modulus (GPa) = 13.69642 22.58384 18.14013
#
# Velocity S-wave (km/s) = 2.56777 3.29725 2.95510
# Velocity P-wave (km/s) = 4.60904 6.04828 5.37703
#
# Compressibility (1/GPa) = 0.03866043
#
# Stress axis : x y z
#
# Youngs Moduli (GPa) = 63.10899 22.11959 126.95520
#
# Poissons Ratio (x) = 0.15666 0.31869
# Poissons Ratio (y) = 0.44697 0.70367
# Poissons Ratio (z) = 0.15842 0.12260
#
# Static dielectric constant tensor:
#      x y z
#    x 3.831550 0.000000 -0.028250 
#    y 0.000000 3.314610 0.000000 
#    z -0.028250 0.000000 4.098540 
# 
# 
# High freq. dielectric constant tensor:
#      x y z
#    x 1.812890 0.000000 0.005010 
#    y 0.000000 1.770190 0.000000 
#    z 0.005010 0.000000 1.833740 
# 
# From -- ./inp_files/83618.got.cif
#   From: 2010.06.25/outbox.cif.g09.slc.cpg/sg10_42_cif.got.tgz:83618.got - 2010.06.27 22:07:45.
