data_PCOD8064896
_publ_section_title
;
Structure prediction by ZEFSAII (Michael W. Deem and Ramdas Pophale) SiO2 
 PCOD8064896
Probable space group: P 2/M
;
_chemical_formula_sum "Si O2"
_cell_formula_units_Z 28
_cell_length_a 8.903446
_cell_length_b 9.090416
_cell_length_c 28.546436
_cell_angle_alpha 90.000000
_cell_angle_beta 141.174011
_cell_angle_gamma 90.000000
_cell_volume 1448.544062
_symmetry_space_group_name_H-M "P 2/M"
_symmetry_group_IT_number 10
_symmetry_cell_setting 'monoclinic'
loop_
_space_group_symop_operation_xyz
x,y,z
-x,y,-z
-x,-y,-z
x,-y,z
loop_
_atom_site_type_symbol
_atom_site_label
_atom_site_fract_x
_atom_site_fract_y
_atom_site_fract_z
Si Si1 0.615440 0.827889 0.209237
Si Si2 0.234169 0.325230 0.926820
Si Si3 0.876916 0.331910 0.920163
Si Si4 0.333259 0.829765 0.501546
Si Si5 0.781597 0.831398 0.353131
Si Si6 0.042343 0.325773 0.780290
Si Si7 0.502619 0.326573 0.365677
O O1 0.353324 0.770025 0.134024
O O2 0.674590 0.790616 0.277018
O O3 0.808256 0.748121 0.224179
O O4 0.628269 0.000000 0.201981
O O5 0.244820 0.500000 0.930657
O O6 0.136755 0.268606 0.853375
O O7 0.057952 0.269315 0.924893
O O8 0.500000 0.260061 0.000000
O O9 0.801912 0.500000 0.890512
O O10 0.000000 0.322660 0.000000
O O11 0.500000 0.773664 0.500000
O O12 0.391206 0.738195 0.561357
O O13 0.063154 0.800851 0.420257
O O14 0.382575 0.000000 0.524777
O O15 0.660836 0.725860 0.361021
O O16 0.728015 0.000000 0.353783
O O17 0.071625 0.500000 0.783286
O O18 0.769121 0.274546 0.708178
O O19 0.519874 0.500000 0.372849
#
# Coordination Sequence:
#
# PCOD8064896 Si02
#       7
#     4   4   4   4   4   4   4
#     4  11  23  38  58  84 113 146 188 236 280 327
#     4   9  17  32  56  83 108 140 186 229 265 320
#     4  10  20  36  60  86 114 151 189 227 278 337
#     4  10  21  39  61  82 110 151 194 232 276 337
#     4  10  22  39  58  81 111 150 190 228 278 339
#     4  10  21  37  56  80 112 147 183 227 281 338
#     4  11  23  37  57  86 116 146 184 235 288 335
#
# _framework density 19.329754999999999
#
# number of rings (size 3 to 8) (size 9 to 14) (size 15 to 20)
#    0.000    1.857    0.000    3.857    0.000    9.714 
#    0.000    0.714    0.000    1.714    0.000    0.000 
#    0.000    0.000    0.000    0.000    0.000    0.000 
#
# Total GULP energy -347336.531709 kJ/mol
# GULP energy per Si atom -12404.876132 kJ/mol
# Density = 1.928576 g / cm^3
# Si number density = 19.329755 Si / 1000 Ang^3
#
#
#
# Elastic Constant Matrix: (Units=GPa)
#
#
# Indices 1 2 3 4 5 6 
#
# 1 109.9904 26.3067 16.0040 0.0000 6.5832 0.0000
# 2 26.3067 28.7879 24.0145 0.0000 0.5319 0.0000
# 3 16.0040 24.0145 88.4715 0.0000 2.6643 0.0000
# 4 0.0000 0.0000 0.0000 26.2446 0.0000 -2.9139
# 5 6.5832 0.5319 2.6643 0.0000 34.7483 0.0000
# 6 0.0000 0.0000 0.0000 -2.9139 0.0000 37.8984
#
#
#
# Elastic Compliance Matrix: (Units=1/GPa)
#
#
# Indices 1 2 3 4 5 6 
#
# 1 0.011863 -0.011718 0.001100 0.000000 -0.002152 0.000000
# 2 -0.011718 0.056482 -0.013283 0.000000 0.002374 0.000000
# 3 0.001100 -0.013283 0.014744 0.000000 -0.001135 0.000000
# 4 0.000000 0.000000 0.000000 0.038431 0.000000 0.002955
# 5 -0.002152 0.002374 -0.001135 0.000000 0.029237 0.000000
# 6 0.000000 0.000000 0.000000 0.002955 0.000000 0.026614
#
#
# Mechanical properties :
#
#
# Convention : Reuss Voigt Hill
#
# Bulk Modulus (GPa) = 28.34021 39.98891 34.16456
# Shear Modulus (GPa) = 21.10276 30.50656 25.80466
#
# Velocity S-wave (km/s) = 3.30771 3.97699 3.65769
# Velocity P-wave (km/s) = 5.41121 6.46693 5.96248
#
# Compressibility (1/GPa) = 0.03528556
#
# Stress axis : x y z
#
# Youngs Moduli (GPa) = 84.29399 17.70479 67.82483
#
# Poissons Ratio (x) = 0.20747 -0.07458
# Poissons Ratio (y) = 0.98778 0.90092
# Poissons Ratio (z) = -0.09269 0.23517
#
# Static dielectric constant tensor:
#      x y z
#    x 3.728560 0.000000 0.023710 
#    y 0.000000 3.358190 0.000000 
#    z 0.023710 0.000000 3.499790 
# 
# 
# High freq. dielectric constant tensor:
#      x y z
#    x 1.771210 0.000000 0.000460 
#    y 0.000000 1.731770 0.000000 
#    z 0.000460 0.000000 1.770670 
# 
# From -- ./inp_files/34284.got.cif
#   From: 2010.06.25/outbox.cif.g09.slc.cpg/sg10_18_cif.got.tgz:34284.got - 2010.06.27 22:07:45.
