data_PCOD8064237
_publ_section_title
;
Structure prediction by ZEFSAII (Michael W. Deem and Ramdas Pophale) SiO2 
 PCOD8064237
Probable space group: P 2/M
;
_chemical_formula_sum "Si O2"
_cell_formula_units_Z 26
_cell_length_a 25.368705
_cell_length_b 10.012502
_cell_length_c 8.436417
_cell_angle_alpha 90.000000
_cell_angle_beta 139.662825
_cell_angle_gamma 90.000000
_cell_volume 1387.056488
_symmetry_space_group_name_H-M "P 2/M"
_symmetry_group_IT_number 10
_symmetry_cell_setting 'monoclinic'
loop_
_space_group_symop_operation_xyz
x,y,z
-x,y,-z
-x,-y,-z
x,-y,z
loop_
_atom_site_type_symbol
_atom_site_label
_atom_site_fract_x
_atom_site_fract_y
_atom_site_fract_z
Si Si1 0.544163 0.343413 0.941743
Si Si2 0.800535 0.651256 0.263046
Si Si3 0.090190 0.847505 0.656665
Si Si4 0.325627 0.854586 0.153959
Si Si5 0.770371 0.854802 0.770356
Si Si6 0.275142 0.352049 0.586049
Si Si7 0.500000 0.766113 0.500000
O O1 0.542289 0.500000 0.954057
O O2 0.503866 0.313532 0.676925
O O3 0.500000 0.282613 0.000000
O O4 0.637868 0.291725 0.157919
O O5 0.805712 0.500000 0.201878
O O6 0.879834 0.740516 0.405581
O O7 0.791618 0.639503 0.429629
O O8 0.718838 0.726676 0.020448
O O9 0.000000 0.806025 0.500000
O O10 0.092024 0.000000 0.594577
O O11 0.149307 0.832637 0.941209
O O12 0.310953 0.846659 0.308992
O O13 0.420411 0.856509 0.330299
O O14 0.290470 0.000000 0.014457
O O15 0.768334 0.739321 0.640015
O O16 0.774674 0.000000 0.696353
O O17 0.289176 0.500000 0.546159
#
# Coordination Sequence:
#
# PCOD8064237 Si02
#       7
#     4   4   4   4   4   4   2
#     4  10  21  35  52  79 114 152 199 249 296 349
#     4  10  20  35  56  81 111 146 188 230 276 340
#     4   9  19  38  62  87 115 143 179 229 281 341
#     4  10  21  36  53  78 111 146 191 240 288 342
#     4   9  19  35  56  81 107 143 187 227 280 346
#     4  10  20  36  52  77 112 147 188 235 283 337
#     4  12  20  34  58  78 111 154 199 250 301 342
#
# _framework density 18.744729
#
# number of rings (size 3 to 8) (size 9 to 14) (size 15 to 20)
#    0.000    2.154    1.538    2.769    0.000    4.615 
#    0.000    0.769    0.000    7.846    0.000    0.000 
#    0.000    0.000    0.000    0.000    0.000    0.000 
#
# Total GULP energy -322097.244513 kJ/mol
# GULP energy per Si atom -12388.355558 kJ/mol
# Density = 1.870207 g / cm^3
# Si number density = 18.744729 Si / 1000 Ang^3
#
#
#
# Elastic Constant Matrix: (Units=GPa)
#
#
# Indices 1 2 3 4 5 6 
#
# 1 118.9946 55.3926 49.7737 0.0000 14.0251 0.0000
# 2 55.3926 120.2433 33.4312 0.0000 -0.6988 0.0000
# 3 49.7737 33.4312 54.7086 0.0000 -0.2529 0.0000
# 4 0.0000 0.0000 0.0000 29.7715 0.0000 -5.6970
# 5 14.0251 -0.6988 -0.2529 0.0000 39.2556 0.0000
# 6 0.0000 0.0000 0.0000 -5.6970 0.0000 42.5746
#
#
#
# Elastic Compliance Matrix: (Units=1/GPa)
#
#
# Indices 1 2 3 4 5 6 
#
# 1 0.016081 -0.004056 -0.012179 0.000000 -0.005896 0.000000
# 2 -0.004056 0.011042 -0.003050 0.000000 0.001626 0.000000
# 3 -0.012179 -0.003050 0.031244 0.000000 0.004498 0.000000
# 4 0.000000 0.000000 0.000000 0.034472 0.000000 0.004613
# 5 -0.005896 0.001626 0.004498 0.000000 0.027639 0.000000
# 6 0.000000 0.000000 0.000000 0.004613 0.000000 0.024105
#
#
# Mechanical properties :
#
#
# Convention : Reuss Voigt Hill
#
# Bulk Modulus (GPa) = 50.51340 63.46017 56.98678
# Shear Modulus (GPa) = 26.34999 32.67694 29.51346
#
# Velocity S-wave (km/s) = 3.75337 4.17977 3.97229
# Velocity P-wave (km/s) = 6.76685 7.56455 7.17679
#
# Compressibility (1/GPa) = 0.01979673
#
# Stress axis : x y z
#
# Youngs Moduli (GPa) = 62.18398 90.55927 32.00623
#
# Poissons Ratio (x) = 0.36733 0.38981
# Poissons Ratio (y) = 0.25223 0.09762
# Poissons Ratio (z) = 0.75736 0.27620
#
# Static dielectric constant tensor:
#      x y z
#    x 3.664620 0.000000 0.073910 
#    y 0.000000 3.558640 0.000000 
#    z 0.073910 0.000000 3.208990 
# 
# 
# High freq. dielectric constant tensor:
#      x y z
#    x 1.732730 0.000000 0.006120 
#    y 0.000000 1.731240 0.000000 
#    z 0.006120 0.000000 1.698140 
# 
# From -- ./inp_files/36784.got.cif
#   From: 2010.06.25/outbox.cif.g09.slc.cpg/sg10_19_cif.got.tgz:36784.got - 2010.06.27 22:07:45.
