data_PCOD8065216
_publ_section_title
;
Structure prediction by ZEFSAII (Michael W. Deem and Ramdas Pophale) SiO2 
 PCOD8065216
Probable space group: P 2/M
;
_chemical_formula_sum "Si O2"
_cell_formula_units_Z 28
_cell_length_a 7.536868
_cell_length_b 18.142625
_cell_length_c 18.353800
_cell_angle_alpha 90.000000
_cell_angle_beta 35.006963
_cell_angle_gamma 90.000000
_cell_volume 1439.738756
_symmetry_space_group_name_H-M "P 2/M"
_symmetry_group_IT_number 10
_symmetry_cell_setting 'monoclinic'
loop_
_space_group_symop_operation_xyz
x,y,z
-x,y,-z
-x,-y,-z
x,-y,z
loop_
_atom_site_type_symbol
_atom_site_label
_atom_site_fract_x
_atom_site_fract_y
_atom_site_fract_z
Si Si1 0.041495 0.418815 0.605639
Si Si2 0.612616 0.917268 0.879247
Si Si3 0.300555 0.418804 0.678470
Si Si4 0.213587 0.733079 0.765729
Si Si5 0.718585 0.271891 0.713196
Si Si6 0.176927 0.175309 0.637838
Si Si7 0.260035 0.219689 0.968901
O O1 0.887044 0.500000 0.648628
O O2 0.140990 0.405979 0.654784
O O3 0.331396 0.413434 0.454371
O O4 0.805438 0.354938 0.662214
O O5 0.961597 0.887371 0.747562
O O6 0.594678 0.000000 0.853630
O O7 0.500000 0.916114 0.000000
O O8 0.367693 0.864855 0.921052
O O9 0.211786 0.500000 0.739025
O O10 0.191016 0.355792 0.770997
O O11 0.490213 0.758783 0.726909
O O12 0.275371 0.764551 0.665053
O O13 0.876666 0.763522 0.905187
O O14 0.011511 0.217090 0.625149
O O15 0.549867 0.271647 0.849625
O O16 0.500000 0.140151 0.500000
O O17 0.000000 0.240515 0.000000
#
# Coordination Sequence:
#
# PCOD8065216 Si02
#       7
#     4   4   4   4   4   4   4
#     4   9  17  32  49  72 106 142 184 229 271 326
#     4  10  20  37  61  85 109 145 187 217 264 334
#     4   9  18  31  50  73 104 145 182 223 280 327
#     4  11  20  35  56  78 113 144 184 235 272 321
#     4  10  21  34  54  82 106 145 191 225 276 329
#     4  11  22  36  57  85 116 146 178 226 281 322
#     4   9  20  37  56  83 108 142 185 227 270 323
#
# _framework density 19.447972
#
# number of rings (size 3 to 8) (size 9 to 14) (size 15 to 20)
#    0.000    2.143    2.857    1.714    0.000    3.429 
#    0.000    2.143    0.000    4.286    0.000    4.000 
#    0.000    0.000    0.000    0.000    0.000    0.000 
#
# Total GULP energy -346992.423599 kJ/mol
# GULP energy per Si atom -12392.586557 kJ/mol
# Density = 1.940371 g / cm^3
# Si number density = 19.447972 Si / 1000 Ang^3
#
#
#
# Elastic Constant Matrix: (Units=GPa)
#
#
# Indices 1 2 3 4 5 6 
#
# 1 35.5394 12.5513 13.6708 0.0000 -2.1874 0.0000
# 2 12.5513 125.0957 49.7863 0.0000 -6.7821 0.0000
# 3 13.6708 49.7863 99.0698 0.0000 -11.4038 0.0000
# 4 0.0000 0.0000 0.0000 28.6953 0.0000 -1.7538
# 5 -2.1874 -6.7821 -11.4038 0.0000 21.5557 0.0000
# 6 0.0000 0.0000 0.0000 -1.7538 0.0000 19.0172
#
#
#
# Elastic Compliance Matrix: (Units=1/GPa)
#
#
# Indices 1 2 3 4 5 6 
#
# 1 0.030016 -0.001695 -0.003195 0.000000 0.000822 0.000000
# 2 -0.001695 0.010094 -0.004784 0.000000 0.000473 0.000000
# 3 -0.003195 -0.004784 0.013554 0.000000 0.005341 0.000000
# 4 0.000000 0.000000 0.000000 0.035046 0.000000 0.003232
# 5 0.000822 0.000473 0.005341 0.000000 0.049449 0.000000
# 6 0.000000 0.000000 0.000000 0.003232 0.000000 0.052882
#
#
# Mechanical properties :
#
#
# Convention : Reuss Voigt Hill
#
# Bulk Modulus (GPa) = 29.14258 45.74688 37.44473
# Shear Modulus (GPa) = 22.53990 26.10008 24.31999
#
# Velocity S-wave (km/s) = 3.40808 3.66737 3.54010
# Velocity P-wave (km/s) = 5.52305 6.44256 6.00044
#
# Compressibility (1/GPa) = 0.03431405
#
# Stress axis : x y z
#
# Youngs Moduli (GPa) = 33.31528 99.07272 73.78010
#
# Poissons Ratio (x) = 0.16796 0.23576
# Poissons Ratio (y) = 0.05648 0.35297
# Poissons Ratio (z) = 0.10646 0.47397
#
# Static dielectric constant tensor:
#      x y z
#    x 3.379710 0.000000 -0.081000 
#    y 0.000000 3.601590 0.000000 
#    z -0.081000 0.000000 3.746100 
# 
# 
# High freq. dielectric constant tensor:
#      x y z
#    x 1.749960 0.000000 -0.005480 
#    y 0.000000 1.743450 0.000000 
#    z -0.005480 0.000000 1.749900 
# 
# From -- ./inp_files/35394.got.cif
#   From: 2010.06.25/outbox.cif.g09.slc.cpg/sg10_18_cif.got.tgz:35394.got - 2010.06.27 22:07:45.
