data_PCOD8065608
_publ_section_title
;
Structure prediction by ZEFSAII (Michael W. Deem and Ramdas Pophale) SiO2 
 PCOD8065608
Probable space group: P 2/M
;
_chemical_formula_sum "Si O2"
_cell_formula_units_Z 20
_cell_length_a 8.507816
_cell_length_b 12.210922
_cell_length_c 9.734302
_cell_angle_alpha 90.000000
_cell_angle_beta 97.953585
_cell_angle_gamma 90.000000
_cell_volume 1001.551848
_symmetry_space_group_name_H-M "P 2/M"
_symmetry_group_IT_number 10
_symmetry_cell_setting 'monoclinic'
loop_
_space_group_symop_operation_xyz
x,y,z
-x,y,-z
-x,-y,-z
x,-y,z
loop_
_atom_site_type_symbol
_atom_site_label
_atom_site_fract_x
_atom_site_fract_y
_atom_site_fract_z
Si Si1 0.057552 0.627173 0.355076
Si Si2 0.155989 0.000000 0.418572
Si Si3 0.362003 0.199858 0.081541
Si Si4 0.351203 0.783977 0.389402
Si Si5 0.147106 0.000000 0.107270
Si Si6 0.851806 0.377478 0.081185
O O1 0.091073 0.500000 0.328443
O O2 0.222042 0.689281 0.357074
O O3 0.000000 0.649990 0.500000
O O4 0.919285 0.669872 0.234694
O O5 0.269390 0.892876 0.445887
O O6 0.089805 0.000000 0.257141
O O7 0.000000 0.000000 0.500000
O O8 0.425076 0.208033 0.245459
O O9 0.231352 0.108695 0.071735
O O10 0.500000 0.157687 0.000000
O O11 0.289934 0.308480 0.002643
O O12 0.500000 0.748340 0.500000
O O13 0.000000 0.000000 0.000000
O O14 0.783856 0.500000 0.094602
O O15 0.000000 0.378732 0.000000
#
# Coordination Sequence:
#
# PCOD8065608 Si02
#       6
#     4   2   4   4   2   4
#     4  10  22  40  63  90 119 157 205 249 295 350
#     4  10  23  42  64  90 115 156 202 243 295 358
#     4  11  24  39  60  90 123 159 197 243 300 357
#     4  11  24  40  60  89 125 157 195 247 301 354
#     4  10  23  40  64  90 119 152 198 250 295 348
#     4  10  20  39  64  86 118 160 203 250 292 347
#
# _framework density 19.969010999999998
#
# number of rings (size 3 to 8) (size 9 to 14) (size 15 to 20)
#    0.000    1.600    2.000    1.800    5.600    2.400 
#    0.000    0.000    0.000    0.000    0.000    0.000 
#    0.000    0.000    0.000    0.000    0.000    0.000 
#
# Total GULP energy -247850.886381 kJ/mol
# GULP energy per Si atom -12392.544319 kJ/mol
# Density = 1.992356 g / cm^3
# Si number density = 19.969011 Si / 1000 Ang^3
#
#
#
# Elastic Constant Matrix: (Units=GPa)
#
#
# Indices 1 2 3 4 5 6 
#
# 1 72.0419 17.2270 69.1681 0.0000 -5.7547 0.0000
# 2 17.2270 61.4166 43.4505 0.0000 3.0574 0.0000
# 3 69.1681 43.4505 146.7021 0.0000 6.8911 0.0000
# 4 0.0000 0.0000 0.0000 40.2196 0.0000 14.1170
# 5 -5.7547 3.0574 6.8911 0.0000 46.4965 0.0000
# 6 0.0000 0.0000 0.0000 14.1170 0.0000 86.7774
#
#
#
# Elastic Compliance Matrix: (Units=1/GPa)
#
#
# Indices 1 2 3 4 5 6 
#
# 1 0.026680 0.001683 -0.013320 0.000000 0.005166 0.000000
# 2 0.001683 0.020714 -0.006923 0.000000 -0.000128 0.000000
# 3 -0.013320 -0.006923 0.015310 0.000000 -0.003462 0.000000
# 4 0.000000 0.000000 0.000000 0.026369 0.000000 -0.004290
# 5 0.005166 -0.000128 -0.003462 0.000000 0.022668 0.000000
# 6 0.000000 0.000000 0.000000 -0.004290 0.000000 0.012222
#
#
# Mechanical properties :
#
#
# Convention : Reuss Voigt Hill
#
# Bulk Modulus (GPa) = 39.08688 59.98353 49.53520
# Shear Modulus (GPa) = 29.47925 44.71971 37.09948
#
# Velocity S-wave (km/s) = 3.84637 4.73742 4.31496
# Velocity P-wave (km/s) = 6.27235 7.74776 7.04876
#
# Compressibility (1/GPa) = 0.02558403
#
# Stress axis : x y z
#
# Youngs Moduli (GPa) = 37.48120 48.27628 65.31701
#
# Poissons Ratio (x) = -0.08125 0.87005
# Poissons Ratio (y) = -0.06308 0.45217
# Poissons Ratio (z) = 0.49927 0.33420
#
# Static dielectric constant tensor:
#      x y z
#    x 2.890980 0.000000 -0.190000 
#    y 0.000000 3.821150 0.000000 
#    z -0.190000 0.000000 4.058730 
# 
# 
# High freq. dielectric constant tensor:
#      x y z
#    x 1.765520 0.000000 0.000170 
#    y 0.000000 1.784370 0.000000 
#    z 0.000170 0.000000 1.801180 
# 
# From -- ./inp_files/17811.got.cif
#   From: 2010.06.25/outbox.cif.g09.slc.cpg/sg10_9_cif.got.tgz:17811.got - 2010.06.27 22:07:45.
