data_PCOD8065022
_publ_section_title
;
Structure prediction by ZEFSAII (Michael W. Deem and Ramdas Pophale) SiO2 
 PCOD8065022
Probable space group: P 2/M
;
_chemical_formula_sum "Si O2"
_cell_formula_units_Z 28
_cell_length_a 10.210100
_cell_length_b 17.853351
_cell_length_c 8.816231
_cell_angle_alpha 90.000000
_cell_angle_beta 64.764599
_cell_angle_gamma 90.000000
_cell_volume 1453.690347
_symmetry_space_group_name_H-M "P 2/M"
_symmetry_group_IT_number 10
_symmetry_cell_setting 'monoclinic'
loop_
_space_group_symop_operation_xyz
x,y,z
-x,y,-z
-x,-y,-z
x,-y,z
loop_
_atom_site_type_symbol
_atom_site_label
_atom_site_fract_x
_atom_site_fract_y
_atom_site_fract_z
Si Si1 0.851646 0.085710 0.148689
Si Si2 0.168372 0.500000 0.959339
Si Si3 0.657378 0.500000 0.835070
Si Si4 0.687046 0.357577 0.259491
Si Si5 0.669871 0.789597 0.753669
Si Si6 0.673120 0.789883 0.094868
Si Si7 0.847530 0.085696 0.507164
Si Si8 0.653579 0.638428 0.616049
O O1 0.719307 0.133160 0.149900
O O2 0.858597 0.096860 0.323562
O O3 0.822585 0.000000 0.117249
O O4 0.000000 0.114487 0.000000
O O5 0.240876 0.425812 0.860738
O O6 0.206195 0.500000 0.118628
O O7 0.000000 0.500000 0.000000
O O8 0.682131 0.571041 0.716183
O O9 0.500000 0.500000 0.000000
O O10 0.740101 0.279218 0.158959
O O11 0.516668 0.358329 0.322686
O O12 0.729786 0.368479 0.414448
O O13 0.498289 0.789690 0.827164
O O14 0.724239 0.862075 0.637185
O O15 0.723835 0.713109 0.650772
O O16 0.731108 0.788365 0.894189
O O17 0.000000 0.110470 0.500000
O O18 0.809803 0.000000 0.568899
#
# Coordination Sequence:
#
# PCOD8065022 Si02
#       8
#     4   2   2   4   4   4   4   4
#     4  10  21  37  57  80 109 150 197 240 289 353
#     4  12  25  39  57  87 124 153 189 244 301 352
#     4  12  21  37  65  89 114 154 201 240 286 353
#     4  10  20  38  59  86 116 150 192 240 291 349
#     4  10  21  36  57  89 118 150 192 245 294 343
#     4  10  21  36  59  84 118 151 191 241 292 351
#     4  10  21  38  59  83 115 154 197 243 295 357
#     4  10  20  36  64  88 110 148 202 244 281 347
#
# _framework density 19.261322
#
# number of rings (size 3 to 8) (size 9 to 14) (size 15 to 20)
#    0.000    1.714    1.429    3.000    2.000    5.714 
#    0.000    8.571    0.000    0.000    0.000    0.000 
#    0.000    0.000    0.000    0.000    0.000    0.000 
#
# Total GULP energy -347164.091854 kJ/mol
# GULP energy per Si atom -12398.717566 kJ/mol
# Density = 1.921748 g / cm^3
# Si number density = 19.261322 Si / 1000 Ang^3
#
#
#
# Elastic Constant Matrix: (Units=GPa)
#
#
# Indices 1 2 3 4 5 6 
#
# 1 52.4191 34.6818 23.8266 0.0000 29.8912 0.0000
# 2 34.6818 136.0353 62.8429 0.0000 16.2050 0.0000
# 3 23.8266 62.8429 114.1160 0.0000 27.0296 0.0000
# 4 0.0000 0.0000 0.0000 27.9466 0.0000 20.7045
# 5 29.8912 16.2050 27.0296 0.0000 29.2048 0.0000
# 6 0.0000 0.0000 0.0000 20.7045 0.0000 13.8524
#
#
#
# Elastic Compliance Matrix: (Units=1/GPa)
#
#
# Indices 1 2 3 4 5 6 
#
# 1 0.056654 -0.011267 0.008491 0.000000 -0.059592 0.000000
# 2 -0.011267 0.012108 -0.006987 0.000000 0.011281 0.000000
# 3 0.008491 -0.006987 0.015341 0.000000 -0.019012 0.000000
# 4 0.000000 0.000000 0.000000 -0.333408 0.000000 0.498330
# 5 -0.059592 0.011281 -0.019012 0.000000 0.106570 0.000000
# 6 0.000000 0.000000 0.000000 0.498330 0.000000 -0.672640
#
#
# Mechanical properties :
#
#
# Convention : Reuss Voigt Hill
#
# Bulk Modulus (GPa) = 15.48577 60.58588 38.03582
# Shear Modulus (GPa) = -6.45724 26.28205 9.91240
#
# Velocity S-wave (km/s) = -1.83295 3.69792 2.27100
# Velocity P-wave (km/s) = 1.89147 7.05378 5.16398
#
# Compressibility (1/GPa) = 0.06457543
#
# Stress axis : x y z
#
# Youngs Moduli (GPa) = 17.65114 82.59331 65.18472
#
# Poissons Ratio (x) = 0.93061 -0.55348
# Poissons Ratio (y) = 0.19888 0.45544
# Poissons Ratio (z) = -0.14988 0.57707
#
# Static dielectric constant tensor:
#      x y z
#    x 3.425740 0.000000 0.396070 
#    y 0.000000 3.697990 0.000000 
#    z 0.396070 0.000000 3.759400 
# 
# 
# High freq. dielectric constant tensor:
#      x y z
#    x 1.729750 0.000000 0.023930 
#    y 0.000000 1.764520 0.000000 
#    z 0.023930 0.000000 1.760450 
# 
# From -- ./inp_files/25257.got.cif
#   From: 2010.06.25/outbox.cif.g09.slc.cpg/sg10_13_cif.got.tgz:25257.got - 2010.06.27 22:07:45.
