data_PCOD8065295
_publ_section_title
;
Structure prediction by ZEFSAII (Michael W. Deem and Ramdas Pophale) SiO2 
 PCOD8065295
Probable space group: P 2/M
;
_chemical_formula_sum "Si O2"
_cell_formula_units_Z 24
_cell_length_a 11.353611
_cell_length_b 8.994716
_cell_length_c 12.128649
_cell_angle_alpha 90.000000
_cell_angle_beta 111.310057
_cell_angle_gamma 90.000000
_cell_volume 1153.921250
_symmetry_space_group_name_H-M "P 2/M"
_symmetry_group_IT_number 10
_symmetry_cell_setting 'monoclinic'
loop_
_space_group_symop_operation_xyz
x,y,z
-x,y,-z
-x,-y,-z
x,-y,z
loop_
_atom_site_type_symbol
_atom_site_label
_atom_site_fract_x
_atom_site_fract_y
_atom_site_fract_z
Si Si1 0.780858 0.824969 0.168175
Si Si2 0.613642 0.328249 0.281279
Si Si3 0.854648 0.174210 0.949588
Si Si4 0.985352 0.172776 0.615026
Si Si5 0.341844 0.671010 0.268337
Si Si6 0.699803 0.827329 0.531320
O O1 0.662902 0.741373 0.183737
O O2 0.910795 0.762159 0.265894
O O3 0.763751 0.000000 0.181095
O O4 0.786576 0.786658 0.041292
O O5 0.652469 0.500000 0.301920
O O6 0.462448 0.308699 0.230119
O O7 0.675779 0.244061 0.404957
O O8 0.781132 0.258178 0.828497
O O9 0.848910 0.000000 0.921040
O O10 0.000000 0.227730 0.000000
O O11 0.845832 0.198734 0.614348
O O12 0.000000 0.249454 0.500000
O O13 0.015563 0.000000 0.612347
O O14 0.313464 0.500000 0.284071
O O15 0.378005 0.750335 0.396536
O O16 0.663672 0.000000 0.512453
#
# Coordination Sequence:
#
# PCOD8065295 Si02
#       6
#     4   4   4   4   4   4
#     4  10  20  37  62  90 119 153 197 246 293 349
#     4  11  24  40  57  84 124 163 198 242 299 356
#     4  10  22  42  67  92 118 151 196 249 300 352
#     4   9  16  31  57  88 118 146 182 235 297 350
#     4  11  25  42  59  83 121 164 201 242 296 357
#     4  11  21  37  64  91 118 155 201 251 299 351
#
# _framework density 20.798648
#
# number of rings (size 3 to 8) (size 9 to 14) (size 15 to 20)
#    0.000    1.667    1.667    3.000    0.000    9.000 
#    0.000    7.500    0.000    0.000    0.000    0.000 
#    0.000    0.000    0.000    0.000    0.000    0.000 
#
# Total GULP energy -297656.800859 kJ/mol
# GULP energy per Si atom -12402.366702 kJ/mol
# Density = 2.075131 g / cm^3
# Si number density = 20.798648 Si / 1000 Ang^3
#
#
#
# Elastic Constant Matrix: (Units=GPa)
#
#
# Indices 1 2 3 4 5 6 
#
# 1 89.2682 46.7102 25.2618 0.0000 -16.1492 0.0000
# 2 46.7102 101.5885 46.5622 0.0000 -11.0093 0.0000
# 3 25.2618 46.5622 82.2597 0.0000 -10.0509 0.0000
# 4 0.0000 0.0000 0.0000 11.7612 0.0000 7.5809
# 5 -16.1492 -11.0093 -10.0509 0.0000 35.4389 0.0000
# 6 0.0000 0.0000 0.0000 7.5809 0.0000 21.5777
#
#
#
# Elastic Compliance Matrix: (Units=1/GPa)
#
#
# Indices 1 2 3 4 5 6 
#
# 1 0.015596 -0.006368 -0.000578 0.000000 0.004965 0.000000
# 2 -0.006368 0.016040 -0.007116 0.000000 0.000063 0.000000
# 3 -0.000578 -0.007116 0.016636 0.000000 0.002244 0.000000
# 4 0.000000 0.000000 0.000000 0.109917 0.000000 -0.038617
# 5 0.004965 0.000063 0.002244 0.000000 0.031136 0.000000
# 6 0.000000 0.000000 0.000000 -0.038617 0.000000 0.059911
#
#
# Mechanical properties :
#
#
# Convention : Reuss Voigt Hill
#
# Bulk Modulus (GPa) = 49.63327 56.68721 53.16024
# Shear Modulus (GPa) = 17.60087 24.06105 20.83096
#
# Velocity S-wave (km/s) = 2.91220 3.40495 3.16817
# Velocity P-wave (km/s) = 5.93493 6.54008 6.24484
#
# Compressibility (1/GPa) = 0.02014778
#
# Stress axis : x y z
#
# Youngs Moduli (GPa) = 64.11872 62.34440 60.10927
#
# Poissons Ratio (x) = 0.39700 0.03477
# Poissons Ratio (y) = 0.40830 0.42774
# Poissons Ratio (z) = 0.03709 0.44364
#
# Static dielectric constant tensor:
#      x y z
#    x 3.857100 0.000000 -0.055030 
#    y 0.000000 3.555310 0.000000 
#    z -0.055030 0.000000 3.692620 
# 
# 
# High freq. dielectric constant tensor:
#      x y z
#    x 1.826100 0.000000 -0.005690 
#    y 0.000000 1.791410 0.000000 
#    z -0.005690 0.000000 1.815050 
# 
# From -- ./inp_files/45268.got.cif
#   From: 2010.06.25/outbox.cif.g09.slc.cpg/sg10_23_cif.got.tgz:45268.got - 2010.06.27 22:07:45.
