data_PCOD8065440
_publ_section_title
;
Structure prediction by ZEFSAII (Michael W. Deem and Ramdas Pophale) SiO2 
 PCOD8065440
Probable space group: P 2/M
;
_chemical_formula_sum "Si O2"
_cell_formula_units_Z 32
_cell_length_a 11.785833
_cell_length_b 14.280093
_cell_length_c 17.444215
_cell_angle_alpha 90.000000
_cell_angle_beta 29.279295
_cell_angle_gamma 90.000000
_cell_volume 1435.857555
_symmetry_space_group_name_H-M "P 2/M"
_symmetry_group_IT_number 10
_symmetry_cell_setting 'monoclinic'
loop_
_space_group_symop_operation_xyz
x,y,z
-x,y,-z
-x,-y,-z
x,-y,z
loop_
_atom_site_type_symbol
_atom_site_label
_atom_site_fract_x
_atom_site_fract_y
_atom_site_fract_z
Si Si1 0.899349 0.391934 0.208342
Si Si2 0.572689 0.607073 0.874312
Si Si3 0.546387 0.896368 0.767999
Si Si4 0.751765 0.108275 0.483694
Si Si5 0.063696 0.397190 0.640934
Si Si6 0.308243 0.287452 0.898689
Si Si7 0.494719 0.284082 0.622753
Si Si8 0.272730 0.106903 0.174591
O O1 0.878245 0.500000 0.192535
O O2 0.016316 0.386918 0.223025
O O3 0.646356 0.340734 0.359744
O O4 0.053175 0.327965 0.061935
O O5 0.484052 0.500000 0.919388
O O6 0.486214 0.663312 0.851974
O O7 0.850449 0.614788 0.708922
O O8 0.500000 0.648999 0.000000
O O9 0.717252 0.881786 0.595525
O O10 0.329632 0.824504 0.898690
O O11 0.708144 0.881584 0.746039
O O12 0.434138 0.000000 0.833724
O O13 0.548478 0.175339 0.567436
O O14 0.012985 0.144689 0.306211
O O15 0.713271 0.000000 0.480559
O O16 0.175156 0.500000 0.565299
O O17 0.251651 0.321983 0.508916
O O18 0.357571 0.305116 0.781144
O O19 0.273901 0.000000 0.147009
O O20 0.500000 0.156100 0.000000
#
# Coordination Sequence:
#
# PCOD8065440 Si02
#       8
#     4   4   4   4   4   4   4   4
#     4  11  23  43  66  86 116 160 205 249 302 365
#     4  10  20  38  61  87 120 157 195 238 304 380
#     4   9  19  35  54  81 120 161 198 237 294 362
#     4   9  19  37  57  80 119 164 200 239 294 359
#     4  10  22  40  62  86 116 156 196 240 300 369
#     4  11  23  37  61  92 120 154 199 252 306 354
#     4  11  24  38  59  92 120 152 206 254 296 347
#     4   9  17  30  52  82 113 149 196 246 289 338
#
# _framework density 22.286332999999999
#
# number of rings (size 3 to 8) (size 9 to 14) (size 15 to 20)
#    0.000    2.000    1.250    1.875    1.750    7.000 
#    0.000    1.875    0.000    4.500    0.000    0.000 
#    0.000    0.000    0.000    0.000    0.000    0.000 
#
# Total GULP energy -396495.977108 kJ/mol
# GULP energy per Si atom -12390.499285 kJ/mol
# Density = 2.223561 g / cm^3
# Si number density = 22.286333 Si / 1000 Ang^3
#
#
#
# Elastic Constant Matrix: (Units=GPa)
#
#
# Indices 1 2 3 4 5 6 
#
# 1 54.9342 22.7354 11.3980 0.0000 -13.0620 0.0000
# 2 22.7354 114.2040 47.3920 0.0000 -15.5510 0.0000
# 3 11.3980 47.3920 95.8813 0.0000 -16.5901 0.0000
# 4 0.0000 0.0000 0.0000 -0.8778 0.0000 -6.1074
# 5 -13.0620 -15.5510 -16.5901 0.0000 17.5859 0.0000
# 6 0.0000 0.0000 0.0000 -6.1074 0.0000 25.4689
#
#
#
# Elastic Compliance Matrix: (Units=1/GPa)
#
#
# Indices 1 2 3 4 5 6 
#
# 1 0.022890 -0.003038 0.001503 0.000000 0.015733 0.000000
# 2 -0.003038 0.011883 -0.004882 0.000000 0.003647 0.000000
# 3 0.001503 -0.004882 0.014472 0.000000 0.010452 0.000000
# 4 0.000000 0.000000 0.000000 -0.426925 0.000000 -0.102376
# 5 0.015733 0.003647 0.010452 0.000000 0.081634 0.000000
# 6 0.000000 0.000000 0.000000 -0.102376 0.000000 0.014714
#
#
# Mechanical properties :
#
#
# Convention : Reuss Voigt Hill
#
# Bulk Modulus (GPa) = 27.46361 47.56335 37.51348
# Shear Modulus (GPa) = -19.50384 20.66836 0.58226
#
# Velocity S-wave (km/s) = -2.96150 3.04863 0.51169
# Velocity P-wave (km/s) = 0.80985 5.81210 4.14948
#
# Compressibility (1/GPa) = 0.03641182
#
# Stress axis : x y z
#
# Youngs Moduli (GPa) = 43.68711 84.15121 69.09755
#
# Poissons Ratio (x) = 0.25567 -0.10384
# Poissons Ratio (y) = 0.13273 0.33730
# Poissons Ratio (z) = -0.06566 0.41079
#
# Static dielectric constant tensor:
#      x y z
#    x 3.743930 0.000000 -0.018100 
#    y 0.000000 4.245030 0.000000 
#    z -0.018100 0.000000 4.051850 
# 
# 
# High freq. dielectric constant tensor:
#      x y z
#    x 1.857470 0.000000 -0.000440 
#    y 0.000000 1.882500 0.000000 
#    z -0.000440 0.000000 1.874190 
# 
# From -- ./inp_files/76966.got.cif
#   From: 2010.06.25/outbox.cif.g09.slc.cpg/sg10_39_cif.got.tgz:76966.got - 2010.06.27 22:07:45.
