data_PCOD8065028
_publ_section_title
;
Structure prediction by ZEFSAII (Michael W. Deem and Ramdas Pophale) SiO2 
 PCOD8065028
Probable space group: P 2/M
;
_chemical_formula_sum "Si O2"
_cell_formula_units_Z 28
_cell_length_a 9.021865
_cell_length_b 20.593210
_cell_length_c 15.445549
_cell_angle_alpha 90.000000
_cell_angle_beta 151.430134
_cell_angle_gamma 90.000000
_cell_volume 1372.336339
_symmetry_space_group_name_H-M "P 2/M"
_symmetry_group_IT_number 10
_symmetry_cell_setting 'monoclinic'
loop_
_space_group_symop_operation_xyz
x,y,z
-x,y,-z
-x,-y,-z
x,-y,z
loop_
_atom_site_type_symbol
_atom_site_label
_atom_site_fract_x
_atom_site_fract_y
_atom_site_fract_z
Si Si1 0.665120 0.702149 0.997220
Si Si2 0.685177 0.923795 0.677903
Si Si3 0.360763 0.368476 0.692600
Si Si4 0.333089 0.854470 0.001888
Si Si5 0.285390 0.500000 0.079696
Si Si6 0.341783 0.357298 0.325959
Si Si7 0.727965 0.500000 0.697118
Si Si8 0.635366 0.927271 0.308645
O O1 0.429016 0.685180 0.799958
O O2 0.728291 0.778296 0.030466
O O3 0.500000 0.678468 0.000000
O O4 0.991212 0.666250 0.150898
O O5 0.500000 0.897318 0.500000
O O6 0.497590 0.904845 0.667401
O O7 0.741647 0.000000 0.699062
O O8 0.010062 0.889229 0.847040
O O9 0.513460 0.435829 0.802762
O O10 0.476137 0.330575 0.664013
O O11 0.000000 0.382635 0.500000
O O12 0.543045 0.874953 0.190036
O O13 0.500000 0.877787 0.000000
O O14 0.000000 0.500000 0.000000
O O15 0.111848 0.500000 0.894332
O O16 0.500000 0.343039 0.500000
O O17 0.361735 0.432519 0.304472
O O18 0.500000 0.500000 0.500000
O O19 0.000000 0.928243 0.500000
O O20 0.512393 0.000000 0.222378
#
# Coordination Sequence:
#
# PCOD8065028 Si02
#       8
#     4   4   4   4   2   4   2   4
#     4  11  25  44  61  86 120 161 209 255 301 358
#     4  10  21  38  62  93 126 158 198 248 302 363
#     4  12  24  40  64  93 124 162 201 249 306 364
#     4  11  24  40  61  87 121 161 205 252 302 358
#     4  12  19  40  64  93 127 156 199 250 304 365
#     4  11  22  41  66  89 122 160 199 251 307 364
#     4  10  20  36  65  94 123 156 198 248 307 363
#     4  10  21  38  62  92 124 158 198 247 301 357
#
# _framework density 20.40316
#
# number of rings (size 3 to 8) (size 9 to 14) (size 15 to 20)
#    0.000    1.143    2.857    3.214    0.000    6.857 
#    0.000    2.857    0.000    0.000    0.000    0.000 
#    0.000    0.000    0.000    0.000    0.000    0.000 
#
# Total GULP energy -346932.733227 kJ/mol
# GULP energy per Si atom -12390.454758 kJ/mol
# Density = 2.035672 g / cm^3
# Si number density = 20.403160 Si / 1000 Ang^3
#
#
#
# Elastic Constant Matrix: (Units=GPa)
#
#
# Indices 1 2 3 4 5 6 
#
# 1 166.5725 38.7236 63.7959 0.0000 -4.4811 0.0000
# 2 38.7236 34.4129 19.5696 0.0000 -2.9436 0.0000
# 3 63.7959 19.5696 147.6244 0.0000 -3.9932 0.0000
# 4 0.0000 0.0000 0.0000 62.0904 0.0000 12.3256
# 5 -4.4811 -2.9436 -3.9932 0.0000 44.7823 0.0000
# 6 0.0000 0.0000 0.0000 12.3256 0.0000 24.4876
#
#
#
# Elastic Compliance Matrix: (Units=1/GPa)
#
#
# Indices 1 2 3 4 5 6 
#
# 1 0.009074 -0.008624 -0.002775 0.000000 0.000094 0.000000
# 2 -0.008624 0.039754 -0.001499 0.000000 0.001616 0.000000
# 3 -0.002775 -0.001499 0.008182 0.000000 0.000353 0.000000
# 4 0.000000 0.000000 0.000000 0.017893 0.000000 -0.009007
# 5 0.000094 0.001616 0.000353 0.000000 0.022477 0.000000
# 6 0.000000 0.000000 0.000000 -0.009007 0.000000 0.045370
#
#
# Mechanical properties :
#
#
# Convention : Reuss Voigt Hill
#
# Bulk Modulus (GPa) = 32.03908 65.86534 48.95221
# Shear Modulus (GPa) = 27.94039 41.37344 34.65692
#
# Velocity S-wave (km/s) = 3.70458 4.50799 4.12589
# Velocity P-wave (km/s) = 5.83400 7.71025 6.83680
#
# Compressibility (1/GPa) = 0.03121188
#
# Stress axis : x y z
#
# Youngs Moduli (GPa) = 110.20813 25.15460 122.22439
#
# Poissons Ratio (x) = 0.21693 0.33923
# Poissons Ratio (y) = 0.95044 0.18326
# Poissons Ratio (z) = 0.30588 0.03772
#
# Static dielectric constant tensor:
#      x y z
#    x 3.839590 0.000000 -0.224540 
#    y 0.000000 2.836660 0.000000 
#    z -0.224540 0.000000 4.133030 
# 
# 
# High freq. dielectric constant tensor:
#      x y z
#    x 1.801290 0.000000 -0.007250 
#    y 0.000000 1.791600 0.000000 
#    z -0.007250 0.000000 1.818560 
# 
# From -- ./inp_files/62649.got.cif
#   From: 2010.06.25/outbox.cif.g09.slc.cpg/sg10_32_cif.got.tgz:62649.got - 2010.06.27 22:07:45.
