data_PCOD8065489
_publ_section_title
;
Structure prediction by ZEFSAII (Michael W. Deem and Ramdas Pophale) SiO2 
 PCOD8065489
Probable space group: P 2/M
;
_chemical_formula_sum "Si O2"
_cell_formula_units_Z 24
_cell_length_a 15.973974
_cell_length_b 14.519299
_cell_length_c 9.277787
_cell_angle_alpha 90.000000
_cell_angle_beta 33.967052
_cell_angle_gamma 90.000000
_cell_volume 1202.248335
_symmetry_space_group_name_H-M "P 2/M"
_symmetry_group_IT_number 10
_symmetry_cell_setting 'monoclinic'
loop_
_space_group_symop_operation_xyz
x,y,z
-x,y,-z
-x,-y,-z
x,-y,z
loop_
_atom_site_type_symbol
_atom_site_label
_atom_site_fract_x
_atom_site_fract_y
_atom_site_fract_z
Si Si1 0.639202 0.601027 0.201100
Si Si2 0.658457 0.102144 0.845787
Si Si3 0.155114 0.244871 0.954995
Si Si4 0.433038 0.398314 0.249784
Si Si5 0.814521 0.752819 0.417064
Si Si6 0.639856 0.107920 0.202314
O O1 0.500000 0.585846 0.500000
O O2 0.713761 0.500000 0.064094
O O3 0.756143 0.666795 0.113196
O O4 0.566394 0.644760 0.158968
O O5 0.759224 0.171550 0.610158
O O6 0.733980 0.000000 0.737743
O O7 0.500000 0.096619 0.000000
O O8 0.623137 0.135010 0.058826
O O9 0.186833 0.213680 0.745692
O O10 0.205609 0.155235 0.970773
O O11 0.982540 0.270538 0.226966
O O12 0.388531 0.500000 0.374811
O O13 0.284879 0.338309 0.444078
O O14 0.500000 0.410028 0.000000
O O15 0.500000 0.145208 0.500000
O O16 0.656673 0.000000 0.202582
#
# Coordination Sequence:
#
# PCOD8065489 Si02
#       6
#     4   4   4   4   4   4
#     4  10  20  38  63  88 116 156 204 250 294 350
#     4  10  22  40  63  90 119 156 200 245 297 356
#     4  11  24  38  58  90 123 160 200 245 300 351
#     4  10  22  40  62  88 118 156 202 249 298 354
#     4  11  24  39  58  88 126 161 196 245 301 355
#     4  10  22  40  64  91 118 153 200 249 295 352
#
# _framework density 19.962599000000001
#
# number of rings (size 3 to 8) (size 9 to 14) (size 15 to 20)
#    0.000    1.667    1.667    2.000    4.667    4.000 
#    0.000    5.000    0.000    3.000    0.000    0.000 
#    0.000    0.000    0.000    0.000    0.000    0.000 
#
# Total GULP energy -297387.575304 kJ/mol
# GULP energy per Si atom -12391.148971 kJ/mol
# Density = 1.991716 g / cm^3
# Si number density = 19.962599 Si / 1000 Ang^3
#
#
#
# Elastic Constant Matrix: (Units=GPa)
#
#
# Indices 1 2 3 4 5 6 
#
# 1 156.7373 59.8522 66.0821 0.0000 2.6256 0.0000
# 2 59.8522 92.0234 55.0157 0.0000 -2.8474 0.0000
# 3 66.0821 55.0157 102.5089 0.0000 4.7304 0.0000
# 4 0.0000 0.0000 0.0000 17.8658 0.0000 8.1365
# 5 2.6256 -2.8474 4.7304 0.0000 36.3430 0.0000
# 6 0.0000 0.0000 0.0000 8.1365 0.0000 29.2092
#
#
#
# Elastic Compliance Matrix: (Units=1/GPa)
#
#
# Indices 1 2 3 4 5 6 
#
# 1 0.009565 -0.003771 -0.004122 0.000000 -0.000450 0.000000
# 2 -0.003771 0.017696 -0.007186 0.000000 0.002594 0.000000
# 3 -0.004122 -0.007186 0.016379 0.000000 -0.002397 0.000000
# 4 0.000000 0.000000 0.000000 0.064105 0.000000 -0.017857
# 5 -0.000450 0.002594 -0.002397 0.000000 0.028063 0.000000
# 6 0.000000 0.000000 0.000000 -0.017857 0.000000 0.039210
#
#
# Mechanical properties :
#
#
# Convention : Reuss Voigt Hill
#
# Bulk Modulus (GPa) = 74.16499 79.24107 76.70303
# Shear Modulus (GPa) = 23.84682 28.03823 25.94253
#
# Velocity S-wave (km/s) = 3.46001 3.75178 3.60885
# Velocity P-wave (km/s) = 7.29348 7.65172 7.47475
#
# Compressibility (1/GPa) = 0.01348345
#
# Stress axis : x y z
#
# Youngs Moduli (GPa) = 104.54294 56.51023 61.05227
#
# Poissons Ratio (x) = 0.21311 0.25163
# Poissons Ratio (y) = 0.39426 0.43871
# Poissons Ratio (z) = 0.43088 0.40607
#
# Static dielectric constant tensor:
#      x y z
#    x 5.920240 0.000000 0.613080 
#    y 0.000000 4.236780 0.000000 
#    z 0.613080 0.000000 3.619000 
# 
# 
# High freq. dielectric constant tensor:
#      x y z
#    x 1.798110 0.000000 0.017240 
#    y 0.000000 1.784300 0.000000 
#    z 0.017240 0.000000 1.762000 
# 
# From -- ./inp_files/29258.got.cif
#   From: 2010.06.25/outbox.cif.g09.slc.cpg/sg10_15_cif.got.tgz:29258.got - 2010.06.27 22:07:45.
