data_PCOD8065537
_publ_section_title
;
Structure prediction by ZEFSAII (Michael W. Deem and Ramdas Pophale) SiO2 
 PCOD8065537
Probable space group: P 2/M
;
_chemical_formula_sum "Si O2"
_cell_formula_units_Z 24
_cell_length_a 14.450724
_cell_length_b 8.907308
_cell_length_c 14.559868
_cell_angle_alpha 90.000000
_cell_angle_beta 141.362025
_cell_angle_gamma 90.000000
_cell_volume 1170.185277
_symmetry_space_group_name_H-M "P 2/M"
_symmetry_group_IT_number 10
_symmetry_cell_setting 'monoclinic'
loop_
_space_group_symop_operation_xyz
x,y,z
-x,y,-z
-x,-y,-z
x,-y,z
loop_
_atom_site_type_symbol
_atom_site_label
_atom_site_fract_x
_atom_site_fract_y
_atom_site_fract_z
Si Si1 0.986812 0.329169 0.387337
Si Si2 0.822825 0.823446 0.105918
Si Si3 0.527131 0.325093 0.917691
Si Si4 0.048932 0.675608 0.141018
Si Si5 0.649630 0.175009 0.564151
Si Si6 0.319100 0.668109 0.594095
O O1 0.925037 0.500000 0.341068
O O2 0.142749 0.321067 0.457134
O O3 0.000000 0.265965 0.500000
O O4 0.872726 0.222867 0.246649
O O5 0.929403 0.751341 0.113766
O O6 0.827197 0.000000 0.096687
O O7 0.656435 0.763995 0.965455
O O8 0.569634 0.500000 0.954303
O O9 0.380930 0.293816 0.743417
O O10 0.500000 0.264201 0.000000
O O11 0.049570 0.500000 0.163082
O O12 0.213608 0.736575 0.285541
O O13 0.000000 0.711751 0.000000
O O14 0.500000 0.220175 0.500000
O O15 0.622394 0.217074 0.436758
O O16 0.684781 0.000000 0.599638
O O17 0.369355 0.500000 0.605526
#
# Coordination Sequence:
#
# PCOD8065537 Si02
#       6
#     4   4   4   4   4   4
#     4  10  20  38  65  93 122 162 210 259 308 367
#     4  12  25  40  62  94 132 169 204 257 323 382
#     4  10  22  42  66  93 126 170 220 263 308 367
#     4  11  25  45  69  95 122 162 216 266 311 373
#     4  11  25  43  64  94 130 166 201 251 323 387
#     4  10  21  38  64  93 122 163 212 261 306 363
#
# _framework density 20.509574000000001
#
# number of rings (size 3 to 8) (size 9 to 14) (size 15 to 20)
#    0.000    1.333    1.667    3.500    2.333    6.667 
#    0.000    1.667    0.000    0.000    0.000    0.000 
#    0.000    0.000    0.000    0.000    0.000    0.000 
#
# Total GULP energy -297713.979256 kJ/mol
# GULP energy per Si atom -12404.749136 kJ/mol
# Density = 2.046289 g / cm^3
# Si number density = 20.509574 Si / 1000 Ang^3
#
#
#
# Elastic Constant Matrix: (Units=GPa)
#
#
# Indices 1 2 3 4 5 6 
#
# 1 89.1008 42.3032 16.3963 0.0000 -3.1815 0.0000
# 2 42.3032 91.9321 36.9841 0.0000 -0.4569 0.0000
# 3 16.3963 36.9841 91.5920 0.0000 -3.4871 0.0000
# 4 0.0000 0.0000 0.0000 12.8830 0.0000 9.8437
# 5 -3.1815 -0.4569 -3.4871 0.0000 36.4649 0.0000
# 6 0.0000 0.0000 0.0000 9.8437 0.0000 22.2246
#
#
#
# Elastic Compliance Matrix: (Units=1/GPa)
#
#
# Indices 1 2 3 4 5 6 
#
# 1 0.014413 -0.006694 0.000168 0.000000 0.001190 0.000000
# 2 -0.006694 0.016100 -0.005337 0.000000 -0.000893 0.000000
# 3 0.000168 -0.005337 0.013089 0.000000 0.001199 0.000000
# 4 0.000000 0.000000 0.000000 0.117329 0.000000 -0.051967
# 5 0.001190 -0.000893 0.001199 0.000000 0.027631 0.000000
# 6 0.000000 0.000000 0.000000 -0.051967 0.000000 0.068013
#
#
# Mechanical properties :
#
#
# Convention : Reuss Voigt Hill
#
# Bulk Modulus (GPa) = 50.31067 51.55469 50.93268
# Shear Modulus (GPa) = 17.42613 26.11057 21.76835
#
# Velocity S-wave (km/s) = 2.91805 3.57191 3.26141
# Velocity P-wave (km/s) = 5.99474 6.49637 6.25059
#
# Compressibility (1/GPa) = 0.01987650
#
# Stress axis : x y z
#
# Youngs Moduli (GPa) = 69.38216 62.11002 76.40262
#
# Poissons Ratio (x) = 0.41576 -0.01285
# Poissons Ratio (y) = 0.46444 0.40775
# Poissons Ratio (z) = -0.01167 0.33148
#
# Static dielectric constant tensor:
#      x y z
#    x 3.760180 0.000000 -0.050800 
#    y 0.000000 3.632250 0.000000 
#    z -0.050800 0.000000 3.868210 
# 
# 
# High freq. dielectric constant tensor:
#      x y z
#    x 1.810420 0.000000 -0.002270 
#    y 0.000000 1.791050 0.000000 
#    z -0.002270 0.000000 1.814860 
# 
# From -- ./inp_files/66697.got.cif
#   From: 2010.06.25/outbox.cif.g09.slc.cpg/sg10_34_cif.got.tgz:66697.got - 2010.06.27 22:07:45.
