data_PCOD8065680
_publ_section_title
;
Structure prediction by ZEFSAII (Michael W. Deem and Ramdas Pophale) SiO2 
 PCOD8065680
Probable space group: P 2/M
;
_chemical_formula_sum "Si O2"
_cell_formula_units_Z 32
_cell_length_a 14.496844
_cell_length_b 8.722757
_cell_length_c 12.357857
_cell_angle_alpha 90.000000
_cell_angle_beta 89.903712
_cell_angle_gamma 90.000000
_cell_volume 1562.679057
_symmetry_space_group_name_H-M "P 2/M"
_symmetry_group_IT_number 10
_symmetry_cell_setting 'monoclinic'
loop_
_space_group_symop_operation_xyz
x,y,z
-x,y,-z
-x,-y,-z
x,-y,z
loop_
_atom_site_type_symbol
_atom_site_label
_atom_site_fract_x
_atom_site_fract_y
_atom_site_fract_z
Si Si1 0.051355 0.671000 0.611581
Si Si2 0.208668 0.819342 0.888331
Si Si3 0.515656 0.179689 0.623678
Si Si4 0.228798 0.824098 0.541310
Si Si5 0.996583 0.819525 0.182351
Si Si6 0.277880 0.823341 0.306287
Si Si7 0.177555 0.679705 0.106742
Si Si8 0.656446 0.678235 0.287721
O O1 0.086727 0.500000 0.641901
O O2 0.134773 0.790293 0.604300
O O3 0.983402 0.736278 0.703289
O O4 0.000000 0.664513 0.500000
O O5 0.104952 0.769219 0.855997
O O6 0.283271 0.768881 0.800081
O O7 0.215404 0.000000 0.904174
O O8 0.232979 0.736290 0.001059
O O9 0.500000 0.236235 0.500000
O O10 0.617707 0.220027 0.664343
O O11 0.449350 0.266316 0.709313
O O12 0.495252 0.000000 0.630509
O O13 0.217696 0.790506 0.414120
O O14 0.306837 0.716069 0.591981
O O15 0.258046 0.000000 0.560921
O O16 0.077609 0.762923 0.103253
O O17 0.005323 0.000000 0.195551
O O18 0.238673 0.719095 0.211157
O O19 0.268926 0.000000 0.270544
O O20 0.161065 0.500000 0.102759
O O21 0.662222 0.500000 0.260963
#
# Coordination Sequence:
#
# PCOD8065680 Si02
#       8
#     4   4   4   4   4   4   4   4
#     4  11  23  36  53  85 126 164 203 256 316 369
#     4  11  24  44  68  91 121 165 218 263 304 369
#     4  10  20  40  67  95 126 164 210 255 304 374
#     4  11  21  37  60  87 121 165 209 251 303 369
#     4  11  23  40  64  90 119 163 216 261 303 369
#     4  10  22  41  66  92 125 167 211 257 306 371
#     4  12  26  42  63  92 129 165 205 262 319 370
#     4  12  24  38  62  96 130 160 199 257 317 368
#
# _framework density 20.477653
#
# number of rings (size 3 to 8) (size 9 to 14) (size 15 to 20)
#    0.000    1.000    2.500    4.875    0.000    7.750 
#    0.000    0.625    0.000    3.750    0.000    0.000 
#    0.000    0.000    0.000    0.000    0.000    0.000 
#
# Total GULP energy -396894.078687 kJ/mol
# GULP energy per Si atom -12402.939959 kJ/mol
# Density = 2.043105 g / cm^3
# Si number density = 20.477653 Si / 1000 Ang^3
#
#
#
# Elastic Constant Matrix: (Units=GPa)
#
#
# Indices 1 2 3 4 5 6 
#
# 1 81.2756 27.2306 26.9370 0.0000 -13.6613 0.0000
# 2 27.2306 95.1267 39.8701 0.0000 -2.2352 0.0000
# 3 26.9370 39.8701 103.7907 0.0000 -11.3210 0.0000
# 4 0.0000 0.0000 0.0000 27.8257 0.0000 1.1892
# 5 -13.6613 -2.2352 -11.3210 0.0000 22.7657 0.0000
# 6 0.0000 0.0000 0.0000 1.1892 0.0000 20.5733
#
#
#
# Elastic Compliance Matrix: (Units=1/GPa)
#
#
# Indices 1 2 3 4 5 6 
#
# 1 0.015408 -0.003472 -0.001791 0.000000 0.008014 0.000000
# 2 -0.003472 0.013344 -0.004557 0.000000 -0.003039 0.000000
# 3 -0.001791 -0.004557 0.012354 0.000000 0.004621 0.000000
# 4 0.000000 0.000000 0.000000 0.036027 0.000000 -0.002082
# 5 0.008014 -0.003039 0.004621 0.000000 0.050735 0.000000
# 6 0.000000 0.000000 0.000000 -0.002082 0.000000 0.048727
#
#
# Mechanical properties :
#
#
# Convention : Reuss Voigt Hill
#
# Bulk Modulus (GPa) = 46.58159 52.02983 49.30571
# Shear Modulus (GPa) = 24.58340 26.64329 25.61334
#
# Velocity S-wave (km/s) = 3.46858 3.61098 3.54049
# Velocity P-wave (km/s) = 6.23204 6.54590 6.39090
#
# Compressibility (1/GPa) = 0.02146771
#
# Stress axis : x y z
#
# Youngs Moduli (GPa) = 64.90291 74.93749 80.94497
#
# Poissons Ratio (x) = 0.26015 0.14498
# Poissons Ratio (y) = 0.22531 0.36884
# Poissons Ratio (z) = 0.11624 0.34146
#
# Static dielectric constant tensor:
#      x y z
#    x 3.838150 0.000000 -0.128790 
#    y 0.000000 3.713650 0.000000 
#    z -0.128790 0.000000 3.748290 
# 
# 
# High freq. dielectric constant tensor:
#      x y z
#    x 1.796190 0.000000 -0.011010 
#    y 0.000000 1.802110 0.000000 
#    z -0.011010 0.000000 1.801800 
# 
# From -- ./inp_files/49945.got.cif
#   From: 2010.06.25/outbox.cif.g09.slc.cpg/sg10_25_cif.got.tgz:49945.got - 2010.06.27 22:07:45.
