data_PCOD8065300
_publ_section_title
;
Structure prediction by ZEFSAII (Michael W. Deem and Ramdas Pophale) SiO2 
 PCOD8065300
Probable space group: P 2/M
;
_chemical_formula_sum "Si O2"
_cell_formula_units_Z 28
_cell_length_a 14.480668
_cell_length_b 8.811287
_cell_length_c 12.503305
_cell_angle_alpha 90.000000
_cell_angle_beta 58.495490
_cell_angle_gamma 90.000000
_cell_volume 1360.183822
_symmetry_space_group_name_H-M "P 2/M"
_symmetry_group_IT_number 10
_symmetry_cell_setting 'monoclinic'
loop_
_space_group_symop_operation_xyz
x,y,z
-x,y,-z
-x,-y,-z
x,-y,z
loop_
_atom_site_type_symbol
_atom_site_label
_atom_site_fract_x
_atom_site_fract_y
_atom_site_fract_z
Si Si1 0.729491 0.321488 0.986519
Si Si2 0.411025 0.326293 0.466537
Si Si3 0.188452 0.823001 0.645117
Si Si4 0.485682 0.324798 0.184051
Si Si5 0.721311 0.821561 0.772258
Si Si6 0.889439 0.679375 0.512569
Si Si7 0.874728 0.675470 0.097471
O O1 0.739844 0.500000 0.960352
O O2 0.607374 0.271851 0.087042
O O3 0.807149 0.269388 0.035632
O O4 0.769099 0.236277 0.855879
O O5 0.500000 0.287291 0.500000
O O6 0.370164 0.500000 0.501510
O O7 0.312083 0.213870 0.543239
O O8 0.465327 0.295015 0.320404
O O9 0.109909 0.735661 0.610080
O O10 0.161574 0.774756 0.781010
O O11 0.168073 0.000000 0.643821
O O12 0.468547 0.500000 0.163302
O O13 0.404201 0.227111 0.160973
O O14 0.786426 0.747568 0.635445
O O15 0.733375 0.000000 0.757171
O O16 0.878587 0.500000 0.521967
O O17 0.000000 0.735683 0.500000
O O18 0.849466 0.500000 0.137958
O O19 0.000000 0.703701 0.000000
#
# Coordination Sequence:
#
# PCOD8065300 Si02
#       7
#     4   4   4   4   4   4   4
#     4  10  22  41  65  93 125 168 221 265 308 366
#     4  10  20  37  64  93 124 168 219 263 305 365
#     4  12  25  41  64  97 135 167 201 258 328 385
#     4  10  20  37  62  90 124 168 215 262 307 370
#     4  12  25  40  62  95 133 167 203 258 328 385
#     4  11  25  45  70  94 121 165 220 267 310 373
#     4  10  23  44  69  94 122 166 222 267 306 369
#
# _framework density 20.585455
#
# number of rings (size 3 to 8) (size 9 to 14) (size 15 to 20)
#    0.000    1.286    1.429    4.286    2.000    6.857 
#    0.000    1.429    0.000    0.000    0.000    0.000 
#    0.000    0.000    0.000    0.000    0.000    0.000 
#
# Total GULP energy -347404.015261 kJ/mol
# GULP energy per Si atom -12407.286259 kJ/mol
# Density = 2.053860 g / cm^3
# Si number density = 20.585455 Si / 1000 Ang^3
#
#
#
# Elastic Constant Matrix: (Units=GPa)
#
#
# Indices 1 2 3 4 5 6 
#
# 1 126.0360 33.6135 28.1026 0.0000 22.6763 0.0000
# 2 33.6135 80.6193 29.0630 0.0000 8.6186 0.0000
# 3 28.1026 29.0630 77.4275 0.0000 22.6992 0.0000
# 4 0.0000 0.0000 0.0000 18.5140 0.0000 5.9189
# 5 22.6763 8.6186 22.6992 0.0000 36.8399 0.0000
# 6 0.0000 0.0000 0.0000 5.9189 0.0000 7.3756
#
#
#
# Elastic Compliance Matrix: (Units=1/GPa)
#
#
# Indices 1 2 3 4 5 6 
#
# 1 0.009869 -0.003259 -0.000978 0.000000 -0.004710 0.000000
# 2 -0.003259 0.015421 -0.005048 0.000000 0.001508 0.000000
# 3 -0.000978 -0.005048 0.017870 0.000000 -0.009228 0.000000
# 4 0.000000 0.000000 0.000000 0.072652 0.000000 -0.058303
# 5 -0.004710 0.001508 -0.009228 0.000000 0.035376 0.000000
# 6 0.000000 0.000000 0.000000 -0.058303 0.000000 0.182370
#
#
# Mechanical properties :
#
#
# Convention : Reuss Voigt Hill
#
# Bulk Modulus (GPa) = 40.66510 51.73789 46.20150
# Shear Modulus (GPa) = 13.87636 25.43283 19.65459
#
# Velocity S-wave (km/s) = 2.59913 3.51875 3.09330
# Velocity P-wave (km/s) = 5.36698 6.45729 5.93722
#
# Compressibility (1/GPa) = 0.02459111
#
# Stress axis : x y z
#
# Youngs Moduli (GPa) = 101.33014 64.84607 55.95838
#
# Poissons Ratio (x) = 0.21131 0.05473
# Poissons Ratio (y) = 0.33020 0.28247
# Poissons Ratio (z) = 0.09911 0.32734
#
# Static dielectric constant tensor:
#      x y z
#    x 3.957650 0.000000 0.050860 
#    y 0.000000 3.543650 0.000000 
#    z 0.050860 0.000000 4.335600 
# 
# 
# High freq. dielectric constant tensor:
#      x y z
#    x 1.819550 0.000000 0.009970 
#    y 0.000000 1.789950 0.000000 
#    z 0.009970 0.000000 1.816620 
# 
# From -- ./inp_files/49547.got.cif
#   From: 2010.06.25/outbox.cif.g09.slc.cpg/sg10_25_cif.got.tgz:49547.got - 2010.06.27 22:07:45.
