data_PCOD8065019
_publ_section_title
;
Structure prediction by ZEFSAII (Michael W. Deem and Ramdas Pophale) SiO2 
 PCOD8065019
Probable space group: P 2/M
;
_chemical_formula_sum "Si O2"
_cell_formula_units_Z 22
_cell_length_a 12.791377
_cell_length_b 14.186191
_cell_length_c 9.966539
_cell_angle_alpha 90.000000
_cell_angle_beta 35.249863
_cell_angle_gamma 90.000000
_cell_volume 1043.785077
_symmetry_space_group_name_H-M "P 2/M"
_symmetry_group_IT_number 10
_symmetry_cell_setting 'monoclinic'
loop_
_space_group_symop_operation_xyz
x,y,z
-x,y,-z
-x,-y,-z
x,-y,z
loop_
_atom_site_type_symbol
_atom_site_label
_atom_site_fract_x
_atom_site_fract_y
_atom_site_fract_z
Si Si1 0.676269 0.395261 0.080987
Si Si2 0.582339 0.200536 0.276759
Si Si3 0.939429 0.394103 0.213072
Si Si4 0.039580 0.889427 0.112362
Si Si5 0.740072 0.770723 0.551898
Si Si6 0.500000 0.320916 0.000000
O O1 0.623780 0.500000 0.188992
O O2 0.895553 0.386845 0.852721
O O3 0.609153 0.313750 0.251456
O O4 0.586667 0.382972 0.028036
O O5 0.500000 0.163445 0.500000
O O6 0.434200 0.174220 0.321779
O O7 0.761728 0.143089 0.054631
O O8 0.860079 0.500000 0.293856
O O9 0.779658 0.324994 0.426696
O O10 0.000000 0.364029 0.000000
O O11 0.910091 0.840151 0.358348
O O12 0.016822 0.000000 0.152506
O O13 0.000000 0.857483 0.000000
O O14 0.674504 0.741598 0.769615
#
# Coordination Sequence:
#
# PCOD8065019 Si02
#       6
#     4   4   4   4   4   2
#     4  10  21  38  60  91 130 174 220 261 306 372
#     4  11  21  36  63  95 130 162 205 263 323 388
#     4  10  20  36  63  95 127 167 213 265 328 387
#     4  11  23  41  68  97 127 162 206 270 342 395
#     4  11  22  41  62  89 130 168 212 264 316 379
#     4  10  25  40  61  90 128 180 227 262 303 374
#
# _framework density 21.077135999999999
#
# number of rings (size 3 to 8) (size 9 to 14) (size 15 to 20)
#    0.000    1.455    3.636    1.909    0.000    5.818 
#    0.000    2.273    0.000    5.455    0.000    0.000 
#    0.000    0.000    0.000    0.000    0.000    0.000 
#
# Total GULP energy -272612.020046 kJ/mol
# GULP energy per Si atom -12391.455457 kJ/mol
# Density = 2.102916 g / cm^3
# Si number density = 21.077136 Si / 1000 Ang^3
#
#
#
# Elastic Constant Matrix: (Units=GPa)
#
#
# Indices 1 2 3 4 5 6 
#
# 1 73.3216 5.5339 19.4739 0.0000 -15.2407 0.0000
# 2 5.5339 92.7807 48.6443 0.0000 3.7386 0.0000
# 3 19.4739 48.6443 137.6795 0.0000 -6.6890 0.0000
# 4 0.0000 0.0000 0.0000 4.0004 0.0000 0.0597
# 5 -15.2407 3.7386 -6.6890 0.0000 34.2178 0.0000
# 6 0.0000 0.0000 0.0000 0.0597 0.0000 6.1485
#
#
#
# Elastic Compliance Matrix: (Units=1/GPa)
#
#
# Indices 1 2 3 4 5 6 
#
# 1 0.015500 -0.000255 -0.001782 0.000000 0.006583 0.000000
# 2 -0.000255 0.013428 -0.004831 0.000000 -0.002525 0.000000
# 3 -0.001782 -0.004831 0.009298 0.000000 0.001551 0.000000
# 4 0.000000 0.000000 0.000000 0.250010 0.000000 -0.002428
# 5 0.006583 -0.002525 0.001551 0.000000 0.032736 0.000000
# 6 0.000000 0.000000 0.000000 -0.002428 0.000000 0.162665
#
#
# Mechanical properties :
#
#
# Convention : Reuss Voigt Hill
#
# Bulk Modulus (GPa) = 40.83618 50.12067 45.47843
# Shear Modulus (GPa) = 9.89049 24.21531 17.05290
#
# Velocity S-wave (km/s) = 2.16857 3.39321 2.84750
# Velocity P-wave (km/s) = 5.06823 6.25964 5.69517
#
# Compressibility (1/GPa) = 0.02448809
#
# Stress axis : x y z
#
# Youngs Moduli (GPa) = 64.51807 74.47201 107.55543
#
# Poissons Ratio (x) = 0.01901 0.19169
# Poissons Ratio (y) = 0.01647 0.51958
# Poissons Ratio (z) = 0.11499 0.35976
#
# Static dielectric constant tensor:
#      x y z
#    x 3.887910 0.000000 -0.052470 
#    y 0.000000 3.711630 0.000000 
#    z -0.052470 0.000000 4.111160 
# 
# 
# High freq. dielectric constant tensor:
#      x y z
#    x 1.814090 0.000000 -0.023640 
#    y 0.000000 1.814790 0.000000 
#    z -0.023640 0.000000 1.825150 
# 
# From -- ./inp_files/51356.got.cif
#   From: 2010.06.25/outbox.cif.g09.slc.cpg/sg10_26_cif.got.tgz:51356.got - 2010.06.27 22:07:45.
