data_PCOD8065113
_publ_section_title
;
Structure prediction by ZEFSAII (Michael W. Deem and Ramdas Pophale) SiO2 
 PCOD8065113
Probable space group: P 2/M
;
_chemical_formula_sum "Si O2"
_cell_formula_units_Z 32
_cell_length_a 7.650424
_cell_length_b 12.991497
_cell_length_c 25.889277
_cell_angle_alpha 90.000000
_cell_angle_beta 37.404628
_cell_angle_gamma 90.000000
_cell_volume 1563.032526
_symmetry_space_group_name_H-M "P 2/M"
_symmetry_group_IT_number 10
_symmetry_cell_setting 'monoclinic'
loop_
_space_group_symop_operation_xyz
x,y,z
-x,y,-z
-x,-y,-z
x,-y,z
loop_
_atom_site_type_symbol
_atom_site_label
_atom_site_fract_x
_atom_site_fract_y
_atom_site_fract_z
Si Si1 0.601623 0.620695 0.282285
Si Si2 0.685452 0.114831 0.507757
Si Si3 0.244334 0.257246 0.660037
Si Si4 0.692072 0.210385 0.848536
Si Si5 0.293594 0.616689 0.962456
Si Si6 0.064507 0.743550 0.107343
Si Si7 0.404502 0.117806 0.827256
Si Si8 0.869571 0.242469 0.653364
O O1 0.604837 0.500000 0.272365
O O2 0.642477 0.644994 0.333739
O O3 0.856694 0.670933 0.189542
O O4 0.295925 0.663655 0.334454
O O5 0.500000 0.105376 0.500000
O O6 0.506154 0.177113 0.592690
O O7 0.980608 0.174943 0.426438
O O8 0.755457 0.000000 0.512294
O O9 0.003083 0.199488 0.749910
O O10 0.109659 0.289915 0.636222
O O11 0.483101 0.127521 0.869898
O O12 0.726837 0.193701 0.901995
O O13 0.547095 0.323354 0.872381
O O14 0.397354 0.500000 0.945787
O O15 0.253762 0.670033 0.027115
O O16 0.000000 0.621683 0.000000
O O17 0.896555 0.825804 0.112105
O O18 0.654352 0.168539 0.734662
O O19 0.372555 0.000000 0.818929
#
# Coordination Sequence:
#
# PCOD8065113 Si02
#       8
#     4   4   4   4   4   4   4   4
#     4  10  21  37  57  81 114 156 194 232 282 340
#     4   9  17  34  61  87 114 148 189 238 290 333
#     4   9  20  36  54  82 117 146 186 234 279 339
#     4  10  21  37  57  84 117 150 186 231 286 344
#     4  11  22  38  63  90 115 146 189 241 293 338
#     4  10  21  39  59  86 117 148 194 241 283 339
#     4  10  20  37  59  84 118 154 191 237 288 341
#     4   9  19  36  58  87 115 149 192 241 285 335
#
# _framework density 20.473023000000001
#
# number of rings (size 3 to 8) (size 9 to 14) (size 15 to 20)
#    0.000    2.250    1.250    1.125    0.000    7.500 
#    0.000    8.750    0.000    3.750    0.000    0.000 
#    0.000    0.000    0.000    0.000    0.000    0.000 
#
# Total GULP energy -396691.028882 kJ/mol
# GULP energy per Si atom -12396.594653 kJ/mol
# Density = 2.042643 g / cm^3
# Si number density = 20.473023 Si / 1000 Ang^3
#
#
#
# Elastic Constant Matrix: (Units=GPa)
#
#
# Indices 1 2 3 4 5 6 
#
# 1 92.6038 33.8836 -0.9122 0.0000 -0.8065 0.0000
# 2 33.8836 111.3699 19.8606 0.0000 2.9929 0.0000
# 3 -0.9122 19.8606 59.3969 0.0000 10.5982 0.0000
# 4 0.0000 0.0000 0.0000 23.5891 0.0000 5.5415
# 5 -0.8065 2.9929 10.5982 0.0000 17.1707 0.0000
# 6 0.0000 0.0000 0.0000 5.5415 0.0000 22.1055
#
#
#
# Elastic Compliance Matrix: (Units=1/GPa)
#
#
# Indices 1 2 3 4 5 6 
#
# 1 0.012283 -0.004008 0.001462 0.000000 0.000373 0.000000
# 2 -0.004008 0.010858 -0.003732 0.000000 0.000223 0.000000
# 3 0.001462 -0.003732 0.020203 0.000000 -0.011751 0.000000
# 4 0.000000 0.000000 0.000000 0.045045 0.000000 -0.011292
# 5 0.000373 0.000223 -0.011751 0.000000 0.065470 0.000000
# 6 0.000000 0.000000 0.000000 -0.011292 0.000000 0.048068
#
#
# Mechanical properties :
#
#
# Convention : Reuss Voigt Hill
#
# Bulk Modulus (GPa) = 32.47944 41.00384 36.74164
# Shear Modulus (GPa) = 22.24741 26.60896 24.42819
#
# Velocity S-wave (km/s) = 3.30004 3.60906 3.45800
# Velocity P-wave (km/s) = 5.51537 6.11872 5.82486
#
# Compressibility (1/GPa) = 0.03078871
#
# Stress axis : x y z
#
# Youngs Moduli (GPa) = 81.41494 92.09866 49.49799
#
# Poissons Ratio (x) = 0.36911 -0.07237
# Poissons Ratio (y) = 0.32629 0.18472
# Poissons Ratio (z) = -0.11904 0.34370
#
# Static dielectric constant tensor:
#      x y z
#    x 4.035130 0.000000 -0.037910 
#    y 0.000000 3.504090 0.000000 
#    z -0.037910 0.000000 3.729820 
# 
# 
# High freq. dielectric constant tensor:
#      x y z
#    x 1.814660 0.000000 -0.006880 
#    y 0.000000 1.770730 0.000000 
#    z -0.006880 0.000000 1.797380 
# 
# From -- ./inp_files/94645.got.cif
#   From: 2010.06.25/outbox.cif.g09.slc.cpg/sg10_48_cif.got.tgz:94645.got - 2010.06.27 22:07:45.
