data_PCOD8065206
_publ_section_title
;
Structure prediction by ZEFSAII (Michael W. Deem and Ramdas Pophale) SiO2 
 PCOD8065206
Probable space group: P 2/M
;
_chemical_formula_sum "Si O2"
_cell_formula_units_Z 24
_cell_length_a 12.169585
_cell_length_b 8.537248
_cell_length_c 11.947893
_cell_angle_alpha 90.000000
_cell_angle_beta 77.579090
_cell_angle_gamma 90.000000
_cell_volume 1212.268928
_symmetry_space_group_name_H-M "P 2/M"
_symmetry_group_IT_number 10
_symmetry_cell_setting 'monoclinic'
loop_
_space_group_symop_operation_xyz
x,y,z
-x,y,-z
-x,-y,-z
x,-y,z
loop_
_atom_site_type_symbol
_atom_site_label
_atom_site_fract_x
_atom_site_fract_y
_atom_site_fract_z
Si Si1 0.415915 0.682028 0.739521
Si Si2 0.654214 0.816100 0.684214
Si Si3 0.724083 0.816717 0.422153
Si Si4 0.084085 0.682028 0.760479
Si Si5 0.775917 0.183283 0.077847
Si Si6 0.154214 0.183900 0.184215
O O1 0.404882 0.500000 0.714421
O O2 0.542321 0.725334 0.744842
O O3 0.379425 0.778522 0.637487
O O4 0.335630 0.724171 0.861032
O O5 0.692105 0.761718 0.553054
O O6 0.750000 0.766580 0.750000
O O7 0.629402 0.000000 0.693672
O O8 0.835629 0.724172 0.361032
O O9 0.750699 0.000000 0.411798
O O10 0.095119 0.500000 0.785578
O O11 0.120575 0.778522 0.862514
O O12 0.957680 0.725332 0.755158
O O13 0.749300 0.000000 0.088204
O O14 0.807895 0.238280 0.946946
O O15 0.129400 0.000000 0.193675
#
# Coordination Sequence:
#
# PCOD8065206 Si02
#       6
#     4   4   4   4   4   4
#     4  11  22  36  57  84 114 144 179 227 277 325
#     4  10  22  39  58  81 110 146 186 226 270 323
#     4  10  20  37  61  83 107 143 187 229 268 320
#     4  11  22  36  57  84 114 144 179 227 277 325
#     4  10  20  37  61  83 107 143 187 229 268 320
#     4  10  22  39  58  81 110 146 186 226 270 323
#
# _framework density 19.797585999999999
#
# number of rings (size 3 to 8) (size 9 to 14) (size 15 to 20)
#    0.000    1.667    0.000    7.000    0.000    8.667 
#    0.000    6.667    0.000    0.000    0.000    0.000 
#    0.000    0.000    0.000    0.000    0.000    0.000 
#
# Total GULP energy -297750.964722 kJ/mol
# GULP energy per Si atom -12406.290197 kJ/mol
# Density = 1.975253 g / cm^3
# Si number density = 19.797586 Si / 1000 Ang^3
#
#
#
# Elastic Constant Matrix: (Units=GPa)
#
#
# Indices 1 2 3 4 5 6 
#
# 1 151.6564 29.9633 55.4836 0.0000 -3.2326 0.0000
# 2 29.9633 52.2456 11.9589 0.0000 -5.8313 0.0000
# 3 55.4836 11.9589 59.3521 0.0000 -2.1007 0.0000
# 4 0.0000 0.0000 0.0000 2.9371 0.0000 -0.4706
# 5 -3.2326 -5.8313 -2.1007 0.0000 17.5475 0.0000
# 6 0.0000 0.0000 0.0000 -0.4706 0.0000 13.7186
#
#
#
# Elastic Compliance Matrix: (Units=1/GPa)
#
#
# Indices 1 2 3 4 5 6 
#
# 1 0.010790 -0.004120 -0.009274 0.000000 -0.000492 0.000000
# 2 -0.004120 0.022337 -0.000415 0.000000 0.006614 0.000000
# 3 -0.009274 -0.000415 0.025645 0.000000 0.001224 0.000000
# 4 0.000000 0.000000 0.000000 0.342357 0.000000 0.011743
# 5 -0.000492 0.006614 0.001224 0.000000 0.059242 0.000000
# 6 0.000000 0.000000 0.000000 0.011743 0.000000 0.073297
#
#
# Mechanical properties :
#
#
# Convention : Reuss Voigt Hill
#
# Bulk Modulus (GPa) = 32.09907 50.89619 41.49763
# Shear Modulus (GPa) = 8.74629 17.89719 13.32174
#
# Velocity S-wave (km/s) = 2.10415 3.00994 2.59684
# Velocity P-wave (km/s) = 4.70660 6.15172 5.47703
#
# Compressibility (1/GPa) = 0.03115355
#
# Stress axis : x y z
#
# Youngs Moduli (GPa) = 92.67422 44.76953 38.99349
#
# Poissons Ratio (x) = 0.18447 0.36164
# Poissons Ratio (y) = 0.38186 0.01617
# Poissons Ratio (z) = 0.85949 0.01856
#
# Static dielectric constant tensor:
#      x y z
#    x 3.579720 0.000000 -0.067370 
#    y 0.000000 3.522810 0.000000 
#    z -0.067370 0.000000 3.635800 
# 
# 
# High freq. dielectric constant tensor:
#      x y z
#    x 1.777770 0.000000 -0.009500 
#    y 0.000000 1.772290 0.000000 
#    z -0.009500 0.000000 1.769480 
# 
# From -- ./inp_files/33504.got.cif
#   From: 2010.06.25/outbox.cif.g09.slc.cpg/sg10_17_cif.got.tgz:33504.got - 2010.06.27 22:07:45.
