data_PCOD8065056
_publ_section_title
;
Structure prediction by ZEFSAII (Michael W. Deem and Ramdas Pophale) SiO2 
 PCOD8065056
Probable space group: P 2/M
;
_chemical_formula_sum "Si O2"
_cell_formula_units_Z 32
_cell_length_a 21.284844
_cell_length_b 8.937437
_cell_length_c 26.690732
_cell_angle_alpha 90.000000
_cell_angle_beta 160.110858
_cell_angle_gamma 90.000000
_cell_volume 1727.348571
_symmetry_space_group_name_H-M "P 2/M"
_symmetry_group_IT_number 10
_symmetry_cell_setting 'monoclinic'
loop_
_space_group_symop_operation_xyz
x,y,z
-x,y,-z
-x,-y,-z
x,-y,z
loop_
_atom_site_type_symbol
_atom_site_label
_atom_site_fract_x
_atom_site_fract_y
_atom_site_fract_z
Si Si1 0.985728 0.675699 0.765862
Si Si2 0.586589 0.171154 0.115844
Si Si3 0.597433 0.676963 0.928770
Si Si4 0.339341 0.323317 0.646310
Si Si5 0.237291 0.326878 0.308462
Si Si6 0.005626 0.828854 0.447528
Si Si7 0.667100 0.827363 0.463208
Si Si8 0.551078 0.827897 0.606296
O O1 0.965193 0.500000 0.738672
O O2 0.943518 0.706538 0.793331
O O3 0.849415 0.762521 0.626492
O O4 0.192583 0.736093 0.911932
O O5 0.516055 0.266338 0.109179
O O6 0.805022 0.185963 0.273017
O O7 0.526628 0.000000 0.079864
O O8 0.500000 0.235562 0.000000
O O9 0.596168 0.500000 0.928990
O O10 0.496100 0.733866 0.802404
O O11 0.338732 0.500000 0.641069
O O12 0.383154 0.255901 0.625220
O O13 0.139070 0.271917 0.514543
O O14 0.250164 0.500000 0.303834
O O15 0.249018 0.230991 0.264860
O O16 0.405901 0.278987 0.470193
O O17 0.000000 0.767885 0.500000
O O18 0.077087 0.000000 0.500751
O O19 0.483696 0.808863 0.360490
O O20 0.708620 0.000000 0.482897
O O21 0.522230 0.000000 0.569039
#
# Coordination Sequence:
#
# PCOD8065056 Si02
#       8
#     4   4   4   4   4   4   4   4
#     4   9  19  35  53  78 110 140 175 218 264 313
#     4  10  22  38  56  80 107 136 172 214 260 311
#     4  10  22  39  56  77 107 142 177 215 261 313
#     4  11  23  37  56  79 106 141 179 219 262 312
#     4   9  15  25  46  73 102 136 170 209 258 309
#     4  10  20  37  58  78 104 137 174 216 258 308
#     4  10  21  35  53  79 108 140 177 219 265 312
#     4   9  16  27  45  71 104 135 169 213 258 306
#
# _framework density 18.525503
#
# number of rings (size 3 to 8) (size 9 to 14) (size 15 to 20)
#    0.000    2.250    1.250    2.250    1.750    4.000 
#    0.000    0.000    0.000    0.750    0.000    5.250 
#    0.000    0.000    0.000    0.000    0.000    0.000 
#
# Total GULP energy -396652.310683 kJ/mol
# GULP energy per Si atom -12395.384709 kJ/mol
# Density = 1.848334 g / cm^3
# Si number density = 18.525503 Si / 1000 Ang^3
#
#
#
# Elastic Constant Matrix: (Units=GPa)
#
#
# Indices 1 2 3 4 5 6 
#
# 1 131.3883 42.5568 36.1760 0.0000 -13.5240 0.0000
# 2 42.5568 48.0991 25.7836 0.0000 -2.6370 0.0000
# 3 36.1760 25.7836 61.9838 0.0000 -15.8000 0.0000
# 4 0.0000 0.0000 0.0000 15.8810 0.0000 0.8655
# 5 -13.5240 -2.6370 -15.8000 0.0000 23.1060 0.0000
# 6 0.0000 0.0000 0.0000 0.8655 0.0000 35.0217
#
#
#
# Elastic Compliance Matrix: (Units=1/GPa)
#
#
# Indices 1 2 3 4 5 6 
#
# 1 0.011461 -0.008901 -0.001860 0.000000 0.004421 0.000000
# 2 -0.008901 0.034264 -0.011371 0.000000 -0.009075 0.000000
# 3 -0.001860 -0.011371 0.025845 0.000000 0.015287 0.000000
# 4 0.000000 0.000000 0.000000 0.063053 0.000000 -0.001558
# 5 0.004421 -0.009075 0.015287 0.000000 0.055284 0.000000
# 6 0.000000 0.000000 0.000000 -0.001558 0.000000 0.028592
#
#
# Mechanical properties :
#
#
# Convention : Reuss Voigt Hill
#
# Bulk Modulus (GPa) = 36.62119 50.05599 43.33859
# Shear Modulus (GPa) = 18.39138 23.93207 21.16173
#
# Velocity S-wave (km/s) = 3.15423 3.59812 3.38346
# Velocity P-wave (km/s) = 5.75121 6.65888 6.22162
#
# Compressibility (1/GPa) = 0.02730659
#
# Stress axis : x y z
#
# Youngs Moduli (GPa) = 87.25059 29.18508 38.69161
#
# Poissons Ratio (x) = 0.25979 0.07195
# Poissons Ratio (y) = 0.77665 0.43997
# Poissons Ratio (z) = 0.16225 0.33187
#
# Static dielectric constant tensor:
#      x y z
#    x 3.901010 0.000000 0.264610 
#    y 0.000000 3.401190 0.000000 
#    z 0.264610 0.000000 3.343410 
# 
# 
# High freq. dielectric constant tensor:
#      x y z
#    x 1.734670 0.000000 0.013420 
#    y 0.000000 1.720840 0.000000 
#    z 0.013420 0.000000 1.686280 
# 
# From -- ./inp_files/93796.got.cif
#   From: 2010.06.25/outbox.cif.g09.slc.cpg/sg10_47_cif.got.tgz:93796.got - 2010.06.27 22:07:45.
