data_PCOD8065712
_publ_section_title
;
Structure prediction by ZEFSAII (Michael W. Deem and Ramdas Pophale) SiO2 
 PCOD8065712
Probable space group: P 2/M
;
_chemical_formula_sum "Si O2"
_cell_formula_units_Z 32
_cell_length_a 24.734491
_cell_length_b 13.538180
_cell_length_c 20.923626
_cell_angle_alpha 90.000000
_cell_angle_beta 164.022389
_cell_angle_gamma 90.000000
_cell_volume 1928.617106
_symmetry_space_group_name_H-M "P 2/M"
_symmetry_group_IT_number 10
_symmetry_cell_setting 'monoclinic'
loop_
_space_group_symop_operation_xyz
x,y,z
-x,y,-z
-x,-y,-z
x,-y,z
loop_
_atom_site_type_symbol
_atom_site_label
_atom_site_fract_x
_atom_site_fract_y
_atom_site_fract_z
Si Si1 0.339750 0.616640 0.009351
Si Si2 0.036186 0.616897 0.114494
Si Si3 0.956852 0.383412 0.645069
Si Si4 0.547884 0.614802 0.368571
Si Si5 0.179583 0.303637 0.013151
Si Si6 0.787917 0.111604 0.775567
Si Si7 0.365288 0.112234 0.256284
Si Si8 0.451455 0.617577 0.875438
O O1 0.367124 0.500000 0.040898
O O2 0.489810 0.660620 0.233142
O O3 0.386611 0.655854 0.991451
O O4 0.119066 0.645400 0.776792
O O5 0.015009 0.500000 0.101891
O O6 0.250378 0.660486 0.375896
O O7 0.000000 0.644482 0.000000
O O8 0.879478 0.673661 0.980826
O O9 0.951714 0.500000 0.653343
O O10 0.756025 0.343960 0.386774
O O11 0.000632 0.329650 0.762052
O O12 0.585489 0.500000 0.403489
O O13 0.368725 0.629222 0.213790
O O14 0.241871 0.189050 0.072990
O O15 0.591824 0.152268 0.516606
O O16 0.741501 0.115085 0.797168
O O17 0.808722 0.000000 0.774984
O O18 0.000000 0.164999 0.000000
O O19 0.355160 0.000000 0.217392
O O20 0.447950 0.500000 0.877099
O O21 0.500000 0.663861 0.000000
#
# Coordination Sequence:
#
# PCOD8065712 Si02
#       8
#     4   4   4   4   4   4   4   4
#     4   8  14  25  40  57  79 107 138 170 201 241
#     4  10  21  33  44  62  87 114 150 195 231 258
#     4   9  17  29  44  61  82 113 150 177 205 254
#     4   9  18  32  47  62  82 112 150 186 217 255
#     4  11  20  31  48  63  83 118 152 181 223 272
#     4   8  15  31  50  62  79 107 135 174 232 283
#     4   9  19  31  44  67  90 108 140 185 227 273
#     4   9  16  25  40  63  89 115 140 170 209 249
#
# _framework density 16.592199000000001
#
# number of rings (size 3 to 8) (size 9 to 14) (size 15 to 20)
#    0.000    2.875    0.000    3.375    0.000    6.500 
#    0.000    4.375    0.000    0.000    0.000    0.000 
#    0.000    0.500    0.000    5.500    0.000    2.500 
#
# Total GULP energy -396479.750714 kJ/mol
# GULP energy per Si atom -12389.992210 kJ/mol
# Density = 1.655443 g / cm^3
# Si number density = 16.592199 Si / 1000 Ang^3
#
#
#
# Elastic Constant Matrix: (Units=GPa)
#
#
# Indices 1 2 3 4 5 6 
#
# 1 111.1166 10.0383 41.0446 0.0000 1.5348 0.0000
# 2 10.0383 35.2868 18.5171 0.0000 -7.7675 0.0000
# 3 41.0446 18.5171 77.6690 0.0000 -1.1937 0.0000
# 4 0.0000 0.0000 0.0000 13.1356 0.0000 2.1252
# 5 1.5348 -7.7675 -1.1937 0.0000 25.1923 0.0000
# 6 0.0000 0.0000 0.0000 2.1252 0.0000 6.8177
#
#
#
# Elastic Compliance Matrix: (Units=1/GPa)
#
#
# Indices 1 2 3 4 5 6 
#
# 1 0.011209 -0.000351 -0.005856 0.000000 -0.001069 0.000000
# 2 -0.000351 0.034918 -0.007979 0.000000 0.010409 0.000000
# 3 -0.005856 -0.007979 0.017853 0.000000 -0.001258 0.000000
# 4 0.000000 0.000000 0.000000 0.080172 0.000000 -0.024992
# 5 -0.001069 0.010409 -0.001258 0.000000 0.042910 0.000000
# 6 0.000000 0.000000 0.000000 -0.024992 0.000000 0.154468
#
#
# Mechanical properties :
#
#
# Convention : Reuss Voigt Hill
#
# Bulk Modulus (GPa) = 28.08448 40.36358 34.22403
# Shear Modulus (GPa) = 13.09681 19.32728 16.21204
#
# Velocity S-wave (km/s) = 2.81256 3.41668 3.12923
# Velocity P-wave (km/s) = 5.24503 6.32017 5.80754
#
# Compressibility (1/GPa) = 0.03560685
#
# Stress axis : x y z
#
# Youngs Moduli (GPa) = 89.21208 28.63882 56.01300
#
# Poissons Ratio (x) = 0.01005 0.32803
# Poissons Ratio (y) = 0.03130 0.44695
# Poissons Ratio (z) = 0.52246 0.22852
#
# Static dielectric constant tensor:
#      x y z
#    x 3.302270 0.000000 0.085040 
#    y 0.000000 2.770380 0.000000 
#    z 0.085040 0.000000 3.348220 
# 
# 
# High freq. dielectric constant tensor:
#      x y z
#    x 1.633850 0.000000 0.019810 
#    y 0.000000 1.581340 0.000000 
#    z 0.019810 0.000000 1.643760 
# 
# From -- ./inp_files/79743.got.cif
#   From: 2010.06.25/outbox.cif.g09.slc.cpg/sg10_40_cif.got.tgz:79743.got - 2010.06.27 22:07:45.
