data_PCOD8065715
_publ_section_title
;
Structure prediction by ZEFSAII (Michael W. Deem and Ramdas Pophale) SiO2 
 PCOD8065715
Probable space group: P 2/M
;
_chemical_formula_sum "Si O2"
_cell_formula_units_Z 28
_cell_length_a 15.041734
_cell_length_b 7.705401
_cell_length_c 18.032968
_cell_angle_alpha 90.000000
_cell_angle_beta 48.763089
_cell_angle_gamma 90.000000
_cell_volume 1571.710900
_symmetry_space_group_name_H-M "P 2/M"
_symmetry_group_IT_number 10
_symmetry_cell_setting 'monoclinic'
loop_
_space_group_symop_operation_xyz
x,y,z
-x,y,-z
-x,-y,-z
x,-y,z
loop_
_atom_site_type_symbol
_atom_site_label
_atom_site_fract_x
_atom_site_fract_y
_atom_site_fract_z
Si Si1 0.343261 0.195191 0.732586
Si Si2 0.599879 0.696443 0.606989
Si Si3 0.807307 0.500000 0.126732
Si Si4 0.820670 0.705672 0.572287
Si Si5 0.724991 0.202028 0.393616
Si Si6 0.003793 0.803493 0.769547
Si Si7 0.964622 0.500000 0.898876
Si Si8 0.953135 0.294514 0.640493
O O1 0.481215 0.192057 0.677679
O O2 0.270888 0.326536 0.823856
O O3 0.330449 0.255456 0.654619
O O4 0.292565 0.000000 0.771330
O O5 0.567466 0.500000 0.646202
O O6 0.694558 0.777838 0.613317
O O7 0.655690 0.693844 0.494380
O O8 0.907005 0.500000 0.134686
O O9 0.861520 0.500000 0.015518
O O10 0.821440 0.500000 0.564789
O O11 0.846412 0.759882 0.643426
O O12 0.924553 0.776539 0.461913
O O13 0.862054 0.255801 0.319456
O O14 0.707687 0.000000 0.419282
O O15 0.947127 0.673555 0.860082
O O16 0.932086 0.793662 0.731642
O O17 0.997806 0.000000 0.804281
O O18 0.957405 0.500000 0.648683
#
# Coordination Sequence:
#
# PCOD8065715 Si02
#       8
#     4   4   2   4   4   4   2   4
#     4  11  23  39  55  77 111 144 183 227 264 316
#     4  11  20  30  52  80 111 153 191 217 256 312
#     4  11  24  42  60  84  99 139 183 220 284 332
#     4   8  16  27  46  77 109 149 186 220 257 302
#     4  10  21  33  47  75 113 148 184 217 254 309
#     4  11  21  34  55  84 111 145 181 216 267 323
#     4  11  24  40  63  80 108 133 175 233 278 329
#     4   9  15  30  51  72 110 150 183 219 261 306
#
# _framework density 17.814981
#
# number of rings (size 3 to 8) (size 9 to 14) (size 15 to 20)
#    0.000    1.857    4.286    1.714    2.000    2.286 
#    0.000    4.286    0.000    0.000    0.000    2.000 
#    0.000    2.286    0.000    0.000    0.000    0.000 
#
# Total GULP energy -347195.719128 kJ/mol
# GULP energy per Si atom -12399.847112 kJ/mol
# Density = 1.777443 g / cm^3
# Si number density = 17.814981 Si / 1000 Ang^3
#
#
#
# Elastic Constant Matrix: (Units=GPa)
#
#
# Indices 1 2 3 4 5 6 
#
# 1 129.9069 25.6106 54.4945 0.0000 4.4788 0.0000
# 2 25.6106 78.8953 39.8770 0.0000 5.1939 0.0000
# 3 54.4945 39.8770 85.4916 0.0000 7.0822 0.0000
# 4 0.0000 0.0000 0.0000 8.4645 0.0000 -4.6525
# 5 4.4788 5.1939 7.0822 0.0000 21.8423 0.0000
# 6 0.0000 0.0000 0.0000 -4.6525 0.0000 14.9760
#
#
#
# Elastic Compliance Matrix: (Units=1/GPa)
#
#
# Indices 1 2 3 4 5 6 
#
# 1 0.010508 -0.000034 -0.006684 0.000000 0.000021 0.000000
# 2 -0.000034 0.016632 -0.007613 0.000000 -0.001479 0.000000
# 3 -0.006684 -0.007613 0.019776 0.000000 -0.003231 0.000000
# 4 0.000000 0.000000 0.000000 0.142468 0.000000 0.044260
# 5 0.000021 -0.001479 -0.003231 0.000000 0.047178 0.000000
# 6 0.000000 0.000000 0.000000 0.044260 0.000000 0.080523
#
#
# Mechanical properties :
#
#
# Convention : Reuss Voigt Hill
#
# Bulk Modulus (GPa) = 54.78487 59.36201 57.07344
# Shear Modulus (GPa) = 14.21134 20.67734 17.44434
#
# Velocity S-wave (km/s) = 2.82745 3.41056 3.13260
# Velocity P-wave (km/s) = 6.44036 6.99306 6.72239
#
# Compressibility (1/GPa) = 0.01825321
#
# Stress axis : x y z
#
# Youngs Moduli (GPa) = 95.17002 60.12632 50.56564
#
# Poissons Ratio (x) = 0.00205 0.33796
# Poissons Ratio (y) = 0.00324 0.38498
# Poissons Ratio (z) = 0.63607 0.45777
#
# Static dielectric constant tensor:
#      x y z
#    x 3.602490 0.000000 0.016360 
#    y 0.000000 3.174920 0.000000 
#    z 0.016360 0.000000 2.893030 
# 
# 
# High freq. dielectric constant tensor:
#      x y z
#    x 1.696180 0.000000 0.005080 
#    y 0.000000 1.691450 0.000000 
#    z 0.005080 0.000000 1.635330 
# 
# From -- ./inp_files/77747.got.cif
#   From: 2010.06.25/outbox.cif.g09.slc.cpg/sg10_39_cif.got.tgz:77747.got - 2010.06.27 22:07:45.
