data_PCOD8065207
_publ_section_title
;
Structure prediction by ZEFSAII (Michael W. Deem and Ramdas Pophale) SiO2 
 PCOD8065207
Probable space group: P 2/M
;
_chemical_formula_sum "Si O2"
_cell_formula_units_Z 32
_cell_length_a 31.682527
_cell_length_b 9.109400
_cell_length_c 12.133532
_cell_angle_alpha 90.000000
_cell_angle_beta 28.487661
_cell_angle_gamma 90.000000
_cell_volume 1670.272867
_symmetry_space_group_name_H-M "P 2/M"
_symmetry_group_IT_number 10
_symmetry_cell_setting 'monoclinic'
loop_
_space_group_symop_operation_xyz
x,y,z
-x,y,-z
-x,-y,-z
x,-y,z
loop_
_atom_site_type_symbol
_atom_site_label
_atom_site_fract_x
_atom_site_fract_y
_atom_site_fract_z
Si Si1 0.693007 0.830000 0.093845
Si Si2 0.643133 0.672760 0.990317
Si Si3 0.068444 0.324905 0.933362
Si Si4 0.732014 0.326949 0.558445
Si Si5 0.140688 0.326521 0.203966
Si Si6 0.020402 0.326450 0.282062
Si Si7 0.537635 0.833049 0.616417
Si Si8 0.408780 0.830112 0.262853
O O1 0.691291 0.750968 0.980641
O O2 0.600706 0.806355 0.368008
O O3 0.713372 0.000000 0.028592
O O4 0.768460 0.759892 0.995731
O O5 0.647496 0.500000 0.000017
O O6 0.542027 0.720554 0.211928
O O7 0.694594 0.720770 0.762530
O O8 0.065495 0.500000 0.940955
O O9 0.167325 0.269761 0.679982
O O10 0.038397 0.259378 0.120341
O O11 0.000000 0.262727 0.000000
O O12 0.726922 0.500000 0.553280
O O13 0.674618 0.256204 0.593225
O O14 0.158968 0.500000 0.161593
O O15 0.095468 0.272387 0.194550
O O16 0.076917 0.281483 0.452149
O O17 0.025932 0.500000 0.264913
O O18 0.590189 0.802940 0.608695
O O19 0.500776 0.000000 0.700332
O O20 0.396931 0.000000 0.259434
O O21 0.500000 0.770361 0.000000
#
# Coordination Sequence:
#
# PCOD8065207 Si02
#       8
#     4   4   4   4   4   4   4   4
#     4  11  24  38  56  81 111 148 189 231 279 334
#     4  11  23  38  57  83 114 146 186 235 282 326
#     4   9  18  32  54  83 116 149 180 222 281 340
#     4  10  22  36  56  89 117 144 187 237 282 329
#     4   9  18  34  57  83 108 140 185 233 276 325
#     4   8  16  32  54  80 111 145 180 223 278 332
#     4  10  22  40  58  80 112 150 190 227 274 335
#     4  10  20  37  61  83 110 153 192 224 276 342
#
# _framework density 19.158546000000001
#
# number of rings (size 3 to 8) (size 9 to 14) (size 15 to 20)
#    0.000    2.250    1.250    1.875    3.500    3.750 
#    0.000    1.250    0.000    1.125    0.000    0.000 
#    0.000    0.000    0.000    0.000    0.000    0.000 
#
# Total GULP energy -396863.340051 kJ/mol
# GULP energy per Si atom -12401.979377 kJ/mol
# Density = 1.911494 g / cm^3
# Si number density = 19.158546 Si / 1000 Ang^3
#
#
#
# Elastic Constant Matrix: (Units=GPa)
#
#
# Indices 1 2 3 4 5 6 
#
# 1 113.3532 27.4399 44.2002 0.0000 -0.2842 0.0000
# 2 27.4399 43.9381 23.1800 0.0000 -2.0660 0.0000
# 3 44.2002 23.1800 83.8759 0.0000 -7.3111 0.0000
# 4 0.0000 0.0000 0.0000 4.1712 0.0000 11.4423
# 5 -0.2842 -2.0660 -7.3111 0.0000 37.0961 0.0000
# 6 0.0000 0.0000 0.0000 11.4423 0.0000 13.0888
#
#
#
# Elastic Compliance Matrix: (Units=1/GPa)
#
#
# Indices 1 2 3 4 5 6 
#
# 1 0.011971 -0.004858 -0.005069 0.000000 -0.001178 0.000000
# 2 -0.004858 0.028615 -0.005304 0.000000 0.000511 0.000000
# 3 -0.005069 -0.005304 0.016310 0.000000 0.002880 0.000000
# 4 0.000000 0.000000 0.000000 -0.171477 0.000000 0.149906
# 5 -0.001178 0.000511 0.002880 0.000000 0.027544 0.000000
# 6 0.000000 0.000000 0.000000 0.149906 0.000000 -0.054647
#
#
# Mechanical properties :
#
#
# Convention : Reuss Voigt Hill
#
# Bulk Modulus (GPa) = 37.82648 47.86751 42.84699
# Shear Modulus (GPa) = -48.82302 20.62769 -14.09766
#
# Velocity S-wave (km/s) = -5.05361 3.28485 -2.71558
# Velocity P-wave (km/s) = 3.77693 6.27902 3.54689
#
# Compressibility (1/GPa) = 0.02643651
#
# Stress axis : x y z
#
# Youngs Moduli (GPa) = 83.53219 34.94675 61.31100
#
# Poissons Ratio (x) = 0.16976 0.31077
# Poissons Ratio (y) = 0.40577 0.32517
# Poissons Ratio (z) = 0.42341 0.18535
#
# Static dielectric constant tensor:
#      x y z
#    x 3.706220 0.000000 0.170020 
#    y 0.000000 3.181210 0.000000 
#    z 0.170020 0.000000 3.620720 
# 
# 
# High freq. dielectric constant tensor:
#      x y z
#    x 1.759400 0.000000 0.003980 
#    y 0.000000 1.712200 0.000000 
#    z 0.003980 0.000000 1.751370 
# 
# From -- ./inp_files/58134.got.cif
#   From: 2010.06.25/outbox.cif.g09.slc.cpg/sg10_30_cif.got.tgz:58134.got - 2010.06.27 22:07:45.
