data_PCOD8065436
_publ_section_title
;
Structure prediction by ZEFSAII (Michael W. Deem and Ramdas Pophale) SiO2 
 PCOD8065436
Probable space group: P 2/M
;
_chemical_formula_sum "Si O2"
_cell_formula_units_Z 32
_cell_length_a 14.323722
_cell_length_b 8.858741
_cell_length_c 24.641051
_cell_angle_alpha 90.000000
_cell_angle_beta 29.762403
_cell_angle_gamma 90.000000
_cell_volume 1552.110967
_symmetry_space_group_name_H-M "P 2/M"
_symmetry_group_IT_number 10
_symmetry_cell_setting 'monoclinic'
loop_
_space_group_symop_operation_xyz
x,y,z
-x,y,-z
-x,-y,-z
x,-y,z
loop_
_atom_site_type_symbol
_atom_site_label
_atom_site_fract_x
_atom_site_fract_y
_atom_site_fract_z
Si Si1 0.963837 0.820938 0.857054
Si Si2 0.579560 0.821718 0.518104
Si Si3 0.498300 0.321643 0.334671
Si Si4 0.933410 0.322375 0.300710
Si Si5 0.829278 0.173849 0.736838
Si Si6 0.137031 0.821583 0.882799
Si Si7 0.925517 0.325750 0.477557
Si Si8 0.438960 0.825559 0.973130
O O1 0.096048 0.751251 0.743505
O O2 0.038091 0.766049 0.877486
O O3 0.977000 0.000000 0.846247
O O4 0.752718 0.755143 0.954634
O O5 0.500000 0.773384 0.500000
O O6 0.458394 0.754865 0.628671
O O7 0.781897 0.742207 0.420036
O O8 0.595118 0.000000 0.516739
O O9 0.515340 0.500000 0.331027
O O10 0.659945 0.259003 0.212930
O O11 0.292073 0.272548 0.416923
O O12 0.918455 0.500000 0.303592
O O13 0.126764 0.268384 0.230538
O O14 0.603558 0.193804 0.844929
O O15 0.936218 0.231664 0.630199
O O16 0.883373 0.000000 0.719428
O O17 0.169989 0.000000 0.867632
O O18 0.000000 0.768872 0.000000
O O19 0.941712 0.500000 0.452204
O O20 0.000000 0.296992 0.500000
O O21 0.394427 0.000000 0.006731
O O22 0.500000 0.751400 0.000000
#
# Coordination Sequence:
#
# PCOD8065436 Si02
#       8
#     4   4   4   4   4   4   4   4
#     4  10  20  38  61  85 118 160 204 252 307 361
#     4  11  23  38  59  88 121 159 201 248 303 361
#     4  11  23  40  64  91 121 160 201 248 304 363
#     4  12  23  35  55  86 124 159 196 245 303 365
#     4  11  21  36  61  89 118 157 203 250 300 355
#     4  10  23  42  64  89 119 158 204 256 305 353
#     4  10  23  43  63  87 123 163 200 246 308 367
#     4   9  17  32  56  85 116 153 198 246 299 357
#
# _framework density 20.617083000000001
#
# number of rings (size 3 to 8) (size 9 to 14) (size 15 to 20)
#    0.000    1.500    2.500    3.000    0.000    6.500 
#    0.000    3.125    0.000    0.000    0.000    0.000 
#    0.000    0.000    0.000    0.000    0.000    0.000 
#
# Total GULP energy -396804.987110 kJ/mol
# GULP energy per Si atom -12400.155847 kJ/mol
# Density = 2.057016 g / cm^3
# Si number density = 20.617083 Si / 1000 Ang^3
#
#
#
# Elastic Constant Matrix: (Units=GPa)
#
#
# Indices 1 2 3 4 5 6 
#
# 1 78.4099 23.1626 40.0180 0.0000 3.1184 0.0000
# 2 23.1626 58.1232 37.5975 0.0000 4.9148 0.0000
# 3 40.0180 37.5975 140.0465 0.0000 2.3215 0.0000
# 4 0.0000 0.0000 0.0000 13.3672 0.0000 -5.0695
# 5 3.1184 4.9148 2.3215 0.0000 30.7739 0.0000
# 6 0.0000 0.0000 0.0000 -5.0695 0.0000 19.2909
#
#
#
# Elastic Compliance Matrix: (Units=1/GPa)
#
#
# Indices 1 2 3 4 5 6 
#
# 1 0.015698 -0.003997 -0.003401 0.000000 -0.000696 0.000000
# 2 -0.003997 0.022101 -0.004745 0.000000 -0.002767 0.000000
# 3 -0.003401 -0.004745 0.009380 0.000000 0.000395 0.000000
# 4 0.000000 0.000000 0.000000 0.083091 0.000000 0.021836
# 5 -0.000696 -0.002767 0.000395 0.000000 0.032978 0.000000
# 6 0.000000 0.000000 0.000000 0.021836 0.000000 0.057576
#
#
# Mechanical properties :
#
#
# Convention : Reuss Voigt Hill
#
# Bulk Modulus (GPa) = 43.68339 53.12620 48.40480
# Shear Modulus (GPa) = 19.78315 24.40651 22.09483
#
# Velocity S-wave (km/s) = 3.10102 3.44437 3.27720
# Velocity P-wave (km/s) = 5.83573 6.45308 6.15215
#
# Compressibility (1/GPa) = 0.02289199
#
# Stress axis : x y z
#
# Youngs Moduli (GPa) = 63.70398 45.24648 106.61263
#
# Poissons Ratio (x) = 0.18084 0.36259
# Poissons Ratio (y) = 0.25461 0.50592
# Poissons Ratio (z) = 0.21666 0.21471
#
# Static dielectric constant tensor:
#      x y z
#    x 3.827110 0.000000 -0.161170 
#    y 0.000000 3.451570 0.000000 
#    z -0.161170 0.000000 3.884470 
# 
# 
# High freq. dielectric constant tensor:
#      x y z
#    x 1.800820 0.000000 -0.009820 
#    y 0.000000 1.784880 0.000000 
#    z -0.009820 0.000000 1.820940 
# 
# From -- ./inp_files/89568.got.cif
#   From: 2010.06.25/outbox.cif.g09.slc.cpg/sg10_45_cif.got.tgz:89568.got - 2010.06.27 22:07:45.
