data_PCOD8065550
_publ_section_title
;
Structure prediction by ZEFSAII (Michael W. Deem and Ramdas Pophale) SiO2 
 PCOD8065550
Probable space group: P 2/M
;
_chemical_formula_sum "Si O2"
_cell_formula_units_Z 26
_cell_length_a 29.850019
_cell_length_b 8.778357
_cell_length_c 29.828913
_cell_angle_alpha 90.000000
_cell_angle_beta 9.893156
_cell_angle_gamma 90.000000
_cell_volume 1342.911287
_symmetry_space_group_name_H-M "P 2/M"
_symmetry_group_IT_number 10
_symmetry_cell_setting 'monoclinic'
loop_
_space_group_symop_operation_xyz
x,y,z
-x,y,-z
-x,-y,-z
x,-y,z
loop_
_atom_site_type_symbol
_atom_site_label
_atom_site_fract_x
_atom_site_fract_y
_atom_site_fract_z
Si Si1 0.619127 0.824347 0.127657
Si Si2 0.904417 0.320856 0.501954
Si Si3 0.903891 0.823877 0.407635
Si Si4 0.676161 0.321363 0.166419
Si Si5 0.235367 0.000000 0.733896
Si Si6 0.195520 0.168386 0.687182
Si Si7 0.422945 0.822758 0.025013
O O1 0.355053 0.776746 0.363331
O O2 0.651090 0.721060 0.139399
O O3 0.612833 0.000000 0.148872
O O4 0.854592 0.790122 0.862353
O O5 0.926732 0.500000 0.487543
O O6 0.936004 0.282731 0.418770
O O7 0.131399 0.239092 0.306221
O O8 0.622549 0.264349 0.796061
O O9 0.894801 0.000000 0.431939
O O10 0.679369 0.500000 0.167900
O O11 0.439707 0.258214 0.428135
O O12 0.937395 0.257609 0.929997
O O13 0.500000 0.000000 0.500000
O O14 0.220073 0.149765 0.716990
O O15 0.000000 0.000000 0.000000
O O16 0.185528 0.000000 0.674174
O O17 0.429840 0.000000 0.005425
O O18 0.500000 0.793656 0.000000
#
# Coordination Sequence:
#
# PCOD8065550 Si02
#       7
#     4   4   4   4   2   4   4
#     4  10  21  36  59  84 118 158 208 251 291 350
#     4  12  25  40  63  92 126 157 194 251 308 369
#     4  10  21  38  58  84 114 160 203 246 293 353
#     4  12  23  38  59  92 130 162 198 252 315 362
#     4  10  20  38  68  96 116 154 218 266 296 348
#     4  10  22  38  64  89 119 162 206 254 294 364
#     4  11  24  43  66  90 117 157 203 249 301 367
#
# _framework density 19.360923
#
# number of rings (size 3 to 8) (size 9 to 14) (size 15 to 20)
#    0.462    0.769    0.000    6.923    0.000    6.769 
#    0.000    0.000    0.000    9.231    0.000    0.000 
#    0.000    0.000    0.000    0.000    0.000    0.000 
#
# Total GULP energy -322515.694287 kJ/mol
# GULP energy per Si atom -12404.449780 kJ/mol
# Density = 1.931686 g / cm^3
# Si number density = 19.360923 Si / 1000 Ang^3
#
#
#
# Elastic Constant Matrix: (Units=GPa)
#
#
# Indices 1 2 3 4 5 6 
#
# 1 107.6997 60.9791 49.0788 0.0000 -7.0664 0.0000
# 2 60.9791 129.7391 51.2972 0.0000 -3.0247 0.0000
# 3 49.0788 51.2972 148.9104 0.0000 -11.8214 0.0000
# 4 0.0000 0.0000 0.0000 30.7157 0.0000 -7.3905
# 5 -7.0664 -3.0247 -11.8214 0.0000 35.9560 0.0000
# 6 0.0000 0.0000 0.0000 -7.3905 0.0000 0.5681
#
#
#
# Elastic Compliance Matrix: (Units=1/GPa)
#
#
# Indices 1 2 3 4 5 6 
#
# 1 0.013545 -0.005340 -0.002515 0.000000 0.001386 0.000000
# 2 -0.005340 0.011031 -0.002105 0.000000 -0.000813 0.000000
# 3 -0.002515 -0.002105 0.008436 0.000000 0.002102 0.000000
# 4 0.000000 0.000000 0.000000 -0.015286 0.000000 -0.198838
# 5 0.001386 -0.000813 0.002102 0.000000 0.028707 0.000000
# 6 0.000000 0.000000 0.000000 -0.198838 0.000000 -0.826391
#
#
# Mechanical properties :
#
#
# Convention : Reuss Voigt Hill
#
# Bulk Modulus (GPa) = 76.37189 78.78438 77.57813
# Shear Modulus (GPa) = -6.61661 28.44756 10.91548
#
# Velocity S-wave (km/s) = -1.85066 3.83734 2.37700
# Velocity P-wave (km/s) = 5.91316 7.77267 6.90579
#
# Compressibility (1/GPa) = 0.01309382
#
# Stress axis : x y z
#
# Youngs Moduli (GPa) = 73.82549 90.65580 118.53707
#
# Poissons Ratio (x) = 0.48409 0.29810
# Poissons Ratio (y) = 0.39422 0.24947
# Poissons Ratio (z) = 0.18566 0.19079
#
# Static dielectric constant tensor:
#      x y z
#    x 3.549300 0.000000 -0.036380 
#    y 0.000000 3.504130 0.000000 
#    z -0.036380 0.000000 3.675390 
# 
# 
# High freq. dielectric constant tensor:
#      x y z
#    x 1.760260 0.000000 -0.002500 
#    y 0.000000 1.746730 0.000000 
#    z -0.002500 0.000000 1.778320 
# 
# From -- ./inp_files/95948.got.cif
#   From: 2010.06.25/outbox.cif.g09.slc.cpg/sg10_48_cif.got.tgz:95948.got - 2010.06.27 22:07:45.
