data_PCOD8065891
_publ_section_title
;
Structure prediction by ZEFSAII (Michael W. Deem and Ramdas Pophale) SiO2 
 PCOD8065891
Probable space group: P 2/M
;
_chemical_formula_sum "Si O2"
_cell_formula_units_Z 32
_cell_length_a 24.625663
_cell_length_b 9.045949
_cell_length_c 16.288644
_cell_angle_alpha 90.000000
_cell_angle_beta 152.783211
_cell_angle_gamma 90.000000
_cell_volume 1659.524923
_symmetry_space_group_name_H-M "P 2/M"
_symmetry_group_IT_number 10
_symmetry_cell_setting 'monoclinic'
loop_
_space_group_symop_operation_xyz
x,y,z
-x,y,-z
-x,-y,-z
x,-y,z
loop_
_atom_site_type_symbol
_atom_site_label
_atom_site_fract_x
_atom_site_fract_y
_atom_site_fract_z
Si Si1 0.727093 0.169093 0.913008
Si Si2 0.136910 0.828511 0.187382
Si Si3 0.164860 0.325167 0.654951
Si Si4 0.905052 0.674881 0.261412
Si Si5 0.517612 0.167580 0.347135
Si Si6 0.686728 0.325600 0.691298
Si Si7 0.633579 0.675739 0.194642
Si Si8 0.687801 0.830436 0.433533
O O1 0.624510 0.182484 0.844537
O O2 0.679922 0.252513 0.770536
O O3 0.754772 0.000000 0.928054
O O4 0.846481 0.243874 0.105965
O O5 0.196252 0.728705 0.197988
O O6 0.195097 0.794341 0.354608
O O7 0.156936 0.000000 0.192304
O O8 0.000000 0.784739 0.000000
O O9 0.169982 0.500000 0.662616
O O10 0.160281 0.270064 0.742933
O O11 0.279554 0.262344 0.760569
O O12 0.042788 0.276525 0.446433
O O13 0.891365 0.500000 0.232462
O O14 0.569875 0.278436 0.484730
O O15 0.569607 0.206506 0.327516
O O16 0.557162 0.000000 0.423410
O O17 0.689616 0.500000 0.705058
O O18 0.633377 0.500000 0.195016
O O19 0.686190 0.728415 0.351769
O O20 0.500000 0.736693 0.000000
O O21 0.688439 0.000000 0.405555
#
# Coordination Sequence:
#
# PCOD8065891 Si02
#       8
#     4   4   4   4   4   4   4   4
#     4  11  22  35  54  80 109 141 180 226 277 328
#     4   9  19  38  61  81 109 150 187 223 274 334
#     4   8  17  36  56  76 108 144 176 220 278 331
#     4   9  18  35  58  78 102 142 185 223 270 329
#     4   9  20  38  56  74 107 148 180 220 276 331
#     4  11  22  35  53  81 112 142 181 226 270 322
#     4  10  21  35  54  81 111 143 181 226 277 328
#     4   9  19  36  55  79 108 140 180 222 272 327
#
# _framework density 19.282627000000002
#
# number of rings (size 3 to 8) (size 9 to 14) (size 15 to 20)
#    0.000    2.500    0.000    3.375    1.750    6.000 
#    0.000    5.000    0.000    0.000    0.000    0.000 
#    0.000    0.000    0.000    0.000    0.000    0.000 
#
# Total GULP energy -396753.107865 kJ/mol
# GULP energy per Si atom -12398.534621 kJ/mol
# Density = 1.923874 g / cm^3
# Si number density = 19.282627 Si / 1000 Ang^3
#
#
#
# Elastic Constant Matrix: (Units=GPa)
#
#
# Indices 1 2 3 4 5 6 
#
# 1 94.0834 24.3529 38.4489 0.0000 9.2265 0.0000
# 2 24.3529 66.9274 21.1566 0.0000 1.7764 0.0000
# 3 38.4489 21.1566 76.6008 0.0000 15.9634 0.0000
# 4 0.0000 0.0000 0.0000 21.5891 0.0000 -5.2500
# 5 9.2265 1.7764 15.9634 0.0000 27.4712 0.0000
# 6 0.0000 0.0000 0.0000 -5.2500 0.0000 26.4229
#
#
#
# Elastic Compliance Matrix: (Units=1/GPa)
#
#
# Indices 1 2 3 4 5 6 
#
# 1 0.013974 -0.003187 -0.005915 0.000000 -0.001050 0.000000
# 2 -0.003187 0.017175 -0.003568 0.000000 0.002033 0.000000
# 3 -0.005915 -0.003568 0.018827 0.000000 -0.008723 0.000000
# 4 0.000000 0.000000 0.000000 0.048671 0.000000 0.009671
# 5 -0.001050 0.002033 -0.008723 0.000000 0.041692 0.000000
# 6 0.000000 0.000000 0.000000 0.009671 0.000000 0.039767
#
#
# Mechanical properties :
#
#
# Convention : Reuss Voigt Hill
#
# Bulk Modulus (GPa) = 40.59003 45.05872 42.82437
# Shear Modulus (GPa) = 23.40185 25.34018 24.37101
#
# Velocity S-wave (km/s) = 3.48749 3.62905 3.55897
# Velocity P-wave (km/s) = 6.10840 6.40142 6.25663
#
# Compressibility (1/GPa) = 0.02463659
#
# Stress axis : x y z
#
# Youngs Moduli (GPa) = 71.56099 58.22405 53.11563
#
# Poissons Ratio (x) = 0.18556 0.31418
# Poissons Ratio (y) = 0.22807 0.18949
# Poissons Ratio (z) = 0.42329 0.20772
#
# Static dielectric constant tensor:
#      x y z
#    x 3.704530 0.000000 0.203770 
#    y 0.000000 3.274590 0.000000 
#    z 0.203770 0.000000 3.498200 
# 
# 
# High freq. dielectric constant tensor:
#      x y z
#    x 1.751220 0.000000 0.006490 
#    y 0.000000 1.730660 0.000000 
#    z 0.006490 0.000000 1.750780 
# 
# From -- ./inp_files/71669.got.cif
#   From: 2010.06.25/outbox.cif.g09.slc.cpg/sg10_36_cif.got.tgz:71669.got - 2010.06.27 22:07:45.
