data_PCOD8065361
_publ_section_title
;
Structure prediction by ZEFSAII (Michael W. Deem and Ramdas Pophale) SiO2 
 PCOD8065361
Probable space group: P 2/M
;
_chemical_formula_sum "Si O2"
_cell_formula_units_Z 24
_cell_length_a 8.552130
_cell_length_b 21.095754
_cell_length_c 7.777777
_cell_angle_alpha 90.000000
_cell_angle_beta 122.255682
_cell_angle_gamma 90.000000
_cell_volume 1186.665384
_symmetry_space_group_name_H-M "P 2/M"
_symmetry_group_IT_number 10
_symmetry_cell_setting 'monoclinic'
loop_
_space_group_symop_operation_xyz
x,y,z
-x,y,-z
-x,-y,-z
x,-y,z
loop_
_atom_site_type_symbol
_atom_site_label
_atom_site_fract_x
_atom_site_fract_y
_atom_site_fract_z
Si Si1 0.596743 0.203659 0.728713
Si Si2 0.000000 0.843403 0.000000
Si Si3 0.099117 0.927183 0.734346
Si Si4 0.206460 0.569813 0.556129
Si Si5 0.500000 0.122333 0.000000
Si Si6 0.798907 0.428379 0.849619
Si Si7 0.495365 0.334261 0.186158
O O1 0.500000 0.175468 0.500000
O O2 0.532624 0.276796 0.698895
O O3 0.820357 0.200260 0.859632
O O4 0.521752 0.165014 0.845267
O O5 0.980242 0.886516 0.156110
O O6 0.321140 0.920888 0.858526
O O7 0.000000 0.903834 0.500000
O O8 0.046903 0.000000 0.737259
O O9 0.278091 0.500000 0.659322
O O10 0.240860 0.573383 0.374081
O O11 0.310708 0.630000 0.690562
O O12 0.000000 0.578414 0.500000
O O13 0.787186 0.500000 0.915319
O O14 0.659566 0.386940 0.877597
O O15 0.000000 0.399399 0.000000
O O16 0.500000 0.303977 0.000000
#
# Coordination Sequence:
#
# PCOD8065361 Si02
#       7
#     4   2   4   4   2   4   4
#     4  11  23  42  61  86 122 166 210 254 304 362
#     4  10  23  40  64  90 125 168 204 254 300 364
#     4  10  20  37  64  97 128 162 204 251 303 358
#     4  10  21  39  60  86 115 149 193 250 318 379
#     4  10  21  40  60  90 129 166 206 250 300 364
#     4  10  21  37  59  84 113 148 190 246 310 369
#     4  12  24  39  57  84 115 153 204 253 303 370
#
# _framework density 20.224741999999999
#
# number of rings (size 3 to 8) (size 9 to 14) (size 15 to 20)
#    0.000    1.500    0.833    4.500    1.167    4.000 
#    3.000    0.833    0.000    8.000    0.000    0.000 
#    0.000    0.000    0.000    0.000    0.000    0.000 
#
# Total GULP energy -297545.801992 kJ/mol
# GULP energy per Si atom -12397.741750 kJ/mol
# Density = 2.017871 g / cm^3
# Si number density = 20.224742 Si / 1000 Ang^3
#
#
#
# Elastic Constant Matrix: (Units=GPa)
#
#
# Indices 1 2 3 4 5 6 
#
# 1 106.3269 35.0537 41.6245 0.0000 -2.5614 0.0000
# 2 35.0537 89.4361 38.1953 0.0000 3.0693 0.0000
# 3 41.6245 38.1953 123.5811 0.0000 -5.7785 0.0000
# 4 0.0000 0.0000 0.0000 15.1387 0.0000 -5.5057
# 5 -2.5614 3.0693 -5.7785 0.0000 31.4674 0.0000
# 6 0.0000 0.0000 0.0000 -5.5057 0.0000 19.6502
#
#
#
# Elastic Compliance Matrix: (Units=1/GPa)
#
#
# Indices 1 2 3 4 5 6 
#
# 1 0.011650 -0.003377 -0.002845 0.000000 0.000755 0.000000
# 2 -0.003377 0.013987 -0.003290 0.000000 -0.002243 0.000000
# 3 -0.002845 -0.003290 0.010158 0.000000 0.001955 0.000000
# 4 0.000000 0.000000 0.000000 0.073551 0.000000 0.020608
# 5 0.000755 -0.002243 0.001955 0.000000 0.032418 0.000000
# 6 0.000000 0.000000 0.000000 0.020608 0.000000 0.056664
#
#
# Mechanical properties :
#
#
# Convention : Reuss Voigt Hill
#
# Bulk Modulus (GPa) = 59.62755 61.01013 60.31884
# Shear Modulus (GPa) = 22.41710 26.88261 24.64985
#
# Velocity S-wave (km/s) = 3.33288 3.64977 3.49491
# Velocity P-wave (km/s) = 6.66012 6.92767 6.79521
#
# Compressibility (1/GPa) = 0.01677077
#
# Stress axis : x y z
#
# Youngs Moduli (GPa) = 85.83502 71.49481 98.44024
#
# Poissons Ratio (x) = 0.24145 0.28006
# Poissons Ratio (y) = 0.28988 0.32391
# Poissons Ratio (z) = 0.24419 0.23525
#
# Static dielectric constant tensor:
#      x y z
#    x 3.762110 0.000000 0.031960 
#    y 0.000000 3.545220 0.000000 
#    z 0.031960 0.000000 3.886790 
# 
# 
# High freq. dielectric constant tensor:
#      x y z
#    x 1.805270 0.000000 -0.004300 
#    y 0.000000 1.780800 0.000000 
#    z -0.004300 0.000000 1.797950 
# 
# From -- ./inp_files/20284.got.cif
#   From: 2010.06.25/outbox.cif.g09.slc.cpg/sg10_11_cif.got.tgz:20284.got - 2010.06.27 22:07:45.
