data_PCOD8065090
_publ_section_title
;
Structure prediction by ZEFSAII (Michael W. Deem and Ramdas Pophale) SiO2 
 PCOD8065090
Probable space group: P 2/M
;
_chemical_formula_sum "Si O2"
_cell_formula_units_Z 32
_cell_length_a 15.254390
_cell_length_b 9.064039
_cell_length_c 11.886747
_cell_angle_alpha 90.000000
_cell_angle_beta 90.066498
_cell_angle_gamma 90.000000
_cell_volume 1643.536441
_symmetry_space_group_name_H-M "P 2/M"
_symmetry_group_IT_number 10
_symmetry_cell_setting 'monoclinic'
loop_
_space_group_symop_operation_xyz
x,y,z
-x,y,-z
-x,-y,-z
x,-y,z
loop_
_atom_site_type_symbol
_atom_site_label
_atom_site_fract_x
_atom_site_fract_y
_atom_site_fract_z
Si Si1 0.853822 0.830095 0.995966
Si Si2 0.240226 0.327677 0.605091
Si Si3 0.411137 0.328973 0.206859
Si Si4 0.250855 0.325205 0.351224
Si Si5 0.347759 0.829886 0.996701
Si Si6 0.904253 0.825599 0.247348
Si Si7 0.392491 0.668081 0.772341
Si Si8 0.080399 0.674858 0.214977
O O1 0.752430 0.802564 0.968273
O O2 0.872904 0.780336 0.122903
O O3 0.880552 0.000000 0.977537
O O4 0.911859 0.730987 0.913144
O O5 0.214503 0.500000 0.608892
O O6 0.247959 0.266525 0.478462
O O7 0.165309 0.234327 0.664469
O O8 0.333899 0.298764 0.663293
O O9 0.391869 0.500000 0.185355
O O10 0.337510 0.261075 0.289697
O O11 0.506528 0.302420 0.261523
O O12 0.409825 0.251783 0.085384
O O13 0.256504 0.500000 0.352735
O O14 0.164735 0.271618 0.285250
O O15 0.362526 0.773150 0.871732
O O16 0.372862 0.000000 0.998289
O O17 0.996805 0.748913 0.273690
O O18 0.912973 0.000000 0.261384
O O19 0.380039 0.500000 0.813394
O O20 0.069641 0.500000 0.215453
#
# Coordination Sequence:
#
# PCOD8065090 Si02
#       8
#     4   4   4   4   4   4   4   4
#     4  10  21  37  57  82 114 150 184 227 283 336
#     4  10  21  39  60  83 110 148 194 236 278 331
#     4  10  20  37  58  85 117 149 186 232 283 334
#     4   9  20  38  59  82 113 148 187 235 284 328
#     4  11  21  35  57  84 116 152 187 227 279 339
#     4  11  23  40  59  83 116 151 184 231 284 335
#     4  10  21  35  58  87 115 147 188 235 280 330
#     4  11  22  37  60  88 114 147 186 231 280 336
#
# _framework density 19.470210999999999
#
# number of rings (size 3 to 8) (size 9 to 14) (size 15 to 20)
#    0.000    1.750    2.500    1.875    0.000    6.000 
#    0.000    6.875    0.000    0.000    0.000    2.625 
#    0.000    0.000    0.000    0.000    0.000    0.000 
#
# Total GULP energy -396939.063076 kJ/mol
# GULP energy per Si atom -12404.345721 kJ/mol
# Density = 1.942590 g / cm^3
# Si number density = 19.470211 Si / 1000 Ang^3
#
#
#
# Elastic Constant Matrix: (Units=GPa)
#
#
# Indices 1 2 3 4 5 6 
#
# 1 110.6561 44.2612 43.6614 0.0000 -1.4982 0.0000
# 2 44.2612 68.4057 38.5902 0.0000 -3.0599 0.0000
# 3 43.6614 38.5902 121.6384 0.0000 -0.9414 0.0000
# 4 0.0000 0.0000 0.0000 13.3857 0.0000 -0.2927
# 5 -1.4982 -3.0599 -0.9414 0.0000 16.4925 0.0000
# 6 0.0000 0.0000 0.0000 -0.2927 0.0000 23.5114
#
#
#
# Elastic Compliance Matrix: (Units=1/GPa)
#
#
# Indices 1 2 3 4 5 6 
#
# 1 0.012737 -0.006909 -0.002382 0.000000 -0.000261 0.000000
# 2 -0.006909 0.021701 -0.004380 0.000000 0.003149 0.000000
# 3 -0.002382 -0.004380 0.010462 0.000000 -0.000432 0.000000
# 4 0.000000 0.000000 0.000000 0.074727 0.000000 0.000930
# 5 -0.000261 0.003149 -0.000432 0.000000 0.061169 0.000000
# 6 0.000000 0.000000 0.000000 0.000930 0.000000 0.042544
#
#
# Mechanical properties :
#
#
# Convention : Reuss Voigt Hill
#
# Bulk Modulus (GPa) = 56.95569 61.52508 59.24039
# Shear Modulus (GPa) = 19.49040 22.29041 20.89040
#
# Velocity S-wave (km/s) = 3.16735 3.38723 3.27913
# Velocity P-wave (km/s) = 6.53394 6.85317 6.69546
#
# Compressibility (1/GPa) = 0.01755751
#
# Stress axis : x y z
#
# Youngs Moduli (GPa) = 78.51191 46.08037 95.58045
#
# Poissons Ratio (x) = 0.31838 0.22766
# Poissons Ratio (y) = 0.54246 0.41868
# Poissons Ratio (z) = 0.18701 0.20185
#
# Static dielectric constant tensor:
#      x y z
#    x 3.764630 0.000000 0.038110 
#    y 0.000000 3.372050 0.000000 
#    z 0.038110 0.000000 3.527610 
# 
# 
# High freq. dielectric constant tensor:
#      x y z
#    x 1.774600 0.000000 0.000940 
#    y 0.000000 1.742690 0.000000 
#    z 0.000940 0.000000 1.751830 
# 
# From -- ./inp_files/49796.got.cif
#   From: 2010.06.25/outbox.cif.g09.slc.cpg/sg10_25_cif.got.tgz:49796.got - 2010.06.27 22:07:45.
