data_PCOD8065581
_publ_section_title
;
Structure prediction by ZEFSAII (Michael W. Deem and Ramdas Pophale) SiO2 
 PCOD8065581
Probable space group: P 2/M
;
_chemical_formula_sum "Si O2"
_cell_formula_units_Z 32
_cell_length_a 30.122172
_cell_length_b 8.898584
_cell_length_c 12.812317
_cell_angle_alpha 90.000000
_cell_angle_beta 27.904534
_cell_angle_gamma 90.000000
_cell_volume 1607.239078
_symmetry_space_group_name_H-M "P 2/M"
_symmetry_group_IT_number 10
_symmetry_cell_setting 'monoclinic'
loop_
_space_group_symop_operation_xyz
x,y,z
-x,y,-z
-x,-y,-z
x,-y,z
loop_
_atom_site_type_symbol
_atom_site_label
_atom_site_fract_x
_atom_site_fract_y
_atom_site_fract_z
Si Si1 0.602709 0.675648 0.242156
Si Si2 0.891403 0.177393 0.925001
Si Si3 0.772968 0.327618 0.347811
Si Si4 0.219904 0.822800 0.046296
Si Si5 0.893893 0.177015 0.509172
Si Si6 0.772179 0.326180 0.586010
Si Si7 0.592774 0.822325 0.043394
Si Si8 0.555991 0.677152 0.780965
O O1 0.500000 0.713508 0.500000
O O2 0.615546 0.500000 0.193339
O O3 0.680776 0.733643 0.162101
O O4 0.619848 0.768030 0.101796
O O5 0.839842 0.229685 0.136392
O O6 0.838496 0.237387 0.931821
O O7 0.891940 0.000000 0.921552
O O8 0.999078 0.236319 0.700136
O O9 0.780463 0.500000 0.297069
O O10 0.808983 0.306810 0.391391
O O11 0.664681 0.271752 0.562129
O O12 0.239489 0.000000 0.998916
O O13 0.162130 0.780070 0.269996
O O14 0.850531 0.261115 0.500339
O O15 0.888919 0.000000 0.497959
O O16 0.752866 0.500000 0.652227
O O17 0.672985 0.238774 0.799088
O O18 0.490476 0.758689 0.222174
O O19 0.591601 0.000000 0.043370
O O20 0.545928 0.500000 0.786368
O O21 0.500000 0.730752 0.000000
#
# Coordination Sequence:
#
# PCOD8065581 Si02
#       8
#     4   4   4   4   4   4   4   4
#     4  11  25  42  61  89 125 164 201 242 299 362
#     4  10  23  41  62  90 126 162 201 253 315 372
#     4  10  23  41  61  87 123 165 207 252 304 363
#     4  10  21  40  65  92 122 159 204 253 304 362
#     4  10  21  40  65  92 120 159 204 254 314 369
#     4  11  22  40  64  90 122 162 208 256 305 362
#     4  12  24  38  60  91 123 158 202 252 303 364
#     4  10  20  39  62  84 117 162 204 243 293 355
#
# _framework density 19.909921000000001
#
# number of rings (size 3 to 8) (size 9 to 14) (size 15 to 20)
#    0.000    1.500    2.500    2.250    1.750    5.750 
#    0.000    2.500    0.000    2.250    0.000    0.000 
#    0.000    0.000    0.000    0.000    0.000    0.000 
#
# Total GULP energy -396967.987007 kJ/mol
# GULP energy per Si atom -12405.249594 kJ/mol
# Density = 1.986460 g / cm^3
# Si number density = 19.909921 Si / 1000 Ang^3
#
#
#
# Elastic Constant Matrix: (Units=GPa)
#
#
# Indices 1 2 3 4 5 6 
#
# 1 139.9959 40.9400 51.9866 0.0000 -12.6377 0.0000
# 2 40.9400 57.2200 34.4697 0.0000 -9.2147 0.0000
# 3 51.9866 34.4697 112.0349 0.0000 -16.1132 0.0000
# 4 0.0000 0.0000 0.0000 27.7900 0.0000 -2.2957
# 5 -12.6377 -9.2147 -16.1132 0.0000 31.7075 0.0000
# 6 0.0000 0.0000 0.0000 -2.2957 0.0000 30.3473
#
#
#
# Elastic Compliance Matrix: (Units=1/GPa)
#
#
# Indices 1 2 3 4 5 6 
#
# 1 0.009781 -0.005145 -0.002816 0.000000 0.000972 0.000000
# 2 -0.005145 0.024447 -0.004755 0.000000 0.002638 0.000000
# 3 -0.002816 -0.004755 0.012229 0.000000 0.003710 0.000000
# 4 0.000000 0.000000 0.000000 0.036210 0.000000 0.002739
# 5 0.000972 0.002638 0.003710 0.000000 0.034578 0.000000
# 6 0.000000 0.000000 0.000000 0.002739 0.000000 0.033159
#
#
# Mechanical properties :
#
#
# Convention : Reuss Voigt Hill
#
# Bulk Modulus (GPa) = 47.56186 62.67149 55.11668
# Shear Modulus (GPa) = 27.34567 30.09259 28.71913
#
# Velocity S-wave (km/s) = 3.71006 3.89194 3.80208
# Velocity P-wave (km/s) = 6.50331 7.19320 6.85694
#
# Compressibility (1/GPa) = 0.02102525
#
# Stress axis : x y z
#
# Youngs Moduli (GPa) = 102.23721 40.90505 81.77394
#
# Poissons Ratio (x) = 0.21048 0.23025
# Poissons Ratio (y) = 0.52606 0.38880
# Poissons Ratio (z) = 0.28787 0.19449
#
# Static dielectric constant tensor:
#      x y z
#    x 3.819170 0.000000 -0.111710 
#    y 0.000000 3.471790 0.000000 
#    z -0.111710 0.000000 3.613900 
# 
# 
# High freq. dielectric constant tensor:
#      x y z
#    x 1.792780 0.000000 -0.004660 
#    y 0.000000 1.768230 0.000000 
#    z -0.004660 0.000000 1.775830 
# 
# From -- ./inp_files/58149.got.cif
#   From: 2010.06.25/outbox.cif.g09.slc.cpg/sg10_30_cif.got.tgz:58149.got - 2010.06.27 22:07:45.
