data_PCOD8065508
_publ_section_title
;
Structure prediction by ZEFSAII (Michael W. Deem and Ramdas Pophale) SiO2 
 PCOD8065508
Probable space group: P 2/M
;
_chemical_formula_sum "Si O2"
_cell_formula_units_Z 32
_cell_length_a 28.801662
_cell_length_b 9.128874
_cell_length_c 11.863417
_cell_angle_alpha 90.000000
_cell_angle_beta 31.475804
_cell_angle_gamma 90.000000
_cell_volume 1628.659259
_symmetry_space_group_name_H-M "P 2/M"
_symmetry_group_IT_number 10
_symmetry_cell_setting 'monoclinic'
loop_
_space_group_symop_operation_xyz
x,y,z
-x,y,-z
-x,-y,-z
x,-y,z
loop_
_atom_site_type_symbol
_atom_site_label
_atom_site_fract_x
_atom_site_fract_y
_atom_site_fract_z
Si Si1 0.690543 0.827915 0.143769
Si Si2 0.641618 0.668299 0.023235
Si Si3 0.922728 0.171850 0.247934
Si Si4 0.742696 0.331063 0.583759
Si Si5 0.137718 0.330876 0.173888
Si Si6 0.967228 0.330312 0.385836
Si Si7 0.538071 0.834177 0.627733
Si Si8 0.405541 0.833426 0.241663
O O1 0.686456 0.758682 0.029438
O O2 0.600781 0.785538 0.395300
O O3 0.701536 0.000000 0.110918
O O4 0.775863 0.765134 0.032568
O O5 0.633181 0.500000 0.076753
O O6 0.544534 0.726418 0.193343
O O7 0.706213 0.689202 0.784593
O O8 0.834595 0.245858 0.381403
O O9 0.947850 0.232029 0.318389
O O10 0.906094 0.000000 0.293310
O O11 0.000000 0.209284 0.000000
O O12 0.758928 0.500000 0.520709
O O13 0.672864 0.268300 0.639369
O O14 0.165211 0.500000 0.119650
O O15 0.067567 0.301632 0.219652
O O16 0.098395 0.285767 0.376901
O O17 0.953206 0.500000 0.382431
O O18 0.596132 0.824435 0.620258
O O19 0.502824 0.000000 0.682337
O O20 0.390627 0.000000 0.229826
O O21 0.500000 0.774966 0.000000
#
# Coordination Sequence:
#
# PCOD8065508 Si02
#       8
#     4   4   4   4   4   4   4   4
#     4  11  23  36  54  83 119 153 190 236 285 343
#     4  11  23  38  58  84 115 150 193 240 286 342
#     4  11  25  42  60  86 120 156 196 243 292 347
#     4  11  24  40  62  90 118 152 196 246 294 346
#     4   9  19  37  60  86 116 149 187 235 289 347
#     4   9  19  38  63  87 114 149 190 237 290 346
#     4  10  22  39  57  82 115 152 192 237 289 342
#     4  10  20  38  64  87 114 154 196 241 293 346
#
# _framework density 19.648064000000002
#
# number of rings (size 3 to 8) (size 9 to 14) (size 15 to 20)
#    0.000    1.750    1.250    3.375    0.000   10.750 
#    0.000    5.000    0.000    0.000    0.000    0.000 
#    0.000    0.000    0.000    0.000    0.000    0.000 
#
# Total GULP energy -396958.099545 kJ/mol
# GULP energy per Si atom -12404.940611 kJ/mol
# Density = 1.960334 g / cm^3
# Si number density = 19.648064 Si / 1000 Ang^3
#
#
#
# Elastic Constant Matrix: (Units=GPa)
#
#
# Indices 1 2 3 4 5 6 
#
# 1 82.9145 40.6489 30.4126 0.0000 -21.3413 0.0000
# 2 40.6489 97.5168 60.6216 0.0000 -20.6946 0.0000
# 3 30.4126 60.6216 86.7232 0.0000 -27.2793 0.0000
# 4 0.0000 0.0000 0.0000 32.2080 0.0000 -7.3613
# 5 -21.3413 -20.6946 -27.2793 0.0000 24.3318 0.0000
# 6 0.0000 0.0000 0.0000 -7.3613 0.0000 35.1911
#
#
#
# Elastic Compliance Matrix: (Units=1/GPa)
#
#
# Indices 1 2 3 4 5 6 
#
# 1 0.017410 -0.005756 0.001825 0.000000 0.012421 0.000000
# 2 -0.005756 0.020094 -0.012729 0.000000 -0.002229 0.000000
# 3 0.001825 -0.012729 0.026086 0.000000 0.020021 0.000000
# 4 0.000000 0.000000 0.000000 0.032607 0.000000 0.006821
# 5 0.012421 -0.002229 0.020021 0.000000 0.072544 0.000000
# 6 0.000000 0.000000 0.000000 0.006821 0.000000 0.029843
#
#
# Mechanical properties :
#
#
# Convention : Reuss Voigt Hill
#
# Bulk Modulus (GPa) = 33.03453 58.94675 45.99064
# Shear Modulus (GPa) = 20.66178 27.37761 24.01970
#
# Velocity S-wave (km/s) = 3.24635 3.73688 3.50022
# Velocity P-wave (km/s) = 5.55889 6.97749 6.30820
#
# Compressibility (1/GPa) = 0.03027135
#
# Stress axis : x y z
#
# Youngs Moduli (GPa) = 57.43821 49.76695 38.33434
#
# Poissons Ratio (x) = 0.28645 -0.06996
# Poissons Ratio (y) = 0.33061 0.48794
# Poissons Ratio (z) = -0.10483 0.63346
#
# Static dielectric constant tensor:
#      x y z
#    x 3.564840 0.000000 -0.029710 
#    y 0.000000 3.611430 0.000000 
#    z -0.029710 0.000000 3.615720 
# 
# 
# High freq. dielectric constant tensor:
#      x y z
#    x 1.774670 0.000000 -0.005530 
#    y 0.000000 1.767060 0.000000 
#    z -0.005530 0.000000 1.767250 
# 
# From -- ./inp_files/58135.got.cif
#   From: 2010.06.25/outbox.cif.g09.slc.cpg/sg10_30_cif.got.tgz:58135.got - 2010.06.27 22:07:45.
