data_PCOD8065952
_publ_section_title
;
Structure prediction by ZEFSAII (Michael W. Deem and Ramdas Pophale) SiO2 
 PCOD8065952
Probable space group: P 2/M
;
_chemical_formula_sum "Si O2"
_cell_formula_units_Z 32
_cell_length_a 28.436681
_cell_length_b 8.745131
_cell_length_c 21.945450
_cell_angle_alpha 90.000000
_cell_angle_beta 18.686938
_cell_angle_gamma 90.000000
_cell_volume 1748.550639
_symmetry_space_group_name_H-M "P 2/M"
_symmetry_group_IT_number 10
_symmetry_cell_setting 'monoclinic'
loop_
_space_group_symop_operation_xyz
x,y,z
-x,y,-z
-x,-y,-z
x,-y,z
loop_
_atom_site_type_symbol
_atom_site_label
_atom_site_fract_x
_atom_site_fract_y
_atom_site_fract_z
Si Si1 0.664991 0.179347 0.284975
Si Si2 0.152694 0.317834 0.187559
Si Si3 0.938236 0.317488 0.011321
Si Si4 0.338217 0.683129 0.315988
Si Si5 0.098833 0.672915 0.698213
Si Si6 0.794229 0.673691 0.010745
Si Si7 0.824171 0.317677 0.604523
Si Si8 0.668105 0.317578 0.917501
O O1 0.500000 0.236723 0.500000
O O2 0.774097 0.258302 0.199696
O O3 0.703731 0.220848 0.167863
O O4 0.679234 0.000000 0.276893
O O5 0.145042 0.500000 0.198008
O O6 0.252308 0.253866 0.119942
O O7 0.988743 0.251891 0.396967
O O8 0.225170 0.265345 0.034515
O O9 0.931346 0.500000 0.016802
O O10 0.000000 0.258588 0.000000
O O11 0.047914 0.250011 0.824497
O O12 0.332153 0.500000 0.324167
O O13 0.240776 0.749870 0.492026
O O14 0.272537 0.743508 0.332996
O O15 0.502487 0.745910 0.121032
O O16 0.140688 0.500000 0.662660
O O17 0.967314 0.680231 0.811296
O O18 0.736881 0.500000 0.088607
O O19 0.826083 0.500000 0.602994
O O20 0.752537 0.254708 0.754655
O O21 0.667394 0.500000 0.918034
#
# Coordination Sequence:
#
# PCOD8065952 Si02
#       8
#     4   4   4   4   4   4   4   4
#     4  10  21  36  53  74 100 130 164 201 244 292
#     4   9  15  24  36  54  80 114 152 188 229 274
#     4   9  18  33  53  78 103 128 162 199 242 295
#     4   9  14  21  32  48  75 113 150 180 220 271
#     4   8  13  24  41  58  82 117 150 183 223 274
#     4   9  16  29  49  68  89 122 160 193 234 286
#     4   9  14  21  33  47  73 117 156 181 217 276
#     4   9  16  21  28  50  82 113 149 189 225 269
#
# _framework density 18.300871999999998
#
# number of rings (size 3 to 8) (size 9 to 14) (size 15 to 20)
#    0.000    3.000    1.250    1.875    0.000    4.250 
#    2.250    0.000    0.000    0.000    0.000    0.000 
#    0.000    2.000    0.000    5.500    0.000    5.500 
#
# Total GULP energy -396615.878692 kJ/mol
# GULP energy per Si atom -12394.246209 kJ/mol
# Density = 1.825922 g / cm^3
# Si number density = 18.300872 Si / 1000 Ang^3
#
#
#
# Elastic Constant Matrix: (Units=GPa)
#
#
# Indices 1 2 3 4 5 6 
#
# 1 175.7884 11.6816 88.2171 0.0000 0.6780 0.0000
# 2 11.6816 11.9652 13.8190 0.0000 0.0124 0.0000
# 3 88.2171 13.8190 146.1407 0.0000 -1.4652 0.0000
# 4 0.0000 0.0000 0.0000 8.0633 0.0000 -2.1144
# 5 0.6780 0.0124 -1.4652 0.0000 29.4636 0.0000
# 6 0.0000 0.0000 0.0000 -2.1144 0.0000 5.2697
#
#
#
# Elastic Compliance Matrix: (Units=1/GPa)
#
#
# Indices 1 2 3 4 5 6 
#
# 1 0.008236 -0.002575 -0.004733 0.000000 -0.000424 0.000000
# 2 -0.002575 0.094634 -0.007398 0.000000 -0.000348 0.000000
# 3 -0.004733 -0.007398 0.010405 0.000000 0.000629 0.000000
# 4 0.000000 0.000000 0.000000 0.138603 0.000000 0.055614
# 5 -0.000424 -0.000348 0.000629 0.000000 0.033981 0.000000
# 6 0.000000 0.000000 0.000000 0.055614 0.000000 0.212078
#
#
# Mechanical properties :
#
#
# Convention : Reuss Voigt Hill
#
# Bulk Modulus (GPa) = 11.92390 62.36998 37.14694
# Shear Modulus (GPa) = 9.00409 23.23775 16.12092
#
# Velocity S-wave (km/s) = 2.22052 3.56724 2.97119
# Velocity P-wave (km/s) = 3.61993 7.14991 5.66680
#
# Compressibility (1/GPa) = 0.08386518
#
# Stress axis : x y z
#
# Youngs Moduli (GPa) = 121.41205 10.56704 96.10401
#
# Poissons Ratio (x) = 0.02721 0.45483
# Poissons Ratio (y) = 0.31262 0.71095
# Poissons Ratio (z) = 0.57460 0.07817
#
# Static dielectric constant tensor:
#      x y z
#    x 3.568300 0.000000 0.113760 
#    y 0.000000 2.633840 0.000000 
#    z 0.113760 0.000000 3.550600 
# 
# 
# High freq. dielectric constant tensor:
#      x y z
#    x 1.716020 0.000000 0.010700 
#    y 0.000000 1.632280 0.000000 
#    z 0.010700 0.000000 1.715460 
# 
# From -- ./inp_files/86899.got.cif
#   From: 2010.06.25/outbox.cif.g09.slc.cpg/sg10_44_cif.got.tgz:86899.got - 2010.06.27 22:07:45.
