data_PCOD8065341
_publ_section_title
;
Structure prediction by ZEFSAII (Michael W. Deem and Ramdas Pophale) SiO2 
 PCOD8065341
Probable space group: P 2/M
;
_chemical_formula_sum "Si O2"
_cell_formula_units_Z 32
_cell_length_a 14.875342
_cell_length_b 8.705525
_cell_length_c 23.686814
_cell_angle_alpha 90.000000
_cell_angle_beta 150.168228
_cell_angle_gamma 90.000000
_cell_volume 1525.887268
_symmetry_space_group_name_H-M "P 2/M"
_symmetry_group_IT_number 10
_symmetry_cell_setting 'monoclinic'
loop_
_space_group_symop_operation_xyz
x,y,z
-x,y,-z
-x,-y,-z
x,-y,z
loop_
_atom_site_type_symbol
_atom_site_label
_atom_site_fract_x
_atom_site_fract_y
_atom_site_fract_z
Si Si1 0.342568 0.173809 0.377287
Si Si2 0.374967 0.169670 0.271320
Si Si3 0.009657 0.681183 0.771963
Si Si4 0.270854 0.181892 0.002040
Si Si5 0.990637 0.680793 0.633683
Si Si6 0.992136 0.669328 0.929730
Si Si7 0.308794 0.679206 0.614712
Si Si8 0.349430 0.681175 0.763380
O O1 0.500000 0.249076 0.500000
O O2 0.444404 0.171463 0.372848
O O3 0.163470 0.277897 0.283852
O O4 0.291334 0.000000 0.368112
O O5 0.487856 0.287014 0.294986
O O6 0.169081 0.215158 0.169033
O O7 0.388349 0.000000 0.251222
O O8 0.041441 0.500000 0.788023
O O9 0.980472 0.745712 0.692222
O O10 0.184515 0.758141 0.896327
O O11 0.479467 0.229276 0.118789
O O12 0.251412 0.000000 0.994369
O O13 0.173140 0.256448 0.003111
O O14 0.958565 0.500000 0.617958
O O15 0.186034 0.722100 0.715781
O O16 0.837185 0.754304 0.508312
O O17 0.963089 0.500000 0.886192
O O18 0.000000 0.647506 0.000000
O O19 0.273615 0.500000 0.596879
O O20 0.292220 0.741259 0.669689
O O21 0.392679 0.500000 0.785433
#
# Coordination Sequence:
#
# PCOD8065341 Si02
#       8
#     4   4   4   4   4   4   4   4
#     4  10  21  37  56  82 119 160 197 236 291 358
#     4  11  22  35  55  85 121 160 193 231 288 350
#     4  11  22  38  62  89 120 159 206 257 303 355
#     4  12  25  41  60  86 124 163 204 252 305 365
#     4   9  20  39  64  93 120 154 203 257 311 361
#     4  11  23  39  60  86 116 153 198 245 293 351
#     4  10  20  37  63  93 124 157 199 252 305 365
#     4  10  21  40  65  90 119 158 204 254 309 366
#
# _framework density 20.971404
#
# number of rings (size 3 to 8) (size 9 to 14) (size 15 to 20)
#    0.000    1.500    1.250    4.125    0.000    7.250 
#    0.000    5.000    0.000    1.500    0.000    0.000 
#    0.000    0.000    0.000    0.000    0.000    0.000 
#
# Total GULP energy -396722.776722 kJ/mol
# GULP energy per Si atom -12397.586773 kJ/mol
# Density = 2.092367 g / cm^3
# Si number density = 20.971404 Si / 1000 Ang^3
#
#
#
# Elastic Constant Matrix: (Units=GPa)
#
#
# Indices 1 2 3 4 5 6 
#
# 1 101.4845 14.0657 24.2952 0.0000 -6.1803 0.0000
# 2 14.0657 62.7031 26.3024 0.0000 -8.0498 0.0000
# 3 24.2952 26.3024 101.1858 0.0000 -6.4432 0.0000
# 4 0.0000 0.0000 0.0000 21.8547 0.0000 0.7184
# 5 -6.1803 -8.0498 -6.4432 0.0000 33.9851 0.0000
# 6 0.0000 0.0000 0.0000 0.7184 0.0000 15.4313
#
#
#
# Elastic Compliance Matrix: (Units=1/GPa)
#
#
# Indices 1 2 3 4 5 6 
#
# 1 0.010622 -0.001335 -0.002126 0.000000 0.001212 0.000000
# 2 -0.001335 0.018464 -0.004268 0.000000 0.003322 0.000000
# 3 -0.002126 -0.004268 0.011553 0.000000 0.000793 0.000000
# 4 0.000000 0.000000 0.000000 0.045827 0.000000 -0.002133
# 5 0.001212 0.003322 0.000793 0.000000 0.030582 0.000000
# 6 0.000000 0.000000 0.000000 -0.002133 0.000000 0.064903
#
#
# Mechanical properties :
#
#
# Convention : Reuss Voigt Hill
#
# Bulk Modulus (GPa) = 39.71191 43.85555 41.78373
# Shear Modulus (GPa) = 24.29520 27.63489 25.96504
#
# Velocity S-wave (km/s) = 3.40735 3.63401 3.52251
# Velocity P-wave (km/s) = 5.87004 6.21011 6.04247
#
# Compressibility (1/GPa) = 0.02518136
#
# Stress axis : x y z
#
# Youngs Moduli (GPa) = 94.14806 54.15872 86.55703
#
# Poissons Ratio (x) = 0.07231 0.18402
# Poissons Ratio (y) = 0.12571 0.36938
# Poissons Ratio (z) = 0.20016 0.23112
#
# Static dielectric constant tensor:
#      x y z
#    x -0.022800 0.000000 4.597430 
#    y 0.000000 3.637150 0.000000 
#    z 4.597430 0.000000 -2.108540 
# 
# 
# High freq. dielectric constant tensor:
#      x y z
#    x 1.825730 0.000000 -0.011350 
#    y 0.000000 1.800540 0.000000 
#    z -0.011350 0.000000 1.831960 
# 
# From -- ./inp_files/66576.got.cif
#   From: 2010.06.25/outbox.cif.g09.slc.cpg/sg10_34_cif.got.tgz:66576.got - 2010.06.27 22:07:45.
