data_PCOD8065951
_publ_section_title
;
Structure prediction by ZEFSAII (Michael W. Deem and Ramdas Pophale) SiO2 
 PCOD8065951
Probable space group: P 2/M
;
_chemical_formula_sum "Si O2"
_cell_formula_units_Z 28
_cell_length_a 22.683420
_cell_length_b 9.762998
_cell_length_c 21.113290
_cell_angle_alpha 90.000000
_cell_angle_beta 160.860654
_cell_angle_gamma 90.000000
_cell_volume 1533.010052
_symmetry_space_group_name_H-M "P 2/M"
_symmetry_group_IT_number 10
_symmetry_cell_setting 'monoclinic'
loop_
_space_group_symop_operation_xyz
x,y,z
-x,y,-z
-x,-y,-z
x,-y,z
loop_
_atom_site_type_symbol
_atom_site_label
_atom_site_fract_x
_atom_site_fract_y
_atom_site_fract_z
Si Si1 0.300102 0.844735 0.222557
Si Si2 0.793956 0.654267 0.620115
Si Si3 0.813848 0.653609 0.004736
Si Si4 0.723084 0.844723 0.659702
Si Si5 0.506272 0.660572 0.782781
Si Si6 0.487752 0.162257 0.888165
Si Si7 0.203505 0.161353 0.704159
O O1 0.511960 0.825692 0.437863
O O2 0.220472 0.807810 0.211072
O O3 0.248668 0.000000 0.152860
O O4 0.215456 0.746709 0.085475
O O5 0.752847 0.500000 0.601210
O O6 0.821222 0.745826 0.710117
O O7 0.635614 0.707380 0.414497
O O8 0.976578 0.660517 0.764369
O O9 0.754246 0.500000 0.925116
O O10 0.701873 0.697954 0.953007
O O11 0.780583 0.000000 0.702471
O O12 0.486288 0.500000 0.779952
O O13 0.472190 0.752729 0.808704
O O14 0.311436 0.202806 0.750212
O O15 0.489462 0.000000 0.875981
O O16 0.672837 0.207689 0.110998
O O17 0.000000 0.226100 0.500000
O O18 0.184713 0.000000 0.687544
#
# Coordination Sequence:
#
# PCOD8065951 Si02
#       7
#     4   4   4   4   4   4   4
#     4   9  18  33  53  76 101 129 164 212 269 320
#     4  10  21  36  53  73  98 134 178 215 254 309
#     4  10  21  36  53  73  98 134 178 215 254 309
#     4   9  18  33  53  76 101 129 164 212 269 320
#     4  10  21  37  52  71 106 142 168 209 260 296
#     4   9  18  32  54  81 103 133 174 206 239 294
#     4   8  15  31  54  80 110 136 162 204 250 288
#
# _framework density 18.264718999999999
#
# number of rings (size 3 to 8) (size 9 to 14) (size 15 to 20)
#    0.000    2.714    1.429    1.714    0.000    4.000 
#    0.000    5.714    0.000    0.857    0.000    0.000 
#    0.000    0.000    0.000    0.000    0.000    0.000 
#
# Total GULP energy -347075.553232 kJ/mol
# GULP energy per Si atom -12395.555473 kJ/mol
# Density = 1.822315 g / cm^3
# Si number density = 18.264719 Si / 1000 Ang^3
#
#
#
# Elastic Constant Matrix: (Units=GPa)
#
#
# Indices 1 2 3 4 5 6 
#
# 1 121.4403 55.8787 41.0301 0.0000 1.8634 0.0000
# 2 55.8787 63.9655 26.2292 0.0000 -7.5072 0.0000
# 3 41.0301 26.2292 46.1382 0.0000 17.3211 0.0000
# 4 0.0000 0.0000 0.0000 28.6516 0.0000 -29.2429
# 5 1.8634 -7.5072 17.3211 0.0000 28.5832 0.0000
# 6 0.0000 0.0000 0.0000 -29.2429 0.0000 85.8732
#
#
#
# Elastic Compliance Matrix: (Units=1/GPa)
#
#
# Indices 1 2 3 4 5 6 
#
# 1 0.015850 -0.009806 -0.009275 0.000000 0.002012 0.000000
# 2 -0.009806 0.034304 -0.018645 0.000000 0.020948 0.000000
# 3 -0.009275 -0.018645 0.054541 0.000000 -0.037344 0.000000
# 4 0.000000 0.000000 0.000000 0.053495 0.000000 0.018217
# 5 0.002012 0.020948 -0.037344 0.000000 0.062986 0.000000
# 6 0.000000 0.000000 0.000000 0.018217 0.000000 0.017849
#
#
# Mechanical properties :
#
#
# Convention : Reuss Voigt Hill
#
# Bulk Modulus (GPa) = 34.19770 53.09111 43.64440
# Shear Modulus (GPa) = 15.42137 35.84867 25.63502
#
# Velocity S-wave (km/s) = 2.90888 4.43507 3.75043
# Velocity P-wave (km/s) = 5.48144 7.44024 6.53465
#
# Compressibility (1/GPa) = 0.02924173
#
# Stress axis : x y z
#
# Youngs Moduli (GPa) = 63.09285 29.15119 18.33469
#
# Poissons Ratio (x) = 0.28587 0.17006
# Poissons Ratio (y) = 0.61871 0.34185
# Poissons Ratio (z) = 0.58521 0.54352
#
# Static dielectric constant tensor:
#      x y z
#    x 3.408840 0.000000 0.176430 
#    y 0.000000 3.213840 0.000000 
#    z 0.176430 0.000000 3.662320 
# 
# 
# High freq. dielectric constant tensor:
#      x y z
#    x 1.704430 0.000000 0.014930 
#    y 0.000000 1.688280 0.000000 
#    z 0.014930 0.000000 1.711240 
# 
# From -- ./inp_files/86558.got.cif
#   From: 2010.06.25/outbox.cif.g09.slc.cpg/sg10_44_cif.got.tgz:86558.got - 2010.06.27 22:07:45.
