data_PCOD8065748
_publ_section_title
;
Structure prediction by ZEFSAII (Michael W. Deem and Ramdas Pophale) SiO2 
 PCOD8065748
Probable space group: P 2/M
;
_chemical_formula_sum "Si O2"
_cell_formula_units_Z 28
_cell_length_a 22.733670
_cell_length_b 9.085899
_cell_length_c 19.875855
_cell_angle_alpha 90.000000
_cell_angle_beta 19.800607
_cell_angle_gamma 90.000000
_cell_volume 1390.720551
_symmetry_space_group_name_H-M "P 2/M"
_symmetry_group_IT_number 10
_symmetry_cell_setting 'monoclinic'
loop_
_space_group_symop_operation_xyz
x,y,z
-x,y,-z
-x,-y,-z
x,-y,z
loop_
_atom_site_type_symbol
_atom_site_label
_atom_site_fract_x
_atom_site_fract_y
_atom_site_fract_z
Si Si1 0.165812 0.333797 0.617438
Si Si2 0.479132 0.169569 0.101152
Si Si3 0.444728 0.330027 0.760286
Si Si4 0.133156 0.666641 0.798925
Si Si5 0.761209 0.326558 0.887320
Si Si6 0.526487 0.171936 0.546060
Si Si7 0.901199 0.173266 0.441357
O O1 0.154262 0.500000 0.600986
O O2 0.365897 0.289213 0.414588
O O3 0.057146 0.323247 0.804638
O O4 0.081892 0.223679 0.654252
O O5 0.286485 0.222900 0.328916
O O6 0.506530 0.000000 0.092482
O O7 0.500000 0.193436 0.000000
O O8 0.624244 0.266322 0.981149
O O9 0.437150 0.500000 0.749567
O O10 0.402556 0.243748 0.736311
O O11 0.303079 0.287486 0.968321
O O12 0.205693 0.500000 0.732162
O O13 0.278042 0.790348 0.645511
O O14 0.000000 0.709015 0.000000
O O15 0.778457 0.500000 0.857695
O O16 0.948932 0.250881 0.675477
O O17 0.500000 0.238267 0.500000
O O18 0.490985 0.000000 0.585088
O O19 0.928398 0.000000 0.417760
#
# Coordination Sequence:
#
# PCOD8065748 Si02
#       7
#     4   4   4   4   4   4   4
#     4   9  17  34  57  81 111 147 196 250 296 350
#     4  10  23  44  67  91 125 166 203 245 299 361
#     4   9  19  36  58  81 108 150 198 244 296 355
#     4   9  19  35  54  76 106 149 196 240 291 352
#     4  11  23  40  64  93 124 158 202 253 300 355
#     4  10  21  34  50  77 112 148 189 242 298 350
#     4  11  23  38  61  92 123 159 201 245 300 363
#
# _framework density 20.133448000000001
#
# number of rings (size 3 to 8) (size 9 to 14) (size 15 to 20)
#    0.000    2.143    1.429    2.143    0.000    7.429 
#    0.000    7.143    0.000    0.000    0.000    0.000 
#    0.000    0.000    0.000    0.000    0.000    0.000 
#
# Total GULP energy -347134.279561 kJ/mol
# GULP energy per Si atom -12397.652841 kJ/mol
# Density = 2.008762 g / cm^3
# Si number density = 20.133448 Si / 1000 Ang^3
#
#
#
# Elastic Constant Matrix: (Units=GPa)
#
#
# Indices 1 2 3 4 5 6 
#
# 1 101.1134 56.5806 52.5954 0.0000 -2.8864 0.0000
# 2 56.5806 74.3992 34.5723 0.0000 -5.9286 0.0000
# 3 52.5954 34.5723 93.6642 0.0000 -2.3493 0.0000
# 4 0.0000 0.0000 0.0000 21.7426 0.0000 -0.3484
# 5 -2.8864 -5.9286 -2.3493 0.0000 26.1547 0.0000
# 6 0.0000 0.0000 0.0000 -0.3484 0.0000 35.4172
#
#
#
# Elastic Compliance Matrix: (Units=1/GPa)
#
#
# Indices 1 2 3 4 5 6 
#
# 1 0.020374 -0.012382 -0.006900 0.000000 -0.001178 0.000000
# 2 -0.012382 0.024011 -0.001812 0.000000 0.003913 0.000000
# 3 -0.006900 -0.001812 0.015225 0.000000 0.000195 0.000000
# 4 0.000000 0.000000 0.000000 0.046000 0.000000 0.000453
# 5 -0.001178 0.003913 0.000195 0.000000 0.039009 0.000000
# 6 0.000000 0.000000 0.000000 0.000453 0.000000 0.028239
#
#
# Mechanical properties :
#
#
# Convention : Reuss Voigt Hill
#
# Bulk Modulus (GPa) = 57.39673 61.85261 59.62467
# Shear Modulus (GPa) = 22.63954 25.02479 23.83216
#
# Velocity S-wave (km/s) = 3.35696 3.52937 3.44424
# Velocity P-wave (km/s) = 6.60269 6.88452 6.74508
#
# Compressibility (1/GPa) = 0.01742259
#
# Stress axis : x y z
#
# Youngs Moduli (GPa) = 49.08214 41.64713 65.68335
#
# Poissons Ratio (x) = 0.51568 0.45321
# Poissons Ratio (y) = 0.60774 0.11900
# Poissons Ratio (z) = 0.33866 0.07545
#
# Static dielectric constant tensor:
#      x y z
#    x 3.713080 0.000000 0.229630 
#    y 0.000000 3.536160 0.000000 
#    z 0.229630 0.000000 3.771700 
# 
# 
# High freq. dielectric constant tensor:
#      x y z
#    x 1.786510 0.000000 0.011570 
#    y 0.000000 1.780170 0.000000 
#    z 0.011570 0.000000 1.778900 
# 
# From -- ./inp_files/86425.got.cif
#   From: 2010.06.25/outbox.cif.g09.slc.cpg/sg10_44_cif.got.tgz:86425.got - 2010.06.27 22:07:45.
