data_PCOD8065196
_publ_section_title
;
Structure prediction by ZEFSAII (Michael W. Deem and Ramdas Pophale) SiO2 
 PCOD8065196
Probable space group: P 2/M
;
_chemical_formula_sum "Si O2"
_cell_formula_units_Z 28
_cell_length_a 14.410787
_cell_length_b 11.900549
_cell_length_c 8.653474
_cell_angle_alpha 90.000000
_cell_angle_beta 113.713899
_cell_angle_gamma 90.000000
_cell_volume 1358.733866
_symmetry_space_group_name_H-M "P 2/M"
_symmetry_group_IT_number 10
_symmetry_cell_setting 'monoclinic'
loop_
_space_group_symop_operation_xyz
x,y,z
-x,y,-z
-x,-y,-z
x,-y,z
loop_
_atom_site_type_symbol
_atom_site_label
_atom_site_fract_x
_atom_site_fract_y
_atom_site_fract_z
Si Si1 0.974997 0.500000 0.235805
Si Si2 0.475828 0.627172 0.662360
Si Si3 0.158585 0.500000 0.552374
Si Si4 0.773921 0.872365 0.921693
Si Si5 0.716015 0.276825 0.342717
Si Si6 0.402490 0.229678 0.032483
Si Si7 0.039942 0.748123 0.864074
Si Si8 0.850843 0.132058 0.634833
O O1 0.094144 0.500000 0.351820
O O2 0.949404 0.613154 0.125726
O O3 0.912850 0.500000 0.349660
O O4 0.500000 0.633271 0.500000
O O5 0.447953 0.500000 0.692165
O O6 0.384519 0.713818 0.621867
O O7 0.565941 0.665980 0.837411
O O8 0.223661 0.389674 0.593108
O O9 0.655653 0.857920 0.893414
O O10 0.790644 0.838524 0.753123
O O11 0.805829 0.000000 0.967451
O O12 0.847867 0.799467 0.083201
O O13 0.780329 0.170048 0.444323
O O14 0.684407 0.267985 0.143649
O O15 0.500000 0.180930 0.000000
O O16 0.957013 0.798185 0.688362
O O17 0.000000 0.793248 0.000000
O O18 0.873550 0.000000 0.634728
#
# Coordination Sequence:
#
# PCOD8065196 Si02
#       8
#     2   4   2   4   4   4   4   4
#     4  11  21  36  54  84 125 153 190 237 287 356
#     4  10  21  38  61  88 118 152 194 243 292 348
#     4  11  22  34  56  80 117 166 186 229 292 356
#     4  10  21  40  61  84 118 157 200 248 294 345
#     4  11  21  38  60  85 122 155 197 239 291 351
#     4  10  23  38  60  88 118 156 194 245 290 351
#     4  10  20  37  60  88 118 153 196 241 295 348
#     4  10  21  38  62  88 117 155 200 245 292 347
#
# _framework density 20.607419
#
# number of rings (size 3 to 8) (size 9 to 14) (size 15 to 20)
#    0.000    1.714    2.143    2.357    1.000    3.429 
#    1.286    2.143    0.000   10.286    0.000    0.000 
#    0.000    0.000    0.000    0.000    0.000    0.000 
#
# Total GULP energy -347036.085087 kJ/mol
# GULP energy per Si atom -12394.145896 kJ/mol
# Density = 2.056052 g / cm^3
# Si number density = 20.607419 Si / 1000 Ang^3
#
#
#
# Elastic Constant Matrix: (Units=GPa)
#
#
# Indices 1 2 3 4 5 6 
#
# 1 83.1475 26.1835 26.2837 0.0000 3.7828 0.0000
# 2 26.1835 114.2905 37.1306 0.0000 13.2652 0.0000
# 3 26.2837 37.1306 111.2292 0.0000 15.9593 0.0000
# 4 0.0000 0.0000 0.0000 -16.0777 0.0000 42.6025
# 5 3.7828 13.2652 15.9593 0.0000 24.8102 0.0000
# 6 0.0000 0.0000 0.0000 42.6025 0.0000 2.7936
#
#
#
# Elastic Compliance Matrix: (Units=1/GPa)
#
#
# Indices 1 2 3 4 5 6 
#
# 1 0.013536 -0.002377 -0.002524 0.000000 0.000831 0.000000
# 2 -0.002377 0.010509 -0.002415 0.000000 -0.003703 0.000000
# 3 -0.002524 -0.002415 0.011185 0.000000 -0.005519 0.000000
# 4 0.000000 0.000000 0.000000 -0.001502 0.000000 0.022906
# 5 0.000831 -0.003703 -0.005519 0.000000 0.045709 0.000000
# 6 0.000000 0.000000 0.000000 0.022906 0.000000 0.008644
#
#
# Mechanical properties :
#
#
# Convention : Reuss Voigt Hill
#
# Bulk Modulus (GPa) = 48.55260 54.20698 51.37979
# Shear Modulus (GPa) = 45.62929 16.90982 31.26956
#
# Velocity S-wave (km/s) = 4.71065 2.86767 3.89960
# Velocity P-wave (km/s) = 7.29376 6.10953 6.72775
#
# Compressibility (1/GPa) = 0.02059622
#
# Stress axis : x y z
#
# Youngs Moduli (GPa) = 73.87953 95.16014 89.40630
#
# Poissons Ratio (x) = 0.22623 0.22567
# Poissons Ratio (y) = 0.17564 0.21591
# Poissons Ratio (z) = 0.18648 0.22981
#
# Static dielectric constant tensor:
#      x y z
#    x 3.948800 0.000000 0.162480 
#    y 0.000000 3.648070 0.000000 
#    z 0.162480 0.000000 3.802620 
# 
# 
# High freq. dielectric constant tensor:
#      x y z
#    x 1.812470 0.000000 0.005590 
#    y 0.000000 1.795530 0.000000 
#    z 0.005590 0.000000 1.805350 
# 
# From -- ./inp_files/28701.got.cif
#   From: 2010.06.25/outbox.cif.g09.slc.cpg/sg10_15_cif.got.tgz:28701.got - 2010.06.27 22:07:45.
