data_PCOD8065610
_publ_section_title
;
Structure prediction by ZEFSAII (Michael W. Deem and Ramdas Pophale) SiO2 
 PCOD8065610
Probable space group: P 2/M
;
_chemical_formula_sum "Si O2"
_cell_formula_units_Z 28
_cell_length_a 9.221531
_cell_length_b 9.161118
_cell_length_c 26.906041
_cell_angle_alpha 90.000000
_cell_angle_beta 141.288356
_cell_angle_gamma 90.000000
_cell_volume 1421.543161
_symmetry_space_group_name_H-M "P 2/M"
_symmetry_group_IT_number 10
_symmetry_cell_setting 'monoclinic'
loop_
_space_group_symop_operation_xyz
x,y,z
-x,y,-z
-x,-y,-z
x,-y,z
loop_
_atom_site_type_symbol
_atom_site_label
_atom_site_fract_x
_atom_site_fract_y
_atom_site_fract_z
Si Si1 0.842233 0.332260 0.299054
Si Si2 0.266811 0.340282 0.560093
Si Si3 0.680388 0.329618 0.147364
Si Si4 0.734673 0.170614 0.537444
Si Si5 0.553805 0.669582 0.733471
Si Si6 0.206197 0.169207 0.018383
Si Si7 0.036249 0.829640 0.862213
O O1 0.894190 0.500000 0.325811
O O2 0.832511 0.304453 0.237543
O O3 0.596656 0.288695 0.258222
O O4 0.048737 0.241100 0.377322
O O5 0.358224 0.500000 0.566539
O O6 0.298633 0.216658 0.528043
O O7 0.402217 0.290215 0.645098
O O8 0.000000 0.355460 0.500000
O O9 0.659319 0.500000 0.129042
O O10 0.427001 0.266466 0.090283
O O11 0.800639 0.249161 0.133823
O O12 0.500000 0.222825 0.500000
O O13 0.773869 0.000000 0.550761
O O14 0.627587 0.500000 0.753928
O O15 0.778458 0.768917 0.791650
O O16 0.268623 0.000000 0.043574
O O17 0.137630 0.200077 0.943522
O O18 0.000000 0.217705 0.000000
O O19 0.031782 0.000000 0.848082
#
# Coordination Sequence:
#
# PCOD8065610 Si02
#       7
#     4   4   4   4   4   4   4
#     4  10  22  42  63  86 117 157 202 246 300 359
#     4  10  20  39  64  87 115 157 202 249 304 356
#     4  11  24  40  63  93 123 158 201 249 295 347
#     4  11  25  40  57  87 123 157 200 251 300 354
#     4  10  21  39  63  89 117 152 201 252 297 353
#     4  10  22  42  66  91 122 161 201 240 295 361
#     4  11  24  40  61  90 125 162 196 240 299 358
#
# _framework density 19.696906999999999
#
# number of rings (size 3 to 8) (size 9 to 14) (size 15 to 20)
#    0.000    1.571    1.429    2.571    2.000    6.857 
#    0.000    0.000    0.000    0.000    0.000    0.000 
#    0.000    0.000    0.000    0.000    0.000    0.000 
#
# Total GULP energy -347287.724900 kJ/mol
# GULP energy per Si atom -12403.133032 kJ/mol
# Density = 1.965208 g / cm^3
# Si number density = 19.696907 Si / 1000 Ang^3
#
#
#
# Elastic Constant Matrix: (Units=GPa)
#
#
# Indices 1 2 3 4 5 6 
#
# 1 129.5964 51.1309 23.6130 0.0000 -3.7426 0.0000
# 2 51.1309 67.4421 34.3646 0.0000 3.2019 0.0000
# 3 23.6130 34.3646 54.3121 0.0000 -3.5495 0.0000
# 4 0.0000 0.0000 0.0000 31.3054 0.0000 4.0999
# 5 -3.7426 3.2019 -3.5495 0.0000 31.1225 0.0000
# 6 0.0000 0.0000 0.0000 4.0999 0.0000 39.4745
#
#
#
# Elastic Compliance Matrix: (Units=1/GPa)
#
#
# Indices 1 2 3 4 5 6 
#
# 1 0.011202 -0.009159 0.001083 0.000000 0.002413 0.000000
# 2 -0.009159 0.029841 -0.015286 0.000000 -0.005915 0.000000
# 3 0.001083 -0.015286 0.027933 0.000000 0.004889 0.000000
# 4 0.000000 0.000000 0.000000 0.032384 0.000000 -0.003363
# 5 0.002413 -0.005915 0.004889 0.000000 0.033587 0.000000
# 6 0.000000 0.000000 0.000000 -0.003363 0.000000 0.025682
#
#
# Mechanical properties :
#
#
# Convention : Reuss Voigt Hill
#
# Bulk Modulus (GPa) = 44.94103 52.17418 48.55760
# Shear Modulus (GPa) = 23.28062 29.86328 26.57195
#
# Velocity S-wave (km/s) = 3.44167 3.89799 3.67691
# Velocity P-wave (km/s) = 6.21766 6.84143 6.53699
#
# Compressibility (1/GPa) = 0.02225138
#
# Stress axis : x y z
#
# Youngs Moduli (GPa) = 89.26690 33.51093 35.80052
#
# Poissons Ratio (x) = 0.30693 -0.03876
# Poissons Ratio (y) = 0.81761 0.54723
# Poissons Ratio (z) = -0.09664 0.51224
#
# Static dielectric constant tensor:
#      x y z
#    x 3.429490 0.000000 0.359680 
#    y 0.000000 3.615040 0.000000 
#    z 0.359680 0.000000 3.045240 
# 
# 
# High freq. dielectric constant tensor:
#      x y z
#    x 1.780540 0.000000 -0.003130 
#    y 0.000000 1.769100 0.000000 
#    z -0.003130 0.000000 1.778780 
# 
# From -- ./inp_files/82196.got.cif
#   From: 2010.06.25/outbox.cif.g09.slc.cpg/sg10_42_cif.got.tgz:82196.got - 2010.06.27 22:07:45.
