data_PCOD8065233
_publ_section_title
;
Structure prediction by ZEFSAII (Michael W. Deem and Ramdas Pophale) SiO2 
 PCOD8065233
Probable space group: P 2/M
;
_chemical_formula_sum "Si O2"
_cell_formula_units_Z 24
_cell_length_a 14.643175
_cell_length_b 8.707693
_cell_length_c 9.494484
_cell_angle_alpha 90.000000
_cell_angle_beta 80.470305
_cell_angle_gamma 90.000000
_cell_volume 1193.918538
_symmetry_space_group_name_H-M "P 2/M"
_symmetry_group_IT_number 10
_symmetry_cell_setting 'monoclinic'
loop_
_space_group_symop_operation_xyz
x,y,z
-x,y,-z
-x,-y,-z
x,-y,z
loop_
_atom_site_type_symbol
_atom_site_label
_atom_site_fract_x
_atom_site_fract_y
_atom_site_fract_z
Si Si1 0.260833 0.177655 0.971870
Si Si2 0.416797 0.319006 0.114272
Si Si3 0.076678 0.326865 0.086867
Si Si4 0.589332 0.317545 0.564245
Si Si5 0.244818 0.180964 0.654276
Si Si6 0.051615 0.674447 0.620607
O O1 0.268997 0.233138 0.807560
O O2 0.287213 0.000000 0.979869
O O3 0.323759 0.278603 0.057233
O O4 0.158485 0.205166 0.055698
O O5 0.427508 0.500000 0.121493
O O6 0.417773 0.253054 0.273741
O O7 0.500000 0.247461 0.000000
O O8 0.110746 0.500000 0.039203
O O9 0.031793 0.322730 0.249542
O O10 0.000000 0.267785 0.000000
O O11 0.500000 0.258158 0.500000
O O12 0.593615 0.500000 0.561996
O O13 0.683151 0.256947 0.470709
O O14 0.140444 0.228656 0.643808
O O15 0.252493 0.000000 0.637561
O O16 0.085444 0.500000 0.583765
O O17 0.000000 0.747817 0.500000
#
# Coordination Sequence:
#
# PCOD8065233 Si02
#       6
#     4   4   4   4   4   4
#     4  11  24  39  59  88 124 162 198 242 295 353
#     4  10  22  41  66  93 118 150 196 247 297 352
#     4  10  20  37  61  87 115 155 203 248 293 342
#     4  10  22  41  66  92 118 152 196 246 297 351
#     4  11  24  40  59  87 123 163 200 239 295 356
#     4  10  22  39  60  86 118 156 201 250 295 346
#
# _framework density 20.101873999999999
#
# number of rings (size 3 to 8) (size 9 to 14) (size 15 to 20)
#    0.000    1.667    1.667    2.000    2.333    6.000 
#    0.000    0.000    0.000    0.000    0.000    0.000 
#    0.000    0.000    0.000    0.000    0.000    0.000 
#
# Total GULP energy -297605.150414 kJ/mol
# GULP energy per Si atom -12400.214601 kJ/mol
# Density = 2.005612 g / cm^3
# Si number density = 20.101874 Si / 1000 Ang^3
#
#
#
# Elastic Constant Matrix: (Units=GPa)
#
#
# Indices 1 2 3 4 5 6 
#
# 1 97.4450 16.1420 71.1102 0.0000 2.0652 0.0000
# 2 16.1420 24.1037 22.0270 0.0000 -0.8377 0.0000
# 3 71.1102 22.0270 154.0068 0.0000 12.4810 0.0000
# 4 0.0000 0.0000 0.0000 23.9315 0.0000 2.1797
# 5 2.0652 -0.8377 12.4810 0.0000 42.9285 0.0000
# 6 0.0000 0.0000 0.0000 2.1797 0.0000 8.9419
#
#
#
# Elastic Compliance Matrix: (Units=1/GPa)
#
#
# Indices 1 2 3 4 5 6 
#
# 1 0.015949 -0.004404 -0.006826 0.000000 0.001131 0.000000
# 2 -0.004404 0.049318 -0.005239 0.000000 0.002697 0.000000
# 3 -0.006826 -0.005239 0.010626 0.000000 -0.002863 0.000000
# 4 0.000000 0.000000 0.000000 0.042735 0.000000 -0.010417
# 5 0.001131 0.002697 -0.002863 0.000000 0.024125 0.000000
# 6 0.000000 0.000000 0.000000 -0.010417 0.000000 0.114372
#
#
# Mechanical properties :
#
#
# Convention : Reuss Voigt Hill
#
# Bulk Modulus (GPa) = 23.27969 54.90154 39.09061
# Shear Modulus (GPa) = 16.42674 26.24548 21.33611
#
# Velocity S-wave (km/s) = 2.86173 3.61726 3.26145
# Velocity P-wave (km/s) = 4.74608 6.69455 5.80269
#
# Compressibility (1/GPa) = 0.04295590
#
# Stress axis : x y z
#
# Youngs Moduli (GPa) = 62.69996 20.27658 94.10528
#
# Poissons Ratio (x) = 0.08929 0.64237
# Poissons Ratio (y) = 0.27611 0.49302
# Poissons Ratio (z) = 0.42799 0.10623
#
# Static dielectric constant tensor:
#      x y z
#    x 3.608200 0.000000 0.081250 
#    y 0.000000 3.490260 0.000000 
#    z 0.081250 0.000000 3.935430 
# 
# 
# High freq. dielectric constant tensor:
#      x y z
#    x 1.792970 0.000000 0.002140 
#    y 0.000000 1.765870 0.000000 
#    z 0.002140 0.000000 1.803340 
# 
# From -- ./inp_files/27097.got.cif
#   From: 2010.06.25/outbox.cif.g09.slc.cpg/sg10_14_cif.got.tgz:27097.got - 2010.06.27 22:07:45.
