data_PCOD8065143
_publ_section_title
;
Structure prediction by ZEFSAII (Michael W. Deem and Ramdas Pophale) SiO2 
 PCOD8065143
Probable space group: P 2/M
;
_chemical_formula_sum "Si O2"
_cell_formula_units_Z 28
_cell_length_a 26.676011
_cell_length_b 8.953662
_cell_length_c 9.623858
_cell_angle_alpha 90.000000
_cell_angle_beta 141.572296
_cell_angle_gamma 90.000000
_cell_volume 1428.665446
_symmetry_space_group_name_H-M "P 2/M"
_symmetry_group_IT_number 10
_symmetry_cell_setting 'monoclinic'
loop_
_space_group_symop_operation_xyz
x,y,z
-x,y,-z
-x,-y,-z
x,-y,z
loop_
_atom_site_type_symbol
_atom_site_label
_atom_site_fract_x
_atom_site_fract_y
_atom_site_fract_z
Si Si1 0.520322 0.832248 0.383000
Si Si2 0.233302 0.826941 0.514692
Si Si3 0.193707 0.826391 0.116571
Si Si4 0.925780 0.669935 0.744491
Si Si5 0.970029 0.329269 0.287882
Si Si6 0.321811 0.675877 0.210540
Si Si7 0.638408 0.324335 0.016327
O O1 0.500000 0.832419 0.500000
O O2 0.604224 0.746488 0.542327
O O3 0.448698 0.749566 0.146156
O O4 0.529156 0.000000 0.343918
O O5 0.235908 0.795672 0.355947
O O6 0.147958 0.780066 0.392888
O O7 0.247210 0.000000 0.578959
O O8 0.303220 0.731034 0.736343
O O9 0.239019 0.738389 0.092847
O O10 0.194375 0.000000 0.080668
O O11 0.102182 0.770481 0.927351
O O12 0.900311 0.500000 0.727610
O O13 0.952647 0.681914 0.643581
O O14 0.000000 0.722426 0.000000
O O15 0.939429 0.500000 0.233068
O O16 0.000000 0.266818 0.500000
O O17 0.325431 0.500000 0.238131
O O18 0.325771 0.720457 0.056628
O O19 0.627339 0.500000 0.003454
#
# Coordination Sequence:
#
# PCOD8065143 Si02
#       7
#     4   4   4   4   4   4   4
#     4   9  17  33  58  87 119 151 185 229 283 338
#     4  11  24  39  57  83 117 153 191 237 286 337
#     4  11  24  40  57  82 117 154 191 234 288 340
#     4  10  20  37  60  82 108 148 192 232 280 338
#     4  10  22  39  59  83 113 147 188 236 284 338
#     4  10  21  37  60  87 116 151 191 235 283 336
#     4  10  21  37  60  88 116 149 192 236 280 336
#
# _framework density 19.598708999999999
#
# number of rings (size 3 to 8) (size 9 to 14) (size 15 to 20)
#    0.000    1.857    1.429    2.143    2.000    6.286 
#    0.000    0.714    0.000    4.286    0.000    0.000 
#    0.000    0.000    0.000    0.000    0.000    0.000 
#
# Total GULP energy -347325.459953 kJ/mol
# GULP energy per Si atom -12404.480713 kJ/mol
# Density = 1.955410 g / cm^3
# Si number density = 19.598709 Si / 1000 Ang^3
#
#
#
# Elastic Constant Matrix: (Units=GPa)
#
#
# Indices 1 2 3 4 5 6 
#
# 1 42.3793 21.0769 3.2966 0.0000 -2.3416 0.0000
# 2 21.0769 92.9955 36.1275 0.0000 -0.6836 0.0000
# 3 3.2966 36.1275 88.4155 0.0000 -4.0990 0.0000
# 4 0.0000 0.0000 0.0000 34.8121 0.0000 3.1491
# 5 -2.3416 -0.6836 -4.0990 0.0000 26.2461 0.0000
# 6 0.0000 0.0000 0.0000 3.1491 0.0000 20.2817
#
#
#
# Elastic Compliance Matrix: (Units=1/GPa)
#
#
# Indices 1 2 3 4 5 6 
#
# 1 0.026989 -0.006838 0.001905 0.000000 0.002527 0.000000
# 2 -0.006838 0.014521 -0.005731 0.000000 -0.001127 0.000000
# 3 0.001905 -0.005731 0.013681 0.000000 0.002157 0.000000
# 4 0.000000 0.000000 0.000000 0.029135 0.000000 -0.004524
# 5 0.002527 -0.001127 0.002157 0.000000 0.038634 0.000000
# 6 0.000000 0.000000 0.000000 -0.004524 0.000000 0.050008
#
#
# Mechanical properties :
#
#
# Convention : Reuss Voigt Hill
#
# Bulk Modulus (GPa) = 29.53096 38.31027 33.92062
# Shear Modulus (GPa) = 24.32104 27.15395 25.73749
#
# Velocity S-wave (km/s) = 3.52654 3.72626 3.62777
# Velocity P-wave (km/s) = 5.62872 6.17278 5.90701
#
# Compressibility (1/GPa) = 0.03386277
#
# Stress axis : x y z
#
# Youngs Moduli (GPa) = 37.05230 68.86507 73.09479
#
# Poissons Ratio (x) = 0.47093 -0.13926
# Poissons Ratio (y) = 0.25338 0.41889
# Poissons Ratio (z) = -0.07059 0.39465
#
# Static dielectric constant tensor:
#      x y z
#    x 3.486160 0.000000 0.042360 
#    y 0.000000 3.631840 0.000000 
#    z 0.042360 0.000000 3.585700 
# 
# 
# High freq. dielectric constant tensor:
#      x y z
#    x 1.753600 0.000000 0.006060 
#    y 0.000000 1.769800 0.000000 
#    z 0.006060 0.000000 1.764220 
# 
# From -- ./inp_files/37231.got.cif
#   From: 2010.06.25/outbox.cif.g09.slc.cpg/sg10_19_cif.got.tgz:37231.got - 2010.06.27 22:07:45.
