data_PCOD8065173
_publ_section_title
;
Structure prediction by ZEFSAII (Michael W. Deem and Ramdas Pophale) SiO2 
 PCOD8065173
Probable space group: P 2/M
;
_chemical_formula_sum "Si O2"
_cell_formula_units_Z 28
_cell_length_a 18.829420
_cell_length_b 9.360901
_cell_length_c 22.777094
_cell_angle_alpha 90.000000
_cell_angle_beta 161.458998
_cell_angle_gamma 90.000000
_cell_volume 1276.606655
_symmetry_space_group_name_H-M "P 2/M"
_symmetry_group_IT_number 10
_symmetry_cell_setting 'monoclinic'
loop_
_space_group_symop_operation_xyz
x,y,z
-x,y,-z
-x,-y,-z
x,-y,z
loop_
_atom_site_type_symbol
_atom_site_label
_atom_site_fract_x
_atom_site_fract_y
_atom_site_fract_z
Si Si1 0.723775 0.655781 0.636648
Si Si2 0.356178 0.333190 0.022857
Si Si3 0.456520 0.845738 0.593461
Si Si4 0.062902 0.168411 0.704810
Si Si5 0.118940 0.156318 0.147355
Si Si6 0.459726 0.163660 0.724084
Si Si7 0.194494 0.335958 0.696816
O O1 0.500000 0.646094 0.500000
O O2 0.827377 0.500000 0.709091
O O3 0.704227 0.720698 0.555752
O O4 0.904671 0.751501 0.812626
O O5 0.293606 0.500000 0.981667
O O6 0.418415 0.268002 0.135167
O O7 0.569243 0.314921 0.148507
O O8 0.150198 0.246755 0.832423
O O9 0.627058 0.863669 0.673525
O O10 0.568634 0.809782 0.744428
O O11 0.329685 0.000000 0.501079
O O12 0.194726 0.234064 0.753122
O O13 0.801243 0.200833 0.490280
O O14 0.112797 0.000000 0.748086
O O15 0.008876 0.000000 0.072556
O O16 0.000000 0.236685 0.000000
O O17 0.488975 0.000000 0.768320
O O18 0.157923 0.500000 0.688188
O O19 0.000000 0.287755 0.500000
#
# Coordination Sequence:
#
# PCOD8065173 Si02
#       7
#     4   4   4   4   4   4   4
#     4   9  17  30  50  75 102 133 169 213 263 313
#     4  11  23  39  61  85 114 151 190 235 285 341
#     4   9  18  35  56  76 103 142 182 219 266 325
#     4  11  23  38  59  86 115 148 190 239 287 335
#     4   9  17  31  53  80 106 135 175 223 270 319
#     4  10  22  40  59  81 114 154 193 235 281 334
#     4  10  20  37  60  85 113 148 189 234 286 339
#
# _framework density 21.933143999999999
#
# number of rings (size 3 to 8) (size 9 to 14) (size 15 to 20)
#    0.000    2.143    1.429    1.714    0.000    6.286 
#    2.571    0.000    0.000    0.000    0.000    0.000 
#    0.000    0.000    0.000    0.000    0.000    0.000 
#
# Total GULP energy -347006.845668 kJ/mol
# GULP energy per Si atom -12393.101631 kJ/mol
# Density = 2.188322 g / cm^3
# Si number density = 21.933144 Si / 1000 Ang^3
#
#
#
# Elastic Constant Matrix: (Units=GPa)
#
#
# Indices 1 2 3 4 5 6 
#
# 1 65.2675 50.9513 18.8124 0.0000 -36.2015 0.0000
# 2 50.9513 153.1699 51.3279 0.0000 -47.1972 0.0000
# 3 18.8124 51.3279 78.8003 0.0000 -43.7253 0.0000
# 4 0.0000 0.0000 0.0000 22.0495 0.0000 -8.0975
# 5 -36.2015 -47.1972 -43.7253 0.0000 44.5578 0.0000
# 6 0.0000 0.0000 0.0000 -8.0975 0.0000 20.6104
#
#
#
# Elastic Compliance Matrix: (Units=1/GPa)
#
#
# Indices 1 2 3 4 5 6 
#
# 1 0.038617 -0.005630 0.018768 0.000000 0.043829 0.000000
# 2 -0.005630 0.010579 -0.004099 0.000000 0.002609 0.000000
# 3 0.018768 -0.004099 0.037173 0.000000 0.047385 0.000000
# 4 0.000000 0.000000 0.000000 0.052999 0.000000 0.020823
# 5 0.043829 0.002609 0.047385 0.000000 0.107316 0.000000
# 6 0.000000 0.000000 0.000000 0.020823 0.000000 0.056700
#
#
# Mechanical properties :
#
#
# Convention : Reuss Voigt Hill
#
# Bulk Modulus (GPa) = 9.57411 59.93565 34.75488
# Shear Modulus (GPa) = 15.61903 29.18662 22.40282
#
# Velocity S-wave (km/s) = 2.67145 3.65185 3.19942
# Velocity P-wave (km/s) = 3.72695 6.72065 5.43403
#
# Compressibility (1/GPa) = 0.10444834
#
# Stress axis : x y z
#
# Youngs Moduli (GPa) = 25.89502 94.52675 26.90127
#
# Poissons Ratio (x) = 0.53216 -0.50489
# Poissons Ratio (y) = 0.14578 0.11026
# Poissons Ratio (z) = -0.48600 0.38745
#
# Static dielectric constant tensor:
#      x y z
#    x 3.912310 0.000000 -0.190650 
#    y 0.000000 4.192510 0.000000 
#    z -0.190650 0.000000 3.877730 
# 
# 
# High freq. dielectric constant tensor:
#      x y z
#    x 1.857350 0.000000 -0.017470 
#    y 0.000000 1.859600 0.000000 
#    z -0.017470 0.000000 1.856290 
# 
# From -- ./inp_files/86474.got.cif
#   From: 2010.06.25/outbox.cif.g09.slc.cpg/sg10_44_cif.got.tgz:86474.got - 2010.06.27 22:07:45.
