data_PCOD8065042
_publ_section_title
;
Structure prediction by ZEFSAII (Michael W. Deem and Ramdas Pophale) SiO2 
 PCOD8065042
Probable space group: P 2/M
;
_chemical_formula_sum "Si O2"
_cell_formula_units_Z 32
_cell_length_a 26.531679
_cell_length_b 13.731063
_cell_length_c 10.029020
_cell_angle_alpha 90.000000
_cell_angle_beta 151.854113
_cell_angle_gamma 90.000000
_cell_volume 1723.495011
_symmetry_space_group_name_H-M "P 2/M"
_symmetry_group_IT_number 10
_symmetry_cell_setting 'monoclinic'
loop_
_space_group_symop_operation_xyz
x,y,z
-x,y,-z
-x,-y,-z
x,-y,z
loop_
_atom_site_type_symbol
_atom_site_label
_atom_site_fract_x
_atom_site_fract_y
_atom_site_fract_z
Si Si1 0.719201 0.388413 0.777194
Si Si2 0.123562 0.777042 0.828863
Si Si3 0.432049 0.238055 0.711388
Si Si4 0.425729 0.798755 0.199001
Si Si5 0.885007 0.115642 0.702245
Si Si6 0.228294 0.884927 0.300252
Si Si7 0.379499 0.397387 0.170975
Si Si8 0.780341 0.888144 0.191811
O O1 0.732401 0.500000 0.756190
O O2 0.621708 0.336725 0.470235
O O3 0.696634 0.385920 0.880355
O O4 0.829815 0.328237 0.017907
O O5 0.197256 0.820417 0.882480
O O6 0.000000 0.768883 0.500000
O O7 0.136011 0.849216 0.983374
O O8 0.507411 0.183572 0.778929
O O9 0.342891 0.158757 0.534934
O O10 0.500000 0.265569 0.000000
O O11 0.500000 0.789763 0.500000
O O12 0.363352 0.694827 0.036055
O O13 0.341001 0.882862 0.035283
O O14 0.802035 0.150380 0.621701
O O15 0.853183 0.151498 0.481741
O O16 0.890269 0.000000 0.717139
O O17 0.000000 0.162069 0.000000
O O18 0.235824 0.000000 0.306077
O O19 0.500000 0.403718 0.500000
O O20 0.350939 0.500000 0.030534
O O21 0.804462 0.000000 0.209915
#
# Coordination Sequence:
#
# PCOD8065042 Si02
#       8
#     4   4   4   4   4   4   4   4
#     4  10  20  37  57  78 108 140 174 221 274 331
#     4  11  22  36  56  83 108 135 177 231 282 320
#     4  11  22  34  53  82 114 144 181 221 265 313
#     4  11  19  34  51  75 107 141 178 209 256 318
#     4   9  18  34  54  72  95 135 183 223 259 303
#     4  10  21  37  53  76 112 151 183 215 265 322
#     4   9  15  29  55  76  94 129 172 211 254 310
#     4  11  22  34  51  79 108 137 180 225 259 306
#
# _framework density 18.566922000000002
#
# number of rings (size 3 to 8) (size 9 to 14) (size 15 to 20)
#    0.000    1.750    3.750    2.625    0.000    3.500 
#    0.000    0.000    0.000    0.000    0.000    0.000 
#    0.000    7.750    0.000    0.000    0.000    0.000 
#
# Total GULP energy -396620.478238 kJ/mol
# GULP energy per Si atom -12394.389945 kJ/mol
# Density = 1.852466 g / cm^3
# Si number density = 18.566922 Si / 1000 Ang^3
#
#
#
# Elastic Constant Matrix: (Units=GPa)
#
#
# Indices 1 2 3 4 5 6 
#
# 1 71.9038 18.8801 9.6720 0.0000 0.3645 0.0000
# 2 18.8801 80.9315 23.4704 0.0000 3.2895 0.0000
# 3 9.6720 23.4704 78.3455 0.0000 1.6926 0.0000
# 4 0.0000 0.0000 0.0000 11.4854 0.0000 2.1058
# 5 0.3645 3.2895 1.6926 0.0000 29.2908 0.0000
# 6 0.0000 0.0000 0.0000 2.1058 0.0000 19.9137
#
#
#
# Elastic Compliance Matrix: (Units=1/GPa)
#
#
# Indices 1 2 3 4 5 6 
#
# 1 0.014871 -0.003225 -0.000875 0.000000 0.000228 0.000000
# 2 -0.003225 0.014280 -0.003851 0.000000 -0.001341 0.000000
# 3 -0.000875 -0.003851 0.014034 0.000000 -0.000368 0.000000
# 4 0.000000 0.000000 0.000000 0.088789 0.000000 -0.009389
# 5 0.000228 -0.001341 -0.000368 0.000000 0.034309 0.000000
# 6 0.000000 0.000000 0.000000 -0.009389 0.000000 0.051210
#
#
# Mechanical properties :
#
#
# Convention : Reuss Voigt Hill
#
# Bulk Modulus (GPa) = 36.65218 37.24731 36.94974
# Shear Modulus (GPa) = 20.61974 24.08187 22.35080
#
# Velocity S-wave (km/s) = 3.33613 3.60534 3.47334
# Velocity P-wave (km/s) = 5.88414 6.11849 6.00246
#
# Compressibility (1/GPa) = 0.02728351
#
# Stress axis : x y z
#
# Youngs Moduli (GPa) = 67.24631 70.02974 71.25805
#
# Poissons Ratio (x) = 0.22583 0.06233
# Poissons Ratio (y) = 0.21685 0.27440
# Poissons Ratio (z) = 0.05882 0.26967
#
# Static dielectric constant tensor:
#      x y z
#    x 3.489380 0.000000 -0.001610 
#    y 0.000000 3.743080 0.000000 
#    z -0.001610 0.000000 3.387000 
# 
# 
# High freq. dielectric constant tensor:
#      x y z
#    x 1.723100 0.000000 0.005170 
#    y 0.000000 1.709290 0.000000 
#    z 0.005170 0.000000 1.706450 
# 
# From -- ./inp_files/36415.got.cif
#   From: 2010.06.25/outbox.cif.g09.slc.cpg/sg10_19_cif.got.tgz:36415.got - 2010.06.27 22:07:45.
