data_PCOD8065836
_publ_section_title
;
Structure prediction by ZEFSAII (Michael W. Deem and Ramdas Pophale) SiO2 
 PCOD8065836
Probable space group: P 2/M
;
_chemical_formula_sum "Si O2"
_cell_formula_units_Z 32
_cell_length_a 27.112070
_cell_length_b 9.060231
_cell_length_c 19.424374
_cell_angle_alpha 90.000000
_cell_angle_beta 159.021836
_cell_angle_gamma 90.000000
_cell_volume 1708.231463
_symmetry_space_group_name_H-M "P 2/M"
_symmetry_group_IT_number 10
_symmetry_cell_setting 'monoclinic'
loop_
_space_group_symop_operation_xyz
x,y,z
-x,y,-z
-x,-y,-z
x,-y,z
loop_
_atom_site_type_symbol
_atom_site_label
_atom_site_fract_x
_atom_site_fract_y
_atom_site_fract_z
Si Si1 0.593331 0.825961 0.183358
Si Si2 0.067769 0.168140 0.658496
Si Si3 0.846967 0.673420 0.033089
Si Si4 0.098778 0.831122 0.423457
Si Si5 0.437058 0.826334 0.701318
Si Si6 0.814321 0.324955 0.693659
Si Si7 0.313300 0.325962 0.043838
Si Si8 0.123793 0.673391 0.078026
O O1 0.748381 0.761242 0.381582
O O2 0.529107 0.788351 0.174611
O O3 0.603033 0.000000 0.184591
O O4 0.500000 0.757179 0.000000
O O5 0.195103 0.276153 0.837398
O O6 0.000000 0.221175 0.500000
O O7 0.950095 0.182919 0.561940
O O8 0.123413 0.000000 0.726362
O O9 0.867906 0.500000 0.067549
O O10 0.731654 0.725854 0.937607
O O11 0.995900 0.743284 0.240290
O O12 0.800492 0.718863 0.894870
O O13 0.099079 0.000000 0.398663
O O14 0.287653 0.763674 0.488367
O O15 0.438935 0.000000 0.691433
O O16 0.545333 0.751992 0.791220
O O17 0.791689 0.500000 0.653856
O O18 0.790935 0.275041 0.743499
O O19 0.966788 0.269255 0.872437
O O20 0.334800 0.500000 0.067253
O O21 0.110451 0.500000 0.067115
#
# Coordination Sequence:
#
# PCOD8065836 Si02
#       8
#     4   4   4   4   4   4   4   4
#     4   9  19  33  51  73  97 130 169 207 246 297
#     4   9  18  31  52  77  98 126 166 210 255 302
#     4   9  17  32  53  75 100 131 168 208 250 296
#     4   9  17  30  49  74 100 125 162 206 251 300
#     4  11  22  35  53  74 103 137 172 210 255 306
#     4   9  17  32  55  81 107 134 166 204 253 306
#     4  10  21  35  51  72 100 137 174 211 255 299
#     4   8  15  30  55  82 104 132 169 207 247 303
#
# _framework density 18.732824000000001
#
# number of rings (size 3 to 8) (size 9 to 14) (size 15 to 20)
#    0.000    2.750    0.000    2.250    1.750    0.750 
#    0.000    3.125    0.000    5.625    0.000    0.000 
#    0.000    0.000    0.000    0.000    0.000    0.000 
#
# Total GULP energy -396645.788300 kJ/mol
# GULP energy per Si atom -12395.180884 kJ/mol
# Density = 1.869019 g / cm^3
# Si number density = 18.732824 Si / 1000 Ang^3
#
#
#
# Elastic Constant Matrix: (Units=GPa)
#
#
# Indices 1 2 3 4 5 6 
#
# 1 101.1918 26.0973 31.3751 0.0000 -15.0703 0.0000
# 2 26.0973 41.9355 21.9585 0.0000 -2.0413 0.0000
# 3 31.3751 21.9585 65.4310 0.0000 0.9945 0.0000
# 4 0.0000 0.0000 0.0000 27.2260 0.0000 -0.5436
# 5 -15.0703 -2.0413 0.9945 0.0000 30.4753 0.0000
# 6 0.0000 0.0000 0.0000 -0.5436 0.0000 19.6219
#
#
#
# Elastic Compliance Matrix: (Units=1/GPa)
#
#
# Indices 1 2 3 4 5 6 
#
# 1 0.013847 -0.005782 -0.004800 0.000000 0.006617 0.000000
# 2 -0.005782 0.031500 -0.007791 0.000000 -0.000495 0.000000
# 3 -0.004800 -0.007791 0.020254 0.000000 -0.003556 0.000000
# 4 0.000000 0.000000 0.000000 0.036750 0.000000 0.001018
# 5 0.006617 -0.000495 -0.003556 0.000000 0.036168 0.000000
# 6 0.000000 0.000000 0.000000 0.001018 0.000000 0.050992
#
#
# Mechanical properties :
#
#
# Convention : Reuss Voigt Hill
#
# Bulk Modulus (GPa) = 34.65676 40.82445 37.74060
# Shear Modulus (GPa) = 21.19764 24.07314 22.63539
#
# Velocity S-wave (km/s) = 3.36754 3.58869 3.47987
# Velocity P-wave (km/s) = 5.80182 6.24595 6.02798
#
# Compressibility (1/GPa) = 0.02885440
#
# Stress axis : x y z
#
# Youngs Moduli (GPa) = 72.21748 31.74611 49.37345
#
# Poissons Ratio (x) = 0.18355 0.23700
# Poissons Ratio (y) = 0.41755 0.38469
# Poissons Ratio (z) = 0.34665 0.24734
#
# Static dielectric constant tensor:
#      x y z
#    x 3.845050 0.000000 -0.066850 
#    y 0.000000 3.167790 0.000000 
#    z -0.066850 0.000000 3.341440 
# 
# 
# High freq. dielectric constant tensor:
#      x y z
#    x 1.744540 0.000000 -0.001980 
#    y 0.000000 1.696960 0.000000 
#    z -0.001980 0.000000 1.711730 
# 
# From -- ./inp_files/86957.got.cif
#   From: 2010.06.25/outbox.cif.g09.slc.cpg/sg10_44_cif.got.tgz:86957.got - 2010.06.27 22:07:45.
