data_PCOD8065474
_publ_section_title
;
Structure prediction by ZEFSAII (Michael W. Deem and Ramdas Pophale) SiO2 
 PCOD8065474
Probable space group: P 2/M
;
_chemical_formula_sum "Si O2"
_cell_formula_units_Z 32
_cell_length_a 14.367772
_cell_length_b 18.368080
_cell_length_c 11.615665
_cell_angle_alpha 90.000000
_cell_angle_beta 31.262795
_cell_angle_gamma 90.000000
_cell_volume 1590.869788
_symmetry_space_group_name_H-M "P 2/M"
_symmetry_group_IT_number 10
_symmetry_cell_setting 'monoclinic'
loop_
_space_group_symop_operation_xyz
x,y,z
-x,y,-z
-x,-y,-z
x,-y,z
loop_
_atom_site_type_symbol
_atom_site_label
_atom_site_fract_x
_atom_site_fract_y
_atom_site_fract_z
Si Si1 0.083927 0.355169 0.018146
Si Si2 0.209061 0.415211 0.285272
Si Si3 0.750745 0.671176 0.532189
Si Si4 0.009031 0.082164 0.354075
Si Si5 0.294347 0.218316 0.710875
Si Si6 0.313650 0.822356 0.931775
Si Si7 0.285802 0.831588 0.463896
Si Si8 0.361637 0.652798 0.896547
O O1 0.930640 0.347875 0.275915
O O2 0.151698 0.282389 0.880989
O O3 0.254130 0.388797 0.906760
O O4 0.000000 0.402630 0.000000
O O5 0.248011 0.500000 0.258896
O O6 0.281983 0.374328 0.318952
O O7 0.000000 0.397786 0.500000
O O8 0.318036 0.386977 0.060982
O O9 0.754815 0.756328 0.559549
O O10 0.573406 0.653787 0.642758
O O11 0.829638 0.106319 0.475871
O O12 0.000000 0.086101 0.500000
O O13 0.049534 0.000000 0.271047
O O14 0.169319 0.135463 0.156531
O O15 0.500000 0.248681 0.500000
O O16 0.279646 0.161009 0.832086
O O17 0.243547 0.179059 0.644855
O O18 0.505906 0.851995 0.770154
O O19 0.290005 0.735795 0.977563
#
# Coordination Sequence:
#
# PCOD8065474 Si02
#       8
#     4   4   4   4   4   4   4   4
#     4  11  20  32  56  88 125 158 191 247 297 353
#     4  11  24  42  64  92 126 163 202 251 308 360
#     4  11  22  36  61  93 121 158 202 245 303 354
#     4  11  26  42  57  81 118 165 204 242 302 365
#     4   9  18  35  59  92 123 151 193 249 311 360
#     4   9  21  37  61  90 119 149 198 256 295 353
#     4  10  20  38  62  90 117 152 200 250 301 355
#     4  10  22  38  60  91 122 158 201 248 301 358
#
# _framework density 20.114782999999999
#
# number of rings (size 3 to 8) (size 9 to 14) (size 15 to 20)
#    0.000    1.750    2.500    2.625    1.750    2.000 
#    0.000    2.500    0.000    3.750    0.000    1.750 
#    0.000    0.000    0.000    0.000    0.000    0.000 
#
# Total GULP energy -396540.534301 kJ/mol
# GULP energy per Si atom -12391.891697 kJ/mol
# Density = 2.006900 g / cm^3
# Si number density = 20.114783 Si / 1000 Ang^3
#
#
#
# Elastic Constant Matrix: (Units=GPa)
#
#
# Indices 1 2 3 4 5 6 
#
# 1 116.9883 27.4982 7.6438 0.0000 1.7371 0.0000
# 2 27.4982 55.9083 7.0443 0.0000 1.2086 0.0000
# 3 7.6438 7.0443 49.1108 0.0000 -4.8386 0.0000
# 4 0.0000 0.0000 0.0000 5.5092 0.0000 -13.7835
# 5 1.7371 1.2086 -4.8386 0.0000 28.2665 0.0000
# 6 0.0000 0.0000 0.0000 -13.7835 0.0000 -15.7804
#
#
#
# Elastic Compliance Matrix: (Units=1/GPa)
#
#
# Indices 1 2 3 4 5 6 
#
# 1 0.009708 -0.004650 -0.000898 0.000000 -0.000552 0.000000
# 2 -0.004650 0.020486 -0.002312 0.000000 -0.000986 0.000000
# 3 -0.000898 -0.002312 0.021206 0.000000 0.003784 0.000000
# 4 0.000000 0.000000 0.000000 0.056985 0.000000 -0.049774
# 5 -0.000552 -0.000986 0.003784 0.000000 0.036101 0.000000
# 6 0.000000 0.000000 0.000000 -0.049774 0.000000 -0.019894
#
#
# Mechanical properties :
#
#
# Convention : Reuss Voigt Hill
#
# Bulk Modulus (GPa) = 28.02665 34.04222 31.03444
# Shear Modulus (GPa) = 32.85040 15.58712 24.21876
#
# Velocity S-wave (km/s) = 4.04561 2.78674 3.47367
# Velocity P-wave (km/s) = 5.98215 5.22640 5.61700
#
# Compressibility (1/GPa) = 0.03568032
#
# Stress axis : x y z
#
# Youngs Moduli (GPa) = 103.01183 48.81411 47.15559
#
# Poissons Ratio (x) = 0.22696 0.04236
# Poissons Ratio (y) = 0.47896 0.10902
# Poissons Ratio (z) = 0.09254 0.11285
#
# Static dielectric constant tensor:
#      x y z
#    x 4.167090 0.000000 -0.072240 
#    y 0.000000 3.309270 0.000000 
#    z -0.072240 0.000000 3.780030 
# 
# 
# High freq. dielectric constant tensor:
#      x y z
#    x 1.812160 0.000000 -0.011200 
#    y 0.000000 1.730880 0.000000 
#    z -0.011200 0.000000 1.800480 
# 
# From -- ./inp_files/51961.got.cif
#   From: 2010.06.25/outbox.cif.g09.slc.cpg/sg10_26_cif.got.tgz:51961.got - 2010.06.27 22:07:45.
