data_PCOD8065660
_publ_section_title
;
Structure prediction by ZEFSAII (Michael W. Deem and Ramdas Pophale) SiO2 
 PCOD8065660
Probable space group: P 2/M
;
_chemical_formula_sum "Si O2"
_cell_formula_units_Z 24
_cell_length_a 12.633474
_cell_length_b 11.302533
_cell_length_c 19.517349
_cell_angle_alpha 90.000000
_cell_angle_beta 24.833628
_cell_angle_gamma 90.000000
_cell_volume 1170.450301
_symmetry_space_group_name_H-M "P 2/M"
_symmetry_group_IT_number 10
_symmetry_cell_setting 'monoclinic'
loop_
_space_group_symop_operation_xyz
x,y,z
-x,y,-z
-x,-y,-z
x,-y,z
loop_
_atom_site_type_symbol
_atom_site_label
_atom_site_fract_x
_atom_site_fract_y
_atom_site_fract_z
Si Si1 0.796645 0.500000 0.056169
Si Si2 0.200679 0.253304 0.008028
Si Si3 0.798115 0.500000 0.556715
Si Si4 0.612816 0.863362 0.231126
Si Si5 0.397497 0.138044 0.135884
Si Si6 0.913064 0.754235 0.473760
Si Si7 0.284836 0.140203 0.676862
O O1 0.501694 0.500000 0.250454
O O2 0.840939 0.391557 0.978585
O O3 0.000000 0.500000 0.000000
O O4 0.982199 0.199048 0.184782
O O5 0.198189 0.197609 0.933282
O O6 0.459330 0.221264 0.894121
O O7 0.848629 0.621041 0.484261
O O8 0.000000 0.500000 0.500000
O O9 0.325779 0.838823 0.381724
O O10 0.654515 0.814527 0.282780
O O11 0.674390 0.000000 0.190853
O O12 0.109631 0.181969 0.307711
O O13 0.420110 0.000000 0.143757
O O14 0.500000 0.159286 0.000000
O O15 0.000000 0.742989 0.500000
O O16 0.500000 0.188701 0.500000
O O17 0.260543 0.000000 0.684295
#
# Coordination Sequence:
#
# PCOD8065660 Si02
#       7
#     2   4   2   4   4   4   4
#     4  12  24  42  69 100 133 178 225 280 336 387
#     4  12  23  42  65  93 128 168 223 270 325 391
#     4  10  20  40  64  94 131 174 215 277 340 385
#     4  11  21  35  62  93 122 159 210 269 324 388
#     4  11  25  42  65  97 136 175 212 270 342 404
#     4  11  21  38  63  94 126 162 217 267 326 389
#     4  10  23  40  61  89 126 168 209 264 333 396
#
# _framework density 20.504929000000001
#
# number of rings (size 3 to 8) (size 9 to 14) (size 15 to 20)
#    0.000    1.000    3.333    4.500    2.333    2.000 
#    0.000    2.083    0.000    0.000    0.000    0.000 
#    0.000    0.000    0.000    0.000    0.000    0.000 
#
# Total GULP energy -297549.022750 kJ/mol
# GULP energy per Si atom -12397.875948 kJ/mol
# Density = 2.045826 g / cm^3
# Si number density = 20.504929 Si / 1000 Ang^3
#
#
#
# Elastic Constant Matrix: (Units=GPa)
#
#
# Indices 1 2 3 4 5 6 
#
# 1 53.4528 25.5998 19.9381 0.0000 -0.7632 0.0000
# 2 25.5998 88.7513 39.3246 0.0000 10.3798 0.0000
# 3 19.9381 39.3246 154.7385 0.0000 2.0717 0.0000
# 4 0.0000 0.0000 0.0000 21.4224 0.0000 -4.5520
# 5 -0.7632 10.3798 2.0717 0.0000 35.4306 0.0000
# 6 0.0000 0.0000 0.0000 -4.5520 0.0000 12.5137
#
#
#
# Elastic Compliance Matrix: (Units=1/GPa)
#
#
# Indices 1 2 3 4 5 6 
#
# 1 0.022148 -0.006066 -0.001343 0.000000 0.002333 0.000000
# 2 -0.006066 0.014817 -0.002926 0.000000 -0.004300 0.000000
# 3 -0.001343 -0.002926 0.007374 0.000000 0.000397 0.000000
# 4 0.000000 0.000000 0.000000 0.050591 0.000000 0.018403
# 5 0.002333 -0.004300 0.000397 0.000000 0.029511 0.000000
# 6 0.000000 0.000000 0.000000 0.018403 0.000000 0.086607
#
#
# Mechanical properties :
#
#
# Convention : Reuss Voigt Hill
#
# Bulk Modulus (GPa) = 42.25282 51.85193 47.05238
# Shear Modulus (GPa) = 20.86751 28.01200 24.43976
#
# Velocity S-wave (km/s) = 3.19358 3.70010 3.45613
# Velocity P-wave (km/s) = 5.85231 6.60279 6.23884
#
# Compressibility (1/GPa) = 0.02366706
#
# Stress axis : x y z
#
# Youngs Moduli (GPa) = 45.15158 67.49157 135.61222
#
# Poissons Ratio (x) = 0.40940 0.18218
# Poissons Ratio (y) = 0.27389 0.39684
# Poissons Ratio (z) = 0.06066 0.19750
#
# Static dielectric constant tensor:
#      x y z
#    x 3.795460 0.000000 -0.320090 
#    y 0.000000 3.930270 0.000000 
#    z -0.320090 0.000000 4.069000 
# 
# 
# High freq. dielectric constant tensor:
#      x y z
#    x 1.789290 0.000000 -0.019570 
#    y 0.000000 1.803110 0.000000 
#    z -0.019570 0.000000 1.812870 
# 
# From -- ./inp_files/85180.got.cif
#   From: 2010.06.25/outbox.cif.g09.slc.cpg/sg10_43_cif.got.tgz:85180.got - 2010.06.27 22:07:45.
