data_PCOD8065889
_publ_section_title
;
Structure prediction by ZEFSAII (Michael W. Deem and Ramdas Pophale) SiO2 
 PCOD8065889
Probable space group: P 2/M
;
_chemical_formula_sum "Si O2"
_cell_formula_units_Z 28
_cell_length_a 9.567484
_cell_length_b 14.268011
_cell_length_c 11.953971
_cell_angle_alpha 90.000000
_cell_angle_beta 77.846741
_cell_angle_gamma 90.000000
_cell_volume 1595.251730
_symmetry_space_group_name_H-M "P 2/M"
_symmetry_group_IT_number 10
_symmetry_cell_setting 'monoclinic'
loop_
_space_group_symop_operation_xyz
x,y,z
-x,y,-z
-x,-y,-z
x,-y,z
loop_
_atom_site_type_symbol
_atom_site_label
_atom_site_fract_x
_atom_site_fract_y
_atom_site_fract_z
Si Si1 0.157908 0.791319 0.509559
Si Si2 0.290524 0.602426 0.451464
Si Si3 0.589616 0.111363 0.659735
Si Si4 0.592469 0.602330 0.319310
Si Si5 0.294983 0.206126 0.719497
Si Si6 0.377956 0.108869 0.096807
Si Si7 0.154925 0.109019 0.953987
O O1 0.176331 0.685854 0.457460
O O2 0.278668 0.859146 0.439697
O O3 0.176108 0.794709 0.641159
O O4 0.000000 0.826497 0.500000
O O5 0.218120 0.500000 0.442890
O O6 0.420968 0.616738 0.342271
O O7 0.358269 0.606418 0.561731
O O8 0.439965 0.158196 0.646963
O O9 0.624668 0.150188 0.778310
O O10 0.572311 0.000000 0.655397
O O11 0.632610 0.500000 0.260474
O O12 0.671509 0.687789 0.243907
O O13 0.237873 0.153773 0.837211
O O14 0.415143 0.000000 0.102650
O O15 0.500000 0.157244 0.000000
O O16 0.229137 0.126614 0.060384
O O17 0.144947 0.000000 0.925853
O O18 0.000000 0.154081 0.000000
#
# Coordination Sequence:
#
# PCOD8065889 Si02
#       7
#     4   4   4   4   4   4   4
#     4  11  24  35  47  77 113 141 169 206 260 321
#     4   8  14  29  51  73 100 132 168 212 254 295
#     4  11  22  36  54  73 102 141 178 214 253 307
#     4   8  14  27  51  78  99 126 169 215 252 296
#     4  11  20  35  56  77 102 137 177 212 256 314
#     4   9  17  33  54  75  94 123 175 223 255 287
#     4  10  21  35  54  78 103 131 172 223 261 296
#
# _framework density 17.552088000000001
#
# number of rings (size 3 to 8) (size 9 to 14) (size 15 to 20)
#    0.000    2.286    2.857    1.714    2.000    2.286 
#    0.000    0.000    0.000    0.429    0.000    3.000 
#    0.000    0.000    0.000    0.000    0.000    0.000 
#
# Total GULP energy -346997.148770 kJ/mol
# GULP energy per Si atom -12392.755313 kJ/mol
# Density = 1.751214 g / cm^3
# Si number density = 17.552088 Si / 1000 Ang^3
#
#
#
# Elastic Constant Matrix: (Units=GPa)
#
#
# Indices 1 2 3 4 5 6 
#
# 1 83.3841 28.6182 16.9418 0.0000 -8.0299 0.0000
# 2 28.6182 80.4844 15.4518 0.0000 -0.2798 0.0000
# 3 16.9418 15.4518 45.8219 0.0000 2.0589 0.0000
# 4 0.0000 0.0000 0.0000 9.9371 0.0000 -4.7094
# 5 -8.0299 -0.2798 2.0589 0.0000 23.6389 0.0000
# 6 0.0000 0.0000 0.0000 -4.7094 0.0000 18.4987
#
#
#
# Elastic Compliance Matrix: (Units=1/GPa)
#
#
# Indices 1 2 3 4 5 6 
#
# 1 0.014907 -0.004466 -0.004247 0.000000 0.005381 0.000000
# 2 -0.004466 0.014630 -0.003234 0.000000 -0.001062 0.000000
# 3 -0.004247 -0.003234 0.024648 0.000000 -0.003628 0.000000
# 4 0.000000 0.000000 0.000000 0.114441 0.000000 0.029134
# 5 0.005381 -0.001062 -0.003628 0.000000 0.044434 0.000000
# 6 0.000000 0.000000 0.000000 0.029134 0.000000 0.061475
#
#
# Mechanical properties :
#
#
# Convention : Reuss Voigt Hill
#
# Bulk Modulus (GPa) = 33.01564 36.85712 34.93638
# Shear Modulus (GPa) = 16.20606 20.32683 18.26645
#
# Velocity S-wave (km/s) = 3.04190 3.40676 3.22949
# Velocity P-wave (km/s) = 5.58467 6.04309 5.81840
#
# Compressibility (1/GPa) = 0.03028868
#
# Stress axis : x y z
#
# Youngs Moduli (GPa) = 67.08403 68.35192 40.57181
#
# Poissons Ratio (x) = 0.30528 0.17231
# Poissons Ratio (y) = 0.29962 0.13123
# Poissons Ratio (z) = 0.28491 0.22108
#
# Static dielectric constant tensor:
#      x y z
#    x 3.245830 0.000000 -0.003280 
#    y 0.000000 3.506460 0.000000 
#    z -0.003280 0.000000 3.078290 
# 
# 
# High freq. dielectric constant tensor:
#      x y z
#    x 1.670640 0.000000 -0.002180 
#    y 0.000000 1.669760 0.000000 
#    z -0.002180 0.000000 1.650840 
# 
# From -- ./inp_files/24951.got.cif
#   From: 2010.06.25/outbox.cif.g09.slc.cpg/sg10_13_cif.got.tgz:24951.got - 2010.06.27 22:07:45.
