data_PCOD8065134
_publ_section_title
;
Structure prediction by ZEFSAII (Michael W. Deem and Ramdas Pophale) SiO2 
 PCOD8065134
Probable space group: P 2/M
;
_chemical_formula_sum "Si O2"
_cell_formula_units_Z 32
_cell_length_a 21.866143
_cell_length_b 8.891642
_cell_length_c 9.161516
_cell_angle_alpha 90.000000
_cell_angle_beta 89.970675
_cell_angle_gamma 90.000000
_cell_volume 1781.235902
_symmetry_space_group_name_H-M "P 2/M"
_symmetry_group_IT_number 10
_symmetry_cell_setting 'monoclinic'
loop_
_space_group_symop_operation_xyz
x,y,z
-x,y,-z
-x,-y,-z
x,-y,z
loop_
_atom_site_type_symbol
_atom_site_label
_atom_site_fract_x
_atom_site_fract_y
_atom_site_fract_z
Si Si1 0.988190 0.326864 0.833576
Si Si2 0.218768 0.677106 0.844845
Si Si3 0.675371 0.323530 0.360856
Si Si4 0.227629 0.321495 0.170252
Si Si5 0.118290 0.177440 0.337832
Si Si6 0.567067 0.828258 0.475984
Si Si7 0.890872 0.675022 0.352847
Si Si8 0.680650 0.171300 0.645980
O O1 0.966464 0.500000 0.824024
O O2 0.935022 0.222002 0.773157
O O3 0.048809 0.299639 0.741272
O O4 0.000000 0.280279 0.000000
O O5 0.209481 0.500000 0.851892
O O6 0.285942 0.718382 0.782826
O O7 0.165671 0.742094 0.740873
O O8 0.213375 0.741855 0.008404
O O9 0.674101 0.500000 0.389084
O O10 0.605225 0.261518 0.350372
O O11 0.709318 0.244198 0.498177
O O12 0.224737 0.500000 0.174982
O O13 0.181089 0.252192 0.285939
O O14 0.295652 0.265827 0.215444
O O15 0.101693 0.233736 0.498761
O O16 0.126108 0.000000 0.339252
O O17 0.500000 0.756037 0.500000
O O18 0.606334 0.819078 0.627798
O O19 0.560170 0.000000 0.422854
O O20 0.881007 0.500000 0.391136
O O21 0.702867 0.000000 0.660397
#
# Coordination Sequence:
#
# PCOD8065134 Si02
#       8
#     4   4   4   4   4   4   4   4
#     4  10  21  39  62  84 106 138 181 223 266 320
#     4   9  19  34  54  79 105 134 173 222 270 316
#     4   9  16  29  51  79 106 135 174 217 259 307
#     4  11  21  36  56  77 104 140 180 220 268 320
#     4  12  25  38  54  79 111 142 177 222 270 318
#     4   8  16  31  51  76 110 145 176 216 261 307
#     4  10  20  37  60  81 104 138 180 221 264 317
#     4   9  18  32  50  77 108 136 173 215 260 313
#
# _framework density 17.965053999999999
#
# number of rings (size 3 to 8) (size 9 to 14) (size 15 to 20)
#    0.750    1.500    0.000    3.750    0.000    5.500 
#    0.000    5.000    0.000    0.750    0.000    5.250 
#    0.000    0.000    0.000    0.000    0.000    0.000 
#
# Total GULP energy -396610.908552 kJ/mol
# GULP energy per Si atom -12394.090892 kJ/mol
# Density = 1.792416 g / cm^3
# Si number density = 17.965054 Si / 1000 Ang^3
#
#
#
# Elastic Constant Matrix: (Units=GPa)
#
#
# Indices 1 2 3 4 5 6 
#
# 1 99.3914 37.9400 38.3926 0.0000 4.3999 0.0000
# 2 37.9400 82.8553 39.1628 0.0000 2.6143 0.0000
# 3 38.3926 39.1628 108.8809 0.0000 9.1707 0.0000
# 4 0.0000 0.0000 0.0000 7.4060 0.0000 8.1314
# 5 4.3999 2.6143 9.1707 0.0000 18.4889 0.0000
# 6 0.0000 0.0000 0.0000 8.1314 0.0000 25.7852
#
#
#
# Elastic Compliance Matrix: (Units=1/GPa)
#
#
# Indices 1 2 3 4 5 6 
#
# 1 0.012941 -0.004551 -0.002840 0.000000 -0.001028 0.000000
# 2 -0.004551 0.016148 -0.004281 0.000000 0.000923 0.000000
# 3 -0.002840 -0.004281 0.012124 0.000000 -0.004733 0.000000
# 4 0.000000 0.000000 0.000000 0.206540 0.000000 -0.065133
# 5 -0.001028 0.000923 -0.004733 0.000000 0.056548 0.000000
# 6 0.000000 0.000000 0.000000 -0.065133 0.000000 0.059322
#
#
# Mechanical properties :
#
#
# Convention : Reuss Voigt Hill
#
# Bulk Modulus (GPa) = 55.96266 58.01314 56.98790
# Shear Modulus (GPa) = 12.72519 22.04484 17.38502
#
# Velocity S-wave (km/s) = 2.66434 3.50679 3.11418
# Velocity P-wave (km/s) = 6.37835 6.98277 6.68739
#
# Compressibility (1/GPa) = 0.01786906
#
# Stress axis : x y z
#
# Youngs Moduli (GPa) = 77.27474 61.92876 82.48079
#
# Poissons Ratio (x) = 0.28184 0.23421
# Poissons Ratio (y) = 0.35169 0.35310
# Poissons Ratio (z) = 0.21943 0.26512
#
# Static dielectric constant tensor:
#      x y z
#    x 3.381180 0.000000 0.062260 
#    y 0.000000 3.199680 0.000000 
#    z 0.062260 0.000000 3.313160 
# 
# 
# High freq. dielectric constant tensor:
#      x y z
#    x 1.693900 0.000000 0.003250 
#    y 0.000000 1.685780 0.000000 
#    z 0.003250 0.000000 1.683270 
# 
# From -- ./inp_files/35691.got.cif
#   From: 2010.06.25/outbox.cif.g09.slc.cpg/sg10_18_cif.got.tgz:35691.got - 2010.06.27 22:07:45.
