data_PCOD8065938
_publ_section_title
;
Structure prediction by ZEFSAII (Michael W. Deem and Ramdas Pophale) SiO2 
 PCOD8065938
Probable space group: P 2/M
;
_chemical_formula_sum "Si O2"
_cell_formula_units_Z 20
_cell_length_a 16.198444
_cell_length_b 14.375058
_cell_length_c 8.632266
_cell_angle_alpha 90.000000
_cell_angle_beta 29.679607
_cell_angle_gamma 90.000000
_cell_volume 995.277158
_symmetry_space_group_name_H-M "P 2/M"
_symmetry_group_IT_number 10
_symmetry_cell_setting 'monoclinic'
loop_
_space_group_symop_operation_xyz
x,y,z
-x,y,-z
-x,-y,-z
x,-y,z
loop_
_atom_site_type_symbol
_atom_site_label
_atom_site_fract_x
_atom_site_fract_y
_atom_site_fract_z
Si Si1 0.394667 0.683596 0.815997
Si Si2 0.093769 0.258184 0.120827
Si Si3 0.797513 0.394478 0.607457
Si Si4 0.691629 0.741818 0.522971
Si Si5 0.110331 0.102362 0.669013
O O1 0.500000 0.639916 0.500000
O O2 0.513984 0.748204 0.726932
O O3 0.245095 0.748203 0.995820
O O4 0.316100 0.603694 0.051697
O O5 0.971522 0.343355 0.360860
O O6 0.993767 0.160604 0.289821
O O7 0.159980 0.276675 0.840018
O O8 0.833837 0.500000 0.498475
O O9 0.696088 0.343353 0.636303
O O10 0.722636 0.839399 0.560954
O O11 0.158287 0.000000 0.525140
O O12 0.000000 0.088791 0.000000
#
# Coordination Sequence:
#
# PCOD8065938 Si02
#       5
#     4   4   4   4   4
#     4  10  21  36  52  74 107 140 172 216 265 306
#     4   9  19  35  55  79 107 138 172 214 260 307
#     4  11  22  36  55  76 101 139 181 216 256 311
#     4   9  19  35  55  79 107 138 172 214 260 307
#     4   8  14  29  55  82 106 136 173 209 251 307
#
# _framework density 20.094906000000002
#
# number of rings (size 3 to 8) (size 9 to 14) (size 15 to 20)
#    0.000    2.600    0.000    3.000    0.000    5.200 
#    0.000    5.000    0.000   25.200    0.000    0.000 
#    0.000    0.000    0.000    0.000    0.000    0.000 
#
# Total GULP energy -247864.889219 kJ/mol
# GULP energy per Si atom -12393.244461 kJ/mol
# Density = 2.004917 g / cm^3
# Si number density = 20.094906 Si / 1000 Ang^3
#
#
#
# Elastic Constant Matrix: (Units=GPa)
#
#
# Indices 1 2 3 4 5 6 
#
# 1 145.2879 64.9720 48.3516 0.0000 -34.9223 0.0000
# 2 64.9720 175.2114 42.6102 0.0000 -11.4359 0.0000
# 3 48.3516 42.6102 84.0500 0.0000 3.5930 0.0000
# 4 0.0000 0.0000 0.0000 13.5274 0.0000 4.6308
# 5 -34.9223 -11.4359 3.5930 0.0000 34.0422 0.0000
# 6 0.0000 0.0000 0.0000 4.6308 0.0000 4.4791
#
#
#
# Elastic Compliance Matrix: (Units=1/GPa)
#
#
# Indices 1 2 3 4 5 6 
#
# 1 0.013784 -0.002414 -0.007309 0.000000 0.014101 0.000000
# 2 -0.002414 0.007160 -0.002249 0.000000 0.000167 0.000000
# 3 -0.007309 -0.002249 0.017675 0.000000 -0.010119 0.000000
# 4 0.000000 0.000000 0.000000 0.114419 0.000000 -0.118294
# 5 0.014101 0.000167 -0.010119 0.000000 0.044965 0.000000
# 6 0.000000 0.000000 0.000000 -0.118294 0.000000 0.345562
#
#
# Mechanical properties :
#
#
# Convention : Reuss Voigt Hill
#
# Bulk Modulus (GPa) = 68.13385 79.60189 73.86787
# Shear Modulus (GPa) = 8.73518 26.98410 17.85964
#
# Velocity S-wave (km/s) = 2.08720 3.66844 2.98445
# Velocity P-wave (km/s) = 6.30779 7.59225 6.97963
#
# Compressibility (1/GPa) = 0.01467699
#
# Stress axis : x y z
#
# Youngs Moduli (GPa) = 72.54812 139.66257 56.57814
#
# Poissons Ratio (x) = 0.33709 0.41351
# Poissons Ratio (y) = 0.17510 0.12722
# Poissons Ratio (z) = 0.53023 0.31404
#
# Static dielectric constant tensor:
#      x y z
#    x 3.792230 0.000000 -0.012070 
#    y 0.000000 3.489750 0.000000 
#    z -0.012070 0.000000 3.768620 
# 
# 
# High freq. dielectric constant tensor:
#      x y z
#    x 1.793620 0.000000 -0.004220 
#    y 0.000000 1.745870 0.000000 
#    z -0.004220 0.000000 1.785380 
# 
# From -- ./inp_files/32636.got.cif
#   From: 2010.06.25/outbox.cif.g09.slc.cpg/sg10_17_cif.got.tgz:32636.got - 2010.06.27 22:07:45.
