data_PCOD8065671
_publ_section_title
;
Structure prediction by ZEFSAII (Michael W. Deem and Ramdas Pophale) SiO2 
 PCOD8065671
Probable space group: P 2/M
;
_chemical_formula_sum "Si O2"
_cell_formula_units_Z 20
_cell_length_a 9.331199
_cell_length_b 9.059986
_cell_length_c 11.918858
_cell_angle_alpha 90.000000
_cell_angle_beta 104.270330
_cell_angle_gamma 90.000000
_cell_volume 976.534777
_symmetry_space_group_name_H-M "P 2/M"
_symmetry_group_IT_number 10
_symmetry_cell_setting 'monoclinic'
loop_
_space_group_symop_operation_xyz
x,y,z
-x,y,-z
-x,-y,-z
x,-y,z
loop_
_atom_site_type_symbol
_atom_site_label
_atom_site_fract_x
_atom_site_fract_y
_atom_site_fract_z
Si Si1 0.263454 0.171668 0.279499
Si Si2 0.648744 0.832474 0.097169
Si Si3 0.602440 0.169998 0.344629
Si Si4 0.826323 0.332796 0.959782
Si Si5 0.150270 0.674307 0.467686
O O1 0.433322 0.196571 0.349233
O O2 0.239509 0.232123 0.150610
O O3 0.155006 0.253380 0.345390
O O4 0.223340 0.000000 0.270906
O O5 0.619864 0.785773 0.218762
O O6 0.706524 0.000000 0.100557
O O7 0.500000 0.811870 0.000000
O O8 0.770443 0.724328 0.069198
O O9 0.707783 0.274951 0.435480
O O10 0.646987 0.000000 0.374862
O O11 0.773316 0.500000 0.929526
O O12 0.000000 0.321114 0.000000
O O13 0.154408 0.500000 0.453722
O O14 0.000000 0.725886 0.500000
#
# Coordination Sequence:
#
# PCOD8065671 Si02
#       5
#     4   4   4   4   4
#     4  11  23  43  68  92 121 160 210 258 305 364
#     4  10  20  40  65  93 126 160 205 253 302 362
#     4  10  22  41  66  94 123 159 207 259 304 360
#     4  11  25  41  60  92 132 167 203 250 307 367
#     4  11  26  44  62  90 128 163 202 254 311 368
#
# _framework density 20.480581000000001
#
# number of rings (size 3 to 8) (size 9 to 14) (size 15 to 20)
#    0.000    1.400    2.000    2.400    2.800    8.400 
#    0.000    0.000    0.000    0.000    0.000    0.000 
#    0.000    0.000    0.000    0.000    0.000    0.000 
#
# Total GULP energy -248115.563635 kJ/mol
# GULP energy per Si atom -12405.778182 kJ/mol
# Density = 2.043397 g / cm^3
# Si number density = 20.480581 Si / 1000 Ang^3
#
#
#
# Elastic Constant Matrix: (Units=GPa)
#
#
# Indices 1 2 3 4 5 6 
#
# 1 88.3227 54.3436 14.6066 0.0000 -25.8462 0.0000
# 2 54.3436 101.9219 27.5521 0.0000 -12.0565 0.0000
# 3 14.6066 27.5521 55.3429 0.0000 -14.3264 0.0000
# 4 0.0000 0.0000 0.0000 34.2659 0.0000 -7.4265
# 5 -25.8462 -12.0565 -14.3264 0.0000 38.1376 0.0000
# 6 0.0000 0.0000 0.0000 -7.4265 0.0000 34.4644
#
#
#
# Elastic Compliance Matrix: (Units=1/GPa)
#
#
# Indices 1 2 3 4 5 6 
#
# 1 0.020710 -0.010394 0.002760 0.000000 0.011786 0.000000
# 2 -0.010394 0.016645 -0.006652 0.000000 -0.004281 0.000000
# 3 0.002760 -0.006652 0.022810 0.000000 0.008336 0.000000
# 4 0.000000 0.000000 0.000000 0.030613 0.000000 0.006597
# 5 0.011786 -0.004281 0.008336 0.000000 0.035987 0.000000
# 6 0.000000 0.000000 0.000000 0.006597 0.000000 0.030437
#
#
# Mechanical properties :
#
#
# Convention : Reuss Voigt Hill
#
# Bulk Modulus (GPa) = 31.65207 48.73245 40.19226
# Shear Modulus (GPa) = 25.47048 31.31258 28.39153
#
# Velocity S-wave (km/s) = 3.53035 3.91435 3.72730
# Velocity P-wave (km/s) = 5.66622 6.65399 6.17987
#
# Compressibility (1/GPa) = 0.03159351
#
# Stress axis : x y z
#
# Youngs Moduli (GPa) = 48.28542 60.07729 43.84006
#
# Poissons Ratio (x) = 0.62446 -0.12099
# Poissons Ratio (y) = 0.50189 0.29160
# Poissons Ratio (z) = -0.13326 0.39961
#
# Static dielectric constant tensor:
#      x y z
#    x 3.879720 0.000000 -0.431500 
#    y 0.000000 3.753100 0.000000 
#    z -0.431500 0.000000 4.341960 
# 
# 
# High freq. dielectric constant tensor:
#      x y z
#    x 1.806530 0.000000 -0.011490 
#    y 0.000000 1.802190 0.000000 
#    z -0.011490 0.000000 1.811700 
# 
# From -- ./inp_files/22167.got.cif
#   From: 2010.06.25/outbox.cif.g09.slc.cpg/sg10_12_cif.got.tgz:22167.got - 2010.06.27 22:07:45.
