data_PCOD8065371
_publ_section_title
;
Structure prediction by ZEFSAII (Michael W. Deem and Ramdas Pophale) SiO2 
 PCOD8065371
Probable space group: P 2/M
;
_chemical_formula_sum "Si O2"
_cell_formula_units_Z 16
_cell_length_a 9.744669
_cell_length_b 10.569082
_cell_length_c 9.038101
_cell_angle_alpha 90.000000
_cell_angle_beta 52.935306
_cell_angle_gamma 90.000000
_cell_volume 742.780014
_symmetry_space_group_name_H-M "P 2/M"
_symmetry_group_IT_number 10
_symmetry_cell_setting 'monoclinic'
loop_
_space_group_symop_operation_xyz
x,y,z
-x,y,-z
-x,-y,-z
x,-y,z
loop_
_atom_site_type_symbol
_atom_site_label
_atom_site_fract_x
_atom_site_fract_y
_atom_site_fract_z
Si Si1 0.480234 0.500000 0.692500
Si Si2 0.004151 0.253063 0.671049
Si Si3 0.293718 0.000000 0.885277
Si Si4 0.907755 0.000000 0.261058
Si Si5 0.861318 0.500000 0.458734
Si Si6 0.371085 0.264395 0.949295
O O1 0.500000 0.500000 0.500000
O O2 0.668084 0.500000 0.646152
O O3 0.385882 0.373162 0.814109
O O4 0.111067 0.374931 0.660360
O O5 0.000000 0.263971 0.500000
O O6 0.110600 0.126663 0.632422
O O7 0.819804 0.261373 0.864311
O O8 0.260401 0.000000 0.732409
O O9 0.402967 0.875894 0.860743
O O10 0.098305 0.000000 0.070277
O O11 0.000000 0.500000 0.500000
O O12 0.500000 0.291044 0.000000
#
# Coordination Sequence:
#
# PCOD8065371 Si02
#       6
#     2   4   2   2   2   4
#     4  12  28  44  65  97 135 167 217 271 328 376
#     4  10  20  37  67  95 123 168 217 258 313 387
#     4   9  21  38  62  95 125 168 213 261 318 385
#     4   9  19  36  59  92 135 157 208 267 318 370
#     4  10  21  40  62  89 124 163 217 255 303 384
#     4  11  22  43  68  93 131 170 209 264 324 382
#
# _framework density 21.540697000000002
#
# number of rings (size 3 to 8) (size 9 to 14) (size 15 to 20)
#    0.000    1.750    0.000    4.875    3.500    0.000 
#    0.000    5.625    0.000    0.000    0.000    0.000 
#    0.000    0.000    0.000    0.000    0.000    0.000 
#
# Total GULP energy -198234.964691 kJ/mol
# GULP energy per Si atom -12389.685293 kJ/mol
# Density = 2.149167 g / cm^3
# Si number density = 21.540697 Si / 1000 Ang^3
#
#
#
# Elastic Constant Matrix: (Units=GPa)
#
#
# Indices 1 2 3 4 5 6 
#
# 1 63.1294 38.8014 29.5008 0.0000 14.2680 0.0000
# 2 38.8014 245.8650 64.7526 0.0000 17.3489 0.0000
# 3 29.5008 64.7526 91.6614 0.0000 7.6622 0.0000
# 4 0.0000 0.0000 0.0000 59.3544 0.0000 0.0883
# 5 14.2680 17.3489 7.6622 0.0000 32.2241 0.0000
# 6 0.0000 0.0000 0.0000 0.0883 0.0000 58.0953
#
#
#
# Elastic Compliance Matrix: (Units=1/GPa)
#
#
# Indices 1 2 3 4 5 6 
#
# 1 0.020707 -0.001429 -0.005053 0.000000 -0.007198 0.000000
# 2 -0.001429 0.005211 -0.003101 0.000000 -0.001435 0.000000
# 3 -0.005053 -0.003101 0.014692 0.000000 0.000414 0.000000
# 4 0.000000 0.000000 0.000000 0.016848 0.000000 -0.000026
# 5 -0.007198 -0.001435 0.000414 0.000000 0.034894 0.000000
# 6 0.000000 0.000000 0.000000 -0.000026 0.000000 0.017213
#
#
# Mechanical properties :
#
#
# Convention : Reuss Voigt Hill
#
# Bulk Modulus (GPa) = 46.63510 74.08506 60.36008
# Shear Modulus (GPa) = 36.79718 47.77482 42.28600
#
# Velocity S-wave (km/s) = 4.13760 4.71455 4.43547
# Velocity P-wave (km/s) = 6.67256 8.00648 7.36976
#
# Compressibility (1/GPa) = 0.02144308
#
# Stress axis : x y z
#
# Youngs Moduli (GPa) = 48.29275 191.90776 68.06308
#
# Poissons Ratio (x) = 0.27427 0.34394
# Poissons Ratio (y) = 0.06902 0.21107
# Poissons Ratio (z) = 0.24403 0.59514
#
# Static dielectric constant tensor:
#      x y z
#    x 3.759240 0.000000 0.004500 
#    y 0.000000 5.994600 0.000000 
#    z 0.004500 0.000000 3.679510 
# 
# 
# High freq. dielectric constant tensor:
#      x y z
#    x 1.831070 0.000000 -0.001790 
#    y 0.000000 1.881830 0.000000 
#    z -0.001790 0.000000 1.828470 
# 
# From -- ./inp_files/17621.got.cif
#   From: 2010.06.25/outbox.cif.g09.slc.cpg/sg10_9_cif.got.tgz:17621.got - 2010.06.27 22:07:45.
