data_PCOD8065711
_publ_section_title
;
Structure prediction by ZEFSAII (Michael W. Deem and Ramdas Pophale) SiO2 
 PCOD8065711
Probable space group: P 2/M
;
_chemical_formula_sum "Si O2"
_cell_formula_units_Z 28
_cell_length_a 16.653590
_cell_length_b 9.067580
_cell_length_c 14.290626
_cell_angle_alpha 90.000000
_cell_angle_beta 132.082687
_cell_angle_gamma 90.000000
_cell_volume 1601.617561
_symmetry_space_group_name_H-M "P 2/M"
_symmetry_group_IT_number 10
_symmetry_cell_setting 'monoclinic'
loop_
_space_group_symop_operation_xyz
x,y,z
-x,y,-z
-x,-y,-z
x,-y,z
loop_
_atom_site_type_symbol
_atom_site_label
_atom_site_fract_x
_atom_site_fract_y
_atom_site_fract_z
Si Si1 0.781945 0.675699 0.528531
Si Si2 0.296369 0.673717 0.813729
Si Si3 0.102158 0.675115 0.197125
Si Si4 0.337557 0.324447 0.055797
Si Si5 0.572645 0.673821 0.263503
Si Si6 0.862434 0.324428 0.982025
Si Si7 0.123225 0.833349 0.568952
O O1 0.790830 0.500000 0.528719
O O2 0.819871 0.734987 0.659647
O O3 0.658567 0.728620 0.409367
O O4 0.862219 0.742975 0.515076
O O5 0.273487 0.500000 0.792593
O O6 0.332368 0.726215 0.944186
O O7 0.387381 0.719287 0.809023
O O8 0.186350 0.757369 0.703356
O O9 0.102446 0.500000 0.197770
O O10 0.147946 0.731752 0.133317
O O11 0.977879 0.729557 0.114216
O O12 0.333949 0.500000 0.059266
O O13 0.451729 0.262436 0.186363
O O14 0.236949 0.256927 0.035711
O O15 0.564858 0.500000 0.262668
O O16 0.857817 0.500000 0.981164
O O17 0.000000 0.830096 0.500000
O O18 0.165039 0.000000 0.587138
#
# Coordination Sequence:
#
# PCOD8065711 Si02
#       7
#     4   4   4   4   4   4   4
#     4   9  17  29  48  66  85 117 150 181 216 258
#     4   9  17  28  45  66  87 116 152 184 212 252
#     4   8  14  25  39  59  90 117 143 181 225 259
#     4   9  15  23  40  64  90 118 149 180 220 262
#     4   8  14  25  38  60  90 116 144 183 221 253
#     4   8  14  23  36  60  91 118 142 180 225 263
#     4  10  21  33  43  62  93 120 142 177 223 266
#
# _framework density 17.482326
#
# number of rings (size 3 to 8) (size 9 to 14) (size 15 to 20)
#    0.000    3.286    0.000    2.571    2.000    2.857 
#    0.000    0.714    0.000   11.143    0.000    3.000 
#    0.000    4.571    0.000    0.000    0.000    0.000 
#
# Total GULP energy -346951.461236 kJ/mol
# GULP energy per Si atom -12391.123616 kJ/mol
# Density = 1.744254 g / cm^3
# Si number density = 17.482326 Si / 1000 Ang^3
#
#
#
# Elastic Constant Matrix: (Units=GPa)
#
#
# Indices 1 2 3 4 5 6 
#
# 1 118.0977 8.4392 87.7099 0.0000 11.2179 0.0000
# 2 8.4392 17.4346 15.1206 0.0000 1.9704 0.0000
# 3 87.7099 15.1206 168.1460 0.0000 -2.9064 0.0000
# 4 0.0000 0.0000 0.0000 3.9678 0.0000 2.5296
# 5 11.2179 1.9704 -2.9064 0.0000 25.1154 0.0000
# 6 0.0000 0.0000 0.0000 2.5296 0.0000 6.5932
#
#
#
# Elastic Compliance Matrix: (Units=1/GPa)
#
#
# Indices 1 2 3 4 5 6 
#
# 1 0.015185 0.000557 -0.008105 0.000000 -0.007764 0.000000
# 2 0.000557 0.063008 -0.006058 0.000000 -0.005893 0.000000
# 3 -0.008105 -0.006058 0.010812 0.000000 0.005347 0.000000
# 4 0.000000 0.000000 0.000000 0.333636 0.000000 -0.128007
# 5 -0.007764 -0.005893 0.005347 0.000000 0.044365 0.000000
# 6 0.000000 0.000000 0.000000 -0.128007 0.000000 0.200784
#
#
# Mechanical properties :
#
#
# Convention : Reuss Voigt Hill
#
# Bulk Modulus (GPa) = 16.18345 58.46866 37.32605
# Shear Modulus (GPa) = 6.98713 19.96253 13.47483
#
# Velocity S-wave (km/s) = 2.00134 3.38282 2.77928
# Velocity P-wave (km/s) = 3.82330 6.98391 5.62995
#
# Compressibility (1/GPa) = 0.06179152
#
# Stress axis : x y z
#
# Youngs Moduli (GPa) = 65.85513 15.87104 92.48747
#
# Poissons Ratio (x) = -0.00883 0.74962
# Poissons Ratio (y) = -0.03665 0.56031
# Poissons Ratio (z) = 0.53376 0.09615
#
# Static dielectric constant tensor:
#      x y z
#    x 3.437270 0.000000 0.037060 
#    y 0.000000 2.732290 0.000000 
#    z 0.037060 0.000000 3.792080 
# 
# 
# High freq. dielectric constant tensor:
#      x y z
#    x 1.668040 0.000000 0.006260 
#    y 0.000000 1.610200 0.000000 
#    z 0.006260 0.000000 1.686910 
# 
# From -- ./inp_files/66644.got.cif
#   From: 2010.06.25/outbox.cif.g09.slc.cpg/sg10_34_cif.got.tgz:66644.got - 2010.06.27 22:07:45.
