data_PCOD8065724
_publ_section_title
;
Structure prediction by ZEFSAII (Michael W. Deem and Ramdas Pophale) SiO2 
 PCOD8065724
Probable space group: P 2/M
;
_chemical_formula_sum "Si O2"
_cell_formula_units_Z 32
_cell_length_a 14.568118
_cell_length_b 14.738115
_cell_length_c 11.965909
_cell_angle_alpha 90.000000
_cell_angle_beta 142.722160
_cell_angle_gamma 90.000000
_cell_volume 1556.090380
_symmetry_space_group_name_H-M "P 2/M"
_symmetry_group_IT_number 10
_symmetry_cell_setting 'monoclinic'
loop_
_space_group_symop_operation_xyz
x,y,z
-x,y,-z
-x,-y,-z
x,-y,z
loop_
_atom_site_type_symbol
_atom_site_label
_atom_site_fract_x
_atom_site_fract_y
_atom_site_fract_z
Si Si1 0.698863 0.897897 0.024500
Si Si2 0.343501 0.346633 0.832973
Si Si3 0.385371 0.194457 0.694644
Si Si4 0.353436 0.655519 0.496417
Si Si5 0.830859 0.286555 0.121790
Si Si6 0.314805 0.396027 0.213504
Si Si7 0.112878 0.598311 0.436420
Si Si8 0.153058 0.100710 0.602500
O O1 0.525162 0.874857 0.827737
O O2 0.734866 0.000000 0.013270
O O3 0.814083 0.822210 0.082830
O O4 0.719260 0.897924 0.177974
O O5 0.402336 0.266867 0.809470
O O6 0.289975 0.308734 0.899704
O O7 0.206002 0.400488 0.643038
O O8 0.500000 0.405188 0.000000
O O9 0.373738 0.242134 0.562224
O O10 0.224464 0.145062 0.561208
O O11 0.512800 0.603419 0.662827
O O12 0.300821 0.656969 0.317196
O O13 0.228856 0.602321 0.446539
O O14 0.998442 0.316831 0.322275
O O15 0.794662 0.343305 0.976215
O O16 0.260014 0.500000 0.172518
O O17 0.029332 0.500000 0.350652
O O18 0.000000 0.151511 0.500000
O O19 0.103117 0.000000 0.518940
#
# Coordination Sequence:
#
# PCOD8065724 Si02
#       8
#     4   4   4   4   4   4   4   4
#     4  11  22  37  59  89 124 164 208 254 308 374
#     4  11  21  37  60  88 125 167 203 248 299 377
#     4  11  19  37  60  87 125 163 201 254 312 374
#     4  10  22  39  64  90 119 157 206 260 313 367
#     4  12  23  39  60  90 125 165 208 255 318 373
#     4  11  22  41  67  89 120 158 213 270 311 372
#     4  11  25  40  60  90 128 166 203 253 314 379
#     4  10  21  33  56  93 127 162 205 253 311 380
#
# _framework density 20.564357000000001
#
# number of rings (size 3 to 8) (size 9 to 14) (size 15 to 20)
#    0.000    1.125    3.750    3.750    3.500    3.250 
#    0.000    1.250    0.000    2.250    0.000    0.875 
#    0.000    0.000    0.000    0.000    0.000    0.000 
#
# Total GULP energy -396625.006192 kJ/mol
# GULP energy per Si atom -12394.531443 kJ/mol
# Density = 2.051755 g / cm^3
# Si number density = 20.564357 Si / 1000 Ang^3
#
#
#
# Elastic Constant Matrix: (Units=GPa)
#
#
# Indices 1 2 3 4 5 6 
#
# 1 59.7854 40.9388 34.5276 0.0000 -6.7586 0.0000
# 2 40.9388 138.4061 49.7022 0.0000 2.6674 0.0000
# 3 34.5276 49.7022 100.2636 0.0000 -1.2800 0.0000
# 4 0.0000 0.0000 0.0000 25.1822 0.0000 5.1532
# 5 -6.7586 2.6674 -1.2800 0.0000 36.5499 0.0000
# 6 0.0000 0.0000 0.0000 5.1532 0.0000 25.8986
#
#
#
# Elastic Compliance Matrix: (Units=1/GPa)
#
#
# Indices 1 2 3 4 5 6 
#
# 1 0.024063 -0.005173 -0.005663 0.000000 0.004629 0.000000
# 2 -0.005173 0.009925 -0.003161 0.000000 -0.001792 0.000000
# 3 -0.005663 -0.003161 0.013487 0.000000 -0.000344 0.000000
# 4 0.000000 0.000000 0.000000 0.041396 0.000000 -0.008237
# 5 0.004629 -0.001792 -0.000344 0.000000 0.028334 0.000000
# 6 0.000000 0.000000 0.000000 -0.008237 0.000000 0.040251
#
#
# Mechanical properties :
#
#
# Convention : Reuss Voigt Hill
#
# Bulk Modulus (GPa) = 51.33628 60.97692 56.15660
# Shear Modulus (GPa) = 26.04930 29.07859 27.56395
#
# Velocity S-wave (km/s) = 3.56296 3.76444 3.66508
# Velocity P-wave (km/s) = 6.47643 6.97214 6.72885
#
# Compressibility (1/GPa) = 0.01947940
#
# Stress axis : x y z
#
# Youngs Moduli (GPa) = 41.55838 100.75532 74.14753
#
# Poissons Ratio (x) = 0.52121 0.41989
# Poissons Ratio (y) = 0.21498 0.23441
# Poissons Ratio (z) = 0.23534 0.31853
#
# Static dielectric constant tensor:
#      x y z
#    x 3.652470 0.000000 0.115860 
#    y 0.000000 3.859260 0.000000 
#    z 0.115860 0.000000 3.736130 
# 
# 
# High freq. dielectric constant tensor:
#      x y z
#    x 1.784250 0.000000 0.019850 
#    y 0.000000 1.799150 0.000000 
#    z 0.019850 0.000000 1.800140 
# 
# From -- ./inp_files/51661.got.cif
#   From: 2010.06.25/outbox.cif.g09.slc.cpg/sg10_26_cif.got.tgz:51661.got - 2010.06.27 22:07:45.
