data_PCOD8065085
_publ_section_title
;
Structure prediction by ZEFSAII (Michael W. Deem and Ramdas Pophale) SiO2 
 PCOD8065085
Probable space group: P 2/M
;
_chemical_formula_sum "Si O2"
_cell_formula_units_Z 32
_cell_length_a 13.839352
_cell_length_b 13.993321
_cell_length_c 9.394414
_cell_angle_alpha 90.000000
_cell_angle_beta 60.830163
_cell_angle_gamma 90.000000
_cell_volume 1588.581219
_symmetry_space_group_name_H-M "P 2/M"
_symmetry_group_IT_number 10
_symmetry_cell_setting 'monoclinic'
loop_
_space_group_symop_operation_xyz
x,y,z
-x,y,-z
-x,-y,-z
x,-y,z
loop_
_atom_site_type_symbol
_atom_site_label
_atom_site_fract_x
_atom_site_fract_y
_atom_site_fract_z
Si Si1 0.380937 0.888861 0.634558
Si Si2 0.734628 0.388554 0.516338
Si Si3 0.043055 0.719550 0.627899
Si Si4 0.408300 0.769605 0.870996
Si Si5 0.323040 0.390791 0.760081
Si Si6 0.912603 0.392334 0.938036
Si Si7 0.199504 0.887876 0.528899
Si Si8 0.346519 0.227683 0.228563
O O1 0.500000 0.846689 0.500000
O O2 0.347945 0.844608 0.810235
O O3 0.285771 0.863122 0.591302
O O4 0.391548 0.000000 0.649984
O O5 0.725050 0.500000 0.558488
O O6 0.863205 0.360433 0.418002
O O7 0.677536 0.363600 0.406311
O O8 0.676121 0.330117 0.683797
O O9 0.088916 0.825608 0.635855
O O10 0.000000 0.722649 0.500000
O O11 0.940619 0.687402 0.799583
O O12 0.413963 0.669120 0.781901
O O13 0.531092 0.806647 0.817224
O O14 0.336683 0.760250 0.066025
O O15 0.356558 0.500000 0.755747
O O16 0.204940 0.365997 0.912004
O O17 0.911710 0.500000 0.873727
O O18 0.000000 0.385791 0.000000
O O19 0.257546 0.852004 0.341412
O O20 0.169758 0.000000 0.540853
#
# Coordination Sequence:
#
# PCOD8065085 Si02
#       8
#     4   4   4   4   4   4   4   4
#     4  10  20  37  64  90 110 145 193 240 291 346
#     4  10  21  39  58  84 118 154 200 244 286 345
#     4  11  23  37  60  87 114 153 198 238 302 351
#     4  11  22  37  58  86 124 151 195 241 288 349
#     4  10  22  37  59  86 115 158 202 242 288 338
#     4  10  20  37  58  84 115 149 192 242 289 336
#     4  10  22  42  63  85 117 153 194 243 294 353
#     4  10  23  37  56  88 119 161 188 233 299 352
#
# _framework density 20.143761000000001
#
# number of rings (size 3 to 8) (size 9 to 14) (size 15 to 20)
#    0.000    1.750    2.500    1.875    3.500    2.750 
#    0.000    3.750    0.000    0.375    0.000    0.000 
#    0.000    0.000    0.000    0.000    0.000    0.000 
#
# Total GULP energy -396807.071038 kJ/mol
# GULP energy per Si atom -12400.220970 kJ/mol
# Density = 2.009791 g / cm^3
# Si number density = 20.143761 Si / 1000 Ang^3
#
#
#
# Elastic Constant Matrix: (Units=GPa)
#
#
# Indices 1 2 3 4 5 6 
#
# 1 36.4140 12.4985 13.7594 0.0000 19.5689 0.0000
# 2 12.4985 86.2481 44.0624 0.0000 11.4752 0.0000
# 3 13.7594 44.0624 113.3819 0.0000 20.6715 0.0000
# 4 0.0000 0.0000 0.0000 26.6565 0.0000 -4.4190
# 5 19.5689 11.4752 20.6715 0.0000 31.5216 0.0000
# 6 0.0000 0.0000 0.0000 -4.4190 0.0000 11.6295
#
#
#
# Elastic Compliance Matrix: (Units=1/GPa)
#
#
# Indices 1 2 3 4 5 6 
#
# 1 0.041862 -0.003069 0.000735 0.000000 -0.025353 0.000000
# 2 -0.003069 0.014781 -0.005382 0.000000 0.000053 0.000000
# 3 0.000735 -0.005382 0.011980 0.000000 -0.006353 0.000000
# 4 0.000000 0.000000 0.000000 0.040036 0.000000 0.015213
# 5 -0.025353 0.000053 -0.006353 0.000000 0.051611 0.000000
# 6 0.000000 0.000000 0.000000 0.015213 0.000000 0.091769
#
#
# Mechanical properties :
#
#
# Convention : Reuss Voigt Hill
#
# Bulk Modulus (GPa) = 18.79944 41.85385 30.32664
# Shear Modulus (GPa) = 17.53140 25.00978 21.27059
#
# Velocity S-wave (km/s) = 2.95331 3.52741 3.25305
# Velocity P-wave (km/s) = 4.58064 6.11660 5.40348
#
# Compressibility (1/GPa) = 0.05319308
#
# Stress axis : x y z
#
# Youngs Moduli (GPa) = 23.88781 67.65245 83.46997
#
# Poissons Ratio (x) = 0.20759 -0.06132
# Poissons Ratio (y) = 0.07330 0.44921
# Poissons Ratio (z) = -0.01755 0.36408
#
# Static dielectric constant tensor:
#      x y z
#    x 3.442620 0.000000 0.197800 
#    y 0.000000 3.679120 0.000000 
#    z 0.197800 0.000000 3.606960 
# 
# 
# High freq. dielectric constant tensor:
#      x y z
#    x 1.783540 0.000000 0.008480 
#    y 0.000000 1.782530 0.000000 
#    z 0.008480 0.000000 1.783530 
# 
# From -- ./inp_files/29476.got.cif
#   From: 2010.06.25/outbox.cif.g09.slc.cpg/sg10_15_cif.got.tgz:29476.got - 2010.06.27 22:07:45.
