data_PCOD8065040
_publ_section_title
;
Structure prediction by ZEFSAII (Michael W. Deem and Ramdas Pophale) SiO2 
 PCOD8065040
Probable space group: P 2/M
;
_chemical_formula_sum "Si O2"
_cell_formula_units_Z 26
_cell_length_a 11.857006
_cell_length_b 26.449960
_cell_length_c 5.181201
_cell_angle_alpha 90.000000
_cell_angle_beta 128.595375
_cell_angle_gamma 90.000000
_cell_volume 1269.985733
_symmetry_space_group_name_H-M "P 2/M"
_symmetry_group_IT_number 10
_symmetry_cell_setting 'monoclinic'
loop_
_space_group_symop_operation_xyz
x,y,z
-x,y,-z
-x,-y,-z
x,-y,z
loop_
_atom_site_type_symbol
_atom_site_label
_atom_site_fract_x
_atom_site_fract_y
_atom_site_fract_z
Si Si1 0.329950 0.200542 0.257157
Si Si2 0.302416 0.556738 0.865036
Si Si3 0.500000 0.636528 0.000000
Si Si4 0.661292 0.687865 0.622525
Si Si5 0.161773 0.406342 0.140120
Si Si6 0.092394 0.941775 0.376983
Si Si7 0.328516 0.139669 0.751233
O O1 0.500000 0.204093 0.500000
O O2 0.271482 0.257322 0.217300
O O3 0.276763 0.166968 0.418199
O O4 0.278135 0.175271 0.916521
O O5 0.364888 0.500000 0.950897
O O6 0.429232 0.597712 0.110792
O O7 0.248944 0.569950 0.501225
O O8 0.178293 0.558947 0.908436
O O9 0.371050 0.674376 0.724045
O O10 0.500000 0.679981 0.500000
O O11 0.781222 0.648038 0.880894
O O12 0.000000 0.400891 0.000000
O O13 0.243434 0.912947 0.632251
O O14 0.000000 0.933484 0.500000
O O15 0.134494 0.000000 0.394135
O O16 0.000000 0.921916 0.000000
O O17 0.500000 0.128470 0.000000
#
# Coordination Sequence:
#
# PCOD8065040 Si02
#       7
#     4   4   2   4   4   4   4
#     4   9  20  32  58  85 116 149 192 240 292 344
#     4  11  23  39  60  84 113 146 187 234 287 347
#     4  10  21  36  60  90 114 144 189 242 286 338
#     4  10  20  37  60  83 112 149 193 232 285 345
#     4  11  24  40  58  83 114 149 187 235 286 347
#     4  10  21  38  61  86 119 163 204 243 293 351
#     4  10  20  37  56  89 120 153 196 249 294 343
#
# _framework density 20.472670999999998
#
# number of rings (size 3 to 8) (size 9 to 14) (size 15 to 20)
#    0.000    1.846    1.538    2.077    5.385    2.154 
#    0.000    4.615    0.000    5.538    0.000    0.000 
#    0.000    0.000    0.000    0.000    0.000    0.000 
#
# Total GULP energy -322111.828826 kJ/mol
# GULP energy per Si atom -12388.916493 kJ/mol
# Density = 2.042607 g / cm^3
# Si number density = 20.472671 Si / 1000 Ang^3
#
#
#
# Elastic Constant Matrix: (Units=GPa)
#
#
# Indices 1 2 3 4 5 6 
#
# 1 101.6746 51.8558 35.5810 0.0000 -12.8143 0.0000
# 2 51.8558 139.5581 49.6110 0.0000 -1.1491 0.0000
# 3 35.5810 49.6110 78.2875 0.0000 -17.1404 0.0000
# 4 0.0000 0.0000 0.0000 17.7036 0.0000 -0.0144
# 5 -12.8143 -1.1491 -17.1404 0.0000 35.1832 0.0000
# 6 0.0000 0.0000 0.0000 -0.0144 0.0000 17.2640
#
#
#
# Elastic Compliance Matrix: (Units=1/GPa)
#
#
# Indices 1 2 3 4 5 6 
#
# 1 0.013220 -0.003881 -0.002824 0.000000 0.003313 0.000000
# 2 -0.003881 0.010653 -0.005843 0.000000 -0.003912 0.000000
# 3 -0.002824 -0.005843 0.019581 0.000000 0.008320 0.000000
# 4 0.000000 0.000000 0.000000 0.056486 0.000000 0.000047
# 5 0.003313 -0.003912 0.008320 0.000000 0.033555 0.000000
# 6 0.000000 0.000000 0.000000 0.000047 0.000000 0.057924
#
#
# Mechanical properties :
#
#
# Convention : Reuss Voigt Hill
#
# Bulk Modulus (GPa) = 54.47210 65.95732 60.21471
# Shear Modulus (GPa) = 22.45832 26.19498 24.32665
#
# Velocity S-wave (km/s) = 3.31568 3.58090 3.45084
# Velocity P-wave (km/s) = 6.42832 7.02740 6.73452
#
# Compressibility (1/GPa) = 0.01835802
#
# Stress axis : x y z
#
# Youngs Moduli (GPa) = 75.64016 93.87397 51.06924
#
# Poissons Ratio (x) = 0.36435 0.14421
# Poissons Ratio (y) = 0.29358 0.29840
# Poissons Ratio (z) = 0.21359 0.54852
#
# Static dielectric constant tensor:
#      x y z
#    x 3.739690 0.000000 -0.338610 
#    y 0.000000 3.804070 0.000000 
#    z -0.338610 0.000000 3.911170 
# 
# 
# High freq. dielectric constant tensor:
#      x y z
#    x 1.794350 0.000000 -0.025560 
#    y 0.000000 1.802150 0.000000 
#    z -0.025560 0.000000 1.789020 
# 
# From -- ./inp_files/7791.got.cif
#   From: 2010.06.25/outbox.cif.g09.slc.cpg/sg10_4_cif.got.tgz:7791.got - 2010.06.27 22:07:45.
