data_PCOD8065368
_publ_section_title
;
Structure prediction by ZEFSAII (Michael W. Deem and Ramdas Pophale) SiO2 
 PCOD8065368
Probable space group: P 2/M
;
_chemical_formula_sum "Si O2"
_cell_formula_units_Z 28
_cell_length_a 9.137249
_cell_length_b 14.606210
_cell_length_c 12.281818
_cell_angle_alpha 90.000000
_cell_angle_beta 56.848012
_cell_angle_gamma 90.000000
_cell_volume 1372.324244
_symmetry_space_group_name_H-M "P 2/M"
_symmetry_group_IT_number 10
_symmetry_cell_setting 'monoclinic'
loop_
_space_group_symop_operation_xyz
x,y,z
-x,y,-z
-x,-y,-z
x,-y,z
loop_
_atom_site_type_symbol
_atom_site_label
_atom_site_fract_x
_atom_site_fract_y
_atom_site_fract_z
Si Si1 0.792920 0.898900 0.089454
Si Si2 0.306012 0.896507 0.624060
Si Si3 0.304952 0.393327 0.739755
Si Si4 0.650841 0.280260 0.070995
Si Si5 0.706949 0.599379 0.598372
Si Si6 0.885060 0.723698 0.367320
Si Si7 0.725138 0.316474 0.806443
O O1 0.712481 0.873783 0.240386
O O2 0.733635 0.820857 0.029712
O O3 0.724604 0.000000 0.082411
O O4 0.000000 0.899136 0.000000
O O5 0.500000 0.882689 0.500000
O O6 0.186414 0.826331 0.607077
O O7 0.240697 0.000000 0.628494
O O8 0.249418 0.500000 0.770642
O O9 0.264234 0.340606 0.868259
O O10 0.511420 0.384410 0.632462
O O11 0.193007 0.343570 0.692722
O O12 0.443520 0.258792 0.166577
O O13 0.694118 0.340177 0.945654
O O14 0.770622 0.500000 0.531108
O O15 0.833039 0.678621 0.503318
O O16 0.721543 0.597318 0.724812
O O17 0.092477 0.736489 0.276199
#
# Coordination Sequence:
#
# PCOD8065368 Si02
#       7
#     4   4   4   4   4   4   4
#     4  10  20  37  66  95 118 153 204 253 300 359
#     4  10  21  36  59  93 124 154 194 249 316 367
#     4  10  21  36  60  90 115 148 197 255 305 345
#     4  10  21  42  59  82 123 157 195 243 302 360
#     4  10  22  40  59  84 120 161 202 244 297 362
#     4  12  21  36  61  89 119 151 201 252 299 350
#     4  10  24  38  57  82 119 166 196 234 296 364
#
# _framework density 20.403341000000001
#
# number of rings (size 3 to 8) (size 9 to 14) (size 15 to 20)
#    0.000    1.714    1.429    3.000    2.000    3.429 
#    0.000    5.714    0.000    2.571    0.000    0.000 
#    0.000    0.000    0.000    0.000    0.000    0.000 
#
# Total GULP energy -346967.698085 kJ/mol
# GULP energy per Si atom -12391.703503 kJ/mol
# Density = 2.035690 g / cm^3
# Si number density = 20.403341 Si / 1000 Ang^3
#
#
#
# Elastic Constant Matrix: (Units=GPa)
#
#
# Indices 1 2 3 4 5 6 
#
# 1 84.3081 44.0397 35.8358 0.0000 -5.7795 0.0000
# 2 44.0397 118.6575 26.3599 0.0000 4.8002 0.0000
# 3 35.8358 26.3599 95.2379 0.0000 8.8605 0.0000
# 4 0.0000 0.0000 0.0000 23.0067 0.0000 -0.3915
# 5 -5.7795 4.8002 8.8605 0.0000 28.9905 0.0000
# 6 0.0000 0.0000 0.0000 -0.3915 0.0000 10.2478
#
#
#
# Elastic Compliance Matrix: (Units=1/GPa)
#
#
# Indices 1 2 3 4 5 6 
#
# 1 0.017565 -0.005511 -0.005655 0.000000 0.006143 0.000000
# 2 -0.005511 0.010725 -0.000646 0.000000 -0.002677 0.000000
# 3 -0.005655 -0.000646 0.013279 0.000000 -0.005079 0.000000
# 4 0.000000 0.000000 0.000000 0.043494 0.000000 0.001662
# 5 0.006143 -0.002677 -0.005079 0.000000 0.037714 0.000000
# 6 0.000000 0.000000 0.000000 0.001662 0.000000 0.097646
#
#
# Mechanical properties :
#
#
# Convention : Reuss Voigt Hill
#
# Bulk Modulus (GPa) = 55.72724 56.74161 56.23442
# Shear Modulus (GPa) = 19.99762 25.24686 22.62224
#
# Velocity S-wave (km/s) = 3.13408 3.52147 3.33341
# Velocity P-wave (km/s) = 6.36150 6.66368 6.51434
#
# Compressibility (1/GPa) = 0.01794454
#
# Stress axis : x y z
#
# Youngs Moduli (GPa) = 56.93056 93.24085 75.30549
#
# Poissons Ratio (x) = 0.51390 0.42589
# Poissons Ratio (y) = 0.31377 0.04861
# Poissons Ratio (z) = 0.32197 0.06019
#
# Static dielectric constant tensor:
#      x y z
#    x 3.694510 0.000000 -0.040430 
#    y 0.000000 3.723210 0.000000 
#    z -0.040430 0.000000 3.897970 
# 
# 
# High freq. dielectric constant tensor:
#      x y z
#    x 1.789420 0.000000 -0.004860 
#    y 0.000000 1.787020 0.000000 
#    z -0.004860 0.000000 1.808280 
# 
# From -- ./inp_files/42886.got.cif
#   From: 2010.06.25/outbox.cif.g09.slc.cpg/sg10_22_cif.got.tgz:42886.got - 2010.06.27 22:07:45.
