data_PCOD8065379
_publ_section_title
;
Structure prediction by ZEFSAII (Michael W. Deem and Ramdas Pophale) SiO2 
 PCOD8065379
Probable space group: P 2/M
;
_chemical_formula_sum "Si O2"
_cell_formula_units_Z 28
_cell_length_a 14.274294
_cell_length_b 14.189654
_cell_length_c 9.927606
_cell_angle_alpha 90.000000
_cell_angle_beta 44.971055
_cell_angle_gamma 90.000000
_cell_volume 1421.138706
_symmetry_space_group_name_H-M "P 2/M"
_symmetry_group_IT_number 10
_symmetry_cell_setting 'monoclinic'
loop_
_space_group_symop_operation_xyz
x,y,z
-x,y,-z
-x,-y,-z
x,-y,z
loop_
_atom_site_type_symbol
_atom_site_label
_atom_site_fract_x
_atom_site_fract_y
_atom_site_fract_z
Si Si1 0.829255 0.199222 0.813155
Si Si2 0.367548 0.110201 0.785052
Si Si3 0.312301 0.395630 0.645267
Si Si4 0.086648 0.600661 0.679626
Si Si5 0.867516 0.208954 0.472689
Si Si6 0.787044 0.604334 0.967216
Si Si7 0.356767 0.197555 0.511824
O O1 0.821190 0.170690 0.664448
O O2 0.774348 0.307108 0.879311
O O3 0.979393 0.181336 0.714014
O O4 0.735600 0.129915 0.991303
O O5 0.317269 0.157335 0.698073
O O6 0.511770 0.149424 0.680512
O O7 0.379972 0.000000 0.748189
O O8 0.373568 0.500000 0.548427
O O9 0.162788 0.388698 0.743171
O O10 0.390852 0.309685 0.493797
O O11 0.311731 0.381357 0.806589
O O12 0.117528 0.500000 0.578932
O O13 0.133843 0.677227 0.522366
O O14 0.934620 0.608666 0.875786
O O15 0.766462 0.172925 0.460953
O O16 0.760737 0.500000 0.927354
#
# Coordination Sequence:
#
# PCOD8065379 Si02
#       7
#     4   4   4   4   4   4   4
#     4  10  20  38  56  86 120 151 184 228 277 327
#     4  11  24  43  63  82 107 140 186 239 291 341
#     4   9  15  26  48  81 113 146 183 225 271 321
#     4   8  14  24  44  76 116 153 187 220 261 316
#     4   9  20  35  59  85 118 150 185 228 276 330
#     4   9  15  25  46  79 115 153 187 220 262 320
#     4  10  20  39  60  85 113 149 186 232 275 331
#
# _framework density 19.70251
#
# number of rings (size 3 to 8) (size 9 to 14) (size 15 to 20)
#    0.000    2.571    1.429    1.286    0.000    3.429 
#    0.000   10.714    0.000    0.000    0.000    5.000 
#    0.000    0.000    0.000    0.000    0.000    0.000 
#
# Total GULP energy -346880.054763 kJ/mol
# GULP energy per Si atom -12388.573384 kJ/mol
# Density = 1.965767 g / cm^3
# Si number density = 19.702510 Si / 1000 Ang^3
#
#
#
# Elastic Constant Matrix: (Units=GPa)
#
#
# Indices 1 2 3 4 5 6 
#
# 1 94.9421 28.8069 35.4858 0.0000 -0.3075 0.0000
# 2 28.8069 106.0464 31.5414 0.0000 -3.5939 0.0000
# 3 35.4858 31.5414 89.4913 0.0000 0.8880 0.0000
# 4 0.0000 0.0000 0.0000 20.1173 0.0000 -1.2923
# 5 -0.3075 -3.5939 0.8880 0.0000 16.2274 0.0000
# 6 0.0000 0.0000 0.0000 -1.2923 0.0000 38.6958
#
#
#
# Elastic Compliance Matrix: (Units=1/GPa)
#
#
# Indices 1 2 3 4 5 6 
#
# 1 0.012809 -0.002200 -0.004304 0.000000 -0.000009 0.000000
# 2 -0.002200 0.011017 -0.003036 0.000000 0.002564 0.000000
# 3 -0.004304 -0.003036 0.013966 0.000000 -0.001518 0.000000
# 4 0.000000 0.000000 0.000000 0.049815 0.000000 0.001664
# 5 -0.000009 0.002564 -0.001518 0.000000 0.062275 0.000000
# 6 0.000000 0.000000 0.000000 0.001664 0.000000 0.025898
#
#
# Mechanical properties :
#
#
# Convention : Reuss Voigt Hill
#
# Bulk Modulus (GPa) = 53.43934 53.57200 53.50567
# Shear Modulus (GPa) = 24.86358 27.98447 26.42403
#
# Velocity S-wave (km/s) = 3.55625 3.77284 3.66614
# Velocity P-wave (km/s) = 6.63660 6.79916 6.71837
#
# Compressibility (1/GPa) = 0.01871281
#
# Stress axis : x y z
#
# Youngs Moduli (GPa) = 78.07225 90.76584 71.60245
#
# Poissons Ratio (x) = 0.19965 0.30815
# Poissons Ratio (y) = 0.17173 0.21741
# Poissons Ratio (z) = 0.33599 0.27559
#
# Static dielectric constant tensor:
#      x y z
#    x 3.445040 0.000000 -0.066200 
#    y 0.000000 3.713160 0.000000 
#    z -0.066200 0.000000 3.252180 
# 
# 
# High freq. dielectric constant tensor:
#      x y z
#    x 1.750380 0.000000 -0.007550 
#    y 0.000000 1.764810 0.000000 
#    z -0.007550 0.000000 1.745080 
# 
# From -- ./inp_files/29400.got.cif
#   From: 2010.06.25/outbox.cif.g09.slc.cpg/sg10_15_cif.got.tgz:29400.got - 2010.06.27 22:07:45.
