data_PCOD8065370
_publ_section_title
;
Structure prediction by ZEFSAII (Michael W. Deem and Ramdas Pophale) SiO2 
 PCOD8065370
Probable space group: P 2/M
;
_chemical_formula_sum "Si O2"
_cell_formula_units_Z 28
_cell_length_a 10.226711
_cell_length_b 19.826435
_cell_length_c 10.243988
_cell_angle_alpha 90.000000
_cell_angle_beta 42.403165
_cell_angle_gamma 90.000000
_cell_volume 1400.653283
_symmetry_space_group_name_H-M "P 2/M"
_symmetry_group_IT_number 10
_symmetry_cell_setting 'monoclinic'
loop_
_space_group_symop_operation_xyz
x,y,z
-x,y,-z
-x,-y,-z
x,-y,z
loop_
_atom_site_type_symbol
_atom_site_label
_atom_site_fract_x
_atom_site_fract_y
_atom_site_fract_z
Si Si1 0.591600 0.639741 0.073263
Si Si2 0.114593 0.869638 0.038468
Si Si3 0.344896 0.643997 0.503997
Si Si4 0.502271 0.079231 0.650991
Si Si5 0.971545 0.286065 0.874342
Si Si6 0.210397 0.500000 0.685239
Si Si7 0.248452 0.500000 0.958389
Si Si8 0.916820 0.921687 0.429905
O O1 0.433027 0.659616 0.297894
O O2 0.655981 0.563097 0.042198
O O3 0.500000 0.652130 0.000000
O O4 0.779354 0.686100 0.949597
O O5 0.043643 0.793938 0.112659
O O6 0.066776 0.911758 0.202164
O O7 0.342355 0.876119 0.842717
O O8 0.000000 0.901609 0.000000
O O9 0.500000 0.663932 0.500000
O O10 0.287727 0.565555 0.554312
O O11 0.157438 0.691431 0.654504
O O12 0.500000 0.094334 0.500000
O O13 0.705531 0.108098 0.554037
O O14 0.467948 0.000000 0.704168
O O15 0.000000 0.315709 0.000000
O O16 0.705954 0.500000 0.229450
O O17 0.980038 0.500000 0.851339
O O18 0.000000 0.887007 0.500000
O O19 0.887652 0.000000 0.476209
#
# Coordination Sequence:
#
# PCOD8065370 Si02
#       8
#     4   4   4   4   4   2   2   4
#     4  12  26  44  64  97 131 164 208 272 327 373
#     4  11  23  40  65  94 127 169 217 262 314 372
#     4  12  22  41  71  93 121 169 217 260 317 380
#     4  10  20  37  66  98 127 164 211 263 318 372
#     4  11  24  45  64  93 124 171 222 259 304 388
#     4  11  20  36  72  97 120 165 218 262 315 378
#     4  11  20  39  68  94 133 158 206 273 317 378
#     4  10  22  41  64  96 132 166 209 263 320 376
#
# _framework density 19.990672
#
# number of rings (size 3 to 8) (size 9 to 14) (size 15 to 20)
#    0.000    1.000    5.714    1.286    0.000    2.857 
#    5.143    2.857    0.000    0.000    0.000    0.000 
#    0.000    0.000    0.000    0.000    0.000    0.000 
#
# Total GULP energy -347327.972743 kJ/mol
# GULP energy per Si atom -12404.570455 kJ/mol
# Density = 1.994517 g / cm^3
# Si number density = 19.990672 Si / 1000 Ang^3
#
#
#
# Elastic Constant Matrix: (Units=GPa)
#
#
# Indices 1 2 3 4 5 6 
#
# 1 169.5008 24.7924 74.6738 0.0000 4.1633 0.0000
# 2 24.7924 41.6783 29.0187 0.0000 -6.9170 0.0000
# 3 74.6738 29.0187 164.3636 0.0000 -5.6698 0.0000
# 4 0.0000 0.0000 0.0000 21.1652 0.0000 -8.4469
# 5 4.1633 -6.9170 -5.6698 0.0000 34.9484 0.0000
# 6 0.0000 0.0000 0.0000 -8.4469 0.0000 17.4163
#
#
#
# Elastic Compliance Matrix: (Units=1/GPa)
#
#
# Indices 1 2 3 4 5 6 
#
# 1 0.007711 -0.002767 -0.003082 0.000000 -0.001966 0.000000
# 2 -0.002767 0.029124 -0.003695 0.000000 0.005494 0.000000
# 3 -0.003082 -0.003695 0.008170 0.000000 0.000961 0.000000
# 4 0.000000 0.000000 0.000000 0.058588 0.000000 0.028415
# 5 -0.001966 0.005494 0.000961 0.000000 0.030091 0.000000
# 6 0.000000 0.000000 0.000000 0.028415 0.000000 0.071199
#
#
# Mechanical properties :
#
#
# Convention : Reuss Voigt Hill
#
# Bulk Modulus (GPa) = 38.58712 70.27917 54.43315
# Shear Modulus (GPa) = 21.49524 31.17653 26.33588
#
# Velocity S-wave (km/s) = 3.28268 3.95340 3.63355
# Velocity P-wave (km/s) = 5.80624 7.48809 6.70015
#
# Compressibility (1/GPa) = 0.02591539
#
# Stress axis : x y z
#
# Youngs Moduli (GPa) = 129.69087 34.33612 122.39809
#
# Poissons Ratio (x) = 0.09500 0.37729
# Poissons Ratio (y) = 0.35883 0.45230
# Poissons Ratio (z) = 0.39976 0.12688
#
# Static dielectric constant tensor:
#      x y z
#    x 3.799680 0.000000 -0.113290 
#    y 0.000000 3.577220 0.000000 
#    z -0.113290 0.000000 3.736760 
# 
# 
# High freq. dielectric constant tensor:
#      x y z
#    x 1.775550 0.000000 -0.011940 
#    y 0.000000 1.768700 0.000000 
#    z -0.011940 0.000000 1.794910 
# 
# From -- ./inp_files/48020.got.cif
#   From: 2010.06.25/outbox.cif.g09.slc.cpg/sg10_25_cif.got.tgz:48020.got - 2010.06.27 22:07:45.
