data_PCOD8065033
_publ_section_title
;
Structure prediction by ZEFSAII (Michael W. Deem and Ramdas Pophale) SiO2 
 PCOD8065033
Probable space group: P 2/M
;
_chemical_formula_sum "Si O2"
_cell_formula_units_Z 24
_cell_length_a 12.014328
_cell_length_b 15.677495
_cell_length_c 17.333047
_cell_angle_alpha 90.000000
_cell_angle_beta 20.700752
_cell_angle_gamma 90.000000
_cell_volume 1154.050107
_symmetry_space_group_name_H-M "P 2/M"
_symmetry_group_IT_number 10
_symmetry_cell_setting 'monoclinic'
loop_
_space_group_symop_operation_xyz
x,y,z
-x,y,-z
-x,-y,-z
x,-y,z
loop_
_atom_site_type_symbol
_atom_site_label
_atom_site_fract_x
_atom_site_fract_y
_atom_site_fract_z
Si Si1 0.794243 0.096736 0.365141
Si Si2 0.150940 0.681305 0.317721
Si Si3 0.610783 0.792387 0.616189
Si Si4 0.343044 0.500000 0.741112
Si Si5 0.980306 0.500000 0.421327
Si Si6 0.286318 0.320140 0.708337
Si Si7 0.283152 0.769849 0.982537
O O1 0.500000 0.108250 0.500000
O O2 0.677856 0.120329 0.526760
O O3 0.917595 0.000000 0.285831
O O4 0.080720 0.156130 0.152635
O O5 0.496166 0.723742 0.097186
O O6 0.000000 0.675538 0.500000
O O7 0.934500 0.739425 0.404188
O O8 0.157692 0.585720 0.276637
O O9 0.346557 0.736632 0.744610
O O10 0.492769 0.813111 0.778937
O O11 0.616188 0.500000 0.628778
O O12 0.370435 0.417959 0.669024
O O13 0.000000 0.500000 0.000000
O O14 0.000000 0.500000 0.500000
O O15 0.500000 0.285198 0.500000
O O16 0.924506 0.306534 0.918936
#
# Coordination Sequence:
#
# PCOD8065033 Si02
#       7
#     4   4   4   2   2   4   4
#     4  11  24  42  65  96 128 157 204 269 321 381
#     4   9  21  36  62  90 127 168 209 258 307 370
#     4  11  20  41  64  91 124 168 205 257 315 375
#     4  12  25  37  63  94 124 177 222 258 316 359
#     4  10  20  37  55  92 133 162 214 269 302 363
#     4  12  23  40  60  90 130 168 215 267 303 364
#     4  11  22  40  66  93 125 168 211 253 321 383
#
# _framework density 20.796323000000001
#
# number of rings (size 3 to 8) (size 9 to 14) (size 15 to 20)
#    0.000    1.167    5.000    1.750    4.667    1.333 
#    0.000    3.333    0.000    5.000    0.000    0.000 
#    0.000    0.000    0.000    0.000    0.000    0.000 
#
# Total GULP energy -297609.227039 kJ/mol
# GULP energy per Si atom -12400.384460 kJ/mol
# Density = 2.074899 g / cm^3
# Si number density = 20.796323 Si / 1000 Ang^3
#
#
#
# Elastic Constant Matrix: (Units=GPa)
#
#
# Indices 1 2 3 4 5 6 
#
# 1 67.8899 35.2255 35.1826 0.0000 -20.4557 0.0000
# 2 35.2255 146.2646 53.1709 0.0000 -14.7412 0.0000
# 3 35.1826 53.1709 106.8966 0.0000 -20.1925 0.0000
# 4 0.0000 0.0000 0.0000 26.4688 0.0000 -6.1218
# 5 -20.4557 -14.7412 -20.1925 0.0000 44.4923 0.0000
# 6 0.0000 0.0000 0.0000 -6.1218 0.0000 14.2238
#
#
#
# Elastic Compliance Matrix: (Units=1/GPa)
#
#
# Indices 1 2 3 4 5 6 
#
# 1 0.020226 -0.002735 -0.004059 0.000000 0.006551 0.000000
# 2 -0.002735 0.008754 -0.003438 0.000000 0.000082 0.000000
# 3 -0.004059 -0.003438 0.012943 0.000000 0.002869 0.000000
# 4 0.000000 0.000000 0.000000 0.041957 0.000000 0.018058
# 5 0.006551 0.000082 0.002869 0.000000 0.026817 0.000000
# 6 0.000000 0.000000 0.000000 0.018058 0.000000 0.078077
#
#
# Mechanical properties :
#
#
# Convention : Reuss Voigt Hill
#
# Bulk Modulus (GPa) = 46.60372 63.13435 54.86904
# Shear Modulus (GPa) = 23.10625 30.20178 26.65402
#
# Velocity S-wave (km/s) = 3.33689 3.81499 3.58393
# Velocity P-wave (km/s) = 6.10776 7.05903 6.60055
#
# Compressibility (1/GPa) = 0.02145751
#
# Stress axis : x y z
#
# Youngs Moduli (GPa) = 49.44055 114.23417 77.26220
#
# Poissons Ratio (x) = 0.31248 0.31361
# Poissons Ratio (y) = 0.13524 0.26566
# Poissons Ratio (z) = 0.20068 0.39279
#
# Static dielectric constant tensor:
#      x y z
#    x 3.845870 0.000000 -0.185010 
#    y 0.000000 3.979820 0.000000 
#    z -0.185010 0.000000 3.656810 
# 
# 
# High freq. dielectric constant tensor:
#      x y z
#    x 1.818710 0.000000 -0.009130 
#    y 0.000000 1.805310 0.000000 
#    z -0.009130 0.000000 1.809140 
# 
# From -- ./inp_files/54212.got.cif
#   From: 2010.06.25/outbox.cif.g09.slc.cpg/sg10_28_cif.got.tgz:54212.got - 2010.06.27 22:07:45.
