data_PCOD8065693
_publ_section_title
;
Structure prediction by ZEFSAII (Michael W. Deem and Ramdas Pophale) SiO2 
 PCOD8065693
Probable space group: P 2/M
;
_chemical_formula_sum "Si O2"
_cell_formula_units_Z 24
_cell_length_a 8.819009
_cell_length_b 15.772327
_cell_length_c 13.969120
_cell_angle_alpha 90.000000
_cell_angle_beta 138.810766
_cell_angle_gamma 90.000000
_cell_volume 1279.593680
_symmetry_space_group_name_H-M "P 2/M"
_symmetry_group_IT_number 10
_symmetry_cell_setting 'monoclinic'
loop_
_space_group_symop_operation_xyz
x,y,z
-x,y,-z
-x,-y,-z
x,-y,z
loop_
_atom_site_type_symbol
_atom_site_label
_atom_site_fract_x
_atom_site_fract_y
_atom_site_fract_z
Si Si1 0.288862 0.500000 0.330198
Si Si2 0.899112 0.754658 0.348146
Si Si3 0.769077 0.681226 0.649542
Si Si4 0.234200 0.903742 0.849077
Si Si5 0.958222 0.793007 0.089688
Si Si6 0.450299 0.337482 0.085884
Si Si7 0.728130 0.500000 0.889194
O O1 0.500000 0.500000 0.500000
O O2 0.144443 0.586004 0.281409
O O3 0.390506 0.500000 0.271057
O O4 0.828117 0.844898 0.270314
O O5 0.680663 0.692321 0.249383
O O6 0.000000 0.771762 0.500000
O O7 0.095019 0.710237 0.378830
O O8 0.500000 0.684414 0.500000
O O9 0.821531 0.741934 0.764952
O O10 0.080188 0.878928 0.868384
O O11 0.175509 0.000000 0.793104
O O12 0.500000 0.891944 0.000000
O O13 0.732052 0.737681 0.998650
O O14 0.000000 0.817207 0.000000
O O15 0.347471 0.417834 0.089850
O O16 0.500000 0.361333 0.000000
O O17 0.000000 0.500000 0.000000
#
# Coordination Sequence:
#
# PCOD8065693 Si02
#       7
#     2   4   4   4   4   4   2
#     4  10  22  38  54  78 121 160 203 238 295 352
#     4  11  24  39  64  90 121 161 205 254 305 367
#     4  10  22  38  58  84 120 166 204 248 302 360
#     4  10  20  41  66  92 123 155 198 255 313 372
#     4  11  21  37  64  88 122 159 202 252 300 368
#     4  12  22  43  60  91 121 163 212 255 307 358
#     4  12  27  38  62  92 123 165 208 265 308 352
#
# _framework density 18.755955
#
# number of rings (size 3 to 8) (size 9 to 14) (size 15 to 20)
#    0.000    1.167    5.000    2.750    7.000    1.333 
#    0.000    0.833    0.000    8.000    0.000    0.000 
#    0.000    0.000    0.000    0.000    0.000    0.000 
#
# Total GULP energy -297626.058883 kJ/mol
# GULP energy per Si atom -12401.085787 kJ/mol
# Density = 1.871327 g / cm^3
# Si number density = 18.755955 Si / 1000 Ang^3
#
#
#
# Elastic Constant Matrix: (Units=GPa)
#
#
# Indices 1 2 3 4 5 6 
#
# 1 112.7656 61.9744 56.0097 0.0000 -15.3629 0.0000
# 2 61.9744 139.5900 49.7322 0.0000 -1.3182 0.0000
# 3 56.0097 49.7322 119.4510 0.0000 -10.5609 0.0000
# 4 0.0000 0.0000 0.0000 16.5706 0.0000 0.8075
# 5 -15.3629 -1.3182 -10.5609 0.0000 43.2250 0.0000
# 6 0.0000 0.0000 0.0000 0.8075 0.0000 26.1924
#
#
#
# Elastic Compliance Matrix: (Units=1/GPa)
#
#
# Indices 1 2 3 4 5 6 
#
# 1 0.014115 -0.004688 -0.004329 0.000000 0.003816 0.000000
# 2 -0.004688 0.009985 -0.002125 0.000000 -0.001881 0.000000
# 3 -0.004329 -0.002125 0.011390 0.000000 0.001180 0.000000
# 4 0.000000 0.000000 0.000000 0.060439 0.000000 -0.001863
# 5 0.003816 -0.001881 0.001180 0.000000 0.024722 0.000000
# 6 0.000000 0.000000 0.000000 -0.001863 0.000000 0.038236
#
#
# Mechanical properties :
#
#
# Convention : Reuss Voigt Hill
#
# Bulk Modulus (GPa) = 75.72727 78.58213 77.15470
# Shear Modulus (GPa) = 26.94364 30.80361 28.87363
#
# Velocity S-wave (km/s) = 3.79428 4.05697 3.92782
# Velocity P-wave (km/s) = 7.72387 7.99584 7.86103
#
# Compressibility (1/GPa) = 0.01320528
#
# Stress axis : x y z
#
# Youngs Moduli (GPa) = 70.84901 100.15432 87.79264
#
# Poissons Ratio (x) = 0.46954 0.38005
# Poissons Ratio (y) = 0.33215 0.18656
# Poissons Ratio (z) = 0.30670 0.21283
#
# Static dielectric constant tensor:
#      x y z
#    x 3.286210 0.000000 -0.117470 
#    y 0.000000 3.804770 0.000000 
#    z -0.117470 0.000000 3.631160 
# 
# 
# High freq. dielectric constant tensor:
#      x y z
#    x 1.731230 0.000000 -0.004820 
#    y 0.000000 1.727640 0.000000 
#    z -0.004820 0.000000 1.736130 
# 
# From -- ./inp_files/18945.got.cif
#   From: 2010.06.25/outbox.cif.g09.slc.cpg/sg10_10_cif.got.tgz:18945.got - 2010.06.27 22:07:45.
