data_PCOD8065124
_publ_section_title
;
Structure prediction by ZEFSAII (Michael W. Deem and Ramdas Pophale) SiO2 
 PCOD8065124
Probable space group: P 2/M
;
_chemical_formula_sum "Si O2"
_cell_formula_units_Z 28
_cell_length_a 19.744528
_cell_length_b 8.774049
_cell_length_c 14.623422
_cell_angle_alpha 90.000000
_cell_angle_beta 32.117691
_cell_angle_gamma 90.000000
_cell_volume 1346.883110
_symmetry_space_group_name_H-M "P 2/M"
_symmetry_group_IT_number 10
_symmetry_cell_setting 'monoclinic'
loop_
_space_group_symop_operation_xyz
x,y,z
-x,y,-z
-x,-y,-z
x,-y,z
loop_
_atom_site_type_symbol
_atom_site_label
_atom_site_fract_x
_atom_site_fract_y
_atom_site_fract_z
Si Si1 0.563125 0.821089 0.713634
Si Si2 0.697455 0.323843 0.013358
Si Si3 0.209463 0.325370 0.897090
Si Si4 0.961481 0.168345 0.148540
Si Si5 0.855108 0.819490 0.687790
Si Si6 0.287321 0.322331 0.609467
Si Si7 0.640179 0.680161 0.804119
O O1 0.418589 0.770489 0.895986
O O2 0.600832 0.770005 0.567985
O O3 0.652772 0.738121 0.685329
O O4 0.576542 0.000000 0.709720
O O5 0.680909 0.500000 0.004803
O O6 0.699025 0.304337 0.121098
O O7 0.824073 0.256239 0.821693
O O8 0.168515 0.500000 0.928921
O O9 0.281025 0.269315 0.723036
O O10 0.082041 0.231717 0.065859
O O11 0.843230 0.282189 0.294181
O O12 0.925172 0.000000 0.227351
O O13 0.000000 0.158730 0.000000
O O14 0.754854 0.756767 0.728527
O O15 0.000000 0.771466 0.500000
O O16 0.841343 0.000000 0.709398
O O17 0.317096 0.500000 0.566844
O O18 0.657986 0.500000 0.788473
O O19 0.500000 0.729976 0.000000
#
# Coordination Sequence:
#
# PCOD8065124 Si02
#       7
#     4   4   4   4   4   4   4
#     4  12  25  40  62  91 124 161 205 258 315 373
#     4  11  23  41  63  89 121 161 210 256 310 376
#     4   9  20  37  59  85 119 165 207 253 309 366
#     4   9  17  31  53  81 114 152 197 250 307 364
#     4  11  25  44  67  98 133 167 207 260 320 380
#     4  10  20  37  59  85 120 161 209 256 303 366
#     4  11  23  42  70  97 123 164 212 257 311 378
#
# _framework density 20.788737000000001
#
# number of rings (size 3 to 8) (size 9 to 14) (size 15 to 20)
#    0.000    1.571    1.429    3.429    0.000    6.857 
#    0.000    5.714    0.000    0.000    0.000    0.000 
#    0.000    0.000    0.000    0.000    0.000    0.000 
#
# Total GULP energy -347226.691338 kJ/mol
# GULP energy per Si atom -12400.953262 kJ/mol
# Density = 2.074142 g / cm^3
# Si number density = 20.788737 Si / 1000 Ang^3
#
#
#
# Elastic Constant Matrix: (Units=GPa)
#
#
# Indices 1 2 3 4 5 6 
#
# 1 101.3406 31.2168 40.2091 0.0000 3.2836 0.0000
# 2 31.2168 70.7300 27.3707 0.0000 2.3052 0.0000
# 3 40.2091 27.3707 105.8367 0.0000 3.1988 0.0000
# 4 0.0000 0.0000 0.0000 35.8174 0.0000 -0.7595
# 5 3.2836 2.3052 3.1988 0.0000 31.6236 0.0000
# 6 0.0000 0.0000 0.0000 -0.7595 0.0000 26.4994
#
#
#
# Elastic Compliance Matrix: (Units=1/GPa)
#
#
# Indices 1 2 3 4 5 6 
#
# 1 0.012630 -0.004116 -0.003715 0.000000 -0.000636 0.000000
# 2 -0.004116 0.017069 -0.002834 0.000000 -0.000530 0.000000
# 3 -0.003715 -0.002834 0.011610 0.000000 -0.000582 0.000000
# 4 0.000000 0.000000 0.000000 0.027936 0.000000 0.000801
# 5 -0.000636 -0.000530 -0.000582 0.000000 0.031785 0.000000
# 6 0.000000 0.000000 0.000000 0.000801 0.000000 0.037760
#
#
# Mechanical properties :
#
#
# Convention : Reuss Voigt Hill
#
# Bulk Modulus (GPa) = 50.05246 52.83338 51.44292
# Shear Modulus (GPa) = 29.97937 30.72880 30.35409
#
# Velocity S-wave (km/s) = 3.80161 3.84884 3.82530
# Velocity P-wave (km/s) = 6.58777 6.72466 6.65656
#
# Compressibility (1/GPa) = 0.01997904
#
# Stress axis : x y z
#
# Youngs Moduli (GPa) = 79.17579 58.58549 86.12957
#
# Poissons Ratio (x) = 0.24114 0.31995
# Poissons Ratio (y) = 0.32590 0.24413
# Poissons Ratio (z) = 0.29411 0.16606
#
# Static dielectric constant tensor:
#      x y z
#    x 3.682770 0.000000 0.061380 
#    y 0.000000 3.831560 0.000000 
#    z 0.061380 0.000000 3.866860 
# 
# 
# High freq. dielectric constant tensor:
#      x y z
#    x 1.809190 0.000000 0.003610 
#    y 0.000000 1.820000 0.000000 
#    z 0.003610 0.000000 1.810270 
# 
# From -- ./inp_files/70209.got.cif
#   From: 2010.06.25/outbox.cif.g09.slc.cpg/sg10_36_cif.got.tgz:70209.got - 2010.06.27 22:07:45.
