data_PCOD8065376
_publ_section_title
;
Structure prediction by ZEFSAII (Michael W. Deem and Ramdas Pophale) SiO2 
 PCOD8065376
Probable space group: P 2/M
;
_chemical_formula_sum "Si O2"
_cell_formula_units_Z 28
_cell_length_a 12.548790
_cell_length_b 8.808635
_cell_length_c 15.147957
_cell_angle_alpha 90.000000
_cell_angle_beta 105.142508
_cell_angle_gamma 90.000000
_cell_volume 1616.283097
_symmetry_space_group_name_H-M "P 2/M"
_symmetry_group_IT_number 10
_symmetry_cell_setting 'monoclinic'
loop_
_space_group_symop_operation_xyz
x,y,z
-x,y,-z
-x,-y,-z
x,-y,z
loop_
_atom_site_type_symbol
_atom_site_label
_atom_site_fract_x
_atom_site_fract_y
_atom_site_fract_z
Si Si1 0.416329 0.679609 0.101522
Si Si2 0.741807 0.824397 0.596287
Si Si3 0.404502 0.678737 0.294504
Si Si4 0.801241 0.320297 0.284083
Si Si5 0.345767 0.319665 0.902987
Si Si6 0.636474 0.176931 0.386939
Si Si7 0.013107 0.821267 0.403321
O O1 0.420672 0.500000 0.097361
O O2 0.372700 0.731116 0.187888
O O3 0.540387 0.742685 0.114793
O O4 0.337998 0.738035 0.003617
O O5 0.698052 0.721975 0.666560
O O6 0.669216 0.791410 0.494638
O O7 0.867414 0.775297 0.606586
O O8 0.733958 0.000000 0.621754
O O9 0.428427 0.500000 0.304337
O O10 0.512400 0.767082 0.349146
O O11 0.807000 0.500000 0.289215
O O12 0.755414 0.261260 0.179158
O O13 0.720233 0.266585 0.343406
O O14 0.923104 0.254210 0.320696
O O15 0.347118 0.500000 0.900658
O O16 0.645794 0.000000 0.365983
O O17 0.000000 0.758929 0.500000
O O18 0.993730 0.000000 0.398388
#
# Coordination Sequence:
#
# PCOD8065376 Si02
#       7
#     4   4   4   4   4   4   4
#     4   8  14  27  48  73 103 136 162 196 252 312
#     4  10  22  38  53  69  98 143 181 202 242 312
#     4  11  21  33  52  80 107 131 169 216 258 294
#     4  11  20  31  53  83 107 127 166 221 264 289
#     4   8  14  27  48  74 104 133 162 199 254 311
#     4  11  21  35  52  72 104 145 176 198 246 316
#     4  10  20  38  56  71  97 139 180 207 247 309
#
# _framework density 17.323696999999999
#
# number of rings (size 3 to 8) (size 9 to 14) (size 15 to 20)
#    0.000    2.143    2.857    2.571    0.000    3.714 
#    0.000    0.000    0.000    5.143    0.000    6.000 
#    0.000    0.000    0.000    0.000    0.000    0.000 
#
# Total GULP energy -347105.118077 kJ/mol
# GULP energy per Si atom -12396.611360 kJ/mol
# Density = 1.728427 g / cm^3
# Si number density = 17.323697 Si / 1000 Ang^3
#
#
#
# Elastic Constant Matrix: (Units=GPa)
#
#
# Indices 1 2 3 4 5 6 
#
# 1 90.2683 22.3668 63.2733 0.0000 -0.6314 0.0000
# 2 22.3668 20.9874 27.6712 0.0000 5.3315 0.0000
# 3 63.2733 27.6712 143.7395 0.0000 2.7948 0.0000
# 4 0.0000 0.0000 0.0000 -3.3543 0.0000 6.2793
# 5 -0.6314 5.3315 2.7948 0.0000 21.7006 0.0000
# 6 0.0000 0.0000 0.0000 6.2793 0.0000 27.4074
#
#
#
# Elastic Compliance Matrix: (Units=1/GPa)
#
#
# Indices 1 2 3 4 5 6 
#
# 1 0.018328 -0.013305 -0.005594 0.000000 0.004523 0.000000
# 2 -0.013305 0.078157 -0.008830 0.000000 -0.018452 0.000000
# 3 -0.005594 -0.008830 0.011108 0.000000 0.000576 0.000000
# 4 0.000000 0.000000 0.000000 -0.208638 0.000000 0.047801
# 5 0.004523 -0.018452 0.000576 0.000000 0.050672 0.000000
# 6 0.000000 0.000000 0.000000 0.047801 0.000000 0.025535
#
#
# Mechanical properties :
#
#
# Convention : Reuss Voigt Hill
#
# Bulk Modulus (GPa) = 19.18158 53.51308 36.34733
# Shear Modulus (GPa) = 104.16615 18.59633 61.38124
#
# Velocity S-wave (km/s) = 7.76272 3.27993 5.95893
# Velocity P-wave (km/s) = 9.56258 6.73061 8.26874
#
# Compressibility (1/GPa) = 0.05213335
#
# Stress axis : x y z
#
# Youngs Moduli (GPa) = 54.56169 12.79475 90.02240
#
# Poissons Ratio (x) = 0.17024 0.50362
# Poissons Ratio (y) = 0.72596 0.79492
# Poissons Ratio (z) = 0.30524 0.11298
#
# Static dielectric constant tensor:
#      x y z
#    x 3.132210 0.000000 0.048720 
#    y 0.000000 3.022670 0.000000 
#    z 0.048720 0.000000 3.718050 
# 
# 
# High freq. dielectric constant tensor:
#      x y z
#    x 1.649010 0.000000 0.002720 
#    y 0.000000 1.649070 0.000000 
#    z 0.002720 0.000000 1.680590 
# 
# From -- ./inp_files/49111.got.cif
#   From: 2010.06.25/outbox.cif.g09.slc.cpg/sg10_25_cif.got.tgz:49111.got - 2010.06.27 22:07:45.
