data_PCOD8065009
_publ_section_title
;
Structure prediction by ZEFSAII (Michael W. Deem and Ramdas Pophale) SiO2 
 PCOD8065009
Probable space group: P 2/M
;
_chemical_formula_sum "Si O2"
_cell_formula_units_Z 28
_cell_length_a 22.555840
_cell_length_b 8.177527
_cell_length_c 19.921712
_cell_angle_alpha 90.000000
_cell_angle_beta 159.185204
_cell_angle_gamma 90.000000
_cell_volume 1305.755800
_symmetry_space_group_name_H-M "P 2/M"
_symmetry_group_IT_number 10
_symmetry_cell_setting 'monoclinic'
loop_
_space_group_symop_operation_xyz
x,y,z
-x,y,-z
-x,-y,-z
x,-y,z
loop_
_atom_site_type_symbol
_atom_site_label
_atom_site_fract_x
_atom_site_fract_y
_atom_site_fract_z
Si Si1 0.466346 0.500000 0.043017
Si Si2 0.637133 0.693339 0.501719
Si Si3 0.409386 0.826195 0.833281
Si Si4 0.913052 0.500000 0.336809
Si Si5 0.949781 0.819002 0.582139
Si Si6 0.185072 0.810632 0.180575
Si Si7 0.266325 0.311477 0.124514
Si Si8 0.078426 0.305466 0.303096
O O1 0.276157 0.500000 0.850531
O O2 0.500000 0.500000 0.000000
O O3 0.541455 0.664140 0.157310
O O4 0.642878 0.500000 0.520747
O O5 0.694915 0.784553 0.629693
O O6 0.445092 0.752132 0.283671
O O7 0.765029 0.743432 0.578185
O O8 0.211824 0.820010 0.636848
O O9 0.456307 0.000000 0.847060
O O10 0.500000 0.818058 0.000000
O O11 0.000000 0.500000 0.500000
O O12 0.939805 0.666243 0.323529
O O13 0.889614 0.789693 0.594261
O O14 0.037132 0.000000 0.668433
O O15 0.263373 0.715910 0.200862
O O16 0.174620 0.000000 0.150346
O O17 0.000000 0.740758 0.000000
O O18 0.256596 0.500000 0.097832
O O19 0.098620 0.235777 0.913404
O O20 0.073236 0.500000 0.308820
#
# Coordination Sequence:
#
# PCOD8065009 Si02
#       8
#     2   4   4   2   4   4   4   4
#     4  10  20  36  62  94 124 162 200 249 308 369
#     4  10  21  38  63  91 118 165 217 265 323 383
#     4   9  18  36  61  89 124 161 202 254 310 372
#     4  12  24  42  70  98 130 167 210 263 324 386
#     4  11  24  43  68  98 133 171 214 266 327 394
#     4  11  22  35  56  88 125 166 212 268 327 377
#     4  10  21  38  62  90 123 163 218 268 317 384
#     4  10  21  41  63  87 130 172 212 268 324 387
#
# _framework density 21.443518999999998
#
# number of rings (size 3 to 8) (size 9 to 14) (size 15 to 20)
#    0.000    1.714    2.143    3.000    0.000    4.857 
#    2.571    0.000    0.000    0.000    0.000    0.000 
#    0.000    0.000    0.000    0.000    0.000    0.000 
#
# Total GULP energy -346933.246404 kJ/mol
# GULP energy per Si atom -12390.473086 kJ/mol
# Density = 2.139471 g / cm^3
# Si number density = 21.443519 Si / 1000 Ang^3
#
#
#
# Elastic Constant Matrix: (Units=GPa)
#
#
# Indices 1 2 3 4 5 6 
#
# 1 93.4167 30.0176 45.3357 0.0000 17.2146 0.0000
# 2 30.0176 134.3721 33.7929 0.0000 17.3589 0.0000
# 3 45.3357 33.7929 116.1899 0.0000 34.0914 0.0000
# 4 0.0000 0.0000 0.0000 -265.9947 0.0000 266.9839
# 5 17.2146 17.3589 34.0914 0.0000 37.2138 0.0000
# 6 0.0000 0.0000 0.0000 266.9839 0.0000 -245.8195
#
#
#
# Elastic Compliance Matrix: (Units=1/GPa)
#
#
# Indices 1 2 3 4 5 6 
#
# 1 0.013673 -0.001759 -0.004388 0.000000 -0.001485 0.000000
# 2 -0.001759 0.008389 -0.001154 0.000000 -0.002042 0.000000
# 3 -0.004388 -0.001154 0.013540 0.000000 -0.009836 0.000000
# 4 0.000000 0.000000 0.000000 0.041709 0.000000 0.045300
# 5 -0.001485 -0.002042 -0.009836 0.000000 0.037522 0.000000
# 6 0.000000 0.000000 0.000000 0.045300 0.000000 0.045132
#
#
# Mechanical properties :
#
#
# Convention : Reuss Voigt Hill
#
# Bulk Modulus (GPa) = 47.61913 62.47456 55.04685
# Shear Modulus (GPa) = 27.53791 -79.26457 -25.86333
#
# Velocity S-wave (km/s) = 3.58747 -6.08643 -3.47668
# Velocity P-wave (km/s) = 6.27813 4.49389 3.09999
#
# Compressibility (1/GPa) = 0.02099996
#
# Stress axis : x y z
#
# Youngs Moduli (GPa) = 73.13681 119.20233 73.85298
#
# Poissons Ratio (x) = 0.20970 0.32405
# Poissons Ratio (y) = 0.12866 0.08525
# Poissons Ratio (z) = 0.32090 0.13760
#
# Static dielectric constant tensor:
#      x y z
#    x 3.620390 0.000000 0.195790 
#    y 0.000000 4.921170 0.000000 
#    z 0.195790 0.000000 4.098170 
# 
# 
# High freq. dielectric constant tensor:
#      x y z
#    x 1.811740 0.000000 0.006230 
#    y 0.000000 1.848970 0.000000 
#    z 0.006230 0.000000 1.850990 
# 
# From -- ./inp_files/86578.got.cif
#   From: 2010.06.25/outbox.cif.g09.slc.cpg/sg10_44_cif.got.tgz:86578.got - 2010.06.27 22:07:45.
