data_PCOD8065722
_publ_section_title
;
Structure prediction by ZEFSAII (Michael W. Deem and Ramdas Pophale) SiO2 
 PCOD8065722
Probable space group: P 2/M
;
_chemical_formula_sum "Si O2"
_cell_formula_units_Z 32
_cell_length_a 24.711564
_cell_length_b 9.321574
_cell_length_c 16.365991
_cell_angle_alpha 90.000000
_cell_angle_beta 152.730404
_cell_angle_gamma 90.000000
_cell_volume 1727.292840
_symmetry_space_group_name_H-M "P 2/M"
_symmetry_group_IT_number 10
_symmetry_cell_setting 'monoclinic'
loop_
_space_group_symop_operation_xyz
x,y,z
-x,y,-z
-x,-y,-z
x,-y,z
loop_
_atom_site_type_symbol
_atom_site_label
_atom_site_fract_x
_atom_site_fract_y
_atom_site_fract_z
Si Si1 0.002556 0.660902 0.689263
Si Si2 0.133678 0.170545 0.197707
Si Si3 0.407574 0.830799 0.271171
Si Si4 0.808020 0.668067 0.560484
Si Si5 0.187662 0.337097 0.701813
Si Si6 0.663538 0.829782 0.649217
Si Si7 0.200504 0.168645 0.883397
Si Si8 0.369055 0.329308 0.812867
O O1 0.052158 0.500000 0.766918
O O2 0.920570 0.702347 0.655173
O O3 0.932729 0.669215 0.510326
O O4 0.109498 0.772741 0.829080
O O5 0.182294 0.239208 0.345614
O O6 0.219893 0.227855 0.241034
O O7 0.138579 0.000000 0.214140
O O8 0.000000 0.222162 0.000000
O O9 0.542354 0.775482 0.442001
O O10 0.343429 0.770459 0.267243
O O11 0.411305 0.000000 0.287657
O O12 0.331868 0.788150 0.090074
O O13 0.802298 0.500000 0.574651
O O14 0.690234 0.717319 0.352721
O O15 0.213692 0.500000 0.764939
O O16 0.175364 0.237416 0.763022
O O17 0.292748 0.274071 0.786923
O O18 0.670202 0.000000 0.656369
O O19 0.183427 0.000000 0.853632
O O20 0.368829 0.500000 0.815281
O O21 0.500000 0.264751 0.000000
#
# Coordination Sequence:
#
# PCOD8065722 Si02
#       8
#     4   4   4   4   4   4   4   4
#     4   9  19  35  51  67  96 138 171 195 237 303
#     4  10  21  33  52  80 106 132 168 213 256 302
#     4   8  16  30  49  70  94 131 169 200 240 294
#     4   9  19  35  53  75 102 133 170 208 253 306
#     4   9  18  33  50  69  98 134 167 197 239 300
#     4   8  15  32  51  67  96 134 167 197 240 300
#     4  11  21  29  47  78 101 121 162 214 252 285
#     4   8  15  31  55  77  97 130 175 212 243 294
#
# _framework density 18.526098999999999
#
# number of rings (size 3 to 8) (size 9 to 14) (size 15 to 20)
#    0.000    3.000    0.000    3.000    1.750    3.750 
#    0.000    1.875    0.000    1.500    0.000    4.375 
#    0.000    0.000    0.000    0.000    0.000    0.000 
#
# Total GULP energy -396608.888620 kJ/mol
# GULP energy per Si atom -12394.027769 kJ/mol
# Density = 1.848393 g / cm^3
# Si number density = 18.526099 Si / 1000 Ang^3
#
#
#
# Elastic Constant Matrix: (Units=GPa)
#
#
# Indices 1 2 3 4 5 6 
#
# 1 95.5753 20.3823 44.1195 0.0000 9.8110 0.0000
# 2 20.3823 37.2556 21.7051 0.0000 1.6034 0.0000
# 3 44.1195 21.7051 82.0737 0.0000 14.9725 0.0000
# 4 0.0000 0.0000 0.0000 18.4868 0.0000 -6.2103
# 5 9.8110 1.6034 14.9725 0.0000 29.6621 0.0000
# 6 0.0000 0.0000 0.0000 -6.2103 0.0000 21.6670
#
#
#
# Elastic Compliance Matrix: (Units=1/GPa)
#
#
# Indices 1 2 3 4 5 6 
#
# 1 0.014444 -0.004092 -0.006445 0.000000 -0.001303 0.000000
# 2 -0.004092 0.033098 -0.007131 0.000000 0.003164 0.000000
# 3 -0.006445 -0.007131 0.018807 0.000000 -0.006976 0.000000
# 4 0.000000 0.000000 0.000000 0.059856 0.000000 0.017156
# 5 -0.001303 0.003164 -0.006976 0.000000 0.037494 0.000000
# 6 0.000000 0.000000 0.000000 0.017156 0.000000 0.051070
#
#
# Mechanical properties :
#
#
# Convention : Reuss Voigt Hill
#
# Bulk Modulus (GPa) = 32.24218 43.03538 37.63878
# Shear Modulus (GPa) = 19.19801 22.54302 20.87051
#
# Velocity S-wave (km/s) = 3.22260 3.49209 3.36005
# Velocity P-wave (km/s) = 5.59360 6.28805 5.95096
#
# Compressibility (1/GPa) = 0.03101528
#
# Stress axis : x y z
#
# Youngs Moduli (GPa) = 69.23096 30.21305 53.17127
#
# Poissons Ratio (x) = 0.12362 0.34269
# Poissons Ratio (y) = 0.28326 0.37915
# Poissons Ratio (z) = 0.44619 0.21544
#
# Static dielectric constant tensor:
#      x y z
#    x 3.520400 0.000000 0.207030 
#    y 0.000000 2.969140 0.000000 
#    z 0.207030 0.000000 3.658820 
# 
# 
# High freq. dielectric constant tensor:
#      x y z
#    x 1.721300 0.000000 0.004490 
#    y 0.000000 1.673710 0.000000 
#    z 0.004490 0.000000 1.725320 
# 
# From -- ./inp_files/71634.got.cif
#   From: 2010.06.25/outbox.cif.g09.slc.cpg/sg10_36_cif.got.tgz:71634.got - 2010.06.27 22:07:45.
