data_PCOD8065855
_publ_section_title
;
Structure prediction by ZEFSAII (Michael W. Deem and Ramdas Pophale) SiO2 
 PCOD8065855
Probable space group: P 2/M
;
_chemical_formula_sum "Si O2"
_cell_formula_units_Z 32
_cell_length_a 17.772587
_cell_length_b 9.051887
_cell_length_c 16.420244
_cell_angle_alpha 90.000000
_cell_angle_beta 39.328022
_cell_angle_gamma 90.000000
_cell_volume 1674.147426
_symmetry_space_group_name_H-M "P 2/M"
_symmetry_group_IT_number 10
_symmetry_cell_setting 'monoclinic'
loop_
_space_group_symop_operation_xyz
x,y,z
-x,y,-z
-x,-y,-z
x,-y,z
loop_
_atom_site_type_symbol
_atom_site_label
_atom_site_fract_x
_atom_site_fract_y
_atom_site_fract_z
Si Si1 0.402070 0.674396 0.476878
Si Si2 0.975854 0.172650 0.782845
Si Si3 0.267519 0.823296 0.314142
Si Si4 0.893194 0.172047 0.033257
Si Si5 0.661678 0.674945 0.292236
Si Si6 0.521845 0.160355 0.076527
Si Si7 0.771129 0.823843 0.835134
Si Si8 0.800960 0.325113 0.470608
O O1 0.399947 0.500000 0.486296
O O2 0.538771 0.724887 0.350531
O O3 0.346165 0.734045 0.608276
O O4 0.322200 0.727492 0.468089
O O5 0.883127 0.230678 0.792711
O O6 0.093968 0.267594 0.674375
O O7 0.004705 0.000000 0.746879
O O8 0.922873 0.205681 0.915220
O O9 0.403473 0.760561 0.211072
O O10 0.214934 0.773613 0.270555
O O11 0.187642 0.748846 0.450261
O O12 0.263761 0.000000 0.325713
O O13 0.770936 0.251648 0.155410
O O14 0.874995 0.000000 0.065463
O O15 0.000000 0.233722 0.000000
O O16 0.678843 0.500000 0.273949
O O17 0.531060 0.000000 0.111586
O O18 0.500000 0.135763 0.000000
O O19 0.649334 0.243917 0.978085
O O20 0.758242 0.000000 0.849291
O O21 0.809259 0.500000 0.472114
#
# Coordination Sequence:
#
# PCOD8065855 Si02
#       8
#     4   4   4   4   4   4   4   4
#     4   8  17  34  54  76 102 132 166 208 249 288
#     4  10  21  36  52  70  97 135 173 206 245 295
#     4   9  17  31  53  77  98 126 167 209 249 295
#     4  10  21  35  51  77 112 138 158 199 258 305
#     4   9  17  34  59  79  97 130 175 209 239 290
#     4   7  11  23  46  73  94 114 149 198 244 284
#     4   8  15  30  52  75  98 127 167 211 245 284
#     4  11  22  35  50  71 102 134 167 208 254 299
#
# _framework density 19.114205999999999
#
# number of rings (size 3 to 8) (size 9 to 14) (size 15 to 20)
#    0.000    3.000    0.000    3.375    0.000    2.250 
#    0.000    7.500    0.000    4.125    0.000    0.000 
#    0.000    0.000    0.000    0.000    0.000    0.000 
#
# Total GULP energy -396523.624110 kJ/mol
# GULP energy per Si atom -12391.363253 kJ/mol
# Density = 1.907070 g / cm^3
# Si number density = 19.114206 Si / 1000 Ang^3
#
#
#
# Elastic Constant Matrix: (Units=GPa)
#
#
# Indices 1 2 3 4 5 6 
#
# 1 136.7277 33.8586 61.6630 0.0000 -4.9319 0.0000
# 2 33.8586 37.2038 39.3407 0.0000 -3.3613 0.0000
# 3 61.6630 39.3407 117.6856 0.0000 -9.6168 0.0000
# 4 0.0000 0.0000 0.0000 23.9198 0.0000 -6.0168
# 5 -4.9319 -3.3613 -9.6168 0.0000 29.2631 0.0000
# 6 0.0000 0.0000 0.0000 -6.0168 0.0000 16.6471
#
#
#
# Elastic Compliance Matrix: (Units=1/GPa)
#
#
# Indices 1 2 3 4 5 6 
#
# 1 0.010296 -0.005670 -0.003505 0.000000 -0.000068 0.000000
# 2 -0.005670 0.044699 -0.011951 0.000000 0.000251 0.000000
# 3 -0.003505 -0.011951 0.014559 0.000000 0.002821 0.000000
# 4 0.000000 0.000000 0.000000 0.045987 0.000000 0.016621
# 5 -0.000068 0.000251 0.002821 0.000000 0.035117 0.000000
# 6 0.000000 0.000000 0.000000 0.016621 0.000000 0.066078
#
#
# Mechanical properties :
#
#
# Convention : Reuss Voigt Hill
#
# Bulk Modulus (GPa) = 36.62639 62.37129 49.49884
# Shear Modulus (GPa) = 18.65042 24.41631 21.53337
#
# Velocity S-wave (km/s) = 3.12707 3.57794 3.36007
# Velocity P-wave (km/s) = 5.67816 7.05482 6.40360
#
# Compressibility (1/GPa) = 0.02730272
#
# Stress axis : x y z
#
# Youngs Moduli (GPa) = 97.12315 22.37163 68.68524
#
# Poissons Ratio (x) = 0.12686 0.24073
# Poissons Ratio (y) = 0.55073 0.82085
# Poissons Ratio (z) = 0.34040 0.26736
#
# Static dielectric constant tensor:
#      x y z
#    x 3.846430 0.000000 -0.151540 
#    y 0.000000 2.982620 0.000000 
#    z -0.151540 0.000000 3.528410 
# 
# 
# High freq. dielectric constant tensor:
#      x y z
#    x 1.749400 0.000000 -0.009180 
#    y 0.000000 1.691820 0.000000 
#    z -0.009180 0.000000 1.748160 
# 
# From -- ./inp_files/69976.got.cif
#   From: 2010.06.25/outbox.cif.g09.slc.cpg/sg10_35_cif.got.tgz:69976.got - 2010.06.27 22:07:45.
