data_PCOD8065518
_publ_section_title
;
Structure prediction by ZEFSAII (Michael W. Deem and Ramdas Pophale) SiO2 
 PCOD8065518
Probable space group: P 2/M
;
_chemical_formula_sum "Si O2"
_cell_formula_units_Z 28
_cell_length_a 21.943375
_cell_length_b 8.934793
_cell_length_c 24.321661
_cell_angle_alpha 90.000000
_cell_angle_beta 17.504070
_cell_angle_gamma 90.000000
_cell_volume 1434.236554
_symmetry_space_group_name_H-M "P 2/M"
_symmetry_group_IT_number 10
_symmetry_cell_setting 'monoclinic'
loop_
_space_group_symop_operation_xyz
x,y,z
-x,y,-z
-x,-y,-z
x,-y,z
loop_
_atom_site_type_symbol
_atom_site_label
_atom_site_fract_x
_atom_site_fract_y
_atom_site_fract_z
Si Si1 0.560158 0.172677 0.008170
Si Si2 0.212735 0.668355 0.786818
Si Si3 0.855328 0.827323 0.576337
Si Si4 0.026638 0.325261 0.324333
Si Si5 0.398840 0.824331 0.725485
Si Si6 0.979763 0.175627 0.145415
Si Si7 0.813317 0.676464 0.394380
O O1 0.748372 0.260638 0.870544
O O2 0.622319 0.000000 0.948649
O O3 0.500000 0.236109 0.000000
O O4 0.377130 0.196058 0.207691
O O5 0.291070 0.500000 0.708056
O O6 0.372850 0.754991 0.687094
O O7 0.189297 0.756146 0.749828
O O8 0.000000 0.665117 0.000000
O O9 0.000000 0.763953 0.500000
O O10 0.891904 0.739259 0.489193
O O11 0.909527 0.000000 0.519460
O O12 0.043097 0.500000 0.318739
O O13 0.919223 0.282403 0.360202
O O14 0.591390 0.748594 0.587859
O O15 0.434840 0.000000 0.687840
O O16 0.205595 0.789407 0.929926
O O17 0.953573 0.252546 0.226668
O O18 0.939502 0.000000 0.184747
O O19 0.794417 0.500000 0.401026
#
# Coordination Sequence:
#
# PCOD8065518 Si02
#       7
#     4   4   4   4   4   4   4
#     4  10  20  38  64  90 117 151 191 235 285 343
#     4   9  17  32  57  88 120 155 193 238 297 358
#     4  10  20  38  64  90 117 151 191 235 285 343
#     4  11  25  41  58  86 123 157 193 242 294 349
#     4  10  21  38  61  88 118 152 197 251 300 345
#     4  10  21  38  61  88 118 152 197 251 300 345
#     4  11  25  42  58  81 117 161 202 240 290 354
#
# _framework density 19.522580999999999
#
# number of rings (size 3 to 8) (size 9 to 14) (size 15 to 20)
#    0.000    1.857    1.429    2.143    0.000    8.571 
#    0.000    8.571    0.000    0.000    0.000    0.000 
#    0.000    0.000    0.000    0.000    0.000    0.000 
#
# Total GULP energy -347321.798849 kJ/mol
# GULP energy per Si atom -12404.349959 kJ/mol
# Density = 1.947815 g / cm^3
# Si number density = 19.522581 Si / 1000 Ang^3
#
#
#
# Elastic Constant Matrix: (Units=GPa)
#
#
# Indices 1 2 3 4 5 6 
#
# 1 146.7912 87.6711 77.8358 0.0000 -26.6760 0.0000
# 2 87.6711 119.2873 57.7387 0.0000 -16.3309 0.0000
# 3 77.8358 57.7387 110.2577 0.0000 -6.4198 0.0000
# 4 0.0000 0.0000 0.0000 24.5463 0.0000 0.6799
# 5 -26.6760 -16.3309 -6.4198 0.0000 8.2438 0.0000
# 6 0.0000 0.0000 0.0000 0.6799 0.0000 22.2531
#
#
#
# Elastic Compliance Matrix: (Units=1/GPa)
#
#
# Indices 1 2 3 4 5 6 
#
# 1 0.035800 -0.005512 -0.017050 0.000000 0.091649 0.000000
# 2 -0.005512 0.015624 -0.003695 0.000000 0.010239 0.000000
# 3 -0.017050 -0.003695 0.020324 0.000000 -0.046665 0.000000
# 4 0.000000 0.000000 0.000000 0.040774 0.000000 -0.001246
# 5 0.091649 0.010239 -0.046665 0.000000 0.401810 0.000000
# 6 0.000000 0.000000 0.000000 -0.001246 0.000000 0.044976
#
#
# Mechanical properties :
#
#
# Convention : Reuss Voigt Hill
#
# Bulk Modulus (GPa) = 51.98935 91.42526 71.70731
# Shear Modulus (GPa) = 8.08756 21.21470 14.65113
#
# Velocity S-wave (km/s) = 2.03756 3.30005 2.74244
# Velocity P-wave (km/s) = 5.67659 7.83917 6.84384
#
# Compressibility (1/GPa) = 0.01923471
#
# Stress axis : x y z
#
# Youngs Moduli (GPa) = 27.93260 64.00378 49.20269
#
# Poissons Ratio (x) = 0.35277 0.83893
# Poissons Ratio (y) = 0.15396 0.18179
# Poissons Ratio (z) = 0.47626 0.23648
#
# Static dielectric constant tensor:
#      x y z
#    x 3.585130 0.000000 -0.012060 
#    y 0.000000 3.637380 0.000000 
#    z -0.012060 0.000000 3.508460 
# 
# 
# High freq. dielectric constant tensor:
#      x y z
#    x 1.760320 0.000000 0.001780 
#    y 0.000000 1.766640 0.000000 
#    z 0.001780 0.000000 1.768650 
# 
# From -- ./inp_files/90339.got.cif
#   From: 2010.06.25/outbox.cif.g09.slc.cpg/sg10_46_cif.got.tgz:90339.got - 2010.06.27 22:07:45.
