data_PCOD8065418
_publ_section_title
;
Structure prediction by ZEFSAII (Michael W. Deem and Ramdas Pophale) SiO2 
 PCOD8065418
Probable space group: P 2/M
;
_chemical_formula_sum "Si O2"
_cell_formula_units_Z 28
_cell_length_a 12.559635
_cell_length_b 8.900671
_cell_length_c 14.380566
_cell_angle_alpha 90.000000
_cell_angle_beta 58.625342
_cell_angle_gamma 90.000000
_cell_volume 1372.531473
_symmetry_space_group_name_H-M "P 2/M"
_symmetry_group_IT_number 10
_symmetry_cell_setting 'monoclinic'
loop_
_space_group_symop_operation_xyz
x,y,z
-x,y,-z
-x,-y,-z
x,-y,z
loop_
_atom_site_type_symbol
_atom_site_label
_atom_site_fract_x
_atom_site_fract_y
_atom_site_fract_z
Si Si1 0.351143 0.822408 0.316958
Si Si2 0.990202 0.676752 0.224976
Si Si3 0.512291 0.324207 0.386923
Si Si4 0.454146 0.178535 0.923270
Si Si5 0.770098 0.826150 0.231142
Si Si6 0.098730 0.673508 0.374252
Si Si7 0.179175 0.826083 0.001387
O O1 0.387305 0.742782 0.397088
O O2 0.452277 0.762199 0.197365
O O3 0.216043 0.776260 0.343096
O O4 0.355417 0.000000 0.328227
O O5 0.971286 0.500000 0.229281
O O6 0.041873 0.727122 0.301795
O O7 0.854953 0.751627 0.272138
O O8 0.080977 0.727133 0.101430
O O9 0.500000 0.285132 0.500000
O O10 0.520004 0.500000 0.364495
O O11 0.634728 0.248238 0.288262
O O12 0.315232 0.235585 0.966897
O O13 0.456175 0.000000 0.923427
O O14 0.500000 0.245992 0.000000
O O15 0.839234 0.805652 0.100600
O O16 0.751260 0.000000 0.263146
O O17 0.139916 0.500000 0.350759
O O18 0.000000 0.700756 0.500000
O O19 0.161385 0.000000 0.038030
#
# Coordination Sequence:
#
# PCOD8065418 Si02
#       7
#     4   4   4   4   4   4   4
#     4  11  22  40  66  96 125 157 206 260 306 360
#     4  11  24  40  61  91 126 166 213 258 308 371
#     4  11  25  43  65  92 127 169 206 248 313 376
#     4   9  17  32  57  87 122 160 195 242 304 364
#     4  11  23  41  65  93 126 163 207 260 314 367
#     4  10  24  45  64  85 123 170 209 253 313 373
#     4  10  20  38  60  88 126 164 203 250 315 373
#
# _framework density 20.400261
#
# number of rings (size 3 to 8) (size 9 to 14) (size 15 to 20)
#    0.000    1.571    1.429    3.000    2.000    6.571 
#    0.000    0.000    0.000    3.000    0.000    0.000 
#    0.000    0.000    0.000    0.000    0.000    0.000 
#
# Total GULP energy -347334.032208 kJ/mol
# GULP energy per Si atom -12404.786865 kJ/mol
# Density = 2.035383 g / cm^3
# Si number density = 20.400261 Si / 1000 Ang^3
#
#
#
# Elastic Constant Matrix: (Units=GPa)
#
#
# Indices 1 2 3 4 5 6 
#
# 1 142.9146 45.9364 29.2641 0.0000 19.1476 0.0000
# 2 45.9364 74.7606 36.2139 0.0000 14.5655 0.0000
# 3 29.2641 36.2139 69.5270 0.0000 11.3617 0.0000
# 4 0.0000 0.0000 0.0000 24.0142 0.0000 -1.1237
# 5 19.1476 14.5655 11.3617 0.0000 33.6789 0.0000
# 6 0.0000 0.0000 0.0000 -1.1237 0.0000 36.4119
#
#
#
# Elastic Compliance Matrix: (Units=1/GPa)
#
#
# Indices 1 2 3 4 5 6 
#
# 1 0.009033 -0.004519 -0.000982 0.000000 -0.002850 0.000000
# 2 -0.004519 0.020936 -0.008406 0.000000 -0.003649 0.000000
# 3 -0.000982 -0.008406 0.019568 0.000000 -0.002407 0.000000
# 4 0.000000 0.000000 0.000000 0.041702 0.000000 0.001287
# 5 -0.002850 -0.003649 -0.002407 0.000000 0.033703 0.000000
# 6 0.000000 0.000000 0.000000 0.001287 0.000000 0.027503
#
#
# Mechanical properties :
#
#
# Convention : Reuss Voigt Hill
#
# Bulk Modulus (GPa) = 46.03773 56.67012 51.35392
# Shear Modulus (GPa) = 26.66664 30.54020 28.60342
#
# Velocity S-wave (km/s) = 3.61941 3.87337 3.74854
# Velocity P-wave (km/s) = 6.33111 6.91689 6.63048
#
# Compressibility (1/GPa) = 0.02172132
#
# Stress axis : x y z
#
# Youngs Moduli (GPa) = 110.70923 47.76548 51.10331
#
# Poissons Ratio (x) = 0.21585 0.05021
# Poissons Ratio (y) = 0.50030 0.42958
# Poissons Ratio (z) = 0.10876 0.40152
#
# Static dielectric constant tensor:
#      x y z
#    x 3.931030 0.000000 0.112140 
#    y 0.000000 3.522520 0.000000 
#    z 0.112140 0.000000 3.729510 
# 
# 
# High freq. dielectric constant tensor:
#      x y z
#    x 1.817080 0.000000 0.004820 
#    y 0.000000 1.784620 0.000000 
#    z 0.004820 0.000000 1.800380 
# 
# From -- ./inp_files/63626.got.cif
#   From: 2010.06.25/outbox.cif.g09.slc.cpg/sg10_32_cif.got.tgz:63626.got - 2010.06.27 22:07:45.
