data_PCOD8065849
_publ_section_title
;
Structure prediction by ZEFSAII (Michael W. Deem and Ramdas Pophale) SiO2 
 PCOD8065849
Probable space group: P 2/M
;
_chemical_formula_sum "Si O2"
_cell_formula_units_Z 28
_cell_length_a 9.830087
_cell_length_b 9.084668
_cell_length_c 29.820466
_cell_angle_alpha 90.000000
_cell_angle_beta 143.641033
_cell_angle_gamma 90.000000
_cell_volume 1578.774242
_symmetry_space_group_name_H-M "P 2/M"
_symmetry_group_IT_number 10
_symmetry_cell_setting 'monoclinic'
loop_
_space_group_symop_operation_xyz
x,y,z
-x,y,-z
-x,-y,-z
x,-y,z
loop_
_atom_site_type_symbol
_atom_site_label
_atom_site_fract_x
_atom_site_fract_y
_atom_site_fract_z
Si Si1 0.245795 0.830163 0.443657
Si Si2 0.364094 0.837986 0.010024
Si Si3 0.034333 0.173875 0.154955
Si Si4 0.555361 0.828302 0.281435
Si Si5 0.839245 0.167643 0.270378
Si Si6 0.947038 0.672446 0.435073
Si Si7 0.751885 0.326496 0.156719
O O1 0.500000 0.774036 0.500000
O O2 0.089237 0.808534 0.358267
O O3 0.153241 0.735436 0.460184
O O4 0.245387 0.000000 0.458693
O O5 0.491139 0.725976 0.077088
O O6 0.356520 0.000000 0.030825
O O7 0.500000 0.848188 0.000000
O O8 0.107941 0.784647 0.928185
O O9 0.293848 0.224845 0.215786
O O10 0.936118 0.256430 0.172087
O O11 0.013770 0.000000 0.158698
O O12 0.644599 0.794051 0.255208
O O13 0.703078 0.742092 0.357326
O O14 0.582711 0.000000 0.299388
O O15 0.815782 0.280532 0.223710
O O16 0.811424 0.000000 0.245764
O O17 0.931400 0.500000 0.422829
O O18 0.000000 0.713746 0.500000
O O19 0.762517 0.500000 0.154638
#
# Coordination Sequence:
#
# PCOD8065849 Si02
#       7
#     4   4   4   4   4   4   4
#     4   9  19  36  57  78  98 127 171 216 252 289
#     4   8  15  30  51  72  97 129 164 206 253 293
#     4   9  18  34  55  77  99 126 165 212 256 295
#     4   9  19  36  57  77  97 128 170 211 251 294
#     4   9  18  34  53  73 100 131 164 205 251 296
#     4  10  21  35  51  75 107 138 165 198 247 304
#     4  11  21  31  48  75 104 135 169 202 242 296
#
# _framework density 17.735277
#
# number of rings (size 3 to 8) (size 9 to 14) (size 15 to 20)
#    0.000    2.714    0.000    3.429    0.000    8.000 
#    0.000    5.000    0.000    4.286    0.000    0.000 
#    0.000    0.000    0.000    0.000    0.000    0.000 
#
# Total GULP energy -347176.957307 kJ/mol
# GULP energy per Si atom -12399.177047 kJ/mol
# Density = 1.769491 g / cm^3
# Si number density = 17.735277 Si / 1000 Ang^3
#
#
#
# Elastic Constant Matrix: (Units=GPa)
#
#
# Indices 1 2 3 4 5 6 
#
# 1 87.0669 47.9904 84.1934 0.0000 11.0491 0.0000
# 2 47.9904 77.1521 59.4123 0.0000 -1.0440 0.0000
# 3 84.1934 59.4123 142.0989 0.0000 18.9888 0.0000
# 4 0.0000 0.0000 0.0000 17.5188 0.0000 -5.4124
# 5 11.0491 -1.0440 18.9888 0.0000 32.0420 0.0000
# 6 0.0000 0.0000 0.0000 -5.4124 0.0000 17.2439
#
#
#
# Elastic Compliance Matrix: (Units=1/GPa)
#
#
# Indices 1 2 3 4 5 6 
#
# 1 0.029487 -0.007570 -0.014025 0.000000 -0.002103 0.000000
# 2 -0.007570 0.022114 -0.005654 0.000000 0.006681 0.000000
# 3 -0.014025 -0.005654 0.018559 0.000000 -0.006346 0.000000
# 4 0.000000 0.000000 0.000000 0.063211 0.000000 0.019840
# 5 -0.002103 0.006681 -0.006346 0.000000 0.035913 0.000000
# 6 0.000000 0.000000 0.000000 0.019840 0.000000 0.064219
#
#
# Mechanical properties :
#
#
# Convention : Reuss Voigt Hill
#
# Bulk Modulus (GPa) = 63.84450 76.61224 70.22837
# Shear Modulus (GPa) = 17.05203 21.00908 19.03056
#
# Velocity S-wave (km/s) = 3.10413 3.44553 3.27927
# Velocity P-wave (km/s) = 6.99459 7.68897 7.34998
#
# Compressibility (1/GPa) = 0.01566306
#
# Stress axis : x y z
#
# Youngs Moduli (GPa) = 33.91365 45.21973 53.88243
#
# Poissons Ratio (x) = 0.34231 0.75569
# Poissons Ratio (y) = 0.25672 0.30464
# Poissons Ratio (z) = 0.47563 0.25566
#
# Static dielectric constant tensor:
#      x y z
#    x 3.164800 0.000000 0.240300 
#    y 0.000000 3.185890 0.000000 
#    z 0.240300 0.000000 3.677290 
# 
# 
# High freq. dielectric constant tensor:
#      x y z
#    x 1.666710 0.000000 0.004810 
#    y 0.000000 1.678240 0.000000 
#    z 0.004810 0.000000 1.697720 
# 
# From -- ./inp_files/94540.got.cif
#   From: 2010.06.25/outbox.cif.g09.slc.cpg/sg10_48_cif.got.tgz:94540.got - 2010.06.27 22:07:45.
