data_PCOD8065246
_publ_section_title
;
Structure prediction by ZEFSAII (Michael W. Deem and Ramdas Pophale) SiO2 
 PCOD8065246
Probable space group: P 2/M
;
_chemical_formula_sum "Si O2"
_cell_formula_units_Z 28
_cell_length_a 27.326642
_cell_length_b 8.655530
_cell_length_c 9.720201
_cell_angle_alpha 90.000000
_cell_angle_beta 142.049064
_cell_angle_gamma 90.000000
_cell_volume 1413.906622
_symmetry_space_group_name_H-M "P 2/M"
_symmetry_group_IT_number 10
_symmetry_cell_setting 'monoclinic'
loop_
_space_group_symop_operation_xyz
x,y,z
-x,y,-z
-x,-y,-z
x,-y,z
loop_
_atom_site_type_symbol
_atom_site_label
_atom_site_fract_x
_atom_site_fract_y
_atom_site_fract_z
Si Si1 0.510647 0.672369 0.361531
Si Si2 0.220659 0.679880 0.491609
Si Si3 0.197266 0.820424 0.153556
Si Si4 0.937028 0.178653 0.742757
Si Si5 0.969561 0.321142 0.283082
Si Si6 0.330512 0.179642 0.236572
Si Si7 0.649969 0.180504 0.032798
O O1 0.500000 0.672361 0.500000
O O2 0.502650 0.500000 0.282912
O O3 0.598388 0.736513 0.523354
O O4 0.442752 0.781020 0.145684
O O5 0.200808 0.500000 0.461789
O O6 0.231514 0.722366 0.356017
O O7 0.150162 0.779868 0.399653
O O8 0.300867 0.719840 0.749721
O O9 0.248298 0.780187 0.130843
O O10 0.203641 0.000000 0.206179
O O11 0.106028 0.781632 0.922477
O O12 0.958234 0.282842 0.658913
O O13 0.939243 0.000000 0.704914
O O14 0.000000 0.217277 0.000000
O O15 0.945684 0.500000 0.219697
O O16 0.000000 0.275438 0.500000
O O17 0.350973 0.000000 0.285761
O O18 0.323626 0.232926 0.062444
O O19 0.665121 0.000000 0.090821
#
# Coordination Sequence:
#
# PCOD8065246 Si02
#       7
#     4   4   4   4   4   4   4
#     4   9  17  32  56  87 120 154 191 236 290 346
#     4  12  25  40  60  87 120 156 195 245 298 349
#     4  11  23  41  61  86 118 157 199 241 292 352
#     4  11  23  41  65  88 113 155 202 241 287 349
#     4  11  25  42  61  90 122 154 193 242 297 348
#     4   9  20  37  60  88 117 153 195 240 291 345
#     4  10  20  37  61  89 119 154 196 242 287 347
#
# _framework density 19.803287999999998
#
# number of rings (size 3 to 8) (size 9 to 14) (size 15 to 20)
#    0.000    1.571    1.429    3.429    2.000    5.143 
#    0.000    0.714    0.000    4.286    0.000    0.000 
#    0.000    0.000    0.000    0.000    0.000    0.000 
#
# Total GULP energy -347338.660343 kJ/mol
# GULP energy per Si atom -12404.952155 kJ/mol
# Density = 1.975821 g / cm^3
# Si number density = 19.803288 Si / 1000 Ang^3
#
#
#
# Elastic Constant Matrix: (Units=GPa)
#
#
# Indices 1 2 3 4 5 6 
#
# 1 55.8289 19.7549 21.9298 0.0000 -8.2207 0.0000
# 2 19.7549 58.7013 33.1816 0.0000 -9.1962 0.0000
# 3 21.9298 33.1816 103.9346 0.0000 -5.9225 0.0000
# 4 0.0000 0.0000 0.0000 34.6767 0.0000 2.7717
# 5 -8.2207 -9.1962 -5.9225 0.0000 26.5928 0.0000
# 6 0.0000 0.0000 0.0000 2.7717 0.0000 24.8297
#
#
#
# Elastic Compliance Matrix: (Units=1/GPa)
#
#
# Indices 1 2 3 4 5 6 
#
# 1 0.021362 -0.005014 -0.002663 0.000000 0.004277 0.000000
# 2 -0.005014 0.022880 -0.005960 0.000000 0.005035 0.000000
# 3 -0.002663 -0.005960 0.012075 0.000000 -0.000195 0.000000
# 4 0.000000 0.000000 0.000000 0.029097 0.000000 -0.003248
# 5 0.004277 0.005035 -0.000195 0.000000 0.040624 0.000000
# 6 0.000000 0.000000 0.000000 -0.003248 0.000000 0.040637
#
#
# Mechanical properties :
#
#
# Convention : Reuss Voigt Hill
#
# Bulk Modulus (GPa) = 34.43047 40.91083 37.67065
# Shear Modulus (GPa) = 24.55439 26.79308 25.67374
#
# Velocity S-wave (km/s) = 3.52506 3.68225 3.60451
# Velocity P-wave (km/s) = 5.83027 6.22753 6.03217
#
# Compressibility (1/GPa) = 0.02904404
#
# Stress axis : x y z
#
# Youngs Moduli (GPa) = 46.81281 43.70564 82.81651
#
# Poissons Ratio (x) = 0.21913 0.22053
# Poissons Ratio (y) = 0.23470 0.49357
# Poissons Ratio (z) = 0.12466 0.26048
#
# Static dielectric constant tensor:
#      x y z
#    x 3.629750 0.000000 0.067120 
#    y 0.000000 3.638290 0.000000 
#    z 0.067120 0.000000 3.696710 
# 
# 
# High freq. dielectric constant tensor:
#      x y z
#    x 1.764240 0.000000 0.008730 
#    y 0.000000 1.780730 0.000000 
#    z 0.008730 0.000000 1.771870 
# 
# From -- ./inp_files/37230.got.cif
#   From: 2010.06.25/outbox.cif.g09.slc.cpg/sg10_19_cif.got.tgz:37230.got - 2010.06.27 22:07:45.
