data_PCOD8065793
_publ_section_title
;
Structure prediction by ZEFSAII (Michael W. Deem and Ramdas Pophale) SiO2 
 PCOD8065793
Probable space group: P 2/M
;
_chemical_formula_sum "Si O2"
_cell_formula_units_Z 26
_cell_length_a 9.740562
_cell_length_b 11.344871
_cell_length_c 23.064427
_cell_angle_alpha 90.000000
_cell_angle_beta 150.735020
_cell_angle_gamma 90.000000
_cell_volume 1245.951907
_symmetry_space_group_name_H-M "P 2/M"
_symmetry_group_IT_number 10
_symmetry_cell_setting 'monoclinic'
loop_
_space_group_symop_operation_xyz
x,y,z
-x,y,-z
-x,-y,-z
x,-y,z
loop_
_atom_site_type_symbol
_atom_site_label
_atom_site_fract_x
_atom_site_fract_y
_atom_site_fract_z
Si Si1 0.730460 0.756965 0.766244
Si Si2 0.163206 0.861883 0.002839
Si Si3 0.802361 0.138484 0.375023
Si Si4 0.755940 0.500000 0.277578
Si Si5 0.311392 0.742390 0.380478
Si Si6 0.531361 0.500000 0.707246
Si Si7 0.251715 0.749219 0.762650
Si Si8 0.394019 0.500000 0.532377
O O1 0.515575 0.827510 0.727842
O O2 0.662099 0.794966 0.674661
O O3 0.723577 0.616765 0.775329
O O4 0.037787 0.799129 0.899445
O O5 0.125269 0.000000 0.981850
O O6 0.492682 0.833661 0.126944
O O7 0.000000 0.816098 0.000000
O O8 0.894728 0.208127 0.351343
O O9 0.000000 0.182106 0.500000
O O10 0.829099 0.000000 0.373690
O O11 0.673702 0.500000 0.314235
O O12 0.630809 0.616219 0.201078
O O13 0.090378 0.500000 0.391049
O O14 0.500000 0.808532 0.500000
O O15 0.419339 0.609046 0.419048
O O16 0.983431 0.752548 0.274611
O O17 0.331832 0.500000 0.577787
#
# Coordination Sequence:
#
# PCOD8065793 Si02
#       8
#     4   4   4   2   4   2   4   2
#     4  11  23  41  66  95 132 176 215 269 332 391
#     4  11  23  45  71  91 123 175 231 278 322 382
#     4  11  23  40  62  91 125 168 225 279 325 378
#     4  12  20  35  64 102 136 168 217 269 327 401
#     4  11  22  40  61  97 139 173 211 257 326 405
#     4  10  21  34  61 105 134 161 219 277 324 389
#     4  12  24  38  66  98 129 173 218 270 325 387
#     4  10  21  36  62  93 140 186 204 244 336 414
#
# _framework density 20.867578999999999
#
# number of rings (size 3 to 8) (size 9 to 14) (size 15 to 20)
#    0.000    0.923    4.615    2.769    2.154    1.231 
#    0.000    5.385    0.000    9.231    0.000    0.000 
#    0.000    0.000    0.000    0.000    0.000    0.000 
#
# Total GULP energy -322410.134216 kJ/mol
# GULP energy per Si atom -12400.389778 kJ/mol
# Density = 2.082008 g / cm^3
# Si number density = 20.867579 Si / 1000 Ang^3
#
#
#
# Elastic Constant Matrix: (Units=GPa)
#
#
# Indices 1 2 3 4 5 6 
#
# 1 103.2201 13.4563 20.3640 0.0000 4.9747 0.0000
# 2 13.4563 77.0075 16.9066 0.0000 -7.0880 0.0000
# 3 20.3640 16.9066 95.3776 0.0000 -5.4468 0.0000
# 4 0.0000 0.0000 0.0000 32.0260 0.0000 -1.0356
# 5 4.9747 -7.0880 -5.4468 0.0000 35.2817 0.0000
# 6 0.0000 0.0000 0.0000 -1.0356 0.0000 13.7294
#
#
#
# Elastic Compliance Matrix: (Units=1/GPa)
#
#
# Indices 1 2 3 4 5 6 
#
# 1 0.010399 -0.001557 -0.002064 0.000000 -0.002098 0.000000
# 2 -0.001557 0.013943 -0.001984 0.000000 0.002714 0.000000
# 3 -0.002064 -0.001984 0.011371 0.000000 0.001648 0.000000
# 4 0.000000 0.000000 0.000000 0.031301 0.000000 0.002361
# 5 -0.002098 0.002714 0.001648 0.000000 0.029439 0.000000
# 6 0.000000 0.000000 0.000000 0.002361 0.000000 0.073015
#
#
# Mechanical properties :
#
#
# Convention : Reuss Voigt Hill
#
# Bulk Modulus (GPa) = 40.81116 41.89543 41.35329
# Shear Modulus (GPa) = 26.47652 31.19931 28.83792
#
# Velocity S-wave (km/s) = 3.56587 3.87086 3.72149
# Velocity P-wave (km/s) = 6.04595 6.33233 6.19080
#
# Compressibility (1/GPa) = 0.02450310
#
# Stress axis : x y z
#
# Youngs Moduli (GPa) = 96.15977 71.71914 87.94169
#
# Poissons Ratio (x) = 0.11167 0.18153
# Poissons Ratio (y) = 0.14973 0.17449
# Poissons Ratio (z) = 0.19849 0.14230
#
# Static dielectric constant tensor:
#      x y z
#    x 3.926250 0.000000 -0.230460 
#    y 0.000000 3.746630 0.000000 
#    z -0.230460 0.000000 3.694600 
# 
# 
# High freq. dielectric constant tensor:
#      x y z
#    x 1.823640 0.000000 -0.005130 
#    y 0.000000 1.811550 0.000000 
#    z -0.005130 0.000000 1.805790 
# 
# From -- ./inp_files/88154.got.cif
#   From: 2010.06.25/outbox.cif.g09.slc.cpg/sg10_45_cif.got.tgz:88154.got - 2010.06.27 22:07:45.
