data_PCOD8065605
_publ_section_title
;
Structure prediction by ZEFSAII (Michael W. Deem and Ramdas Pophale) SiO2 
 PCOD8065605
Probable space group: P 2/M
;
_chemical_formula_sum "Si O2"
_cell_formula_units_Z 28
_cell_length_a 14.798773
_cell_length_b 13.182425
_cell_length_c 7.576746
_cell_angle_alpha 90.000000
_cell_angle_beta 59.732293
_cell_angle_gamma 90.000000
_cell_volume 1276.604867
_symmetry_space_group_name_H-M "P 2/M"
_symmetry_group_IT_number 10
_symmetry_cell_setting 'monoclinic'
loop_
_space_group_symop_operation_xyz
x,y,z
-x,y,-z
-x,-y,-z
x,-y,z
loop_
_atom_site_type_symbol
_atom_site_label
_atom_site_fract_x
_atom_site_fract_y
_atom_site_fract_z
Si Si1 0.729789 0.304542 0.747707
Si Si2 0.601444 0.710660 0.203578
Si Si3 0.253202 0.115800 0.833618
Si Si4 0.925557 0.389077 0.738382
Si Si5 0.382739 0.616063 0.465458
Si Si6 0.173534 0.883625 0.519670
Si Si7 0.038170 0.181930 0.150585
O O1 0.810813 0.369915 0.778218
O O2 0.708873 0.360020 0.582310
O O3 0.769291 0.189742 0.675936
O O4 0.628192 0.308101 0.972707
O O5 0.643223 0.822241 0.215044
O O6 0.476595 0.696415 0.338822
O O7 0.655488 0.633984 0.294386
O O8 0.217428 0.143089 0.670502
O O9 0.285897 0.000000 0.819635
O O10 0.156066 0.139845 0.063509
O O11 0.930645 0.500000 0.824397
O O12 0.959667 0.304209 0.845108
O O13 0.000000 0.382816 0.500000
O O14 0.420629 0.500000 0.405798
O O15 0.047984 0.862747 0.628697
O O16 0.197077 0.000000 0.445529
O O17 0.000000 0.143193 0.000000
#
# Coordination Sequence:
#
# PCOD8065605 Si02
#       7
#     4   4   4   4   4   4   4
#     4  12  23  42  67  96 133 169 213 268 319 386
#     4  11  23  42  67  98 127 158 218 275 318 389
#     4  10  20  39  66  97 132 172 214 265 327 382
#     4  11  23  38  56  88 131 171 209 255 315 382
#     4  11  26  47  69  94 127 169 217 271 329 384
#     4  10  21  39  65  95 133 175 215 263 319 380
#     4  10  20  39  63  94 132 171 220 267 305 378
#
# _framework density 21.933178000000002
#
# number of rings (size 3 to 8) (size 9 to 14) (size 15 to 20)
#    0.000    1.286    4.286    2.143    0.000    5.429 
#    0.000    2.857    0.000    1.714    0.000    0.000 
#    0.000    0.000    0.000    0.000    0.000    0.000 
#
# Total GULP energy -347062.432119 kJ/mol
# GULP energy per Si atom -12395.086861 kJ/mol
# Density = 2.188326 g / cm^3
# Si number density = 21.933178 Si / 1000 Ang^3
#
#
#
# Elastic Constant Matrix: (Units=GPa)
#
#
# Indices 1 2 3 4 5 6 
#
# 1 50.5393 24.4713 10.4855 0.0000 -2.2449 0.0000
# 2 24.4713 116.3490 30.2963 0.0000 -12.2956 0.0000
# 3 10.4855 30.2963 85.1017 0.0000 -1.6947 0.0000
# 4 0.0000 0.0000 0.0000 26.8265 0.0000 3.2571
# 5 -2.2449 -12.2956 -1.6947 0.0000 29.7204 0.0000
# 6 0.0000 0.0000 0.0000 3.2571 0.0000 34.5350
#
#
#
# Elastic Compliance Matrix: (Units=1/GPa)
#
#
# Indices 1 2 3 4 5 6 
#
# 1 0.022138 -0.004372 -0.001175 0.000000 -0.000203 0.000000
# 2 -0.004372 0.010768 -0.003216 0.000000 0.003941 0.000000
# 3 -0.001175 -0.003216 0.013027 0.000000 -0.000677 0.000000
# 4 0.000000 0.000000 0.000000 0.037708 0.000000 -0.003556
# 5 -0.000203 0.003941 -0.000677 0.000000 0.035223 0.000000
# 6 0.000000 0.000000 0.000000 -0.003556 0.000000 0.029292
#
#
# Mechanical properties :
#
#
# Convention : Reuss Voigt Hill
#
# Bulk Modulus (GPa) = 35.20309 42.49957 38.85133
# Shear Modulus (GPa) = 28.54648 30.66551 29.60600
#
# Velocity S-wave (km/s) = 3.61157 3.74322 3.67799
# Velocity P-wave (km/s) = 5.78587 6.17261 5.98237
#
# Compressibility (1/GPa) = 0.02840659
#
# Stress axis : x y z
#
# Youngs Moduli (GPa) = 45.17077 92.86465 76.76340
#
# Poissons Ratio (x) = 0.40598 0.09023
# Poissons Ratio (y) = 0.19747 0.24690
# Poissons Ratio (z) = 0.05309 0.29869
#
# Static dielectric constant tensor:
#      x y z
#    x 3.813370 0.000000 0.137120 
#    y 0.000000 3.984670 0.000000 
#    z 0.137120 0.000000 3.907890 
# 
# 
# High freq. dielectric constant tensor:
#      x y z
#    x 1.854270 0.000000 0.007850 
#    y 0.000000 1.859660 0.000000 
#    z 0.007850 0.000000 1.858830 
# 
# From -- ./inp_files/28472.got.cif
#   From: 2010.06.25/outbox.cif.g09.slc.cpg/sg10_15_cif.got.tgz:28472.got - 2010.06.27 22:07:45.
