data_PCOD8065733
_publ_section_title
;
Structure prediction by ZEFSAII (Michael W. Deem and Ramdas Pophale) SiO2 
 PCOD8065733
Probable space group: P 2/M
;
_chemical_formula_sum "Si O2"
_cell_formula_units_Z 28
_cell_length_a 9.882034
_cell_length_b 7.668356
_cell_length_c 31.673072
_cell_angle_alpha 90.000000
_cell_angle_beta 141.440977
_cell_angle_gamma 90.000000
_cell_volume 1496.064141
_symmetry_space_group_name_H-M "P 2/M"
_symmetry_group_IT_number 10
_symmetry_cell_setting 'monoclinic'
loop_
_space_group_symop_operation_xyz
x,y,z
-x,y,-z
-x,-y,-z
x,-y,z
loop_
_atom_site_type_symbol
_atom_site_label
_atom_site_fract_x
_atom_site_fract_y
_atom_site_fract_z
Si Si1 0.283549 0.202725 0.676150
Si Si2 0.910326 0.793449 0.204487
Si Si3 0.469523 0.793251 0.945642
Si Si4 0.376518 0.198241 0.791343
Si Si5 0.759731 0.300552 0.940758
Si Si6 0.028344 0.500000 0.575075
Si Si7 0.402521 0.797902 0.324315
Si Si8 0.652596 0.500000 0.425071
O O1 0.365501 0.275816 0.741462
O O2 0.079398 0.323161 0.613444
O O3 0.482977 0.229639 0.692730
O O4 0.209355 0.000000 0.658093
O O5 0.766534 0.733117 0.129261
O O6 0.799401 0.712674 0.219886
O O7 0.156054 0.730445 0.258910
O O8 0.901076 0.000000 0.205369
O O9 0.657575 0.716791 0.962137
O O10 0.491977 0.000000 0.950612
O O11 0.500000 0.717270 0.000000
O O12 0.616188 0.208362 0.869735
O O13 0.309575 0.000000 0.769725
O O14 0.776290 0.500000 0.931155
O O15 0.000000 0.215611 0.000000
O O16 0.170740 0.500000 0.568144
O O17 0.774003 0.500000 0.500014
O O18 0.510300 0.676443 0.386428
O O19 0.416057 0.000000 0.342287
#
# Coordination Sequence:
#
# PCOD8065733 Si02
#       8
#     4   4   4   4   4   2   4   2
#     4   9  18  31  51  77  99 129 168 202 247 295
#     4   8  15  30  49  70  97 126 159 203 251 293
#     4   9  18  33  53  73  95 128 170 213 256 302
#     4   9  18  33  52  72  95 127 167 204 244 297
#     4  10  21  34  47  69 102 135 167 206 253 302
#     4   9  18  32  51  73 108 131 154 209 244 287
#     4   9  17  31  50  73 102 129 163 209 244 289
#     4   9  18  32  49  77 102 131 166 193 248 301
#
# _framework density 18.715774
#
# number of rings (size 3 to 8) (size 9 to 14) (size 15 to 20)
#    0.000    3.000    0.000    1.286    1.000    3.143 
#    5.143    5.714    0.000    1.714    0.000    4.000 
#    0.000    0.000    0.000    0.000    0.000    0.000 
#
# Total GULP energy -347013.968112 kJ/mol
# GULP energy per Si atom -12393.356004 kJ/mol
# Density = 1.867318 g / cm^3
# Si number density = 18.715774 Si / 1000 Ang^3
#
#
#
# Elastic Constant Matrix: (Units=GPa)
#
#
# Indices 1 2 3 4 5 6 
#
# 1 75.7361 27.3295 83.6571 0.0000 -1.2875 0.0000
# 2 27.3295 62.5950 44.7953 0.0000 -0.0667 0.0000
# 3 83.6571 44.7953 176.0847 0.0000 -0.4391 0.0000
# 4 0.0000 0.0000 0.0000 20.9553 0.0000 0.8160
# 5 -1.2875 -0.0667 -0.4391 0.0000 26.9344 0.0000
# 6 0.0000 0.0000 0.0000 0.8160 0.0000 12.1250
#
#
#
# Elastic Compliance Matrix: (Units=1/GPa)
#
#
# Indices 1 2 3 4 5 6 
#
# 1 0.028382 -0.003353 -0.012628 0.000000 0.001143 0.000000
# 2 -0.003353 0.019928 -0.003477 0.000000 -0.000168 0.000000
# 3 -0.012628 -0.003477 0.012562 0.000000 -0.000407 0.000000
# 4 0.000000 0.000000 0.000000 0.047846 0.000000 -0.003220
# 5 0.001143 -0.000168 -0.000407 0.000000 0.037175 0.000000
# 6 0.000000 0.000000 0.000000 -0.003220 0.000000 0.082691
#
#
# Mechanical properties :
#
#
# Convention : Reuss Voigt Hill
#
# Bulk Modulus (GPa) = 45.54722 69.55331 57.55027
# Shear Modulus (GPa) = 18.19373 22.57853 20.38613
#
# Velocity S-wave (km/s) = 3.12125 3.47708 3.30396
# Velocity P-wave (km/s) = 6.11381 7.30505 6.73582
#
# Compressibility (1/GPa) = 0.02195523
#
# Stress axis : x y z
#
# Youngs Moduli (GPa) = 35.23302 50.18123 79.60340
#
# Poissons Ratio (x) = 0.16828 1.00527
# Poissons Ratio (y) = 0.11815 0.27676
# Poissons Ratio (z) = 0.44494 0.17447
#
# Static dielectric constant tensor:
#      x y z
#    x 3.463410 0.000000 -0.025900 
#    y 0.000000 3.331190 0.000000 
#    z -0.025900 0.000000 3.698650 
# 
# 
# High freq. dielectric constant tensor:
#      x y z
#    x 1.705900 0.000000 -0.001760 
#    y 0.000000 1.721840 0.000000 
#    z -0.001760 0.000000 1.721990 
# 
# From -- ./inp_files/84923.got.cif
#   From: 2010.06.25/outbox.cif.g09.slc.cpg/sg10_43_cif.got.tgz:84923.got - 2010.06.27 22:07:45.
