data_PCOD8065302
_publ_section_title
;
Structure prediction by ZEFSAII (Michael W. Deem and Ramdas Pophale) SiO2 
 PCOD8065302
Probable space group: P 2/M
;
_chemical_formula_sum "Si O2"
_cell_formula_units_Z 28
_cell_length_a 9.414789
_cell_length_b 8.856959
_cell_length_c 24.869368
_cell_angle_alpha 90.000000
_cell_angle_beta 138.397407
_cell_angle_gamma 90.000000
_cell_volume 1376.898498
_symmetry_space_group_name_H-M "P 2/M"
_symmetry_group_IT_number 10
_symmetry_cell_setting 'monoclinic'
loop_
_space_group_symop_operation_xyz
x,y,z
-x,y,-z
-x,-y,-z
x,-y,z
loop_
_atom_site_type_symbol
_atom_site_label
_atom_site_fract_x
_atom_site_fract_y
_atom_site_fract_z
Si Si1 0.376316 0.679126 0.355203
Si Si2 0.829152 0.319957 0.813786
Si Si3 0.782258 0.823114 0.910530
Si Si4 0.954373 0.321670 0.645888
Si Si5 0.716182 0.670066 0.080343
Si Si6 0.625599 0.668633 0.174836
Si Si7 0.837774 0.821482 0.501076
O O1 0.396566 0.500000 0.361492
O O2 0.289586 0.738054 0.273211
O O3 0.219207 0.731985 0.358851
O O4 0.607547 0.749378 0.427593
O O5 0.828334 0.500000 0.814153
O O6 0.723009 0.254839 0.837163
O O7 0.071362 0.253152 0.883282
O O8 0.576021 0.780903 0.887648
O O9 0.801481 0.000000 0.907582
O O10 0.000000 0.760611 0.000000
O O11 0.930503 0.500000 0.629217
O O12 0.925422 0.232074 0.582944
O O13 0.194949 0.279438 0.732115
O O14 0.704734 0.500000 0.053840
O O15 0.746178 0.668737 0.152418
O O16 0.500000 0.756460 0.000000
O O17 0.542407 0.500000 0.165096
O O18 0.000000 0.768024 0.500000
O O19 0.813891 0.000000 0.494248
#
# Coordination Sequence:
#
# PCOD8065302 Si02
#       7
#     4   4   4   4   4   4   4
#     4  10  21  40  65  93 122 151 192 246 302 355
#     4  10  20  37  62  91 118 151 197 246 297 352
#     4  11  25  41  55  80 123 168 205 245 294 347
#     4  10  21  40  65  93 122 151 192 246 302 355
#     4   9  16  30  57  90 119 146 186 243 295 341
#     4  10  20  37  62  91 118 151 197 246 297 352
#     4  11  26  43  60  88 124 161 200 237 284 350
#
# _framework density 20.335559
#
# number of rings (size 3 to 8) (size 9 to 14) (size 15 to 20)
#    0.000    1.857    1.429    2.143    2.000    6.857 
#    0.000    0.714    0.000    2.571    0.000    0.000 
#    0.000    0.000    0.000    0.000    0.000    0.000 
#
# Total GULP energy -347152.393901 kJ/mol
# GULP energy per Si atom -12398.299782 kJ/mol
# Density = 2.028927 g / cm^3
# Si number density = 20.335559 Si / 1000 Ang^3
#
#
#
# Elastic Constant Matrix: (Units=GPa)
#
#
# Indices 1 2 3 4 5 6 
#
# 1 87.2491 19.6813 28.8774 0.0000 0.3216 0.0000
# 2 19.6813 26.3363 22.9018 0.0000 -0.4268 0.0000
# 3 28.8774 22.9018 116.8212 0.0000 2.4707 0.0000
# 4 0.0000 0.0000 0.0000 18.3170 0.0000 3.0813
# 5 0.3216 -0.4268 2.4707 0.0000 40.8034 0.0000
# 6 0.0000 0.0000 0.0000 3.0813 0.0000 17.9232
#
#
#
# Elastic Compliance Matrix: (Units=1/GPa)
#
#
# Indices 1 2 3 4 5 6 
#
# 1 0.014062 -0.009029 -0.001704 0.000000 -0.000102 0.000000
# 2 -0.009029 0.051614 -0.007910 0.000000 0.001090 0.000000
# 3 -0.001704 -0.007910 0.010547 0.000000 -0.000708 0.000000
# 4 0.000000 0.000000 0.000000 0.056220 0.000000 -0.009665
# 5 -0.000102 0.001090 -0.000708 0.000000 0.024563 0.000000
# 6 0.000000 0.000000 0.000000 -0.009665 0.000000 0.057455
#
#
# Mechanical properties :
#
#
# Convention : Reuss Voigt Hill
#
# Bulk Modulus (GPa) = 25.68182 41.48085 33.58133
# Shear Modulus (GPa) = 18.88751 26.00512 22.44632
#
# Velocity S-wave (km/s) = 3.05092 3.57991 3.32595
# Velocity P-wave (km/s) = 5.00672 6.12619 5.59452
#
# Compressibility (1/GPa) = 0.03893805
#
# Stress axis : x y z
#
# Youngs Moduli (GPa) = 71.11113 19.37474 94.81485
#
# Poissons Ratio (x) = 0.17493 0.16156
# Poissons Ratio (y) = 0.64206 0.74994
# Poissons Ratio (z) = 0.12117 0.15325
#
# Static dielectric constant tensor:
#      x y z
#    x 3.762240 0.000000 0.010410 
#    y 0.000000 3.320820 0.000000 
#    z 0.010410 0.000000 3.940910 
# 
# 
# High freq. dielectric constant tensor:
#      x y z
#    x 1.805050 0.000000 0.001830 
#    y 0.000000 1.757270 0.000000 
#    z 0.001830 0.000000 1.813710 
# 
# From -- ./inp_files/92094.got.cif
#   From: 2010.06.25/outbox.cif.g09.slc.cpg/sg10_47_cif.got.tgz:92094.got - 2010.06.27 22:07:45.
