data_PCOD8065864
_publ_section_title
;
Structure prediction by ZEFSAII (Michael W. Deem and Ramdas Pophale) SiO2 
 PCOD8065864
Probable space group: P 2/M
;
_chemical_formula_sum "Si O2"
_cell_formula_units_Z 28
_cell_length_a 20.194326
_cell_length_b 9.026874
_cell_length_c 23.184875
_cell_angle_alpha 90.000000
_cell_angle_beta 160.504777
_cell_angle_gamma 90.000000
_cell_volume 1410.472080
_symmetry_space_group_name_H-M "P 2/M"
_symmetry_group_IT_number 10
_symmetry_cell_setting 'monoclinic'
loop_
_space_group_symop_operation_xyz
x,y,z
-x,y,-z
-x,-y,-z
x,-y,z
loop_
_atom_site_type_symbol
_atom_site_label
_atom_site_fract_x
_atom_site_fract_y
_atom_site_fract_z
Si Si1 0.238427 0.837012 0.941507
Si Si2 0.040823 0.323133 0.881789
Si Si3 0.359683 0.839828 0.661982
Si Si4 0.335160 0.336689 0.907184
Si Si5 0.380625 0.829093 0.460250
Si Si6 0.392316 0.824223 0.238638
Si Si7 0.052958 0.338584 0.483451
O O1 0.282205 0.770511 0.915411
O O2 0.101024 0.730456 0.867149
O O3 0.137230 0.000000 0.851804
O O4 0.446033 0.859078 0.141558
O O5 0.050899 0.500000 0.893015
O O6 0.815886 0.269975 0.706507
O O7 0.187654 0.257597 0.052015
O O8 0.426891 0.774997 0.655186
O O9 0.212275 0.736538 0.574238
O O10 0.256668 0.000000 0.568926
O O11 0.406558 0.500000 0.987836
O O12 0.141214 0.357867 0.711803
O O13 0.500000 0.265499 0.000000
O O14 0.500000 0.806478 0.500000
O O15 0.531371 0.778757 0.635203
O O16 0.317502 0.000000 0.417798
O O17 0.351127 0.000000 0.199335
O O18 0.141348 0.500000 0.572543
O O19 0.000000 0.252882 0.500000
#
# Coordination Sequence:
#
# PCOD8065864 Si02
#       7
#     4   4   4   4   4   4   4
#     4  10  21  38  59  82 111 149 196 243 294 357
#     4  11  23  39  62  92 126 162 203 254 313 368
#     4   9  19  35  55  80 107 141 187 240 289 340
#     4  10  21  36  54  79 112 149 191 239 296 357
#     4  10  22  41  66  94 126 166 209 253 302 364
#     4   9  20  40  63  89 122 161 206 250 302 364
#     4  10  21  35  52  76 107 146 187 231 286 349
#
# _framework density 19.851509
#
# number of rings (size 3 to 8) (size 9 to 14) (size 15 to 20)
#    0.000    2.143    0.000    3.429    2.000    6.571 
#    0.000    2.857    0.000    0.000    0.000    0.000 
#    0.000    0.000    0.000    0.000    0.000    0.000 
#
# Total GULP energy -347004.957135 kJ/mol
# GULP energy per Si atom -12393.034183 kJ/mol
# Density = 1.980633 g / cm^3
# Si number density = 19.851509 Si / 1000 Ang^3
#
#
#
# Elastic Constant Matrix: (Units=GPa)
#
#
# Indices 1 2 3 4 5 6 
#
# 1 153.9788 60.7352 44.6866 0.0000 -5.9169 0.0000
# 2 60.7352 113.0788 50.8624 0.0000 5.6507 0.0000
# 3 44.6866 50.8624 129.3606 0.0000 -3.6957 0.0000
# 4 0.0000 0.0000 0.0000 24.2589 0.0000 4.7491
# 5 -5.9169 5.6507 -3.6957 0.0000 36.1951 0.0000
# 6 0.0000 0.0000 0.0000 4.7491 0.0000 28.5986
#
#
#
# Elastic Compliance Matrix: (Units=1/GPa)
#
#
# Indices 1 2 3 4 5 6 
#
# 1 0.008565 -0.004118 -0.001285 0.000000 0.001912 0.000000
# 2 -0.004118 0.012887 -0.003732 0.000000 -0.003066 0.000000
# 3 -0.001285 -0.003732 0.009681 0.000000 0.001361 0.000000
# 4 0.000000 0.000000 0.000000 0.042607 0.000000 -0.007075
# 5 0.001912 -0.003066 0.001361 0.000000 0.028558 0.000000
# 6 0.000000 0.000000 0.000000 -0.007075 0.000000 0.036142
#
#
# Mechanical properties :
#
#
# Convention : Reuss Voigt Hill
#
# Bulk Modulus (GPa) = 77.74463 78.77630 78.26046
# Shear Modulus (GPa) = 31.05649 33.81946 32.43797
#
# Velocity S-wave (km/s) = 3.95959 4.13197 4.04670
# Velocity P-wave (km/s) = 7.75581 7.90779 7.83217
#
# Compressibility (1/GPa) = 0.01286262
#
# Stress axis : x y z
#
# Youngs Moduli (GPa) = 116.75371 77.59760 103.30042
#
# Poissons Ratio (x) = 0.31954 0.13274
# Poissons Ratio (y) = 0.48077 0.38552
# Poissons Ratio (z) = 0.15003 0.28960
#
# Static dielectric constant tensor:
#      x y z
#    x 3.633810 0.000000 -0.025870 
#    y 0.000000 3.386890 0.000000 
#    z -0.025870 0.000000 3.101740 
# 
# 
# High freq. dielectric constant tensor:
#      x y z
#    x 1.783090 0.000000 -0.002750 
#    y 0.000000 1.762340 0.000000 
#    z -0.002750 0.000000 1.776280 
# 
# From -- ./inp_files/90397.got.cif
#   From: 2010.06.25/outbox.cif.g09.slc.cpg/sg10_46_cif.got.tgz:90397.got - 2010.06.27 22:07:45.
