data_PCOD8065787
_publ_section_title
;
Structure prediction by ZEFSAII (Michael W. Deem and Ramdas Pophale) SiO2 
 PCOD8065787
Probable space group: P 2/M
;
_chemical_formula_sum "Si O2"
_cell_formula_units_Z 24
_cell_length_a 10.133972
_cell_length_b 7.602347
_cell_length_c 22.166278
_cell_angle_alpha 90.000000
_cell_angle_beta 135.150759
_cell_angle_gamma 90.000000
_cell_volume 1204.368591
_symmetry_space_group_name_H-M "P 2/M"
_symmetry_group_IT_number 10
_symmetry_cell_setting 'monoclinic'
loop_
_space_group_symop_operation_xyz
x,y,z
-x,y,-z
-x,-y,-z
x,-y,z
loop_
_atom_site_type_symbol
_atom_site_label
_atom_site_fract_x
_atom_site_fract_y
_atom_site_fract_z
Si Si1 0.941392 0.300751 0.770807
Si Si2 0.552348 0.792084 0.695462
Si Si3 0.829147 0.800549 0.480902
Si Si4 0.191828 0.000000 0.895750
Si Si5 0.992713 0.294348 0.342731
Si Si6 0.520304 0.000000 0.907052
Si Si7 0.565534 0.296489 0.211704
O O1 0.021134 0.500000 0.800393
O O2 0.728002 0.302270 0.722459
O O3 0.954179 0.228028 0.706617
O O4 0.065287 0.174975 0.852972
O O5 0.369424 0.715216 0.601556
O O6 0.544815 0.736779 0.762595
O O7 0.575566 0.000000 0.695930
O O8 0.864785 0.793744 0.563957
O O9 0.000000 0.705884 0.500000
O O10 0.817339 0.000000 0.454311
O O11 0.335255 0.000000 0.887216
O O12 0.294236 0.000000 0.992808
O O13 0.021219 0.500000 0.357694
O O14 0.781125 0.238437 0.290246
O O15 0.526754 0.176652 0.869519
O O16 0.550600 0.500000 0.186653
#
# Coordination Sequence:
#
# PCOD8065787 Si02
#       7
#     4   4   4   2   4   2   4
#     4  11  24  43  64  91 128 168 207 252 314 377
#     4  11  22  39  63  92 127 171 213 255 308 366
#     4  10  21  34  57  90 124 163 211 260 302 350
#     4  11  24  43  69  98 125 160 198 259 321 371
#     4  10  22  37  59  87 123 168 208 254 303 361
#     4  11  24  41  71 100 124 155 202 261 314 376
#     4  11  22  39  64  95 127 165 207 253 309 370
#
# _framework density 19.927453
#
# number of rings (size 3 to 8) (size 9 to 14) (size 15 to 20)
#    0.000    1.333    5.000    0.500    2.333    3.000 
#    0.000    6.667    0.000    2.000    0.000    0.000 
#    0.000    0.000    0.000    0.000    0.000    0.000 
#
# Total GULP energy -297685.159817 kJ/mol
# GULP energy per Si atom -12403.548326 kJ/mol
# Density = 1.988210 g / cm^3
# Si number density = 19.927453 Si / 1000 Ang^3
#
#
#
# Elastic Constant Matrix: (Units=GPa)
#
#
# Indices 1 2 3 4 5 6 
#
# 1 104.2624 11.7801 41.0210 0.0000 2.6155 0.0000
# 2 11.7801 89.9025 45.4825 0.0000 -1.8470 0.0000
# 3 41.0210 45.4825 140.1874 0.0000 -2.5559 0.0000
# 4 0.0000 0.0000 0.0000 6.4388 0.0000 -2.1459
# 5 2.6155 -1.8470 -2.5559 0.0000 30.0806 0.0000
# 6 0.0000 0.0000 0.0000 -2.1459 0.0000 23.5844
#
#
#
# Elastic Compliance Matrix: (Units=1/GPa)
#
#
# Indices 1 2 3 4 5 6 
#
# 1 0.010887 0.000205 -0.003274 0.000000 -0.001212 0.000000
# 2 0.000205 0.013317 -0.004373 0.000000 0.000428 0.000000
# 3 -0.003274 -0.004373 0.009525 0.000000 0.000826 0.000000
# 4 0.000000 0.000000 0.000000 0.160166 0.000000 0.014573
# 5 -0.001212 0.000428 0.000826 0.000000 0.033446 0.000000
# 6 0.000000 0.000000 0.000000 0.014573 0.000000 0.043727
#
#
# Mechanical properties :
#
#
# Convention : Reuss Voigt Hill
#
# Bulk Modulus (GPa) = 53.06423 58.99106 56.02765
# Shear Modulus (GPa) = 17.10959 27.75867 22.43413
#
# Velocity S-wave (km/s) = 2.93336 3.73632 3.35892
# Velocity P-wave (km/s) = 6.17732 6.94843 6.57419
#
# Compressibility (1/GPa) = 0.01884508
#
# Stress axis : x y z
#
# Youngs Moduli (GPa) = 91.85569 75.08988 104.98466
#
# Poissons Ratio (x) = -0.01540 0.34374
# Poissons Ratio (y) = -0.01884 0.45909
# Poissons Ratio (z) = 0.30076 0.32836
#
# Static dielectric constant tensor:
#      x y z
#    x 3.637880 0.000000 0.006160 
#    y 0.000000 3.572270 0.000000 
#    z 0.006160 0.000000 3.546050 
# 
# 
# High freq. dielectric constant tensor:
#      x y z
#    x 1.777050 0.000000 -0.004890 
#    y 0.000000 1.782470 0.000000 
#    z -0.004890 0.000000 1.764470 
# 
# From -- ./inp_files/33822.got.cif
#   From: 2010.06.25/outbox.cif.g09.slc.cpg/sg10_17_cif.got.tgz:33822.got - 2010.06.27 22:07:45.
