data_PCOD8065924
_publ_section_title
;
Structure prediction by ZEFSAII (Michael W. Deem and Ramdas Pophale) SiO2 
 PCOD8065924
Probable space group: P 2/M
;
_chemical_formula_sum "Si O2"
_cell_formula_units_Z 28
_cell_length_a 9.652887
_cell_length_b 13.486328
_cell_length_c 12.209590
_cell_angle_alpha 90.000000
_cell_angle_beta 113.666489
_cell_angle_gamma 90.000000
_cell_volume 1455.790587
_symmetry_space_group_name_H-M "P 2/M"
_symmetry_group_IT_number 10
_symmetry_cell_setting 'monoclinic'
loop_
_space_group_symop_operation_xyz
x,y,z
-x,y,-z
-x,-y,-z
x,-y,z
loop_
_atom_site_type_symbol
_atom_site_label
_atom_site_fract_x
_atom_site_fract_y
_atom_site_fract_z
Si Si1 0.645272 0.616920 0.112476
Si Si2 0.141325 0.287435 0.983809
Si Si3 0.356524 0.730279 0.666275
Si Si4 0.679485 0.388988 0.553156
Si Si5 0.302861 0.249432 0.246963
Si Si6 0.028135 0.112773 0.180571
Si Si7 0.112621 0.112109 0.627277
O O1 0.651814 0.500000 0.114719
O O2 0.799624 0.655932 0.104677
O O3 0.631717 0.651835 0.232393
O O4 0.500000 0.656442 0.000000
O O5 0.081649 0.177915 0.931195
O O6 0.277551 0.283880 0.113984
O O7 0.000000 0.342454 0.000000
O O8 0.274974 0.674959 0.539105
O O9 0.519941 0.773299 0.682386
O O10 0.263845 0.824257 0.677211
O O11 0.500000 0.397284 0.500000
O O12 0.749469 0.500000 0.568747
O O13 0.744726 0.335801 0.682509
O O14 0.200356 0.152844 0.235975
O O15 0.969871 0.118995 0.284404
O O16 0.026570 0.000000 0.136562
O O17 0.000000 0.154495 0.500000
O O18 0.160533 0.000000 0.614127
#
# Coordination Sequence:
#
# PCOD8065924 Si02
#       7
#     4   4   4   4   4   4   4
#     4  11  22  37  60  88 119 156 195 240 297 351
#     4  10  21  38  59  84 119 157 193 240 289 346
#     4  11  20  37  62  86 119 150 196 250 293 338
#     4   9  19  35  56  83 113 152 194 234 291 349
#     4  10  21  35  59  87 114 152 197 247 285 343
#     4  10  21  39  60  84 118 159 196 237 298 356
#     4  10  21  37  60  84 115 157 194 236 300 360
#
# _framework density 19.233535
#
# number of rings (size 3 to 8) (size 9 to 14) (size 15 to 20)
#    0.000    1.857    2.857    1.286    0.000    4.571 
#    0.000    2.143    0.000    9.429    0.000    0.000 
#    0.000    0.000    0.000    0.000    0.000    0.000 
#
# Total GULP energy -347162.699815 kJ/mol
# GULP energy per Si atom -12398.667851 kJ/mol
# Density = 1.918976 g / cm^3
# Si number density = 19.233535 Si / 1000 Ang^3
#
#
#
# Elastic Constant Matrix: (Units=GPa)
#
#
# Indices 1 2 3 4 5 6 
#
# 1 88.7267 44.4716 18.2706 0.0000 -7.6050 0.0000
# 2 44.4716 92.8700 40.4858 0.0000 -1.2149 0.0000
# 3 18.2706 40.4858 104.4514 0.0000 -8.7792 0.0000
# 4 0.0000 0.0000 0.0000 -12.2924 0.0000 41.1957
# 5 -7.6050 -1.2149 -8.7792 0.0000 27.2959 0.0000
# 6 0.0000 0.0000 0.0000 41.1957 0.0000 -14.7724
#
#
#
# Elastic Compliance Matrix: (Units=1/GPa)
#
#
# Indices 1 2 3 4 5 6 
#
# 1 0.015268 -0.007513 0.000587 0.000000 0.004108 0.000000
# 2 -0.007513 0.016685 -0.005413 0.000000 -0.003092 0.000000
# 3 0.000587 -0.005413 0.011884 0.000000 0.003745 0.000000
# 4 0.000000 0.000000 0.000000 0.009748 0.000000 0.027183
# 5 0.004108 -0.003092 0.003745 0.000000 0.038847 0.000000
# 6 0.000000 0.000000 0.000000 0.027183 0.000000 0.008111
#
#
# Mechanical properties :
#
#
# Convention : Reuss Voigt Hill
#
# Bulk Modulus (GPa) = 52.19706 54.72265 53.45985
# Shear Modulus (GPa) = 37.99228 12.23422 25.11325
#
# Velocity S-wave (km/s) = 4.44927 2.52482 3.61737
# Velocity P-wave (km/s) = 7.32067 6.08383 6.73072
#
# Compressibility (1/GPa) = 0.01915817
#
# Stress axis : x y z
#
# Youngs Moduli (GPa) = 65.49840 59.93555 84.14731
#
# Poissons Ratio (x) = 0.45030 -0.04938
# Poissons Ratio (y) = 0.49209 0.45546
# Poissons Ratio (z) = -0.03843 0.32441
#
# Static dielectric constant tensor:
#      x y z
#    x 3.528520 0.000000 -0.156820 
#    y 0.000000 3.481470 0.000000 
#    z -0.156820 0.000000 3.680300 
# 
# 
# High freq. dielectric constant tensor:
#      x y z
#    x 1.743990 0.000000 -0.016360 
#    y 0.000000 1.736140 0.000000 
#    z -0.016360 0.000000 1.762560 
# 
# From -- ./inp_files/24915.got.cif
#   From: 2010.06.25/outbox.cif.g09.slc.cpg/sg10_13_cif.got.tgz:24915.got - 2010.06.27 22:07:45.
