data_PCOD8065479
_publ_section_title
;
Structure prediction by ZEFSAII (Michael W. Deem and Ramdas Pophale) SiO2 
 PCOD8065479
Probable space group: P 2/M
;
_chemical_formula_sum "Si O2"
_cell_formula_units_Z 26
_cell_length_a 5.067869
_cell_length_b 14.703593
_cell_length_c 19.207012
_cell_angle_alpha 90.000000
_cell_angle_beta 120.038383
_cell_angle_gamma 90.000000
_cell_volume 1238.999666
_symmetry_space_group_name_H-M "P 2/M"
_symmetry_group_IT_number 10
_symmetry_cell_setting 'monoclinic'
loop_
_space_group_symop_operation_xyz
x,y,z
-x,y,-z
-x,-y,-z
x,-y,z
loop_
_atom_site_type_symbol
_atom_site_label
_atom_site_fract_x
_atom_site_fract_y
_atom_site_fract_z
Si Si1 0.572232 0.247204 0.820200
Si Si2 0.673144 0.605478 0.589163
Si Si3 0.620253 0.394267 0.309647
Si Si4 0.148793 0.000000 0.943563
Si Si5 0.341693 0.104156 0.412125
Si Si6 0.668773 0.104430 0.312374
Si Si7 0.220753 0.805492 0.910150
O O1 0.477409 0.342278 0.773044
O O2 0.555174 0.164810 0.763288
O O3 0.340955 0.224394 0.851347
O O4 0.926153 0.255622 0.891725
O O5 0.500000 0.650001 0.500000
O O6 0.584183 0.500000 0.580625
O O7 0.560313 0.647324 0.647752
O O8 0.028190 0.622323 0.627104
O O9 0.546751 0.500000 0.286560
O O10 0.079449 0.908208 0.891435
O O11 0.500000 0.000000 0.000000
O O12 0.000000 0.000000 0.000000
O O13 0.500000 0.151527 0.500000
O O14 0.570909 0.113665 0.379003
O O15 0.010206 0.146663 0.351270
O O16 0.269634 0.000000 0.421910
O O17 0.646846 0.000000 0.283200
O O18 0.500000 0.792290 0.000000
#
# Coordination Sequence:
#
# PCOD8065479 Si02
#       7
#     4   4   4   2   4   4   4
#     4  12  24  39  61  87 119 153 194 240 298 360
#     4   9  17  33  59  87 118 158 201 249 305 357
#     4  10  21  38  59  86 122 161 202 247 299 353
#     4  10  20  38  62  92 120 148 185 224 291 362
#     4   9  17  33  53  72 103 152 197 232 270 320
#     4  10  21  34  52  79 111 143 185 234 284 334
#     4  11  24  41  64  88 119 152 190 238 291 366
#
# _framework density 20.984670000000001
#
# number of rings (size 3 to 8) (size 9 to 14) (size 15 to 20)
#    0.000    1.846    0.000    5.077    2.154    3.692 
#    0.000    4.615    0.000    2.769    0.000    0.000 
#    0.000    0.000    0.000    0.000    0.000    0.000 
#
# Total GULP energy -322339.510357 kJ/mol
# GULP energy per Si atom -12397.673475 kJ/mol
# Density = 2.093691 g / cm^3
# Si number density = 20.984670 Si / 1000 Ang^3
#
#
#
# Elastic Constant Matrix: (Units=GPa)
#
#
# Indices 1 2 3 4 5 6 
#
# 1 121.8370 23.4695 25.1873 0.0000 -7.0690 0.0000
# 2 23.4695 75.7567 41.1013 0.0000 -2.0276 0.0000
# 3 25.1873 41.1013 85.4230 0.0000 0.4394 0.0000
# 4 0.0000 0.0000 0.0000 -9.8540 0.0000 3.1266
# 5 -7.0690 -2.0276 0.4394 0.0000 46.4515 0.0000
# 6 0.0000 0.0000 0.0000 3.1266 0.0000 14.0783
#
#
#
# Elastic Compliance Matrix: (Units=1/GPa)
#
#
# Indices 1 2 3 4 5 6 
#
# 1 0.008999 -0.001772 -0.001807 0.000000 0.001309 0.000000
# 2 -0.001772 0.018247 -0.008260 0.000000 0.000605 0.000000
# 3 -0.001807 -0.008260 0.016218 0.000000 -0.000789 0.000000
# 4 0.000000 0.000000 0.000000 -0.094801 0.000000 0.021054
# 5 0.001309 0.000605 -0.000789 0.000000 0.021761 0.000000
# 6 0.000000 0.000000 0.000000 0.021054 0.000000 0.066356
#
#
# Mechanical properties :
#
#
# Convention : Reuss Voigt Hill
#
# Bulk Modulus (GPa) = 50.54572 51.39254 50.96913
# Shear Modulus (GPa) = 74.56862 23.01906 48.79384
#
# Velocity S-wave (km/s) = 5.96757 3.31561 4.82728
# Velocity P-wave (km/s) = 8.46297 6.26110 7.44390
#
# Compressibility (1/GPa) = 0.01978407
#
# Stress axis : x y z
#
# Youngs Moduli (GPa) = 111.12778 54.80412 61.66090
#
# Poissons Ratio (x) = 0.09712 0.11144
# Poissons Ratio (y) = 0.19694 0.50932
# Poissons Ratio (z) = 0.20084 0.45268
#
# Static dielectric constant tensor:
#      x y z
#    x 3.944800 0.000000 0.070020 
#    y 0.000000 3.288380 0.000000 
#    z 0.070020 0.000000 3.773390 
# 
# 
# High freq. dielectric constant tensor:
#      x y z
#    x 1.845070 0.000000 0.002900 
#    y 0.000000 1.791750 0.000000 
#    z 0.002900 0.000000 1.816060 
# 
# From -- ./inp_files/73462.got.cif
#   From: 2010.06.25/outbox.cif.g09.slc.cpg/sg10_37_cif.got.tgz:73462.got - 2010.06.27 22:07:45.
