data_PCOD8065609
_publ_section_title
;
Structure prediction by ZEFSAII (Michael W. Deem and Ramdas Pophale) SiO2 
 PCOD8065609
Probable space group: P 2/M
;
_chemical_formula_sum "Si O2"
_cell_formula_units_Z 32
_cell_length_a 10.869541
_cell_length_b 8.928971
_cell_length_c 19.179696
_cell_angle_alpha 90.000000
_cell_angle_beta 56.562053
_cell_angle_gamma 90.000000
_cell_volume 1553.359153
_symmetry_space_group_name_H-M "P 2/M"
_symmetry_group_IT_number 10
_symmetry_cell_setting 'monoclinic'
loop_
_space_group_symop_operation_xyz
x,y,z
-x,y,-z
-x,-y,-z
x,-y,z
loop_
_atom_site_type_symbol
_atom_site_label
_atom_site_fract_x
_atom_site_fract_y
_atom_site_fract_z
Si Si1 0.474774 0.829685 0.213229
Si Si2 0.898136 0.175206 0.230957
Si Si3 0.289263 0.670189 0.461384
Si Si4 0.837369 0.831113 0.626422
Si Si5 0.597684 0.327202 0.306244
Si Si6 0.929801 0.324037 0.948348
Si Si7 0.933410 0.329469 0.357607
Si Si8 0.586315 0.674183 0.044543
O O1 0.301060 0.819524 0.278953
O O2 0.558206 0.720777 0.240280
O O3 0.504646 0.774906 0.126330
O O4 0.531405 0.000000 0.205673
O O5 0.730528 0.226900 0.291228
O O6 0.972249 0.223932 0.280401
O O7 0.976448 0.249079 0.141250
O O8 0.909757 0.000000 0.217953
O O9 0.257679 0.500000 0.445722
O O10 0.205270 0.787123 0.438557
O O11 0.463890 0.701408 0.401846
O O12 0.232026 0.691105 0.558778
O O13 0.957539 0.713358 0.614291
O O14 0.900210 0.000000 0.605796
O O15 0.646573 0.500000 0.289662
O O16 0.949793 0.500000 0.934913
O O17 0.758813 0.278383 0.990859
O O18 0.000000 0.269074 0.000000
O O19 0.958902 0.500000 0.326047
O O20 0.571978 0.500000 0.068560
O O21 0.500000 0.708718 0.000000
#
# Coordination Sequence:
#
# PCOD8065609 Si02
#       8
#     4   4   4   4   4   4   4   4
#     4  10  21  37  59  88 121 156 194 240 299 358
#     4  12  26  41  60  89 123 156 196 245 304 362
#     4   9  20  38  61  88 115 155 206 250 294 352
#     4  10  21  36  57  88 124 160 198 244 299 359
#     4  10  20  39  64  87 115 153 200 247 294 352
#     4  10  22  42  66  90 119 160 207 252 302 368
#     4  11  23  39  59  84 119 160 204 250 297 352
#     4  10  22  38  59  90 122 156 202 254 307 363
#
# _framework density 20.600515999999999
#
# number of rings (size 3 to 8) (size 9 to 14) (size 15 to 20)
#    0.000    1.750    0.000    3.750    1.750    7.000 
#    0.000    2.500    0.000    0.000    0.000    0.000 
#    0.000    0.000    0.000    0.000    0.000    0.000 
#
# Total GULP energy -396851.394443 kJ/mol
# GULP energy per Si atom -12401.606076 kJ/mol
# Density = 2.055363 g / cm^3
# Si number density = 20.600516 Si / 1000 Ang^3
#
#
#
# Elastic Constant Matrix: (Units=GPa)
#
#
# Indices 1 2 3 4 5 6 
#
# 1 84.5582 17.9995 32.6496 0.0000 -7.6577 0.0000
# 2 17.9995 37.4997 46.9231 0.0000 2.7075 0.0000
# 3 32.6496 46.9231 116.6284 0.0000 8.1938 0.0000
# 4 0.0000 0.0000 0.0000 21.6508 0.0000 -1.8399
# 5 -7.6577 2.7075 8.1938 0.0000 16.7856 0.0000
# 6 0.0000 0.0000 0.0000 -1.8399 0.0000 29.1007
#
#
#
# Elastic Compliance Matrix: (Units=1/GPa)
#
#
# Indices 1 2 3 4 5 6 
#
# 1 0.014659 -0.003548 -0.003299 0.000000 0.008870 0.000000
# 2 -0.003548 0.054623 -0.020970 0.000000 -0.000193 0.000000
# 3 -0.003299 -0.020970 0.018435 0.000000 -0.007122 0.000000
# 4 0.000000 0.000000 0.000000 0.046437 0.000000 0.002936
# 5 0.008870 -0.000193 -0.007122 0.000000 0.067129 0.000000
# 6 0.000000 0.000000 0.000000 0.002936 0.000000 0.034549
#
#
# Mechanical properties :
#
#
# Convention : Reuss Voigt Hill
#
# Bulk Modulus (GPa) = 31.16956 48.20341 39.68649
# Shear Modulus (GPa) = 16.54753 22.91504 19.73128
#
# Velocity S-wave (km/s) = 2.83726 3.33881 3.09820
# Velocity P-wave (km/s) = 5.08888 6.18979 5.66614
#
# Compressibility (1/GPa) = 0.03208258
#
# Stress axis : x y z
#
# Youngs Moduli (GPa) = 68.21910 18.30733 54.24478
#
# Poissons Ratio (x) = 0.06495 0.17897
# Poissons Ratio (y) = 0.24204 1.13749
# Poissons Ratio (z) = 0.22508 0.38390
#
# Static dielectric constant tensor:
#      x y z
#    x 3.741290 0.000000 -0.109430 
#    y 0.000000 3.736450 0.000000 
#    z -0.109430 0.000000 3.796440 
# 
# 
# High freq. dielectric constant tensor:
#      x y z
#    x 1.800670 0.000000 -0.004750 
#    y 0.000000 1.806640 0.000000 
#    z -0.004750 0.000000 1.816800 
# 
# From -- ./inp_files/83575.got.cif
#   From: 2010.06.25/outbox.cif.g09.slc.cpg/sg10_42_cif.got.tgz:83575.got - 2010.06.27 22:07:45.
