data_PCOD8065520
_publ_section_title
;
Structure prediction by ZEFSAII (Michael W. Deem and Ramdas Pophale) SiO2 
 PCOD8065520
Probable space group: P 2/M
;
_chemical_formula_sum "Si O2"
_cell_formula_units_Z 26
_cell_length_a 30.401381
_cell_length_b 8.729302
_cell_length_c 31.279750
_cell_angle_alpha 90.000000
_cell_angle_beta 9.514724
_cell_angle_gamma 90.000000
_cell_volume 1372.182064
_symmetry_space_group_name_H-M "P 2/M"
_symmetry_group_IT_number 10
_symmetry_cell_setting 'monoclinic'
loop_
_space_group_symop_operation_xyz
x,y,z
-x,y,-z
-x,-y,-z
x,-y,z
loop_
_atom_site_type_symbol
_atom_site_label
_atom_site_fract_x
_atom_site_fract_y
_atom_site_fract_z
Si Si1 0.339351 0.680531 0.405441
Si Si2 0.922952 0.831168 0.191839
Si Si3 0.348411 0.181785 0.051728
Si Si4 0.518751 0.679528 0.327669
Si Si5 0.773967 0.181517 0.926768
Si Si6 0.205112 0.000000 0.765079
Si Si7 0.923903 0.817201 0.526158
O O1 0.284273 0.500000 0.454683
O O2 0.445379 0.729025 0.350158
O O3 0.069428 0.773091 0.656923
O O4 0.559615 0.730241 0.160429
O O5 0.694133 0.742151 0.435317
O O6 0.957654 0.000000 0.179628
O O7 0.842483 0.849190 0.218924
O O8 0.195214 0.741431 0.934230
O O9 0.271290 0.235763 0.078370
O O10 0.134216 0.248325 0.290393
O O11 0.351091 0.000000 0.051622
O O12 0.636041 0.247723 0.788925
O O13 0.525284 0.500000 0.326134
O O14 0.734207 0.000000 0.970336
O O15 0.500000 0.000000 0.500000
O O16 0.000000 0.000000 0.000000
O O17 0.000000 0.754687 0.500000
O O18 0.924045 0.000000 0.525745
#
# Coordination Sequence:
#
# PCOD8065520 Si02
#       7
#     4   4   4   4   4   2   4
#     4  11  24  39  57  80 115 155 190 233 283 341
#     4  10  22  36  62  91 112 154 196 235 275 338
#     4   9  17  28  43  66 101 133 171 218 273 327
#     4  11  22  39  58  84 120 153 187 239 296 331
#     4  11  22  37  56  82 110 151 189 236 283 329
#     4  10  20  38  64  90 120 154 194 236 282 332
#     4   9  15  24  40  64  96 135 167 206 269 342
#
# _framework density 18.947922999999999
#
# number of rings (size 3 to 8) (size 9 to 14) (size 15 to 20)
#    0.462    1.385    0.000    5.077    0.000   10.462 
#    0.000    0.000    0.000    9.231    0.000    0.000 
#    0.000   43.077    0.000    0.000    0.000    0.000 
#
# Total GULP energy -322419.718830 kJ/mol
# GULP energy per Si atom -12400.758417 kJ/mol
# Density = 1.890480 g / cm^3
# Si number density = 18.947923 Si / 1000 Ang^3
#
#
#
# Elastic Constant Matrix: (Units=GPa)
#
#
# Indices 1 2 3 4 5 6 
#
# 1 190.0713 34.6553 98.9275 0.0000 0.7376 0.0000
# 2 34.6553 39.5338 21.4122 0.0000 -0.5951 0.0000
# 3 98.9275 21.4122 191.4539 0.0000 1.0807 0.0000
# 4 0.0000 0.0000 0.0000 31.3941 0.0000 3.6678
# 5 0.7376 -0.5951 1.0807 0.0000 53.3436 0.0000
# 6 0.0000 0.0000 0.0000 3.6678 0.0000 -3.4391
#
#
#
# Elastic Compliance Matrix: (Units=1/GPa)
#
#
# Indices 1 2 3 4 5 6 
#
# 1 0.008067 -0.005126 -0.003595 0.000000 -0.000096 0.000000
# 2 -0.005126 0.030190 -0.000730 0.000000 0.000422 0.000000
# 3 -0.003595 -0.000730 0.007163 0.000000 -0.000104 0.000000
# 4 0.000000 0.000000 0.000000 0.028324 0.000000 0.030208
# 5 -0.000096 0.000422 -0.000104 0.000000 0.018755 0.000000
# 6 0.000000 0.000000 0.000000 0.030208 0.000000 -0.258559
#
#
# Mechanical properties :
#
#
# Convention : Reuss Voigt Hill
#
# Bulk Modulus (GPa) = 37.70959 81.22768 59.46864
# Shear Modulus (GPa) = -36.14820 33.99733 -1.07544
#
# Velocity S-wave (km/s) = -4.37254 4.24046 -0.75419
# Velocity P-wave (km/s) = 2.35525 8.18152 5.54031
#
# Compressibility (1/GPa) = 0.02651845
#
# Stress axis : x y z
#
# Youngs Moduli (GPa) = 123.96082 33.12338 139.61045
#
# Poissons Ratio (x) = 0.16980 0.50184
# Poissons Ratio (y) = 0.63544 0.10193
# Poissons Ratio (z) = 0.44558 0.02418
#
# Static dielectric constant tensor:
#      x y z
#    x 3.677740 0.000000 0.004940 
#    y 0.000000 3.188860 0.000000 
#    z 0.004940 0.000000 3.461100 
# 
# 
# High freq. dielectric constant tensor:
#      x y z
#    x 1.748180 0.000000 0.000330 
#    y 0.000000 1.705800 0.000000 
#    z 0.000330 0.000000 1.760050 
# 
# From -- ./inp_files/95954.got.cif
#   From: 2010.06.25/outbox.cif.g09.slc.cpg/sg10_48_cif.got.tgz:95954.got - 2010.06.27 22:07:45.
