data_PCOD8065820
_publ_section_title
;
Structure prediction by ZEFSAII (Michael W. Deem and Ramdas Pophale) SiO2 
 PCOD8065820
Probable space group: P 2/M
;
_chemical_formula_sum "Si O2"
_cell_formula_units_Z 24
_cell_length_a 18.129666
_cell_length_b 8.961787
_cell_length_c 24.404056
_cell_angle_alpha 90.000000
_cell_angle_beta 160.690024
_cell_angle_gamma 90.000000
_cell_volume 1311.150900
_symmetry_space_group_name_H-M "P 2/M"
_symmetry_group_IT_number 10
_symmetry_cell_setting 'monoclinic'
loop_
_space_group_symop_operation_xyz
x,y,z
-x,y,-z
-x,-y,-z
x,-y,z
loop_
_atom_site_type_symbol
_atom_site_label
_atom_site_fract_x
_atom_site_fract_y
_atom_site_fract_z
Si Si1 0.245823 0.173399 0.817664
Si Si2 0.930004 0.822318 0.010368
Si Si3 0.573060 0.177407 0.329121
Si Si4 0.247003 0.822011 0.328673
Si Si5 0.066184 0.324756 0.485738
Si Si6 0.874477 0.173280 0.638812
O O1 0.134433 0.272785 0.693348
O O2 0.123089 0.202512 0.789849
O O3 0.223735 0.000000 0.785617
O O4 0.500000 0.224674 0.000000
O O5 0.098338 0.758570 0.174432
O O6 0.937841 0.000000 0.014829
O O7 0.681157 0.766944 0.849895
O O8 0.000000 0.759071 0.000000
O O9 0.700894 0.246197 0.366740
O O10 0.691295 0.237102 0.467700
O O11 0.591865 0.000000 0.338211
O O12 0.500000 0.765634 0.500000
O O13 0.151433 0.755318 0.318977
O O14 0.235991 0.000000 0.319814
O O15 0.099088 0.500000 0.503208
O O16 0.000000 0.275430 0.500000
O O17 0.823731 0.000000 0.609853
#
# Coordination Sequence:
#
# PCOD8065820 Si02
#       6
#     4   4   4   4   4   4
#     4   9  18  32  51  74  98 124 158 203 250 295
#     4   9  16  25  40  66  97 126 155 189 234 286
#     4   9  17  30  48  68  93 125 160 200 242 285
#     4   9  15  22  35  58  90 123 149 180 227 280
#     4  10  21  35  50  70  98 132 168 205 247 296
#     4   8  14  25  39  58  86 117 148 184 228 274
#
# _framework density 18.30453
#
# number of rings (size 3 to 8) (size 9 to 14) (size 15 to 20)
#    0.000    3.000    0.000    2.500    0.000    7.000 
#    0.000    3.333    0.000    0.500    0.000    0.000 
#    0.000   16.667    0.000    0.000    0.000    0.000 
#
# Total GULP energy -297517.729738 kJ/mol
# GULP energy per Si atom -12396.572072 kJ/mol
# Density = 1.826287 g / cm^3
# Si number density = 18.304530 Si / 1000 Ang^3
#
#
#
# Elastic Constant Matrix: (Units=GPa)
#
#
# Indices 1 2 3 4 5 6 
#
# 1 182.2758 26.5783 91.5177 0.0000 3.9594 0.0000
# 2 26.5783 16.7524 13.5235 0.0000 3.2620 0.0000
# 3 91.5177 13.5235 159.4653 0.0000 18.3540 0.0000
# 4 0.0000 0.0000 0.0000 6.1992 0.0000 -3.5181
# 5 3.9594 3.2620 18.3540 0.0000 30.8951 0.0000
# 6 0.0000 0.0000 0.0000 -3.5181 0.0000 12.4154
#
#
#
# Elastic Compliance Matrix: (Units=1/GPa)
#
#
# Indices 1 2 3 4 5 6 
#
# 1 0.009573 -0.011859 -0.004821 0.000000 0.002889 0.000000
# 2 -0.011859 0.079188 0.000942 0.000000 -0.007401 0.000000
# 3 -0.004821 0.000942 0.009551 0.000000 -0.005156 0.000000
# 4 0.000000 0.000000 0.000000 0.192225 0.000000 0.054470
# 5 0.002889 -0.007401 -0.005156 0.000000 0.035842 0.000000
# 6 0.000000 0.000000 0.000000 0.054470 0.000000 0.095980
#
#
# Mechanical properties :
#
#
# Convention : Reuss Voigt Hill
#
# Bulk Modulus (GPa) = 14.96173 69.08137 42.02155
# Shear Modulus (GPa) = 10.50169 25.02686 17.76428
#
# Velocity S-wave (km/s) = 2.39785 3.70165 3.11864
# Velocity P-wave (km/s) = 3.98218 7.48943 5.99789
#
# Compressibility (1/GPa) = 0.06683721
#
# Stress axis : x y z
#
# Youngs Moduli (GPa) = 104.45909 12.62811 104.69898
#
# Poissons Ratio (x) = 0.14976 0.50474
# Poissons Ratio (y) = 1.23878 -0.09864
# Poissons Ratio (z) = 0.50358 -0.01190
#
# Static dielectric constant tensor:
#      x y z
#    x 3.663900 0.000000 0.016570 
#    y 0.000000 2.763840 0.000000 
#    z 0.016570 0.000000 3.521600 
# 
# 
# High freq. dielectric constant tensor:
#      x y z
#    x 1.723540 0.000000 0.007550 
#    y 0.000000 1.645450 0.000000 
#    z 0.007550 0.000000 1.713550 
# 
# From -- ./inp_files/80053.got.cif
#   From: 2010.06.25/outbox.cif.g09.slc.cpg/sg10_41_cif.got.tgz:80053.got - 2010.06.27 22:07:45.
