data_PCOD8065523
_publ_section_title
;
Structure prediction by ZEFSAII (Michael W. Deem and Ramdas Pophale) SiO2 
 PCOD8065523
Probable space group: P 2/M
;
_chemical_formula_sum "Si O2"
_cell_formula_units_Z 20
_cell_length_a 11.371846
_cell_length_b 9.780244
_cell_length_c 10.158132
_cell_angle_alpha 90.000000
_cell_angle_beta 53.172880
_cell_angle_gamma 90.000000
_cell_volume 904.331162
_symmetry_space_group_name_H-M "P 2/M"
_symmetry_group_IT_number 10
_symmetry_cell_setting 'monoclinic'
loop_
_space_group_symop_operation_xyz
x,y,z
-x,y,-z
-x,-y,-z
x,-y,z
loop_
_atom_site_type_symbol
_atom_site_label
_atom_site_fract_x
_atom_site_fract_y
_atom_site_fract_z
Si Si1 0.897001 0.163189 0.791595
Si Si2 0.622546 0.152138 0.827829
Si Si3 0.463090 0.250545 0.383399
Si Si4 0.774838 0.652408 0.100853
Si Si5 0.153025 0.650023 0.654024
O O1 0.786593 0.208277 0.747035
O O2 0.053810 0.232375 0.653371
O O3 0.919594 0.000000 0.791776
O O4 0.828809 0.226896 0.970182
O O5 0.579895 0.145428 0.702993
O O6 0.629501 0.000000 0.880098
O O7 0.500000 0.231099 0.000000
O O8 0.500000 0.177433 0.500000
O O9 0.600250 0.339370 0.243608
O O10 0.321807 0.346502 0.495547
O O11 0.806322 0.500000 0.022059
O O12 0.860750 0.671667 0.180019
O O13 0.092569 0.500000 0.656471
#
# Coordination Sequence:
#
# PCOD8065523 Si02
#       5
#     4   4   4   4   4
#     4  11  23  39  61  89 125 166 208 254 306 368
#     4  10  21  40  62  87 126 167 203 254 314 363
#     4  10  21  39  65  93 120 159 211 256 302 368
#     4  10  20  38  64  91 123 165 208 253 308 365
#     4  10  22  40  61  90 130 165 199 255 316 364
#
# _framework density 22.115791999999999
#
# number of rings (size 3 to 8) (size 9 to 14) (size 15 to 20)
#    0.000    1.800    2.000    1.800    0.000    7.600 
#    0.000   12.000    0.000    0.000    0.000    0.000 
#    0.000    0.000    0.000    0.000    0.000    0.000 
#
# Total GULP energy -247784.477779 kJ/mol
# GULP energy per Si atom -12389.223889 kJ/mol
# Density = 2.206546 g / cm^3
# Si number density = 22.115792 Si / 1000 Ang^3
#
#
#
# Elastic Constant Matrix: (Units=GPa)
#
#
# Indices 1 2 3 4 5 6 
#
# 1 143.3047 51.5353 29.8357 0.0000 -5.6358 0.0000
# 2 51.5353 109.9725 22.2937 0.0000 -9.9183 0.0000
# 3 29.8357 22.2937 72.8659 0.0000 -4.8692 0.0000
# 4 0.0000 0.0000 0.0000 14.3999 0.0000 -2.5755
# 5 -5.6358 -9.9183 -4.8692 0.0000 40.2390 0.0000
# 6 0.0000 0.0000 0.0000 -2.5755 0.0000 22.1054
#
#
#
# Elastic Compliance Matrix: (Units=1/GPa)
#
#
# Indices 1 2 3 4 5 6 
#
# 1 0.008799 -0.003614 -0.002494 0.000000 0.000040 0.000000
# 2 -0.003614 0.011349 -0.001854 0.000000 0.002067 0.000000
# 3 -0.002494 -0.001854 0.015383 0.000000 0.001055 0.000000
# 4 0.000000 0.000000 0.000000 0.070923 0.000000 0.008263
# 5 0.000040 0.002067 0.001055 0.000000 0.025494 0.000000
# 6 0.000000 0.000000 0.000000 0.008263 0.000000 0.046201
#
#
# Mechanical properties :
#
#
# Convention : Reuss Voigt Hill
#
# Bulk Modulus (GPa) = 51.00656 59.27473 55.14064
# Shear Modulus (GPa) = 24.92407 30.18072 27.55240
#
# Velocity S-wave (km/s) = 3.36070 3.69815 3.53345
# Velocity P-wave (km/s) = 6.17839 6.71530 6.45243
#
# Compressibility (1/GPa) = 0.01960532
#
# Stress axis : x y z
#
# Youngs Moduli (GPa) = 113.65334 88.11262 65.00658
#
# Poissons Ratio (x) = 0.31844 0.16215
# Poissons Ratio (y) = 0.41074 0.12055
# Poissons Ratio (z) = 0.28349 0.16340
#
# Static dielectric constant tensor:
#      x y z
#    x 4.303120 0.000000 -0.190370 
#    y 0.000000 3.572160 0.000000 
#    z -0.190370 0.000000 3.939930 
# 
# 
# High freq. dielectric constant tensor:
#      x y z
#    x 1.884800 0.000000 -0.018980 
#    y 0.000000 1.836680 0.000000 
#    z -0.018980 0.000000 1.873270 
# 
# From -- ./inp_files/41620.got.cif
#   From: 2010.06.25/outbox.cif.g09.slc.cpg/sg10_21_cif.got.tgz:41620.got - 2010.06.27 22:07:45.
