data_PCOD8065562
_publ_section_title
;
Structure prediction by ZEFSAII (Michael W. Deem and Ramdas Pophale) SiO2 
 PCOD8065562
Probable space group: P 2/M
;
_chemical_formula_sum "Si O2"
_cell_formula_units_Z 28
_cell_length_a 16.396637
_cell_length_b 18.527311
_cell_length_c 9.269242
_cell_angle_alpha 90.000000
_cell_angle_beta 151.077820
_cell_angle_gamma 90.000000
_cell_volume 1361.810791
_symmetry_space_group_name_H-M "P 2/M"
_symmetry_group_IT_number 10
_symmetry_cell_setting 'monoclinic'
loop_
_space_group_symop_operation_xyz
x,y,z
-x,y,-z
-x,-y,-z
x,-y,z
loop_
_atom_site_type_symbol
_atom_site_label
_atom_site_fract_x
_atom_site_fract_y
_atom_site_fract_z
Si Si1 0.950717 0.418219 0.580602
Si Si2 0.551330 0.684184 0.429684
Si Si3 0.328990 0.152883 0.673254
Si Si4 0.345674 0.159533 0.361702
Si Si5 0.657530 0.310103 0.168177
Si Si6 0.165420 0.418793 0.175555
Si Si7 0.011103 0.082148 0.846231
O O1 0.876927 0.500000 0.465201
O O2 0.813839 0.362962 0.429705
O O3 0.000000 0.391361 0.500000
O O4 0.121848 0.415448 0.938412
O O5 0.500000 0.644578 0.500000
O O6 0.653760 0.754091 0.643332
O O7 0.677864 0.631446 0.540846
O O8 0.394101 0.704042 0.080625
O O9 0.355298 0.138644 0.544264
O O10 0.309476 0.236409 0.691129
O O11 0.166387 0.112567 0.487911
O O12 0.500000 0.118670 0.000000
O O13 0.500000 0.129429 0.500000
O O14 0.168392 0.128197 0.026554
O O15 0.500000 0.349389 0.000000
O O16 0.208629 0.500000 0.293333
O O17 0.000000 0.389976 0.000000
O O18 0.035200 0.000000 0.832923
O O19 0.000000 0.089239 0.000000
#
# Coordination Sequence:
#
# PCOD8065562 Si02
#       7
#     4   4   4   4   4   4   4
#     4  10  22  39  57  81 114 151 191 240 298 346
#     4  11  22  36  57  83 112 147 193 235 289 342
#     4  10  20  39  59  89 123 150 193 243 288 342
#     4  10  21  38  61  89 120 153 192 243 288 345
#     4  11  21  37  56  85 113 148 193 236 291 347
#     4  10  22  37  55  81 110 147 193 237 286 343
#     4   9  20  38  64  93 117 157 200 229 286 356
#
# _framework density 20.560859000000001
#
# number of rings (size 3 to 8) (size 9 to 14) (size 15 to 20)
#    0.000    1.857    2.857    1.714    2.000    2.286 
#    0.000    0.714    0.000    0.857    0.000    0.000 
#    0.000    0.000    0.000    0.000    0.000    0.000 
#
# Total GULP energy -347003.215320 kJ/mol
# GULP energy per Si atom -12392.971976 kJ/mol
# Density = 2.051406 g / cm^3
# Si number density = 20.560859 Si / 1000 Ang^3
#
#
#
# Elastic Constant Matrix: (Units=GPa)
#
#
# Indices 1 2 3 4 5 6 
#
# 1 85.0030 14.5818 24.5029 0.0000 8.9858 0.0000
# 2 14.5818 78.2490 45.2480 0.0000 26.3964 0.0000
# 3 24.5029 45.2480 110.7539 0.0000 24.9543 0.0000
# 4 0.0000 0.0000 0.0000 25.1564 0.0000 6.3676
# 5 8.9858 26.3964 24.9543 0.0000 38.3463 0.0000
# 6 0.0000 0.0000 0.0000 6.3676 0.0000 14.5593
#
#
#
# Elastic Compliance Matrix: (Units=1/GPa)
#
#
# Indices 1 2 3 4 5 6 
#
# 1 0.012649 -0.000698 -0.002289 0.000000 -0.000994 0.000000
# 2 -0.000698 0.019365 -0.005614 0.000000 -0.009514 0.000000
# 3 -0.002289 -0.005614 0.012699 0.000000 -0.003864 0.000000
# 4 0.000000 0.000000 0.000000 0.044700 0.000000 -0.019550
# 5 -0.000994 -0.009514 -0.003864 0.000000 0.035374 0.000000
# 6 0.000000 0.000000 0.000000 -0.019550 0.000000 0.077235
#
#
# Mechanical properties :
#
#
# Convention : Reuss Voigt Hill
#
# Bulk Modulus (GPa) = 36.34821 49.18573 42.76697
# Shear Modulus (GPa) = 21.89188 28.25727 25.07458
#
# Velocity S-wave (km/s) = 3.26657 3.71121 3.49596
# Velocity P-wave (km/s) = 5.65190 6.50677 6.09434
#
# Compressibility (1/GPa) = 0.02751167
#
# Stress axis : x y z
#
# Youngs Moduli (GPa) = 79.05758 51.63879 78.74369
#
# Poissons Ratio (x) = 0.03605 0.18027
# Poissons Ratio (y) = 0.05519 0.44203
# Poissons Ratio (z) = 0.18099 0.28988
#
# Static dielectric constant tensor:
#      x y z
#    x 3.929790 0.000000 0.073290 
#    y 0.000000 3.517690 0.000000 
#    z 0.073290 0.000000 3.869890 
# 
# 
# High freq. dielectric constant tensor:
#      x y z
#    x 1.805980 0.000000 0.000540 
#    y 0.000000 1.783390 0.000000 
#    z 0.000540 0.000000 1.800540 
# 
# From -- ./inp_files/30501.got.cif
#   From: 2010.06.25/outbox.cif.g09.slc.cpg/sg10_16_cif.got.tgz:30501.got - 2010.06.27 22:07:45.
