data_PCOD8065490
_publ_section_title
;
Structure prediction by ZEFSAII (Michael W. Deem and Ramdas Pophale) SiO2 
 PCOD8065490
Probable space group: P 2/M
;
_chemical_formula_sum "Si O2"
_cell_formula_units_Z 28
_cell_length_a 11.922593
_cell_length_b 8.559866
_cell_length_c 15.137440
_cell_angle_alpha 90.000000
_cell_angle_beta 118.888629
_cell_angle_gamma 90.000000
_cell_volume 1352.621362
_symmetry_space_group_name_H-M "P 2/M"
_symmetry_group_IT_number 10
_symmetry_cell_setting 'monoclinic'
loop_
_space_group_symop_operation_xyz
x,y,z
-x,y,-z
-x,-y,-z
x,-y,z
loop_
_atom_site_type_symbol
_atom_site_label
_atom_site_fract_x
_atom_site_fract_y
_atom_site_fract_z
Si Si1 0.626641 0.324631 0.491592
Si Si2 0.004167 0.681108 0.774738
Si Si3 0.622121 0.316406 0.815010
Si Si4 0.086672 0.684233 0.614294
Si Si5 0.637106 0.180675 0.311363
Si Si6 0.124749 0.319381 0.997983
Si Si7 0.254415 0.818151 0.303584
O O1 0.500000 0.329226 0.500000
O O2 0.668094 0.500000 0.477849
O O3 0.605234 0.213247 0.400871
O O4 0.735977 0.246978 0.593020
O O5 0.962334 0.500000 0.753283
O O6 0.040205 0.748159 0.691932
O O7 0.891991 0.782968 0.776638
O O8 0.119203 0.701391 0.889510
O O9 0.604596 0.500000 0.820244
O O10 0.486633 0.238380 0.792023
O O11 0.739998 0.245578 0.917756
O O12 0.650412 0.277086 0.723607
O O13 0.074369 0.500000 0.608694
O O14 0.234507 0.728139 0.663601
O O15 0.000000 0.753209 0.500000
O O16 0.660228 0.000000 0.302160
O O17 0.129823 0.500000 0.028071
O O18 0.000000 0.245094 0.000000
O O19 0.288013 0.000000 0.309755
#
# Coordination Sequence:
#
# PCOD8065490 Si02
#       7
#     4   4   4   4   4   4   4
#     4  11  22  36  57  82 113 155 198 240 291 354
#     4  10  20  38  63  88 117 158 207 255 300 355
#     4  11  21  37  60  85 119 159 202 250 301 359
#     4  10  22  41  65  90 118 157 207 251 295 361
#     4  12  25  40  60  87 124 160 197 249 309 366
#     4   9  17  33  60  91 119 153 205 258 303 350
#     4  12  23  34  54  88 126 157 192 242 305 367
#
# _framework density 20.700545000000002
#
# number of rings (size 3 to 8) (size 9 to 14) (size 15 to 20)
#    0.000    1.286    2.857    4.286    0.000    2.571 
#    0.000    2.857    0.000    4.286    0.000    0.000 
#    0.000    0.000    0.000    0.000    0.000    0.000 
#
# Total GULP energy -347127.962215 kJ/mol
# GULP energy per Si atom -12397.427222 kJ/mol
# Density = 2.065343 g / cm^3
# Si number density = 20.700545 Si / 1000 Ang^3
#
#
#
# Elastic Constant Matrix: (Units=GPa)
#
#
# Indices 1 2 3 4 5 6 
#
# 1 98.7099 -1.6019 39.2473 0.0000 15.7941 0.0000
# 2 -1.6019 29.5171 8.5328 0.0000 -0.8869 0.0000
# 3 39.2473 8.5328 113.6447 0.0000 12.5050 0.0000
# 4 0.0000 0.0000 0.0000 10.7893 0.0000 0.6675
# 5 15.7941 -0.8869 12.5050 0.0000 38.2580 0.0000
# 6 0.0000 0.0000 0.0000 0.6675 0.0000 15.6225
#
#
#
# Elastic Compliance Matrix: (Units=1/GPa)
#
#
# Indices 1 2 3 4 5 6 
#
# 1 0.012340 0.001706 -0.003977 0.000000 -0.003755 0.000000
# 2 0.001706 0.034975 -0.003347 0.000000 0.001200 0.000000
# 3 -0.003977 -0.003347 0.010634 0.000000 -0.001912 0.000000
# 4 0.000000 0.000000 0.000000 0.092930 0.000000 -0.003971
# 5 -0.003755 0.001200 -0.001912 0.000000 0.028341 0.000000
# 6 0.000000 0.000000 0.000000 -0.003971 0.000000 0.064180
#
#
# Mechanical properties :
#
#
# Convention : Reuss Voigt Hill
#
# Bulk Modulus (GPa) = 21.40664 37.13646 29.27155
# Shear Modulus (GPa) = 18.50423 25.98017 22.24220
#
# Velocity S-wave (km/s) = 2.99306 3.54651 3.28147
# Velocity P-wave (km/s) = 4.72315 5.89484 5.34122
#
# Compressibility (1/GPa) = 0.04671448
#
# Stress axis : x y z
#
# Youngs Moduli (GPa) = 81.03487 28.59179 94.03429
#
# Poissons Ratio (x) = -0.04879 0.37395
# Poissons Ratio (y) = -0.13828 0.31477
# Poissons Ratio (z) = 0.32225 0.09571
#
# Static dielectric constant tensor:
#      x y z
#    x 3.697010 0.000000 0.193260 
#    y 0.000000 3.475330 0.000000 
#    z 0.193260 0.000000 4.067570 
# 
# 
# High freq. dielectric constant tensor:
#      x y z
#    x 1.797840 0.000000 0.020100 
#    y 0.000000 1.782570 0.000000 
#    z 0.020100 0.000000 1.816900 
# 
# From -- ./inp_files/63487.got.cif
#   From: 2010.06.25/outbox.cif.g09.slc.cpg/sg10_32_cif.got.tgz:63487.got - 2010.06.27 22:07:45.
