data_PCOD8065018
_publ_section_title
;
Structure prediction by ZEFSAII (Michael W. Deem and Ramdas Pophale) SiO2 
 PCOD8065018
Probable space group: P 2/M
;
_chemical_formula_sum "Si O2"
_cell_formula_units_Z 28
_cell_length_a 9.913475
_cell_length_b 13.383393
_cell_length_c 11.299149
_cell_angle_alpha 90.000000
_cell_angle_beta 64.608596
_cell_angle_gamma 90.000000
_cell_volume 1354.309090
_symmetry_space_group_name_H-M "P 2/M"
_symmetry_group_IT_number 10
_symmetry_cell_setting 'monoclinic'
loop_
_space_group_symop_operation_xyz
x,y,z
-x,y,-z
-x,-y,-z
x,-y,z
loop_
_atom_site_type_symbol
_atom_site_label
_atom_site_fract_x
_atom_site_fract_y
_atom_site_fract_z
Si Si1 0.250567 0.114215 0.889506
Si Si2 0.631551 0.613846 0.118590
Si Si3 0.799443 0.727680 0.889810
Si Si4 0.861068 0.288707 0.203523
Si Si5 0.326619 0.386708 0.535689
Si Si6 0.334715 0.285047 0.304338
Si Si7 0.459968 0.110704 0.381789
O O1 0.143751 0.173003 0.837668
O O2 0.409651 0.114508 0.765135
O O3 0.195540 0.000000 0.930279
O O4 0.247694 0.172795 0.017439
O O5 0.580911 0.500000 0.154713
O O6 0.777095 0.639718 0.142180
O O7 0.499844 0.689793 0.196783
O O8 0.685511 0.637069 0.964996
O O9 0.781303 0.739862 0.756068
O O10 0.964801 0.687612 0.853597
O O11 0.778544 0.307489 0.358260
O O12 0.500000 0.362752 0.500000
O O13 0.289237 0.500000 0.588572
O O14 0.289542 0.375058 0.409914
O O15 0.334139 0.185907 0.384702
O O16 0.500000 0.144194 0.500000
O O17 0.391255 0.000000 0.412723
#
# Coordination Sequence:
#
# PCOD8065018 Si02
#       7
#     4   4   4   4   4   4   4
#     4  10  20  39  66  91 122 168 214 252 302 369
#     4  11  22  39  62  84 116 164 211 249 296 361
#     4  11  26  38  56  92 131 163 199 251 317 364
#     4  11  22  41  62  90 123 157 208 261 304 363
#     4  11  22  40  67  91 115 159 215 259 306 372
#     4  12  22  39  61  90 126 160 203 260 305 366
#     4  10  20  36  63  95 122 158 210 262 304 353
#
# _framework density 20.67475
#
# number of rings (size 3 to 8) (size 9 to 14) (size 15 to 20)
#    0.000    1.143    4.286    4.286    0.000    5.714 
#    0.000    2.143    0.000    0.000    0.000    6.000 
#    0.000    0.000    0.000    0.000    0.000    0.000 
#
# Total GULP energy -346946.306183 kJ/mol
# GULP energy per Si atom -12390.939507 kJ/mol
# Density = 2.062769 g / cm^3
# Si number density = 20.674750 Si / 1000 Ang^3
#
#
#
# Elastic Constant Matrix: (Units=GPa)
#
#
# Indices 1 2 3 4 5 6 
#
# 1 57.2132 28.0771 23.6860 0.0000 18.1375 0.0000
# 2 28.0771 109.7596 22.1876 0.0000 3.5877 0.0000
# 3 23.6860 22.1876 93.6727 0.0000 16.4989 0.0000
# 4 0.0000 0.0000 0.0000 27.4502 0.0000 3.4316
# 5 18.1375 3.5877 16.4989 0.0000 32.4598 0.0000
# 6 0.0000 0.0000 0.0000 3.4316 0.0000 11.0736
#
#
#
# Elastic Compliance Matrix: (Units=1/GPa)
#
#
# Indices 1 2 3 4 5 6 
#
# 1 0.025170 -0.005448 -0.002969 0.000000 -0.011953 0.000000
# 2 -0.005448 0.010748 -0.001642 0.000000 0.002691 0.000000
# 3 -0.002969 -0.001642 0.012621 0.000000 -0.004575 0.000000
# 4 0.000000 0.000000 0.000000 0.037898 0.000000 -0.011744
# 5 -0.011953 0.002691 -0.004575 0.000000 0.039514 0.000000
# 6 0.000000 0.000000 0.000000 -0.011744 0.000000 0.093944
#
#
# Mechanical properties :
#
#
# Convention : Reuss Voigt Hill
#
# Bulk Modulus (GPa) = 35.18425 45.39410 40.28917
# Shear Modulus (GPa) = 20.04106 26.64305 23.34206
#
# Velocity S-wave (km/s) = 3.11682 3.59371 3.36372
# Velocity P-wave (km/s) = 5.47792 6.26288 5.88350
#
# Compressibility (1/GPa) = 0.02842181
#
# Stress axis : x y z
#
# Youngs Moduli (GPa) = 39.72905 93.03660 79.23364
#
# Poissons Ratio (x) = 0.50685 0.23523
# Poissons Ratio (y) = 0.21644 0.13013
# Poissons Ratio (z) = 0.11795 0.15280
#
# Static dielectric constant tensor:
#      x y z
#    x 3.390320 0.000000 0.181610 
#    y 0.000000 4.002670 0.000000 
#    z 0.181610 0.000000 4.019600 
# 
# 
# High freq. dielectric constant tensor:
#      x y z
#    x 1.771690 0.000000 0.009990 
#    y 0.000000 1.811610 0.000000 
#    z 0.009990 0.000000 1.822180 
# 
# From -- ./inp_files/42869.got.cif
#   From: 2010.06.25/outbox.cif.g09.slc.cpg/sg10_22_cif.got.tgz:42869.got - 2010.06.27 22:07:45.
