data_PCOD8065937
_publ_section_title
;
Structure prediction by ZEFSAII (Michael W. Deem and Ramdas Pophale) SiO2 
 PCOD8065937
Probable space group: P 2/M
;
_chemical_formula_sum "Si O2"
_cell_formula_units_Z 28
_cell_length_a 9.778560
_cell_length_b 9.153809
_cell_length_c 30.436231
_cell_angle_alpha 90.000000
_cell_angle_beta 36.117400
_cell_angle_gamma 90.000000
_cell_volume 1605.862972
_symmetry_space_group_name_H-M "P 2/M"
_symmetry_group_IT_number 10
_symmetry_cell_setting 'monoclinic'
loop_
_space_group_symop_operation_xyz
x,y,z
-x,y,-z
-x,-y,-z
x,-y,z
loop_
_atom_site_type_symbol
_atom_site_label
_atom_site_fract_x
_atom_site_fract_y
_atom_site_fract_z
Si Si1 0.536879 0.166494 0.725692
Si Si2 0.060192 0.672293 0.841053
Si Si3 0.228541 0.668986 0.565454
Si Si4 0.248709 0.673037 0.162719
Si Si5 0.021307 0.830716 0.444247
Si Si6 0.345008 0.329131 0.998905
Si Si7 0.126429 0.171936 0.283825
O O1 0.315119 0.264568 0.775455
O O2 0.657203 0.207036 0.740594
O O3 0.716132 0.197104 0.639725
O O4 0.454125 0.000000 0.747101
O O5 0.081347 0.500000 0.839337
O O6 0.931128 0.713178 0.829289
O O7 0.912009 0.733016 0.922221
O O8 0.500000 0.691462 0.500000
O O9 0.156368 0.500000 0.586498
O O10 0.156401 0.733233 0.537129
O O11 0.104464 0.754320 0.637179
O O12 0.244062 0.500000 0.173748
O O13 0.511972 0.726852 0.080938
O O14 0.176866 0.763503 0.223408
O O15 0.000000 0.782092 0.500000
O O16 0.954004 0.000000 0.454788
O O17 0.320818 0.500000 0.999434
O O18 0.500000 0.289994 0.000000
O O19 0.081102 0.000000 0.292338
#
# Coordination Sequence:
#
# PCOD8065937 Si02
#       7
#     4   4   4   4   4   4   4
#     4   9  19  34  49  69  99 132 165 201 241 287
#     4   9  17  30  51  76  98 126 165 204 246 295
#     4  10  21  36  54  77 102 127 161 206 250 290
#     4   9  17  31  52  76 100 126 162 208 249 287
#     4   9  19  36  55  74  99 133 169 201 240 294
#     4   7  12  26  47  70  97 127 159 199 245 290
#     4  10  21  36  52  71  99 135 169 198 239 296
#
# _framework density 17.436105999999999
#
# number of rings (size 3 to 8) (size 9 to 14) (size 15 to 20)
#    0.000    3.000    0.000    3.429    0.000    6.000 
#    0.000    4.286    0.000    6.857    0.000    0.000 
#    0.000    0.000    0.000    0.000    0.000    0.000 
#
# Total GULP energy -346951.622253 kJ/mol
# GULP energy per Si atom -12391.129366 kJ/mol
# Density = 1.739642 g / cm^3
# Si number density = 17.436106 Si / 1000 Ang^3
#
#
#
# Elastic Constant Matrix: (Units=GPa)
#
#
# Indices 1 2 3 4 5 6 
#
# 1 84.8686 53.8375 83.0800 0.0000 5.8439 0.0000
# 2 53.8375 72.3030 66.6926 0.0000 5.3839 0.0000
# 3 83.0800 66.6926 142.2379 0.0000 10.5980 0.0000
# 4 0.0000 0.0000 0.0000 -14.7343 0.0000 22.1084
# 5 5.8439 5.3839 10.5980 0.0000 28.5346 0.0000
# 6 0.0000 0.0000 0.0000 22.1084 0.0000 19.6568
#
#
#
# Elastic Compliance Matrix: (Units=1/GPa)
#
#
# Indices 1 2 3 4 5 6 
#
# 1 0.032326 -0.011731 -0.013424 0.000000 0.000579 0.000000
# 2 -0.011731 0.028632 -0.006530 0.000000 -0.000574 0.000000
# 3 -0.013424 -0.006530 0.018138 0.000000 -0.002755 0.000000
# 4 0.000000 0.000000 0.000000 -0.025253 0.000000 0.028402
# 5 0.000579 -0.000574 -0.002755 0.000000 0.036058 0.000000
# 6 0.000000 0.000000 0.000000 0.028402 0.000000 0.018929
#
#
# Mechanical properties :
#
#
# Convention : Reuss Voigt Hill
#
# Bulk Modulus (GPa) = 63.58885 78.51440 71.05162
# Shear Modulus (GPa) = 28.17814 13.07807 20.62810
#
# Velocity S-wave (km/s) = 4.02441 2.74169 3.44331
# Velocity P-wave (km/s) = 7.62518 7.42630 7.52640
#
# Compressibility (1/GPa) = 0.01572603
#
# Stress axis : x y z
#
# Youngs Moduli (GPa) = 30.93517 34.92614 55.13141
#
# Poissons Ratio (x) = 0.40971 0.74008
# Poissons Ratio (y) = 0.36289 0.36002
# Poissons Ratio (z) = 0.41527 0.22808
#
# Static dielectric constant tensor:
#      x y z
#    x 3.095560 0.000000 0.081300 
#    y 0.000000 3.104650 0.000000 
#    z 0.081300 0.000000 3.633810 
# 
# 
# High freq. dielectric constant tensor:
#      x y z
#    x 1.653810 0.000000 0.002930 
#    y 0.000000 1.659870 0.000000 
#    z 0.002930 0.000000 1.692530 
# 
# From -- ./inp_files/86461.got.cif
#   From: 2010.06.25/outbox.cif.g09.slc.cpg/sg10_44_cif.got.tgz:86461.got - 2010.06.27 22:07:45.
