data_PCOD8065780
_publ_section_title
;
Structure prediction by ZEFSAII (Michael W. Deem and Ramdas Pophale) SiO2 
 PCOD8065780
Probable space group: P 2/M
;
_chemical_formula_sum "Si O2"
_cell_formula_units_Z 28
_cell_length_a 29.997476
_cell_length_b 9.670945
_cell_length_c 29.997573
_cell_angle_alpha 90.000000
_cell_angle_beta 9.916353
_cell_angle_gamma 90.000000
_cell_volume 1498.644974
_symmetry_space_group_name_H-M "P 2/M"
_symmetry_group_IT_number 10
_symmetry_cell_setting 'monoclinic'
loop_
_space_group_symop_operation_xyz
x,y,z
-x,y,-z
-x,-y,-z
x,-y,z
loop_
_atom_site_type_symbol
_atom_site_label
_atom_site_fract_x
_atom_site_fract_y
_atom_site_fract_z
Si Si1 0.235424 0.000000 0.735448
Si Si2 0.101059 0.662256 0.601106
Si Si3 0.525312 0.335144 0.025176
Si Si4 0.798358 0.757976 0.298160
Si Si5 0.948818 0.334791 0.448960
Si Si6 0.628700 0.664400 0.128731
Si Si7 0.233985 0.500000 0.734007
Si Si8 0.673989 0.167734 0.174215
O O1 0.500000 0.000000 0.500000
O O2 0.220486 0.868951 0.720604
O O3 0.000000 0.000000 0.000000
O O4 0.098022 0.500000 0.598169
O O5 0.076245 0.727567 0.576227
O O6 0.366617 0.708533 0.362309
O O7 0.862292 0.708556 0.866639
O O8 0.524957 0.500000 0.024808
O O9 0.788297 0.278709 0.787993
O O10 0.500000 0.277236 0.000000
O O11 0.288189 0.278710 0.288117
O O12 0.783861 0.621341 0.283774
O O13 0.563113 0.773718 0.563897
O O14 0.064143 0.773721 0.062853
O O15 0.948323 0.500000 0.448477
O O16 0.634955 0.500000 0.134949
O O17 0.649948 0.762617 0.150095
O O18 0.500000 0.500000 0.500000
O O19 0.000000 0.500000 0.000000
O O20 0.672678 0.000000 0.172919
#
# Coordination Sequence:
#
# PCOD8065780 Si02
#       8
#     2   4   4   4   4   4   2   4
#     4  12  22  40  64  88 114 148 186 218 260 310
#     4   9  17  31  46  72  96 127 176 224 275 324
#     4   9  15  21  30  50  78 119 169 212 256 311
#     4  12  25  42  65  91 119 152 188 227 271 327
#     4   9  15  23  37  52  82 120 160 218 264 306
#     4  10  21  34  56  78 104 136 178 227 271 326
#     4  12  26  46  66  94 126 152 188 232 276 318
#     4  12  24  43  61  89 118 151 188 227 277 333
#
# _framework density 18.683543
#
# number of rings (size 3 to 8) (size 9 to 14) (size 15 to 20)
#    0.000    1.571    1.429    4.714    2.000    5.143 
#    0.000    0.000    0.000    0.000    0.000    0.000 
#    0.000    0.000    0.000    0.000    0.000   50.000 
#
# Total GULP energy -347096.611282 kJ/mol
# GULP energy per Si atom -12396.307546 kJ/mol
# Density = 1.864102 g / cm^3
# Si number density = 18.683543 Si / 1000 Ang^3
#
#
#
# Elastic Constant Matrix: (Units=GPa)
#
#
# Indices 1 2 3 4 5 6 
#
# 1 205.5407 59.4004 116.7253 0.0000 -0.9066 0.0000
# 2 59.4004 79.5148 36.2546 0.0000 2.0377 0.0000
# 3 116.7253 36.2546 214.2736 0.0000 0.1294 0.0000
# 4 0.0000 0.0000 0.0000 10.7441 0.0000 0.4927
# 5 -0.9066 2.0377 0.1294 0.0000 49.4461 0.0000
# 6 0.0000 0.0000 0.0000 0.4927 0.0000 16.2004
#
#
#
# Elastic Compliance Matrix: (Units=1/GPa)
#
#
# Indices 1 2 3 4 5 6 
#
# 1 0.008303 -0.004496 -0.003762 0.000000 0.000347 0.000000
# 2 -0.004496 0.016077 -0.000271 0.000000 -0.000744 0.000000
# 3 -0.003762 -0.000271 0.006762 0.000000 -0.000076 0.000000
# 4 0.000000 0.000000 0.000000 0.093204 0.000000 -0.002835
# 5 0.000347 -0.000744 -0.000076 0.000000 0.020261 0.000000
# 6 0.000000 0.000000 0.000000 -0.002835 0.000000 0.061813
#
#
# Mechanical properties :
#
#
# Convention : Reuss Voigt Hill
#
# Bulk Modulus (GPa) = 71.00015 102.67663 86.83839
# Shear Modulus (GPa) = 21.91315 34.40806 28.16061
#
# Velocity S-wave (km/s) = 3.42842 4.29607 3.88653
# Velocity P-wave (km/s) = 7.33185 8.92655 8.16821
#
# Compressibility (1/GPa) = 0.01408448
#
# Stress axis : x y z
#
# Youngs Moduli (GPa) = 120.44328 62.19942 147.87798
#
# Poissons Ratio (x) = 0.27964 0.55637
# Poissons Ratio (y) = 0.54149 0.04003
# Poissons Ratio (z) = 0.45315 0.01684
#
# Static dielectric constant tensor:
#      x y z
#    x 3.805990 0.000000 0.007730 
#    y 0.000000 3.035080 0.000000 
#    z 0.007730 0.000000 3.720410 
# 
# 
# High freq. dielectric constant tensor:
#      x y z
#    x 1.750100 0.000000 -0.000110 
#    y 0.000000 1.673020 0.000000 
#    z -0.000110 0.000000 1.751370 
# 
# From -- ./inp_files/94362.got.cif
#   From: 2010.06.25/outbox.cif.g09.slc.cpg/sg10_48_cif.got.tgz:94362.got - 2010.06.27 22:07:45.
