data_PCOD8065566
_publ_section_title
;
Structure prediction by ZEFSAII (Michael W. Deem and Ramdas Pophale) SiO2 
 PCOD8065566
Probable space group: P 2/M
;
_chemical_formula_sum "Si O2"
_cell_formula_units_Z 32
_cell_length_a 20.335102
_cell_length_b 9.034162
_cell_length_c 20.011694
_cell_angle_alpha 90.000000
_cell_angle_beta 29.350056
_cell_angle_gamma 90.000000
_cell_volume 1801.946524
_symmetry_space_group_name_H-M "P 2/M"
_symmetry_group_IT_number 10
_symmetry_cell_setting 'monoclinic'
loop_
_space_group_symop_operation_xyz
x,y,z
-x,y,-z
-x,-y,-z
x,-y,z
loop_
_atom_site_type_symbol
_atom_site_label
_atom_site_fract_x
_atom_site_fract_y
_atom_site_fract_z
Si Si1 0.100805 0.326631 0.105313
Si Si2 0.378375 0.175555 0.394976
Si Si3 0.800641 0.326426 0.335511
Si Si4 0.652327 0.171717 0.351194
Si Si5 0.236553 0.675819 0.405700
Si Si6 0.147891 0.673811 0.346721
Si Si7 0.671528 0.171535 0.179925
Si Si8 0.061077 0.676180 0.287420
O O1 0.126230 0.500000 0.084671
O O2 0.108339 0.260464 0.174170
O O3 0.957563 0.288897 0.200125
O O4 0.214765 0.256252 0.959995
O O5 0.273369 0.242771 0.539577
O O6 0.350583 0.238083 0.345541
O O7 0.526405 0.227634 0.284735
O O8 0.364427 0.000000 0.408710
O O9 0.773456 0.500000 0.367970
O O10 0.750190 0.271277 0.308609
O O11 0.500000 0.219442 0.500000
O O12 0.689221 0.204421 0.242337
O O13 0.672264 0.000000 0.352650
O O14 0.258517 0.500000 0.392964
O O15 0.247851 0.729347 0.317238
O O16 0.092168 0.723624 0.562989
O O17 0.164976 0.500000 0.328691
O O18 0.161356 0.735732 0.258354
O O19 0.000000 0.717280 0.500000
O O20 0.687680 0.000000 0.149812
O O21 0.064695 0.500000 0.283034
#
# Coordination Sequence:
#
# PCOD8065566 Si02
#       8
#     4   4   4   4   4   4   4   4
#     4  10  21  36  54  79 112 140 171 218 264 311
#     4  11  21  35  54  77 106 142 179 218 262 311
#     4  11  22  36  57  85 109 134 172 219 266 313
#     4  10  20  39  60  78 105 139 176 217 260 310
#     4   9  15  27  49  79 107 131 172 223 263 305
#     4   7  11  20  42  73 103 135 168 208 260 308
#     4  10  23  40  56  75 103 140 181 216 255 316
#     4   8  13  26  47  74 107 139 169 208 262 312
#
# _framework density 17.758573999999999
#
# number of rings (size 3 to 8) (size 9 to 14) (size 15 to 20)
#    0.000    2.500    2.500    2.250    0.000    3.250 
#    0.000    2.500    0.000    4.875    0.000    5.250 
#    0.000    0.000    0.000    0.000    0.000    0.000 
#
# Total GULP energy -396546.763572 kJ/mol
# GULP energy per Si atom -12392.086362 kJ/mol
# Density = 1.771815 g / cm^3
# Si number density = 17.758574 Si / 1000 Ang^3
#
#
#
# Elastic Constant Matrix: (Units=GPa)
#
#
# Indices 1 2 3 4 5 6 
#
# 1 136.2511 41.4110 34.6447 0.0000 3.8115 0.0000
# 2 41.4110 45.5038 32.3750 0.0000 -3.7708 0.0000
# 3 34.6447 32.3750 75.6612 0.0000 5.6281 0.0000
# 4 0.0000 0.0000 0.0000 24.9539 0.0000 -2.8278
# 5 3.8115 -3.7708 5.6281 0.0000 19.7681 0.0000
# 6 0.0000 0.0000 0.0000 -2.8278 0.0000 13.5619
#
#
#
# Elastic Compliance Matrix: (Units=1/GPa)
#
#
# Indices 1 2 3 4 5 6 
#
# 1 0.010441 -0.009492 -0.000444 0.000000 -0.003697 0.000000
# 2 -0.009492 0.042325 -0.014815 0.000000 0.014122 0.000000
# 3 -0.000444 -0.014815 0.020395 0.000000 -0.008547 0.000000
# 4 0.000000 0.000000 0.000000 0.041044 0.000000 0.008558
# 5 -0.003697 0.014122 -0.008547 0.000000 0.056427 0.000000
# 6 0.000000 0.000000 0.000000 0.008558 0.000000 0.075521
#
#
# Mechanical properties :
#
#
# Convention : Reuss Voigt Hill
#
# Bulk Modulus (GPa) = 42.26713 52.69749 47.48231
# Shear Modulus (GPa) = 16.47231 21.58913 19.03072
#
# Velocity S-wave (km/s) = 3.04891 3.49047 3.27714
# Velocity P-wave (km/s) = 6.02056 6.78110 6.41212
#
# Compressibility (1/GPa) = 0.02365905
#
# Stress axis : x y z
#
# Youngs Moduli (GPa) = 95.77940 23.62668 49.03140
#
# Poissons Ratio (x) = 0.22426 0.02178
# Poissons Ratio (y) = 0.90914 0.72639
# Poissons Ratio (z) = 0.04254 0.35002
#
# Static dielectric constant tensor:
#      x y z
#    x 4.137010 0.000000 0.126330 
#    y 0.000000 3.043630 0.000000 
#    z 0.126330 0.000000 3.075740 
# 
# 
# High freq. dielectric constant tensor:
#      x y z
#    x 1.715520 0.000000 0.010360 
#    y 0.000000 1.657970 0.000000 
#    z 0.010360 0.000000 1.654290 
# 
# From -- ./inp_files/86109.got.cif
#   From: 2010.06.25/outbox.cif.g09.slc.cpg/sg10_44_cif.got.tgz:86109.got - 2010.06.27 22:07:45.
