data_PCOD8065770
_publ_section_title
;
Structure prediction by ZEFSAII (Michael W. Deem and Ramdas Pophale) SiO2 
 PCOD8065770
Probable space group: P 2/M
;
_chemical_formula_sum "Si O2"
_cell_formula_units_Z 30
_cell_length_a 11.207612
_cell_length_b 14.132200
_cell_length_c 13.121361
_cell_angle_alpha 90.000000
_cell_angle_beta 128.151137
_cell_angle_gamma 90.000000
_cell_volume 1634.317438
_symmetry_space_group_name_H-M "P 2/M"
_symmetry_group_IT_number 10
_symmetry_cell_setting 'monoclinic'
loop_
_space_group_symop_operation_xyz
x,y,z
-x,y,-z
-x,-y,-z
x,-y,z
loop_
_atom_site_type_symbol
_atom_site_label
_atom_site_fract_x
_atom_site_fract_y
_atom_site_fract_z
Si Si1 0.661417 0.890793 0.137008
Si Si2 0.754556 0.394089 0.408863
Si Si3 0.954003 0.395118 0.314650
Si Si4 0.682442 0.104447 0.764864
Si Si5 0.000000 0.163350 0.000000
Si Si6 0.396956 0.798667 0.681551
Si Si7 0.928195 0.784762 0.180591
Si Si8 0.216827 0.889661 0.403205
O O1 0.669429 0.831596 0.245508
O O2 0.779974 0.848503 0.118880
O O3 0.699818 0.000000 0.180145
O O4 0.500000 0.879939 0.000000
O O5 0.681920 0.500000 0.375073
O O6 0.869383 0.379775 0.563703
O O7 0.624455 0.314183 0.344389
O O8 0.849818 0.380981 0.357324
O O9 0.931361 0.500000 0.257453
O O10 0.900675 0.321981 0.201578
O O11 0.576520 0.179456 0.767898
O O12 0.685770 0.130287 0.647165
O O13 0.611685 0.000000 0.743207
O O14 0.852082 0.100227 0.900036
O O15 0.967953 0.226074 0.082610
O O16 0.311921 0.857038 0.549829
O O17 0.060672 0.832121 0.317152
O O18 0.176569 0.000000 0.391057
#
# Coordination Sequence:
#
# PCOD8065770 Si02
#       8
#     4   4   4   4   2   4   4   4
#     4  11  24  37  52  79 115 153 187 223 271 330
#     4   9  18  33  57  88 114 143 179 219 280 349
#     4   9  17  34  58  83 113 145 182 225 277 340
#     4  10  21  37  56  79 111 155 197 225 263 325
#     4  10  23  38  59  76 104 156 203 230 259 320
#     4  12  20  34  58  84 117 142 177 232 289 329
#     4  11  20  37  56  81 111 145 189 233 277 327
#     4  10  21  34  53  83 115 149 185 226 273 330
#
# _framework density 18.356287999999999
#
# number of rings (size 3 to 8) (size 9 to 14) (size 15 to 20)
#    0.000    1.733    2.667    3.800    0.000    4.267 
#    0.000    1.667    0.000    8.800    0.000    0.000 
#    0.000    0.000    0.000    0.000    0.000    0.000 
#
# Total GULP energy -371999.140448 kJ/mol
# GULP energy per Si atom -12399.971348 kJ/mol
# Density = 1.831451 g / cm^3
# Si number density = 18.356288 Si / 1000 Ang^3
#
#
#
# Elastic Constant Matrix: (Units=GPa)
#
#
# Indices 1 2 3 4 5 6 
#
# 1 82.1238 40.3036 24.3758 0.0000 8.8371 0.0000
# 2 40.3036 126.1137 26.9384 0.0000 4.3766 0.0000
# 3 24.3758 26.9384 74.4979 0.0000 -5.8552 0.0000
# 4 0.0000 0.0000 0.0000 15.5166 0.0000 -1.5864
# 5 8.8371 4.3766 -5.8552 0.0000 28.8044 0.0000
# 6 0.0000 0.0000 0.0000 -1.5864 0.0000 25.0222
#
#
#
# Elastic Compliance Matrix: (Units=1/GPa)
#
#
# Indices 1 2 3 4 5 6 
#
# 1 0.015940 -0.004027 -0.004162 0.000000 -0.005124 0.000000
# 2 -0.004027 0.009722 -0.002253 0.000000 -0.000700 0.000000
# 3 -0.004162 -0.002253 0.015982 0.000000 0.004868 0.000000
# 4 0.000000 0.000000 0.000000 0.064868 0.000000 0.004113
# 5 -0.005124 -0.000700 0.004868 0.000000 0.037385 0.000000
# 6 0.000000 0.000000 0.000000 0.004113 0.000000 0.040225
#
#
# Mechanical properties :
#
#
# Convention : Reuss Voigt Hill
#
# Bulk Modulus (GPa) = 48.16953 51.77454 49.97203
# Shear Modulus (GPa) = 23.59315 26.60981 25.10148
#
# Velocity S-wave (km/s) = 3.58898 3.81153 3.70193
# Velocity P-wave (km/s) = 6.59339 6.90195 6.74943
#
# Compressibility (1/GPa) = 0.02076001
#
# Stress axis : x y z
#
# Youngs Moduli (GPa) = 62.73534 102.86119 62.56953
#
# Poissons Ratio (x) = 0.41425 0.26042
# Poissons Ratio (y) = 0.25265 0.14095
# Poissons Ratio (z) = 0.26111 0.23171
#
# Static dielectric constant tensor:
#      x y z
#    x 3.408500 0.000000 -0.016910 
#    y 0.000000 3.413270 0.000000 
#    z -0.016910 0.000000 3.349500 
# 
# 
# High freq. dielectric constant tensor:
#      x y z
#    x 1.704850 0.000000 -0.002560 
#    y 0.000000 1.705490 0.000000 
#    z -0.002560 0.000000 1.708610 
# 
# From -- ./inp_files/47643.got.cif
#   From: 2010.06.25/outbox.cif.g09.slc.cpg/sg10_24_cif.got.tgz:47643.got - 2010.06.27 22:07:45.
