data_PCOD8065000
_publ_section_title
;
Structure prediction by ZEFSAII (Michael W. Deem and Ramdas Pophale) SiO2 
 PCOD8065000
Probable space group: P 2/M
;
_chemical_formula_sum "Si O2"
_cell_formula_units_Z 24
_cell_length_a 17.057600
_cell_length_b 9.196544
_cell_length_c 13.814938
_cell_angle_alpha 90.000000
_cell_angle_beta 143.874372
_cell_angle_gamma 90.000000
_cell_volume 1277.667477
_symmetry_space_group_name_H-M "P 2/M"
_symmetry_group_IT_number 10
_symmetry_cell_setting 'monoclinic'
loop_
_space_group_symop_operation_xyz
x,y,z
-x,y,-z
-x,-y,-z
x,-y,z
loop_
_atom_site_type_symbol
_atom_site_label
_atom_site_fract_x
_atom_site_fract_y
_atom_site_fract_z
Si Si1 0.780171 0.670134 0.538978
Si Si2 0.524652 0.335916 0.783181
Si Si3 0.625183 0.829023 0.061638
Si Si4 0.633475 0.664566 0.682722
Si Si5 0.136502 0.829259 0.188997
Si Si6 0.144169 0.667731 0.601059
O O1 0.791730 0.500000 0.573315
O O2 0.625700 0.719589 0.385037
O O3 0.858411 0.755446 0.700470
O O4 0.848520 0.710267 0.504898
O O5 0.517893 0.500000 0.818179
O O6 0.614409 0.330592 0.777884
O O7 0.602857 0.231780 0.932905
O O8 0.756744 0.764869 0.239077
O O9 0.641919 0.000000 0.072267
O O10 0.500000 0.780482 0.000000
O O11 0.500000 0.722006 0.500000
O O12 0.664942 0.500000 0.678451
O O13 0.750056 0.770971 0.768576
O O14 0.154300 0.000000 0.221352
O O15 0.000000 0.789396 0.000000
O O16 0.184579 0.500000 0.654734
O O17 0.000000 0.700289 0.500000
#
# Coordination Sequence:
#
# PCOD8065000 Si02
#       6
#     4   4   4   4   4   4
#     4  10  20  38  63  87 115 155 199 247 298 345
#     4  10  20  36  62  90 117 153 198 249 297 343
#     4  11  23  37  57  88 122 157 198 239 290 354
#     4  10  20  38  62  89 115 145 198 250 291 345
#     4  11  25  41  58  86 124 161 196 236 292 360
#     4  10  22  40  63  90 119 154 201 249 296 349
#
# _framework density 18.784229
#
# number of rings (size 3 to 8) (size 9 to 14) (size 15 to 20)
#    0.000    1.667    3.333    1.000    0.000    6.000 
#    0.000    5.000    0.000    0.000    0.000    0.000 
#    0.000    0.000    0.000    0.000    0.000    0.000 
#
# Total GULP energy -297695.898838 kJ/mol
# GULP energy per Si atom -12403.995785 kJ/mol
# Density = 1.874148 g / cm^3
# Si number density = 18.784229 Si / 1000 Ang^3
#
#
#
# Elastic Constant Matrix: (Units=GPa)
#
#
# Indices 1 2 3 4 5 6 
#
# 1 116.7451 43.3907 68.5127 0.0000 -1.8022 0.0000
# 2 43.3907 70.4198 72.5298 0.0000 -2.7842 0.0000
# 3 68.5127 72.5298 137.5774 0.0000 -8.2833 0.0000
# 4 0.0000 0.0000 0.0000 -7.2665 0.0000 78.4466
# 5 -1.8022 -2.7842 -8.2833 0.0000 29.3310 0.0000
# 6 0.0000 0.0000 0.0000 78.4466 0.0000 -128.1989
#
#
#
# Elastic Compliance Matrix: (Units=1/GPa)
#
#
# Indices 1 2 3 4 5 6 
#
# 1 0.012369 -0.002753 -0.004759 0.000000 -0.000845 0.000000
# 2 -0.002753 0.031770 -0.015469 0.000000 -0.001522 0.000000
# 3 -0.004759 -0.015469 0.017994 0.000000 0.003321 0.000000
# 4 0.000000 0.000000 0.000000 0.024548 0.000000 0.015021
# 5 -0.000845 -0.001522 0.003321 0.000000 0.034835 0.000000
# 6 0.000000 0.000000 0.000000 0.015021 0.000000 0.001391
#
#
# Mechanical properties :
#
#
# Convention : Reuss Voigt Hill
#
# Bulk Modulus (GPa) = 61.84552 77.06761 69.45656
# Shear Modulus (GPa) = 28.69286 -11.87293 8.40997
#
# Velocity S-wave (km/s) = 3.91256 -2.51683 2.11822
# Velocity P-wave (km/s) = 7.30797 5.71586 6.56039
#
# Compressibility (1/GPa) = 0.01616932
#
# Stress axis : x y z
#
# Youngs Moduli (GPa) = 80.84902 31.47671 55.57453
#
# Poissons Ratio (x) = 0.08666 0.26448
# Poissons Ratio (y) = 0.22258 0.85970
# Poissons Ratio (z) = 0.38477 0.48692
#
# Static dielectric constant tensor:
#      x y z
#    x 3.635480 0.000000 0.052920 
#    y 0.000000 3.389390 0.000000 
#    z 0.052920 0.000000 3.468900 
# 
# 
# High freq. dielectric constant tensor:
#      x y z
#    x 1.741210 0.000000 -0.006640 
#    y 0.000000 1.724470 0.000000 
#    z -0.006640 0.000000 1.730340 
# 
# From -- ./inp_files/60266.got.cif
#   From: 2010.06.25/outbox.cif.g09.slc.cpg/sg10_31_cif.got.tgz:60266.got - 2010.06.27 22:07:45.
