data_PCOD8065227
_publ_section_title
;
Structure prediction by ZEFSAII (Michael W. Deem and Ramdas Pophale) SiO2 
 PCOD8065227
Probable space group: P 2/M
;
_chemical_formula_sum "Si O2"
_cell_formula_units_Z 24
_cell_length_a 13.375016
_cell_length_b 10.100070
_cell_length_c 8.809447
_cell_angle_alpha 90.000000
_cell_angle_beta 87.554644
_cell_angle_gamma 90.000000
_cell_volume 1188.972140
_symmetry_space_group_name_H-M "P 2/M"
_symmetry_group_IT_number 10
_symmetry_cell_setting 'monoclinic'
loop_
_space_group_symop_operation_xyz
x,y,z
-x,y,-z
-x,-y,-z
x,-y,z
loop_
_atom_site_type_symbol
_atom_site_label
_atom_site_fract_x
_atom_site_fract_y
_atom_site_fract_z
Si Si1 0.581435 0.648275 0.122319
Si Si2 0.187105 0.851283 0.583912
Si Si3 0.117703 0.343884 0.333342
Si Si4 0.941020 0.755938 0.146648
Si Si5 0.775392 0.648628 0.963752
Si Si6 0.584374 0.147356 0.368176
O O1 0.602343 0.500000 0.186625
O O2 0.542791 0.744668 0.254817
O O3 0.500000 0.639066 0.000000
O O4 0.680889 0.719701 0.047402
O O5 0.130959 0.745566 0.480823
O O6 0.132214 0.852271 0.752549
O O7 0.304169 0.811365 0.583702
O O8 0.176331 0.000000 0.517715
O O9 0.126249 0.500000 0.374258
O O10 0.200262 0.294795 0.205238
O O11 0.010689 0.319104 0.262511
O O12 0.871319 0.648831 0.067275
O O13 0.000000 0.827985 0.000000
O O14 0.739902 0.500000 0.939657
O O15 0.500000 0.147635 0.500000
O O16 0.591410 0.000000 0.295765
#
# Coordination Sequence:
#
# PCOD8065227 Si02
#       6
#     4   4   4   4   4   4
#     4  10  21  37  62  92 120 147 190 248 304 351
#     4  11  24  41  59  86 122 157 196 244 296 348
#     4  10  22  37  60  90 120 157 201 239 287 354
#     4  10  20  37  61  86 116 156 199 243 291 344
#     4   9  18  36  58  86 120 153 190 243 294 345
#     4  10  23  43  63  85 118 159 200 240 290 354
#
# _framework density 20.185503000000001
#
# number of rings (size 3 to 8) (size 9 to 14) (size 15 to 20)
#    0.000    2.000    1.667    1.000    2.333    7.000 
#    0.000    3.333    0.000    0.000    0.000    0.000 
#    0.000    0.000    0.000    0.000    0.000    0.000 
#
# Total GULP energy -297341.894595 kJ/mol
# GULP energy per Si atom -12389.245608 kJ/mol
# Density = 2.013956 g / cm^3
# Si number density = 20.185503 Si / 1000 Ang^3
#
#
#
# Elastic Constant Matrix: (Units=GPa)
#
#
# Indices 1 2 3 4 5 6 
#
# 1 109.1846 29.2035 46.0421 0.0000 -13.1642 0.0000
# 2 29.2035 94.2485 55.5310 0.0000 0.7944 0.0000
# 3 46.0421 55.5310 104.0060 0.0000 -7.4370 0.0000
# 4 0.0000 0.0000 0.0000 12.0736 0.0000 -5.9846
# 5 -13.1642 0.7944 -7.4370 0.0000 31.7468 0.0000
# 6 0.0000 0.0000 0.0000 -5.9846 0.0000 16.5205
#
#
#
# Elastic Compliance Matrix: (Units=1/GPa)
#
#
# Indices 1 2 3 4 5 6 
#
# 1 0.011752 -0.001127 -0.004322 0.000000 0.003889 0.000000
# 2 -0.001127 0.015765 -0.008115 0.000000 -0.002763 0.000000
# 3 -0.004322 -0.008115 0.016016 0.000000 0.002163 0.000000
# 4 0.000000 0.000000 0.000000 0.100952 0.000000 0.036570
# 5 0.003889 -0.002763 0.002163 0.000000 0.033687 0.000000
# 6 0.000000 0.000000 0.000000 0.036570 0.000000 0.073778
#
#
# Mechanical properties :
#
#
# Convention : Reuss Voigt Hill
#
# Bulk Modulus (GPa) = 60.96906 63.22137 62.09521
# Shear Modulus (GPa) = 17.57174 23.84569 20.70872
#
# Velocity S-wave (km/s) = 2.95365 3.44077 3.20647
# Velocity P-wave (km/s) = 6.47317 6.86829 6.67366
#
# Compressibility (1/GPa) = 0.01640176
#
# Stress axis : x y z
#
# Youngs Moduli (GPa) = 85.09251 63.43360 62.43766
#
# Poissons Ratio (x) = 0.07152 0.26988
# Poissons Ratio (y) = 0.09594 0.50671
# Poissons Ratio (z) = 0.36780 0.51479
#
# Static dielectric constant tensor:
#      x y z
#    x 3.869390 0.000000 -0.330730 
#    y 0.000000 3.519220 0.000000 
#    z -0.330730 0.000000 3.682650 
# 
# 
# High freq. dielectric constant tensor:
#      x y z
#    x 1.804030 0.000000 -0.016990 
#    y 0.000000 1.763430 0.000000 
#    z -0.016990 0.000000 1.785350 
# 
# From -- ./inp_files/24005.got.cif
#   From: 2010.06.25/outbox.cif.g09.slc.cpg/sg10_13_cif.got.tgz:24005.got - 2010.06.27 22:07:45.
