data_PCOD8065573
_publ_section_title
;
Structure prediction by ZEFSAII (Michael W. Deem and Ramdas Pophale) SiO2 
 PCOD8065573
Probable space group: P 2/M
;
_chemical_formula_sum "Si O2"
_cell_formula_units_Z 16
_cell_length_a 9.982164
_cell_length_b 10.454388
_cell_length_c 8.764009
_cell_angle_alpha 90.000000
_cell_angle_beta 56.932850
_cell_angle_gamma 90.000000
_cell_volume 766.454833
_symmetry_space_group_name_H-M "P 2/M"
_symmetry_group_IT_number 10
_symmetry_cell_setting 'monoclinic'
loop_
_space_group_symop_operation_xyz
x,y,z
-x,y,-z
-x,-y,-z
x,-y,z
loop_
_atom_site_type_symbol
_atom_site_label
_atom_site_fract_x
_atom_site_fract_y
_atom_site_fract_z
Si Si1 0.617224 0.000000 0.070105
Si Si2 0.475346 0.500000 0.195301
Si Si3 0.878751 0.225630 0.435108
Si Si4 0.018474 0.000000 0.165935
Si Si5 0.515307 0.765537 0.671848
Si Si6 0.868509 0.500000 0.456627
O O1 0.594828 0.874727 0.187530
O O2 0.500000 0.000000 0.000000
O O3 0.797984 0.000000 0.894384
O O4 0.548829 0.629092 0.224075
O O5 0.290085 0.500000 0.345531
O O6 0.500000 0.500000 0.000000
O O7 0.698115 0.203294 0.606798
O O8 0.883673 0.367721 0.352136
O O9 0.000000 0.213396 0.500000
O O10 0.925711 0.124389 0.280165
O O11 0.000000 0.000000 0.000000
O O12 0.500000 0.765567 0.500000
O O13 0.000000 0.500000 0.500000
#
# Coordination Sequence:
#
# PCOD8065573 Si02
#       6
#     2   2   4   2   4   2
#     4  12  24  38  58  88 118 152 196 244 286 334
#     4  10  21  37  60  89 117 146 189 242 288 337
#     4  10  20  39  61  81 110 154 194 228 278 351
#     4  12  24  38  56  86 118 148 190 244 286 324
#     4  11  22  39  60  86 118 155 191 234 291 350
#     4   8  18  35  59  83 107 144 190 226 272 339
#
# _framework density 20.875333999999999
#
# number of rings (size 3 to 8) (size 9 to 14) (size 15 to 20)
#    0.000    1.500    0.000    5.625    0.000    4.000 
#    0.000    0.625    0.000    0.000    0.000    0.000 
#    0.000    0.000    0.000    0.000    0.000    0.000 
#
# Total GULP energy -198333.179434 kJ/mol
# GULP energy per Si atom -12395.823715 kJ/mol
# Density = 2.082782 g / cm^3
# Si number density = 20.875334 Si / 1000 Ang^3
#
#
#
# Elastic Constant Matrix: (Units=GPa)
#
#
# Indices 1 2 3 4 5 6 
#
# 1 60.8779 11.7603 8.1608 0.0000 1.7922 0.0000
# 2 11.7603 215.8268 82.4068 0.0000 0.1401 0.0000
# 3 8.1608 82.4068 85.7407 0.0000 17.3788 0.0000
# 4 0.0000 0.0000 0.0000 26.6827 0.0000 4.2511
# 5 1.7922 0.1401 17.3788 0.0000 42.0319 0.0000
# 6 0.0000 0.0000 0.0000 4.2511 0.0000 16.5435
#
#
#
# Elastic Compliance Matrix: (Units=1/GPa)
#
#
# Indices 1 2 3 4 5 6 
#
# 1 0.016673 -0.000512 -0.001038 0.000000 -0.000280 0.000000
# 2 -0.000512 0.007738 -0.008063 0.000000 0.003330 0.000000
# 3 -0.001038 -0.008063 0.021280 0.000000 -0.008728 0.000000
# 4 0.000000 0.000000 0.000000 0.039077 0.000000 -0.010041
# 5 -0.000280 0.003330 -0.008728 0.000000 0.027401 0.000000
# 6 0.000000 0.000000 0.000000 -0.010041 0.000000 0.063027
#
#
# Mechanical properties :
#
#
# Convention : Reuss Voigt Hill
#
# Bulk Modulus (GPa) = 37.78645 63.01126 50.39885
# Shear Modulus (GPa) = 24.60103 34.39278 29.49691
#
# Velocity S-wave (km/s) = 3.43661 4.06338 3.76307
# Velocity P-wave (km/s) = 5.82129 7.22944 6.56324
#
# Compressibility (1/GPa) = 0.02646452
#
# Stress axis : x y z
#
# Youngs Moduli (GPa) = 59.97857 129.23755 46.99167
#
# Poissons Ratio (x) = 0.06616 0.04878
# Poissons Ratio (y) = 0.03070 0.37889
# Poissons Ratio (z) = 0.06227 1.04204
#
# Static dielectric constant tensor:
#      x y z
#    x 3.337610 0.000000 0.098340 
#    y 0.000000 5.371320 0.000000 
#    z 0.098340 0.000000 3.339950 
# 
# 
# High freq. dielectric constant tensor:
#      x y z
#    x 1.821540 0.000000 -0.010100 
#    y 0.000000 1.848480 0.000000 
#    z -0.010100 0.000000 1.794480 
# 
# From -- ./inp_files/17126.got.cif
#   From: 2010.06.25/outbox.cif.g09.slc.cpg/sg10_9_cif.got.tgz:17126.got - 2010.06.27 22:07:45.
