data_PCOD8065859
_publ_section_title
;
Structure prediction by ZEFSAII (Michael W. Deem and Ramdas Pophale) SiO2 
 PCOD8065859
Probable space group: P 2/M
;
_chemical_formula_sum "Si O2"
_cell_formula_units_Z 32
_cell_length_a 17.323381
_cell_length_b 9.848693
_cell_length_c 16.844191
_cell_angle_alpha 90.000000
_cell_angle_beta 143.383485
_cell_angle_gamma 90.000000
_cell_volume 1714.115223
_symmetry_space_group_name_H-M "P 2/M"
_symmetry_group_IT_number 10
_symmetry_cell_setting 'monoclinic'
loop_
_space_group_symop_operation_xyz
x,y,z
-x,y,-z
-x,-y,-z
x,-y,z
loop_
_atom_site_type_symbol
_atom_site_label
_atom_site_fract_x
_atom_site_fract_y
_atom_site_fract_z
Si Si1 0.112878 0.347634 0.462864
Si Si2 0.770940 0.842819 0.010972
Si Si3 0.525547 0.153705 0.210144
Si Si4 0.140163 0.161330 0.088157
Si Si5 0.735945 0.843605 0.515241
Si Si6 0.645421 0.838919 0.612858
Si Si7 0.682899 0.657443 0.237452
Si Si8 0.824468 0.653601 0.199130
O O1 0.150625 0.500000 0.467476
O O2 0.145439 0.246556 0.417592
O O3 0.191327 0.306600 0.606305
O O4 0.961509 0.337333 0.357437
O O5 0.618498 0.817490 0.879956
O O6 0.834938 0.793163 0.981720
O O7 0.803432 0.000000 0.054340
O O8 0.828766 0.754639 0.129293
O O9 0.611352 0.182620 0.357995
O O10 0.562334 0.252765 0.167727
O O11 0.543340 0.000000 0.194212
O O12 0.256675 0.219445 0.239329
O O13 0.140830 0.000000 0.095549
O O14 0.000000 0.218448 0.000000
O O15 0.702441 0.794911 0.575525
O O16 0.779906 0.000000 0.550023
O O17 0.500000 0.777818 0.500000
O O18 0.636747 0.000000 0.613344
O O19 0.644094 0.500000 0.212911
O O20 0.714969 0.695017 0.172784
O O21 0.799912 0.500000 0.148543
#
# Coordination Sequence:
#
# PCOD8065859 Si02
#       8
#     4   4   4   4   4   4   4   4
#     4   9  18  33  52  73 100 131 163 206 257 302
#     4  10  21  35  52  73 103 138 169 205 254 306
#     4   9  18  33  50  74 107 136 162 204 259 303
#     4   9  18  31  48  72 102 134 169 210 253 301
#     4   9  17  29  51  78 101 127 166 211 251 298
#     4   9  16  27  47  74 101 130 167 211 255 299
#     4   9  18  34  55  76  97 130 172 211 251 299
#     4  10  21  35  52  74 101 133 172 212 250 300
#
# _framework density 18.668523
#
# number of rings (size 3 to 8) (size 9 to 14) (size 15 to 20)
#    0.000    2.750    0.000    1.125    1.750    6.500 
#    0.000    2.500    0.000    5.250    0.000    0.000 
#    0.000    0.000    0.000    0.000    0.000    0.000 
#
# Total GULP energy -396765.118497 kJ/mol
# GULP energy per Si atom -12398.909953 kJ/mol
# Density = 1.862603 g / cm^3
# Si number density = 18.668523 Si / 1000 Ang^3
#
#
#
# Elastic Constant Matrix: (Units=GPa)
#
#
# Indices 1 2 3 4 5 6 
#
# 1 145.7634 53.5770 45.6530 0.0000 -8.3839 0.0000
# 2 53.5770 53.3597 24.7527 0.0000 -5.2294 0.0000
# 3 45.6530 24.7527 74.3102 0.0000 -3.7051 0.0000
# 4 0.0000 0.0000 0.0000 20.8560 0.0000 0.0497
# 5 -8.3839 -5.2294 -3.7051 0.0000 26.1574 0.0000
# 6 0.0000 0.0000 0.0000 0.0497 0.0000 8.2596
#
#
#
# Elastic Compliance Matrix: (Units=1/GPa)
#
#
# Indices 1 2 3 4 5 6 
#
# 1 0.011793 -0.009920 -0.003879 0.000000 0.001247 0.000000
# 2 -0.009920 0.030816 -0.004050 0.000000 0.002408 0.000000
# 3 -0.003879 -0.004050 0.017208 0.000000 0.000384 0.000000
# 4 0.000000 0.000000 0.000000 0.047949 0.000000 -0.000289
# 5 0.001247 0.002408 0.000384 0.000000 0.039166 0.000000
# 6 0.000000 0.000000 0.000000 -0.000289 0.000000 0.121073
#
#
# Mechanical properties :
#
#
# Convention : Reuss Voigt Hill
#
# Bulk Modulus (GPa) = 41.46018 57.93319 49.69668
# Shear Modulus (GPa) = 16.03891 21.01796 18.52844
#
# Velocity S-wave (km/s) = 2.93429 3.35901 3.15381
# Velocity P-wave (km/s) = 5.80835 6.79293 6.31984
#
# Compressibility (1/GPa) = 0.02411953
#
# Stress axis : x y z
#
# Youngs Moduli (GPa) = 84.79583 32.45113 58.11110
#
# Poissons Ratio (x) = 0.32190 0.22540
# Poissons Ratio (y) = 0.84113 0.23538
# Poissons Ratio (z) = 0.32890 0.13144
#
# Static dielectric constant tensor:
#      x y z
#    x 3.535240 0.000000 0.056450 
#    y 0.000000 3.206040 0.000000 
#    z 0.056450 0.000000 3.434620 
# 
# 
# High freq. dielectric constant tensor:
#      x y z
#    x 1.731070 0.000000 0.003640 
#    y 0.000000 1.686450 0.000000 
#    z 0.003640 0.000000 1.727020 
# 
# From -- ./inp_files/67367.got.cif
#   From: 2010.06.25/outbox.cif.g09.slc.cpg/sg10_34_cif.got.tgz:67367.got - 2010.06.27 22:07:45.
