data_PCOD8065710
_publ_section_title
;
Structure prediction by ZEFSAII (Michael W. Deem and Ramdas Pophale) SiO2 
 PCOD8065710
Probable space group: P 2/M
;
_chemical_formula_sum "Si O2"
_cell_formula_units_Z 32
_cell_length_a 23.163174
_cell_length_b 9.239331
_cell_length_c 12.499252
_cell_angle_alpha 90.000000
_cell_angle_beta 134.743153
_cell_angle_gamma 90.000000
_cell_volume 1899.965814
_symmetry_space_group_name_H-M "P 2/M"
_symmetry_group_IT_number 10
_symmetry_cell_setting 'monoclinic'
loop_
_space_group_symop_operation_xyz
x,y,z
-x,y,-z
-x,-y,-z
x,-y,z
loop_
_atom_site_type_symbol
_atom_site_label
_atom_site_fract_x
_atom_site_fract_y
_atom_site_fract_z
Si Si1 0.012559 0.168676 0.717042
Si Si2 0.487485 0.337266 0.357863
Si Si3 0.329900 0.829810 0.181478
Si Si4 0.644582 0.831325 0.540866
Si Si5 0.163522 0.168017 0.588551
Si Si6 0.793040 0.171228 0.585593
Si Si7 0.818150 0.827779 0.155954
Si Si8 0.948951 0.662216 0.827344
O O1 0.092963 0.226470 0.763139
O O2 0.933339 0.196893 0.540724
O O3 0.005217 0.257984 0.815528
O O4 0.019994 0.000000 0.756387
O O5 0.500000 0.338491 0.500000
O O6 0.481319 0.500000 0.304082
O O7 0.405440 0.250723 0.224368
O O8 0.564056 0.257023 0.404552
O O9 0.322252 0.791362 0.297388
O O10 0.342993 0.000000 0.182178
O O11 0.249600 0.772376 0.015903
O O12 0.710408 0.787378 0.537851
O O13 0.622778 0.000000 0.507428
O O14 0.207942 0.228680 0.539386
O O15 0.198177 0.234875 0.744972
O O16 0.182120 0.000000 0.615329
O O17 0.866216 0.250250 0.741713
O O18 0.809758 0.000000 0.612188
O O19 0.817758 0.000000 0.158279
O O20 0.927715 0.500000 0.760401
O O21 0.000000 0.656849 0.000000
#
# Coordination Sequence:
#
# PCOD8065710 Si02
#       8
#     4   4   4   4   4   4   4   4
#     4   9  17  29  48  69  88 119 161 199 230 266
#     4   9  17  30  47  67  92 122 150 179 223 278
#     4   9  17  28  44  69  96 120 145 184 233 274
#     4   9  17  29  47  71  95 116 147 187 227 274
#     4   8  14  27  45  69  95 119 153 194 232 266
#     4   9  18  31  50  71  90 119 156 193 226 267
#     4   9  16  26  46  72  95 119 152 194 236 274
#     4  10  21  33  43  61  94 130 156 187 232 275
#
# _framework density 16.842407000000001
#
# number of rings (size 3 to 8) (size 9 to 14) (size 15 to 20)
#    0.000    3.000    0.000    1.875    1.750    4.500 
#    0.000    0.625    0.000    9.750    0.000    5.250 
#    0.000    0.000    0.000    0.000    0.000    0.000 
#
# Total GULP energy -396623.333517 kJ/mol
# GULP energy per Si atom -12394.479172 kJ/mol
# Density = 1.680407 g / cm^3
# Si number density = 16.842407 Si / 1000 Ang^3
#
#
#
# Elastic Constant Matrix: (Units=GPa)
#
#
# Indices 1 2 3 4 5 6 
#
# 1 141.6553 42.0363 58.0412 0.0000 11.5423 0.0000
# 2 42.0363 47.0955 28.2490 0.0000 2.4614 0.0000
# 3 58.0412 28.2490 69.9270 0.0000 3.2006 0.0000
# 4 0.0000 0.0000 0.0000 11.0784 0.0000 0.9609
# 5 11.5423 2.4614 3.2006 0.0000 18.8294 0.0000
# 6 0.0000 0.0000 0.0000 0.9609 0.0000 6.4107
#
#
#
# Elastic Compliance Matrix: (Units=1/GPa)
#
#
# Indices 1 2 3 4 5 6 
#
# 1 0.012481 -0.006320 -0.007553 0.000000 -0.005541 0.000000
# 2 -0.006320 0.031282 -0.007439 0.000000 0.001050 0.000000
# 3 -0.007553 -0.007439 0.023501 0.000000 0.001608 0.000000
# 4 0.000000 0.000000 0.000000 0.091455 0.000000 -0.013708
# 5 -0.005541 0.001050 0.001608 0.000000 0.056094 0.000000
# 6 0.000000 0.000000 0.000000 -0.013708 0.000000 0.158045
#
#
# Mechanical properties :
#
#
# Convention : Reuss Voigt Hill
#
# Bulk Modulus (GPa) = 40.58466 57.25897 48.92182
# Shear Modulus (GPa) = 11.80090 15.95378 13.87734
#
# Velocity S-wave (km/s) = 2.64988 3.08106 2.87357
# Velocity P-wave (km/s) = 5.78891 6.83579 6.33402
#
# Compressibility (1/GPa) = 0.02463985
#
# Stress axis : x y z
#
# Youngs Moduli (GPa) = 80.12140 31.96692 42.55090
#
# Poissons Ratio (x) = 0.20205 0.32137
# Poissons Ratio (y) = 0.50640 0.31655
# Poissons Ratio (z) = 0.60513 0.23781
#
# Static dielectric constant tensor:
#      x y z
#    x 3.388200 0.000000 -0.035010 
#    y 0.000000 3.053460 0.000000 
#    z -0.035010 0.000000 3.190970 
# 
# 
# High freq. dielectric constant tensor:
#      x y z
#    x 1.647670 0.000000 0.002420 
#    y 0.000000 1.623980 0.000000 
#    z 0.002420 0.000000 1.632560 
# 
# From -- ./inp_files/56443.got.cif
#   From: 2010.06.25/outbox.cif.g09.slc.cpg/sg10_29_cif.got.tgz:56443.got - 2010.06.27 22:07:45.
