data_PCOD8065317
_publ_section_title
;
Structure prediction by ZEFSAII (Michael W. Deem and Ramdas Pophale) SiO2 
 PCOD8065317
Probable space group: P 2/M
;
_chemical_formula_sum "Si O2"
_cell_formula_units_Z 28
_cell_length_a 25.096241
_cell_length_b 9.338026
_cell_length_c 9.666672
_cell_angle_alpha 90.000000
_cell_angle_beta 40.767333
_cell_angle_gamma 90.000000
_cell_volume 1479.266889
_symmetry_space_group_name_H-M "P 2/M"
_symmetry_group_IT_number 10
_symmetry_cell_setting 'monoclinic'
loop_
_space_group_symop_operation_xyz
x,y,z
-x,y,-z
-x,-y,-z
x,-y,z
loop_
_atom_site_type_symbol
_atom_site_label
_atom_site_fract_x
_atom_site_fract_y
_atom_site_fract_z
Si Si1 0.350069 0.836524 0.102370
Si Si2 0.071880 0.669569 0.755479
Si Si3 0.244577 0.161203 0.043900
Si Si4 0.248630 0.334936 0.509335
Si Si5 0.674932 0.334124 0.352601
Si Si6 0.514455 0.168851 0.630370
Si Si7 0.935751 0.834691 0.512801
O O1 0.282365 0.815864 0.119280
O O2 0.322173 0.744569 0.287453
O O3 0.356224 0.000000 0.139041
O O4 0.436986 0.784016 0.873692
O O5 0.071786 0.500000 0.735437
O O6 0.158774 0.723540 0.645889
O O7 0.054794 0.740643 0.642120
O O8 0.000000 0.717879 0.000000
O O9 0.149621 0.189867 0.244243
O O10 0.263809 0.000000 0.952506
O O11 0.281486 0.276220 0.868799
O O12 0.255378 0.500000 0.454998
O O13 0.262580 0.310123 0.644341
O O14 0.654143 0.500000 0.372097
O O15 0.591035 0.250605 0.544360
O O16 0.500000 0.215061 0.500000
O O17 0.530464 0.000000 0.606988
O O18 0.000000 0.782179 0.500000
O O19 0.948726 0.000000 0.445397
#
# Coordination Sequence:
#
# PCOD8065317 Si02
#       7
#     4   4   4   4   4   4   4
#     4  10  20  37  63  86 109 151 197 236 284 344
#     4  10  22  40  61  84 116 158 196 233 282 341
#     4  10  20  38  60  84 117 153 191 237 287 339
#     4  10  23  41  57  82 120 155 191 237 285 338
#     4  11  24  38  57  87 119 152 193 237 286 342
#     4  10  20  38  60  84 116 149 190 241 288 338
#     4  10  22  39  60  90 121 148 188 241 291 339
#
# _framework density 18.928294000000001
#
# number of rings (size 3 to 8) (size 9 to 14) (size 15 to 20)
#    0.000    1.857    2.857    0.429    2.000    4.286 
#    0.000    2.857    0.000    0.000    0.000    0.000 
#    0.000    0.000    0.000    0.000    0.000    0.000 
#
# Total GULP energy -347293.503616 kJ/mol
# GULP energy per Si atom -12403.339415 kJ/mol
# Density = 1.888521 g / cm^3
# Si number density = 18.928294 Si / 1000 Ang^3
#
#
#
# Elastic Constant Matrix: (Units=GPa)
#
#
# Indices 1 2 3 4 5 6 
#
# 1 74.1103 21.6217 7.6425 0.0000 -26.6705 0.0000
# 2 21.6217 45.6947 25.0153 0.0000 -6.0533 0.0000
# 3 7.6425 25.0153 57.2897 0.0000 -11.3204 0.0000
# 4 0.0000 0.0000 0.0000 35.6470 0.0000 4.3638
# 5 -26.6705 -6.0533 -11.3204 0.0000 14.0178 0.0000
# 6 0.0000 0.0000 0.0000 4.3638 0.0000 28.2976
#
#
#
# Elastic Compliance Matrix: (Units=1/GPa)
#
#
# Indices 1 2 3 4 5 6 
#
# 1 0.082980 -0.038090 0.039872 0.000000 0.173630 0.000000
# 2 -0.038090 0.046330 -0.030360 0.000000 -0.076983 0.000000
# 3 0.039872 -0.030360 0.044968 0.000000 0.099065 0.000000
# 4 0.000000 0.000000 0.000000 0.028593 0.000000 -0.004409
# 5 0.173630 -0.076983 0.099065 0.000000 0.448449 0.000000
# 6 0.000000 0.000000 0.000000 -0.004409 0.000000 0.036019
#
#
# Mechanical properties :
#
#
# Convention : Reuss Voigt Hill
#
# Bulk Modulus (GPa) = 8.53828 31.73929 20.13878
# Shear Modulus (GPa) = 6.38132 23.78017 15.08074
#
# Velocity S-wave (km/s) = 1.83810 3.54832 2.82570
# Velocity P-wave (km/s) = 3.00425 5.79586 4.61614
#
# Compressibility (1/GPa) = 0.11711958
#
# Stress axis : x y z
#
# Youngs Moduli (GPa) = 12.05111 21.58408 22.23796
#
# Poissons Ratio (x) = 0.82215 -0.88666
# Poissons Ratio (y) = 0.45903 0.67516
# Poissons Ratio (z) = -0.48050 0.65530
#
# Static dielectric constant tensor:
#      x y z
#    x 3.566210 0.000000 -0.176150 
#    y 0.000000 3.410350 0.000000 
#    z -0.176150 0.000000 3.461110 
# 
# 
# High freq. dielectric constant tensor:
#      x y z
#    x 1.742850 0.000000 -0.008420 
#    y 0.000000 1.727970 0.000000 
#    z -0.008420 0.000000 1.742560 
# 
# From -- ./inp_files/36929.got.cif
#   From: 2010.06.25/outbox.cif.g09.slc.cpg/sg10_19_cif.got.tgz:36929.got - 2010.06.27 22:07:45.
