data_PCOD8065399
_publ_section_title
;
Structure prediction by ZEFSAII (Michael W. Deem and Ramdas Pophale) SiO2 
 PCOD8065399
Probable space group: P 2/M
;
_chemical_formula_sum "Si O2"
_cell_formula_units_Z 32
_cell_length_a 27.669230
_cell_length_b 9.188876
_cell_length_c 21.540055
_cell_angle_alpha 90.000000
_cell_angle_beta 18.646882
_cell_angle_gamma 90.000000
_cell_volume 1751.039959
_symmetry_space_group_name_H-M "P 2/M"
_symmetry_group_IT_number 10
_symmetry_cell_setting 'monoclinic'
loop_
_space_group_symop_operation_xyz
x,y,z
-x,y,-z
-x,-y,-z
x,-y,z
loop_
_atom_site_type_symbol
_atom_site_label
_atom_site_fract_x
_atom_site_fract_y
_atom_site_fract_z
Si Si1 0.298013 0.327128 0.630313
Si Si2 0.295115 0.835156 0.007550
Si Si3 0.801432 0.833793 0.127448
Si Si4 0.148631 0.167402 0.701777
Si Si5 0.464668 0.671846 0.973898
Si Si6 0.390867 0.168484 0.758405
Si Si7 0.841341 0.328247 0.719024
Si Si8 0.392465 0.833082 0.307692
O O1 0.296289 0.500000 0.630618
O O2 0.242517 0.274460 0.764620
O O3 0.183297 0.266673 0.718685
O O4 0.464856 0.270885 0.413210
O O5 0.181511 0.733098 0.183921
O O6 0.247609 0.000000 0.079997
O O7 0.283772 0.800718 0.948157
O O8 0.467467 0.805730 0.817200
O O9 0.701385 0.791258 0.190355
O O10 0.770048 0.000000 0.186781
O O11 0.974154 0.813436 0.897190
O O12 0.243666 0.218043 0.525982
O O13 0.189067 0.000000 0.669044
O O14 0.480304 0.500000 0.950831
O O15 0.590454 0.738964 0.775359
O O16 0.500000 0.728688 0.000000
O O17 0.296102 0.722509 0.158585
O O18 0.443316 0.000000 0.694793
O O19 0.846384 0.500000 0.718286
O O20 0.000000 0.267309 0.500000
O O21 0.379792 0.000000 0.302484
#
# Coordination Sequence:
#
# PCOD8065399 Si02
#       8
#     4   4   4   4   4   4   4   4
#     4  12  24  36  56  82 109 142 181 224 271 322
#     4   9  17  32  55  79 103 133 173 219 260 304
#     4  10  22  38  58  80 107 144 181 220 273 326
#     4  10  20  38  59  80 107 142 183 224 269 324
#     4   9  18  33  52  74 103 138 174 208 249 308
#     4  10  20  38  59  80 107 142 183 224 269 324
#     4   9  18  33  52  74 103 138 174 208 249 308
#     4   9  17  32  55  79 103 133 173 219 260 304
#
# _framework density 18.274854000000001
#
# number of rings (size 3 to 8) (size 9 to 14) (size 15 to 20)
#    0.000    2.250    1.250    1.875    0.000    5.500 
#    2.250    0.000    0.000    0.000    0.000    0.000 
#    0.000    0.000    0.000    0.000    0.000    0.000 
#
# Total GULP energy -396867.678983 kJ/mol
# GULP energy per Si atom -12402.114968 kJ/mol
# Density = 1.823326 g / cm^3
# Si number density = 18.274854 Si / 1000 Ang^3
#
#
#
# Elastic Constant Matrix: (Units=GPa)
#
#
# Indices 1 2 3 4 5 6 
#
# 1 85.6822 28.7613 21.5964 0.0000 19.1982 0.0000
# 2 28.7613 54.2422 23.9503 0.0000 7.6717 0.0000
# 3 21.5964 23.9503 82.4498 0.0000 17.8421 0.0000
# 4 0.0000 0.0000 0.0000 16.2886 0.0000 0.8059
# 5 19.1982 7.6717 17.8421 0.0000 30.2174 0.0000
# 6 0.0000 0.0000 0.0000 0.8059 0.0000 12.2928
#
#
#
# Elastic Compliance Matrix: (Units=1/GPa)
#
#
# Indices 1 2 3 4 5 6 
#
# 1 0.015989 -0.007176 -0.000343 0.000000 -0.008134 0.000000
# 2 -0.007176 0.024475 -0.005585 0.000000 0.001643 0.000000
# 3 -0.000343 -0.005585 0.015463 0.000000 -0.007494 0.000000
# 4 0.000000 0.000000 0.000000 0.061592 0.000000 -0.004038
# 5 -0.008134 0.001643 -0.007494 0.000000 0.042269 0.000000
# 6 0.000000 0.000000 0.000000 -0.004038 0.000000 0.081613
#
#
# Mechanical properties :
#
#
# Convention : Reuss Voigt Hill
#
# Bulk Modulus (GPa) = 33.65131 41.22111 37.43621
# Shear Modulus (GPa) = 18.01702 21.63084 19.82393
#
# Velocity S-wave (km/s) = 3.14330 3.44414 3.29715
# Velocity P-wave (km/s) = 5.62385 6.19849 5.91815
#
# Compressibility (1/GPa) = 0.02971652
#
# Stress axis : x y z
#
# Youngs Moduli (GPa) = 62.54376 40.85874 64.67180
#
# Poissons Ratio (x) = 0.29320 0.02221
# Poissons Ratio (y) = 0.44881 0.36122
# Poissons Ratio (z) = 0.02148 0.22822
#
# Static dielectric constant tensor:
#      x y z
#    x 3.432130 0.000000 0.079430 
#    y 0.000000 3.267790 0.000000 
#    z 0.079430 0.000000 3.437480 
# 
# 
# High freq. dielectric constant tensor:
#      x y z
#    x 1.706290 0.000000 0.010670 
#    y 0.000000 1.695680 0.000000 
#    z 0.010670 0.000000 1.709660 
# 
# From -- ./inp_files/86880.got.cif
#   From: 2010.06.25/outbox.cif.g09.slc.cpg/sg10_44_cif.got.tgz:86880.got - 2010.06.27 22:07:45.
