data_PCOD8065626
_publ_section_title
;
Structure prediction by ZEFSAII (Michael W. Deem and Ramdas Pophale) SiO2 
 PCOD8065626
Probable space group: P 2/M
;
_chemical_formula_sum "Si O2"
_cell_formula_units_Z 32
_cell_length_a 14.753629
_cell_length_b 8.879340
_cell_length_c 11.879861
_cell_angle_alpha 90.000000
_cell_angle_beta 86.460302
_cell_angle_gamma 90.000000
_cell_volume 1553.322351
_symmetry_space_group_name_H-M "P 2/M"
_symmetry_group_IT_number 10
_symmetry_cell_setting 'monoclinic'
loop_
_space_group_symop_operation_xyz
x,y,z
-x,y,-z
-x,-y,-z
x,-y,z
loop_
_atom_site_type_symbol
_atom_site_label
_atom_site_fract_x
_atom_site_fract_y
_atom_site_fract_z
Si Si1 0.419792 0.673539 0.418977
Si Si2 0.214692 0.675926 0.486721
Si Si3 0.327224 0.675412 0.849744
Si Si4 0.007950 0.178802 0.872409
Si Si5 0.179603 0.178181 0.717636
Si Si6 0.838733 0.176958 0.737011
Si Si7 0.513995 0.828982 0.802877
Si Si8 0.311004 0.170498 0.075988
O O1 0.500000 0.707323 0.500000
O O2 0.422607 0.500000 0.378844
O O3 0.322354 0.712937 0.480465
O O4 0.432837 0.782984 0.313143
O O5 0.197325 0.500000 0.498996
O O6 0.165392 0.757432 0.594116
O O7 0.165165 0.733814 0.378770
O O8 0.314017 0.500000 0.830370
O O9 0.275249 0.763295 0.756250
O O10 0.432556 0.716089 0.832907
O O11 0.288084 0.720976 0.974229
O O12 0.099947 0.236871 0.806297
O O13 0.924047 0.234532 0.803145
O O14 0.007301 0.000000 0.879273
O O15 0.000000 0.245334 0.000000
O O16 0.180156 0.000000 0.710477
O O17 0.748542 0.219075 0.813090
O O18 0.844798 0.000000 0.710450
O O19 0.583169 0.817265 0.901760
O O20 0.478055 0.000000 0.794094
O O21 0.285881 0.000000 0.041249
#
# Coordination Sequence:
#
# PCOD8065626 Si02
#       8
#     4   4   4   4   4   4   4   4
#     4  10  21  37  57  81 116 163 209 253 303 360
#     4  11  23  39  60  89 128 166 203 251 308 369
#     4  12  25  39  58  86 123 165 203 248 311 375
#     4   9  19  38  67  97 122 154 202 257 311 362
#     4  11  23  41  65  91 120 157 206 259 305 358
#     4  10  20  39  66  93 123 161 207 257 308 366
#     4  11  22  37  59  88 118 155 205 257 303 356
#     4  10  21  38  61  89 121 158 204 256 304 358
#
# _framework density 20.601002999999999
#
# number of rings (size 3 to 8) (size 9 to 14) (size 15 to 20)
#    0.000    1.500    1.250    4.125    0.000    7.250 
#    0.000    3.750    0.000    2.625    0.000    0.000 
#    0.000    0.000    0.000    0.000    0.000    0.000 
#
# Total GULP energy -396963.894039 kJ/mol
# GULP energy per Si atom -12405.121689 kJ/mol
# Density = 2.055411 g / cm^3
# Si number density = 20.601003 Si / 1000 Ang^3
#
#
#
# Elastic Constant Matrix: (Units=GPa)
#
#
# Indices 1 2 3 4 5 6 
#
# 1 97.9369 31.7530 49.2630 0.0000 4.8499 0.0000
# 2 31.7530 79.3193 53.2054 0.0000 -4.1084 0.0000
# 3 49.2630 53.2054 147.0429 0.0000 -2.9703 0.0000
# 4 0.0000 0.0000 0.0000 21.7349 0.0000 0.6001
# 5 4.8499 -4.1084 -2.9703 0.0000 35.6605 0.0000
# 6 0.0000 0.0000 0.0000 0.6001 0.0000 18.6936
#
#
#
# Elastic Compliance Matrix: (Units=1/GPa)
#
#
# Indices 1 2 3 4 5 6 
#
# 1 0.012988 -0.003133 -0.003266 0.000000 -0.002399 0.000000
# 2 -0.003133 0.017475 -0.005233 0.000000 0.002003 0.000000
# 3 -0.003266 -0.005233 0.009802 0.000000 0.000658 0.000000
# 4 0.000000 0.000000 0.000000 0.046050 0.000000 -0.001478
# 5 -0.002399 0.002003 0.000658 0.000000 0.028654 0.000000
# 6 0.000000 0.000000 0.000000 -0.001478 0.000000 0.053542
#
#
# Mechanical properties :
#
#
# Convention : Reuss Voigt Hill
#
# Bulk Modulus (GPa) = 58.82014 65.86022 62.34018
# Shear Modulus (GPa) = 25.32384 27.88966 26.60675
#
# Velocity S-wave (km/s) = 3.50987 3.68340 3.59768
# Velocity P-wave (km/s) = 6.71116 7.08016 6.89813
#
# Compressibility (1/GPa) = 0.01700098
#
# Stress axis : x y z
#
# Youngs Moduli (GPa) = 76.99342 57.22310 102.02128
#
# Poissons Ratio (x) = 0.17926 0.33323
# Poissons Ratio (y) = 0.24120 0.53390
# Poissons Ratio (z) = 0.25148 0.29946
#
# Static dielectric constant tensor:
#      x y z
#    x 3.800930 0.000000 -0.015120 
#    y 0.000000 3.538450 0.000000 
#    z -0.015120 0.000000 3.812370 
# 
# 
# High freq. dielectric constant tensor:
#      x y z
#    x 1.809030 0.000000 0.000770 
#    y 0.000000 1.787880 0.000000 
#    z 0.000770 0.000000 1.817930 
# 
# From -- ./inp_files/49837.got.cif
#   From: 2010.06.25/outbox.cif.g09.slc.cpg/sg10_25_cif.got.tgz:49837.got - 2010.06.27 22:07:45.
