data_PCOD8065308
_publ_section_title
;
Structure prediction by ZEFSAII (Michael W. Deem and Ramdas Pophale) SiO2 
 PCOD8065308
Probable space group: P 2/M
;
_chemical_formula_sum "Si O2"
_cell_formula_units_Z 28
_cell_length_a 12.570132
_cell_length_b 8.743518
_cell_length_c 14.579261
_cell_angle_alpha 90.000000
_cell_angle_beta 59.657950
_cell_angle_gamma 90.000000
_cell_volume 1382.881460
_symmetry_space_group_name_H-M "P 2/M"
_symmetry_group_IT_number 10
_symmetry_cell_setting 'monoclinic'
loop_
_space_group_symop_operation_xyz
x,y,z
-x,y,-z
-x,-y,-z
x,-y,z
loop_
_atom_site_type_symbol
_atom_site_label
_atom_site_fract_x
_atom_site_fract_y
_atom_site_fract_z
Si Si1 0.037532 0.675229 0.884305
Si Si2 0.304070 0.679362 0.516653
Si Si3 0.409553 0.318545 0.116776
Si Si4 0.051632 0.175670 0.577065
Si Si5 0.288434 0.179902 0.716390
Si Si6 0.507135 0.681408 0.721300
Si Si7 0.867820 0.675255 0.791709
O O1 0.082616 0.500000 0.872159
O O2 0.147292 0.772442 0.792708
O O3 0.916592 0.689266 0.874078
O O4 0.000000 0.740257 0.000000
O O5 0.317260 0.500000 0.528285
O O6 0.166368 0.714689 0.544541
O O7 0.336875 0.762691 0.596978
O O8 0.397166 0.737500 0.397840
O O9 0.419253 0.500000 0.113194
O O10 0.447233 0.254818 0.200404
O O11 0.272126 0.266317 0.150842
O O12 0.500000 0.249520 0.000000
O O13 0.000000 0.210672 0.500000
O O14 0.944532 0.212666 0.694564
O O15 0.093012 0.000000 0.570980
O O16 0.372684 0.250581 0.759565
O O17 0.298632 0.000000 0.715355
O O18 0.497615 0.500000 0.726893
O O19 0.878888 0.500000 0.751775
#
# Coordination Sequence:
#
# PCOD8065308 Si02
#       7
#     4   4   4   4   4   4   4
#     4  10  22  39  64  95 123 158 203 251 303 359
#     4  11  22  39  62  90 120 157 205 256 307 360
#     4   9  19  36  62  93 120 152 198 252 302 353
#     4  11  23  37  57  87 124 166 201 242 302 363
#     4  12  25  40  61  90 125 163 202 248 308 370
#     4  10  22  39  62  89 121 160 205 254 304 360
#     4  10  20  37  62  92 121 156 201 250 301 354
#
# _framework density 20.247577
#
# number of rings (size 3 to 8) (size 9 to 14) (size 15 to 20)
#    0.000    1.571    1.429    3.429    2.000    5.429 
#    0.000    0.714    0.000    0.857    0.000    0.000 
#    0.000    0.000    0.000    0.000    0.000    0.000 
#
# Total GULP energy -347350.665983 kJ/mol
# GULP energy per Si atom -12405.380928 kJ/mol
# Density = 2.020149 g / cm^3
# Si number density = 20.247577 Si / 1000 Ang^3
#
#
#
# Elastic Constant Matrix: (Units=GPa)
#
#
# Indices 1 2 3 4 5 6 
#
# 1 146.9686 24.9005 53.0735 0.0000 6.0805 0.0000
# 2 24.9005 37.9358 27.3584 0.0000 6.9148 0.0000
# 3 53.0735 27.3584 122.4306 0.0000 14.8902 0.0000
# 4 0.0000 0.0000 0.0000 12.0052 0.0000 3.7263
# 5 6.0805 6.9148 14.8902 0.0000 37.0508 0.0000
# 6 0.0000 0.0000 0.0000 3.7263 0.0000 11.2207
#
#
#
# Elastic Compliance Matrix: (Units=1/GPa)
#
#
# Indices 1 2 3 4 5 6 
#
# 1 0.008437 -0.003508 -0.002928 0.000000 0.000447 0.000000
# 2 -0.003508 0.033248 -0.005493 0.000000 -0.003422 0.000000
# 3 -0.002928 -0.005493 0.011020 0.000000 -0.002923 0.000000
# 4 0.000000 0.000000 0.000000 0.092870 0.000000 -0.030841
# 5 0.000447 -0.003422 -0.002923 0.000000 0.028730 0.000000
# 6 0.000000 0.000000 0.000000 -0.030841 0.000000 0.099363
#
#
# Mechanical properties :
#
#
# Convention : Reuss Voigt Hill
#
# Bulk Modulus (GPa) = 34.66455 57.55555 46.11005
# Shear Modulus (GPa) = 16.27908 25.52217 20.90063
#
# Velocity S-wave (km/s) = 2.83857 3.55421 3.21636
# Velocity P-wave (km/s) = 5.28212 6.73282 6.05110
#
# Compressibility (1/GPa) = 0.02884792
#
# Stress axis : x y z
#
# Youngs Moduli (GPa) = 118.51961 30.07716 90.74313
#
# Poissons Ratio (x) = 0.10551 0.26570
# Poissons Ratio (y) = 0.41577 0.49842
# Poissons Ratio (z) = 0.34703 0.16520
#
# Static dielectric constant tensor:
#      x y z
#    x 3.741190 0.000000 0.115810 
#    y 0.000000 3.393580 0.000000 
#    z 0.115810 0.000000 3.836120 
# 
# 
# High freq. dielectric constant tensor:
#      x y z
#    x 1.807750 0.000000 0.005080 
#    y 0.000000 1.765640 0.000000 
#    z 0.005080 0.000000 1.796610 
# 
# From -- ./inp_files/49538.got.cif
#   From: 2010.06.25/outbox.cif.g09.slc.cpg/sg10_25_cif.got.tgz:49538.got - 2010.06.27 22:07:45.
