data_PCOD8065602
_publ_section_title
;
Structure prediction by ZEFSAII (Michael W. Deem and Ramdas Pophale) SiO2 
 PCOD8065602
Probable space group: P 2/M
;
_chemical_formula_sum "Si O2"
_cell_formula_units_Z 32
_cell_length_a 13.010283
_cell_length_b 8.991331
_cell_length_c 30.244447
_cell_angle_alpha 90.000000
_cell_angle_beta 152.326124
_cell_angle_gamma 90.000000
_cell_volume 1643.177223
_symmetry_space_group_name_H-M "P 2/M"
_symmetry_group_IT_number 10
_symmetry_cell_setting 'monoclinic'
loop_
_space_group_symop_operation_xyz
x,y,z
-x,y,-z
-x,-y,-z
x,-y,z
loop_
_atom_site_type_symbol
_atom_site_label
_atom_site_fract_x
_atom_site_fract_y
_atom_site_fract_z
Si Si1 0.564262 0.174016 0.917505
Si Si2 0.559775 0.826299 0.380835
Si Si3 0.584670 0.328703 0.298088
Si Si4 0.744431 0.669359 0.904139
Si Si5 0.117939 0.173783 0.262975
Si Si6 0.070621 0.825571 0.718854
Si Si7 0.014278 0.823438 0.599344
Si Si8 0.723585 0.324248 0.061425
O O1 0.626617 0.215461 0.891545
O O2 0.310777 0.224976 0.827932
O O3 0.597339 0.000000 0.937895
O O4 0.721828 0.262334 0.010995
O O5 0.525860 0.736323 0.323221
O O6 0.361628 0.787205 0.338853
O O7 0.784522 0.774843 0.489877
O O8 0.564038 0.000000 0.370834
O O9 0.652297 0.500000 0.328620
O O10 0.363088 0.308937 0.184880
O O11 0.788754 0.243832 0.354085
O O12 0.711132 0.500000 0.908199
O O13 0.000000 0.712186 0.000000
O O14 0.104987 0.220506 0.310041
O O15 0.939450 0.264331 0.167513
O O16 0.062160 0.000000 0.236418
O O17 0.015801 0.755744 0.649900
O O18 0.069676 0.000000 0.710896
O O19 0.042649 0.000000 0.609942
O O20 0.737010 0.500000 0.065245
O O21 0.500000 0.267675 0.000000
#
# Coordination Sequence:
#
# PCOD8065602 Si02
#       8
#     4   4   4   4   4   4   4   4
#     4  11  21  36  60  88 115 150 194 243 290 342
#     4  10  23  39  60  87 118 154 194 244 295 347
#     4  11  23  39  61  86 117 156 196 242 292 349
#     4  10  23  41  58  83 119 156 192 237 294 350
#     4  10  21  39  59  87 121 154 194 240 293 349
#     4   9  18  34  60  88 117 149 188 239 291 343
#     4  10  20  39  63  88 115 150 196 245 296 348
#     4  11  23  37  56  83 116 156 195 232 279 343
#
# _framework density 19.474468000000002
#
# number of rings (size 3 to 8) (size 9 to 14) (size 15 to 20)
#    0.000    1.750    2.500    1.500    1.750    4.250 
#    0.000    3.125    0.000    0.000    0.000    2.625 
#    0.000    0.000    0.000    0.000    0.000    0.000 
#
# Total GULP energy -396871.243122 kJ/mol
# GULP energy per Si atom -12402.226348 kJ/mol
# Density = 1.943014 g / cm^3
# Si number density = 19.474468 Si / 1000 Ang^3
#
#
#
# Elastic Constant Matrix: (Units=GPa)
#
#
# Indices 1 2 3 4 5 6 
#
# 1 130.4446 32.9532 48.8149 0.0000 1.6409 0.0000
# 2 32.9532 47.2279 37.8205 0.0000 1.6004 0.0000
# 3 48.8149 37.8205 105.2577 0.0000 8.7761 0.0000
# 4 0.0000 0.0000 0.0000 22.4439 0.0000 -2.0235
# 5 1.6409 1.6004 8.7761 0.0000 33.5206 0.0000
# 6 0.0000 0.0000 0.0000 -2.0235 0.0000 23.1821
#
#
#
# Elastic Compliance Matrix: (Units=1/GPa)
#
#
# Indices 1 2 3 4 5 6 
#
# 1 0.009935 -0.004528 -0.003024 0.000000 0.000522 0.000000
# 2 -0.004528 0.031857 -0.009444 0.000000 0.001173 0.000000
# 3 -0.003024 -0.009444 0.014564 0.000000 -0.003214 0.000000
# 4 0.000000 0.000000 0.000000 0.044909 0.000000 0.003920
# 5 0.000522 0.001173 -0.003214 0.000000 0.030592 0.000000
# 6 0.000000 0.000000 0.000000 0.003920 0.000000 0.043479
#
#
# Mechanical properties :
#
#
# Convention : Reuss Voigt Hill
#
# Bulk Modulus (GPa) = 44.71646 58.01194 51.36420
# Shear Modulus (GPa) = 23.06440 26.71875 24.89157
#
# Velocity S-wave (km/s) = 3.44516 3.70805 3.57902
# Velocity P-wave (km/s) = 6.23193 6.94163 6.59633
#
# Compressibility (1/GPa) = 0.02236313
#
# Stress axis : x y z
#
# Youngs Moduli (GPa) = 100.65328 31.39037 68.66055
#
# Poissons Ratio (x) = 0.14214 0.20763
# Poissons Ratio (y) = 0.45578 0.64846
# Poissons Ratio (z) = 0.30437 0.29646
#
# Static dielectric constant tensor:
#      x y z
#    x 3.707500 0.000000 -0.060690 
#    y 0.000000 3.393860 0.000000 
#    z -0.060690 0.000000 3.680560 
# 
# 
# High freq. dielectric constant tensor:
#      x y z
#    x 1.769670 0.000000 -0.006120 
#    y 0.000000 1.742320 0.000000 
#    z -0.006120 0.000000 1.762890 
# 
# From -- ./inp_files/84745.got.cif
#   From: 2010.06.25/outbox.cif.g09.slc.cpg/sg10_43_cif.got.tgz:84745.got - 2010.06.27 22:07:45.
