data_PCOD8065723
_publ_section_title
;
Structure prediction by ZEFSAII (Michael W. Deem and Ramdas Pophale) SiO2 
 PCOD8065723
Probable space group: P 2/M
;
_chemical_formula_sum "Si O2"
_cell_formula_units_Z 24
_cell_length_a 11.006636
_cell_length_b 16.489816
_cell_length_c 12.080995
_cell_angle_alpha 90.000000
_cell_angle_beta 32.918218
_cell_angle_gamma 90.000000
_cell_volume 1191.587207
_symmetry_space_group_name_H-M "P 2/M"
_symmetry_group_IT_number 10
_symmetry_cell_setting 'monoclinic'
loop_
_space_group_symop_operation_xyz
x,y,z
-x,y,-z
-x,-y,-z
x,-y,z
loop_
_atom_site_type_symbol
_atom_site_label
_atom_site_fract_x
_atom_site_fract_y
_atom_site_fract_z
Si Si1 0.089672 0.092926 0.555554
Si Si2 0.002931 0.333091 0.617955
Si Si3 0.707535 0.190155 0.910189
Si Si4 0.330409 0.654709 0.714379
Si Si5 0.926960 0.591999 0.901807
Si Si6 0.432864 0.768654 0.325705
O O1 0.310506 0.144250 0.418810
O O2 0.000000 0.109825 0.500000
O O3 0.885534 0.117503 0.793959
O O4 0.155786 0.000000 0.522950
O O5 0.834769 0.256970 0.738550
O O6 0.000000 0.376912 0.500000
O O7 0.909721 0.393206 0.783762
O O8 0.253822 0.303454 0.449320
O O9 0.500000 0.154603 0.000000
O O10 0.625525 0.230881 0.085464
O O11 0.500000 0.609642 0.500000
O O12 0.097319 0.657120 0.825715
O O13 0.431303 0.744759 0.665898
O O14 0.303471 0.606667 0.852883
O O15 0.007087 0.500000 0.860495
#
# Coordination Sequence:
#
# PCOD8065723 Si02
#       6
#     4   4   4   4   4   4
#     4  10  21  33  52  90 128 154 192 242 293 348
#     4  11  21  36  59  86 121 156 201 242 286 357
#     4  11  18  33  57  84 117 160 198 236 283 345
#     4  11  22  40  64  85 112 156 200 249 292 348
#     4  11  25  40  58  91 122 146 196 254 302 354
#     4  11  20  36  59  85 114 157 201 240 284 347
#
# _framework density 20.141203999999998
#
# number of rings (size 3 to 8) (size 9 to 14) (size 15 to 20)
#    0.000    1.167    6.667    2.000    0.000    2.667 
#    0.000    0.000    0.000    2.000    0.000    3.500 
#    0.000    0.000    0.000    0.000    0.000    0.000 
#
# Total GULP energy -297350.669566 kJ/mol
# GULP energy per Si atom -12389.611232 kJ/mol
# Density = 2.009536 g / cm^3
# Si number density = 20.141204 Si / 1000 Ang^3
#
#
#
# Elastic Constant Matrix: (Units=GPa)
#
#
# Indices 1 2 3 4 5 6 
#
# 1 86.3486 51.9085 45.2229 0.0000 12.5977 0.0000
# 2 51.9085 93.6840 37.8832 0.0000 0.9677 0.0000
# 3 45.2229 37.8832 155.2754 0.0000 23.9814 0.0000
# 4 0.0000 0.0000 0.0000 15.8059 0.0000 -1.0647
# 5 12.5977 0.9677 23.9814 0.0000 39.0943 0.0000
# 6 0.0000 0.0000 0.0000 -1.0647 0.0000 19.7378
#
#
#
# Elastic Compliance Matrix: (Units=1/GPa)
#
#
# Indices 1 2 3 4 5 6 
#
# 1 0.019388 -0.009640 -0.002614 0.000000 -0.004405 0.000000
# 2 -0.009640 0.016731 -0.001867 0.000000 0.003837 0.000000
# 3 -0.002614 -0.001867 0.008307 0.000000 -0.004207 0.000000
# 4 0.000000 0.000000 0.000000 0.063498 0.000000 0.003425
# 5 -0.004405 0.003837 -0.004207 0.000000 0.029484 0.000000
# 6 0.000000 0.000000 0.000000 0.003425 0.000000 0.050849
#
#
# Mechanical properties :
#
#
# Convention : Reuss Voigt Hill
#
# Bulk Modulus (GPa) = 61.79290 67.25968 64.52629
# Shear Modulus (GPa) = 22.53335 28.28051 25.40693
#
# Velocity S-wave (km/s) = 3.34843 3.75121 3.55553
# Velocity P-wave (km/s) = 6.75986 7.22694 6.99730
#
# Compressibility (1/GPa) = 0.01618309
#
# Stress axis : x y z
#
# Youngs Moduli (GPa) = 51.57892 59.77038 120.38289
#
# Poissons Ratio (x) = 0.57617 0.31472
# Poissons Ratio (y) = 0.49721 0.22476
# Poissons Ratio (z) = 0.13485 0.11159
#
# Static dielectric constant tensor:
#      x y z
#    x 3.438000 0.000000 0.103230 
#    y 0.000000 3.318610 0.000000 
#    z 0.103230 0.000000 4.252010 
# 
# 
# High freq. dielectric constant tensor:
#      x y z
#    x 1.761030 0.000000 0.003200 
#    y 0.000000 1.743630 0.000000 
#    z 0.003200 0.000000 1.819100 
# 
# From -- ./inp_files/47861.got.cif
#   From: 2010.06.25/outbox.cif.g09.slc.cpg/sg10_24_cif.got.tgz:47861.got - 2010.06.27 22:07:45.
