data_PCOD8065425
_publ_section_title
;
Structure prediction by ZEFSAII (Michael W. Deem and Ramdas Pophale) SiO2 
 PCOD8065425
Probable space group: P 2/M
;
_chemical_formula_sum "Si O2"
_cell_formula_units_Z 28
_cell_length_a 9.957846
_cell_length_b 8.898975
_cell_length_c 28.911748
_cell_angle_alpha 90.000000
_cell_angle_beta 34.590713
_cell_angle_gamma 90.000000
_cell_volume 1454.475896
_symmetry_space_group_name_H-M "P 2/M"
_symmetry_group_IT_number 10
_symmetry_cell_setting 'monoclinic'
loop_
_space_group_symop_operation_xyz
x,y,z
-x,y,-z
-x,-y,-z
x,-y,z
loop_
_atom_site_type_symbol
_atom_site_label
_atom_site_fract_x
_atom_site_fract_y
_atom_site_fract_z
Si Si1 0.554011 0.176322 0.845211
Si Si2 0.119374 0.674707 0.571438
Si Si3 0.490979 0.176656 0.404386
Si Si4 0.653341 0.326463 0.646008
Si Si5 0.040328 0.322852 0.699549
Si Si6 0.146380 0.665888 0.005538
Si Si7 0.672300 0.675393 0.178580
O O1 0.800396 0.254283 0.787988
O O2 0.467697 0.228538 0.819442
O O3 0.589115 0.000000 0.835110
O O4 0.364545 0.219743 0.938977
O O5 0.187262 0.500000 0.549171
O O6 0.341882 0.769903 0.490942
O O7 0.891398 0.712904 0.605647
O O8 0.065607 0.723357 0.638873
O O9 0.353593 0.222698 0.396885
O O10 0.745020 0.255673 0.331957
O O11 0.524899 0.000000 0.396924
O O12 0.651791 0.500000 0.630852
O O13 0.429419 0.289039 0.742055
O O14 0.034536 0.500000 0.707944
O O15 0.247872 0.500000 0.987923
O O16 0.953549 0.715579 0.099115
O O17 0.000000 0.661446 0.000000
O O18 0.632262 0.500000 0.177095
#
# Coordination Sequence:
#
# PCOD8065425 Si02
#       7
#     4   4   4   4   4   4   4
#     4  11  20  30  50  82 117 145 176 223 282 332
#     4  10  21  39  63  84 104 140 192 237 273 323
#     4  12  26  39  53  82 118 148 180 225 286 339
#     4  10  20  38  61  83 109 146 192 232 269 322
#     4  11  22  40  62  81 106 146 193 233 272 324
#     4   8  15  28  49  76 109 144 182 225 267 317
#     4   9  17  33  55  80 108 145 190 230 266 316
#
# _framework density 19.250921000000002
#
# number of rings (size 3 to 8) (size 9 to 14) (size 15 to 20)
#    0.000    1.857    1.429    4.714    0.000    8.286 
#    0.000    0.000    0.000    0.857    0.000    6.000 
#    0.000    0.000    0.000    0.000    0.000    0.000 
#
# Total GULP energy -347252.660300 kJ/mol
# GULP energy per Si atom -12401.880725 kJ/mol
# Density = 1.920711 g / cm^3
# Si number density = 19.250921 Si / 1000 Ang^3
#
#
#
# Elastic Constant Matrix: (Units=GPa)
#
#
# Indices 1 2 3 4 5 6 
#
# 1 49.9166 21.2706 5.9652 0.0000 -13.4638 0.0000
# 2 21.2706 95.9544 34.4315 0.0000 -12.7675 0.0000
# 3 5.9652 34.4315 100.0362 0.0000 -21.3932 0.0000
# 4 0.0000 0.0000 0.0000 11.8827 0.0000 -7.2124
# 5 -13.4638 -12.7675 -21.3932 0.0000 21.5481 0.0000
# 6 0.0000 0.0000 0.0000 -7.2124 0.0000 19.6600
#
#
#
# Elastic Compliance Matrix: (Units=1/GPa)
#
#
# Indices 1 2 3 4 5 6 
#
# 1 0.026348 -0.004905 0.003829 0.000000 0.017358 0.000000
# 2 -0.004905 0.013052 -0.004064 0.000000 0.000633 0.000000
# 3 0.003829 -0.004064 0.014173 0.000000 0.014055 0.000000
# 4 0.000000 0.000000 0.000000 0.108263 0.000000 0.039717
# 5 0.017358 0.000633 0.014055 0.000000 0.071583 0.000000
# 6 0.000000 0.000000 0.000000 0.039717 0.000000 0.065435
#
#
# Mechanical properties :
#
#
# Convention : Reuss Voigt Hill
#
# Bulk Modulus (GPa) = 23.09892 41.02687 32.06289
# Shear Modulus (GPa) = 15.45286 22.90080 19.17683
#
# Velocity S-wave (km/s) = 2.83628 3.45279 3.15961
# Velocity P-wave (km/s) = 4.76979 6.10357 5.47743
#
# Compressibility (1/GPa) = 0.04329207
#
# Stress axis : x y z
#
# Youngs Moduli (GPa) = 37.95369 76.61880 70.55800
#
# Poissons Ratio (x) = 0.37582 -0.27019
# Poissons Ratio (y) = 0.18617 0.28677
# Poissons Ratio (z) = -0.14534 0.31140
#
# Static dielectric constant tensor:
#      x y z
#    x 3.199750 0.000000 -0.122590 
#    y 0.000000 3.369520 0.000000 
#    z -0.122590 0.000000 4.022020 
# 
# 
# High freq. dielectric constant tensor:
#      x y z
#    x 1.713560 0.000000 -0.013490 
#    y 0.000000 1.739110 0.000000 
#    z -0.013490 0.000000 1.767810 
# 
# From -- ./inp_files/91965.got.cif
#   From: 2010.06.25/outbox.cif.g09.slc.cpg/sg10_46_cif.got.tgz:91965.got - 2010.06.27 22:07:45.
