data_PCOD8065053
_publ_section_title
;
Structure prediction by ZEFSAII (Michael W. Deem and Ramdas Pophale) SiO2 
 PCOD8065053
Probable space group: P 2/M
;
_chemical_formula_sum "Si O2"
_cell_formula_units_Z 32
_cell_length_a 9.083210
_cell_length_b 24.079114
_cell_length_c 15.442457
_cell_angle_alpha 90.000000
_cell_angle_beta 29.808631
_cell_angle_gamma 90.000000
_cell_volume 1678.974523
_symmetry_space_group_name_H-M "P 2/M"
_symmetry_group_IT_number 10
_symmetry_cell_setting 'monoclinic'
loop_
_space_group_symop_operation_xyz
x,y,z
-x,y,-z
-x,-y,-z
x,-y,z
loop_
_atom_site_type_symbol
_atom_site_label
_atom_site_fract_x
_atom_site_fract_y
_atom_site_fract_z
Si Si1 0.276821 0.820854 0.535109
Si Si2 0.658339 0.939178 0.165484
Si Si3 0.820824 0.367769 0.679633
Si Si4 0.293229 0.058428 0.524317
Si Si5 0.669438 0.436915 0.157787
Si Si6 0.686908 0.563032 0.485138
Si Si7 0.348016 0.832365 0.310659
Si Si8 0.294345 0.248489 0.187732
O O1 0.500000 0.813066 0.500000
O O2 0.117964 0.882744 0.616901
O O3 0.457781 0.814502 0.351463
O O4 0.029045 0.774264 0.671159
O O5 0.517523 0.940542 0.331039
O O6 0.497068 0.888913 0.197215
O O7 0.617164 0.000000 0.140920
O O8 0.000000 0.924078 0.000000
O O9 0.520184 0.401330 0.813474
O O10 0.727588 0.311972 0.774364
O O11 0.000000 0.355339 0.500000
O O12 0.018027 0.401885 0.647449
O O13 0.500000 0.055402 0.500000
O O14 0.101387 0.000000 0.617766
O O15 0.682659 0.500000 0.115735
O O16 0.521814 0.434791 0.326052
O O17 0.000000 0.412280 0.000000
O O18 0.500000 0.587906 0.500000
O O19 0.785655 0.500000 0.414014
O O20 0.427183 0.784581 0.201983
O O21 0.000000 0.842455 0.500000
O O22 0.500000 0.241095 0.000000
#
# Coordination Sequence:
#
# PCOD8065053 Si02
#       8
#     4   4   4   4   4   4   4   4
#     4   9  18  35  58  79 101 136 179 216 260 322
#     4   9  17  29  49  78 105 129 164 211 261 315
#     4  10  20  37  58  77 107 148 184 219 264 318
#     4   8  14  26  47  75 103 129 161 205 257 316
#     4   9  18  34  57  85 114 142 175 217 265 315
#     4   9  18  33  56  86 115 144 177 212 256 316
#     4   9  19  36  54  73 104 141 173 211 265 321
#     4  11  24  39  53  74 106 140 181 229 271 310
#
# _framework density 19.059252999999998
#
# number of rings (size 3 to 8) (size 9 to 14) (size 15 to 20)
#    0.000    2.750    0.000    1.500    0.000    6.250 
#    0.000    5.000    0.000    4.500    0.000    0.000 
#    0.000    0.000    0.000    0.000    0.000    0.000 
#
# Total GULP energy -396453.782882 kJ/mol
# GULP energy per Si atom -12389.180715 kJ/mol
# Density = 1.901587 g / cm^3
# Si number density = 19.059253 Si / 1000 Ang^3
#
#
#
# Elastic Constant Matrix: (Units=GPa)
#
#
# Indices 1 2 3 4 5 6 
#
# 1 129.2948 68.6655 33.0588 0.0000 -2.8896 0.0000
# 2 68.6655 140.2987 52.2726 0.0000 -8.2325 0.0000
# 3 33.0588 52.2726 58.5345 0.0000 -11.1538 0.0000
# 4 0.0000 0.0000 0.0000 10.7221 0.0000 -4.7715
# 5 -2.8896 -8.2325 -11.1538 0.0000 22.8655 0.0000
# 6 0.0000 0.0000 0.0000 -4.7715 0.0000 22.8342
#
#
#
# Elastic Compliance Matrix: (Units=1/GPa)
#
#
# Indices 1 2 3 4 5 6 
#
# 1 0.010649 -0.004427 -0.002324 0.000000 -0.001382 0.000000
# 2 -0.004427 0.012538 -0.008757 0.000000 -0.000317 0.000000
# 3 -0.002324 -0.008757 0.028180 0.000000 0.010299 0.000000
# 4 0.000000 0.000000 0.000000 0.102827 0.000000 0.021487
# 5 -0.001382 -0.000317 0.010299 0.000000 0.048469 0.000000
# 6 0.000000 0.000000 0.000000 0.021487 0.000000 0.048284
#
#
# Mechanical properties :
#
#
# Convention : Reuss Voigt Hill
#
# Bulk Modulus (GPa) = 49.13988 70.68019 59.91004
# Shear Modulus (GPa) = 17.31619 22.89311 20.10465
#
# Velocity S-wave (km/s) = 3.01748 3.46953 3.25137
# Velocity P-wave (km/s) = 6.16270 7.29487 6.75256
#
# Compressibility (1/GPa) = 0.02035007
#
# Stress axis : x y z
#
# Youngs Moduli (GPa) = 93.90895 79.75441 35.48667
#
# Poissons Ratio (x) = 0.35306 0.08247
# Poissons Ratio (y) = 0.41572 0.31077
# Poissons Ratio (z) = 0.21825 0.69844
#
# Static dielectric constant tensor:
#      x y z
#    x 3.669890 0.000000 0.098510 
#    y 0.000000 3.913180 0.000000 
#    z 0.098510 0.000000 3.262830 
# 
# 
# High freq. dielectric constant tensor:
#      x y z
#    x 1.740610 0.000000 0.008050 
#    y 0.000000 1.749940 0.000000 
#    z 0.008050 0.000000 1.713050 
# 
# From -- ./inp_files/62666.got.cif
#   From: 2010.06.25/outbox.cif.g09.slc.cpg/sg10_32_cif.got.tgz:62666.got - 2010.06.27 22:07:45.
