data_PCOD8065282
_publ_section_title
;
Structure prediction by ZEFSAII (Michael W. Deem and Ramdas Pophale) SiO2 
 PCOD8065282
Probable space group: P 2/M
;
_chemical_formula_sum "Si O2"
_cell_formula_units_Z 28
_cell_length_a 11.831779
_cell_length_b 8.647559
_cell_length_c 15.500253
_cell_angle_alpha 90.000000
_cell_angle_beta 116.826263
_cell_angle_gamma 90.000000
_cell_volume 1415.245353
_symmetry_space_group_name_H-M "P 2/M"
_symmetry_group_IT_number 10
_symmetry_cell_setting 'monoclinic'
loop_
_space_group_symop_operation_xyz
x,y,z
-x,y,-z
-x,-y,-z
x,-y,z
loop_
_atom_site_type_symbol
_atom_site_label
_atom_site_fract_x
_atom_site_fract_y
_atom_site_fract_z
Si Si1 0.027475 0.817760 0.880029
Si Si2 0.807851 0.320313 0.544844
Si Si3 0.185160 0.680867 0.081659
Si Si4 0.288178 0.822024 0.661904
Si Si5 0.050484 0.820657 0.691413
Si Si6 0.450748 0.678259 0.242811
Si Si7 0.616407 0.175841 0.603974
O O1 0.040768 0.762519 0.786243
O O2 0.890072 0.770774 0.868915
O O3 0.046086 0.000000 0.895556
O O4 0.137908 0.733993 0.971827
O O5 0.787989 0.500000 0.555282
O O6 0.747049 0.280419 0.432350
O O7 0.744094 0.224651 0.599986
O O8 0.955913 0.275930 0.597733
O O9 0.159052 0.500000 0.085679
O O10 0.333986 0.719654 0.139540
O O11 0.192336 0.789486 0.707073
O O12 0.428342 0.779505 0.743206
O O13 0.285044 0.000000 0.631490
O O14 0.014008 0.000000 0.670811
O O15 0.488727 0.500000 0.248285
O O16 0.407531 0.711637 0.324963
O O17 0.500000 0.194086 0.500000
O O18 0.630704 0.000000 0.641725
#
# Coordination Sequence:
#
# PCOD8065282 Si02
#       7
#     4   4   4   4   4   4   4
#     4  10  20  37  62  89 113 143 187 236 281 332
#     4  12  24  37  58  86 116 151 192 238 287 339
#     4  10  21  37  59  88 119 148 179 226 289 346
#     4  11  23  40  59  80 113 156 195 237 283 334
#     4  10  23  41  60  83 113 150 196 240 282 336
#     4  11  23  38  58  86 118 152 191 235 285 341
#     4  11  22  36  57  83 113 151 189 229 282 336
#
# _framework density 19.784555999999998
#
# number of rings (size 3 to 8) (size 9 to 14) (size 15 to 20)
#    0.000    1.286    1.429    5.571    0.000    9.143 
#    0.000    0.714    0.000    4.286    0.000    0.000 
#    0.000    0.000    0.000    0.000    0.000    0.000 
#
# Total GULP energy -347368.754998 kJ/mol
# GULP energy per Si atom -12406.026964 kJ/mol
# Density = 1.973953 g / cm^3
# Si number density = 19.784556 Si / 1000 Ang^3
#
#
#
# Elastic Constant Matrix: (Units=GPa)
#
#
# Indices 1 2 3 4 5 6 
#
# 1 110.2139 24.1348 46.3503 0.0000 16.1872 0.0000
# 2 24.1348 52.8605 27.3583 0.0000 10.0821 0.0000
# 3 46.3503 27.3583 77.4379 0.0000 17.1263 0.0000
# 4 0.0000 0.0000 0.0000 25.4635 0.0000 10.6782
# 5 16.1872 10.0821 17.1263 0.0000 30.1736 0.0000
# 6 0.0000 0.0000 0.0000 10.6782 0.0000 20.7299
#
#
#
# Elastic Compliance Matrix: (Units=1/GPa)
#
#
# Indices 1 2 3 4 5 6 
#
# 1 0.012495 -0.002011 -0.006215 0.000000 -0.002504 0.000000
# 2 -0.002011 0.023809 -0.006504 0.000000 -0.003185 0.000000
# 3 -0.006215 -0.006504 0.020256 0.000000 -0.005990 0.000000
# 4 0.000000 0.000000 0.000000 0.050093 0.000000 -0.025803
# 5 -0.002504 -0.003185 -0.005990 0.000000 0.038949 0.000000
# 6 0.000000 0.000000 0.000000 -0.025803 0.000000 0.061531
#
#
# Mechanical properties :
#
#
# Convention : Reuss Voigt Hill
#
# Bulk Modulus (GPa) = 36.89788 48.46655 42.68222
# Shear Modulus (GPa) = 20.35626 24.78464 22.57045
#
# Velocity S-wave (km/s) = 3.21112 3.54323 3.38125
# Velocity P-wave (km/s) = 5.69550 6.42570 6.07159
#
# Compressibility (1/GPa) = 0.02710183
#
# Stress axis : x y z
#
# Youngs Moduli (GPa) = 80.03268 42.00024 49.36872
#
# Poissons Ratio (x) = 0.08446 0.30681
# Poissons Ratio (y) = 0.16094 0.32107
# Poissons Ratio (z) = 0.49737 0.27315
#
# Static dielectric constant tensor:
#      x y z
#    x 3.685530 0.000000 0.143410 
#    y 0.000000 3.642980 0.000000 
#    z 0.143410 0.000000 3.618200 
# 
# 
# High freq. dielectric constant tensor:
#      x y z
#    x 1.771630 0.000000 0.013150 
#    y 0.000000 1.780040 0.000000 
#    z 0.013150 0.000000 1.764840 
# 
# From -- ./inp_files/63402.got.cif
#   From: 2010.06.25/outbox.cif.g09.slc.cpg/sg10_32_cif.got.tgz:63402.got - 2010.06.27 22:07:45.
