data_PCOD8065288
_publ_section_title
;
Structure prediction by ZEFSAII (Michael W. Deem and Ramdas Pophale) SiO2 
 PCOD8065288
Probable space group: P 2/M
;
_chemical_formula_sum "Si O2"
_cell_formula_units_Z 24
_cell_length_a 27.055680
_cell_length_b 7.945107
_cell_length_c 19.169083
_cell_angle_alpha 90.000000
_cell_angle_beta 162.756769
_cell_angle_gamma 90.000000
_cell_volume 1221.461712
_symmetry_space_group_name_H-M "P 2/M"
_symmetry_group_IT_number 10
_symmetry_cell_setting 'monoclinic'
loop_
_space_group_symop_operation_xyz
x,y,z
-x,y,-z
-x,-y,-z
x,-y,z
loop_
_atom_site_type_symbol
_atom_site_label
_atom_site_fract_x
_atom_site_fract_y
_atom_site_fract_z
Si Si1 0.197883 0.000000 0.690850
Si Si2 0.062381 0.809062 0.012057
Si Si3 0.750208 0.307511 0.988735
Si Si4 0.696643 0.691151 0.259070
Si Si5 0.806796 0.000000 0.161855
Si Si6 0.034028 0.693878 0.266886
Si Si7 0.420638 0.310203 0.462212
O O1 0.253155 0.172863 0.729890
O O2 0.275459 0.000000 0.872570
O O3 0.002490 0.000000 0.430142
O O4 0.260370 0.790677 0.271297
O O5 0.014300 0.000000 0.956146
O O6 0.000000 0.716300 0.000000
O O7 0.963312 0.754900 0.809076
O O8 0.800052 0.500000 0.078897
O O9 0.751024 0.174739 0.052057
O O10 0.876759 0.236046 0.099784
O O11 0.559463 0.308222 0.708319
O O12 0.748456 0.500000 0.306516
O O13 0.790897 0.738164 0.458789
O O14 0.500000 0.703330 0.000000
O O15 0.002123 0.500000 0.219318
O O16 0.500000 0.226513 0.500000
O O17 0.361184 0.500000 0.364205
#
# Coordination Sequence:
#
# PCOD8065288 Si02
#       7
#     2   4   4   4   2   4   4
#     4  11  23  40  62  94 120 161 203 252 321 372
#     4  11  25  40  56  89 130 165 203 252 309 368
#     4  10  21  38  61  91 123 160 210 259 300 365
#     4  10  22  42  66  92 120 158 212 262 308 368
#     4  11  24  38  61  90 126 165 199 244 325 377
#     4  10  20  38  64  86 114 160 206 253 305 360
#     4  10  20  37  62  89 117 155 208 258 299 361
#
# _framework density 19.648591
#
# number of rings (size 3 to 8) (size 9 to 14) (size 15 to 20)
#    0.000    1.667    3.333    0.750    3.500    2.333 
#    3.000    1.667    0.000    0.000    0.000    0.000 
#    0.000    0.000    0.000    0.000    0.000    0.000 
#
# Total GULP energy -297428.753577 kJ/mol
# GULP energy per Si atom -12392.864732 kJ/mol
# Density = 1.960387 g / cm^3
# Si number density = 19.648591 Si / 1000 Ang^3
#
#
#
# Elastic Constant Matrix: (Units=GPa)
#
#
# Indices 1 2 3 4 5 6 
#
# 1 160.6398 63.4759 60.0003 0.0000 -19.2687 0.0000
# 2 63.4759 86.9301 29.3258 0.0000 -17.0275 0.0000
# 3 60.0003 29.3258 117.7238 0.0000 -9.5447 0.0000
# 4 0.0000 0.0000 0.0000 24.7616 0.0000 -9.0803
# 5 -19.2687 -17.0275 -9.5447 0.0000 25.2145 0.0000
# 6 0.0000 0.0000 0.0000 -9.0803 0.0000 22.3341
#
#
#
# Elastic Compliance Matrix: (Units=1/GPa)
#
#
# Indices 1 2 3 4 5 6 
#
# 1 0.010090 -0.005682 -0.003521 0.000000 0.002541 0.000000
# 2 -0.005682 0.017316 -0.000847 0.000000 0.007030 0.000000
# 3 -0.003521 -0.000847 0.010560 0.000000 0.000734 0.000000
# 4 0.000000 0.000000 0.000000 0.047461 0.000000 0.019296
# 5 0.002541 0.007030 0.000734 0.000000 0.046627 0.000000
# 6 0.000000 0.000000 0.000000 0.019296 0.000000 0.052620
#
#
# Mechanical properties :
#
#
# Convention : Reuss Voigt Hill
#
# Bulk Modulus (GPa) = 55.97902 74.54419 65.26161
# Shear Modulus (GPa) = 23.72702 28.62814 26.17758
#
# Velocity S-wave (km/s) = 3.47878 3.82122 3.65401
# Velocity P-wave (km/s) = 6.68489 7.58222 7.14765
#
# Compressibility (1/GPa) = 0.01786383
#
# Stress axis : x y z
#
# Youngs Moduli (GPa) = 99.10331 57.75125 94.69924
#
# Poissons Ratio (x) = 0.32817 0.33346
# Poissons Ratio (y) = 0.56315 0.08024
# Poissons Ratio (z) = 0.34897 0.04893
#
# Static dielectric constant tensor:
#      x y z
#    x 4.856330 0.000000 -0.020360 
#    y 0.000000 3.800130 0.000000 
#    z -0.020360 0.000000 3.743470 
# 
# 
# High freq. dielectric constant tensor:
#      x y z
#    x 1.752050 0.000000 -0.009810 
#    y 0.000000 1.769920 0.000000 
#    z -0.009810 0.000000 1.771730 
# 
# From -- ./inp_files/80143.got.cif
#   From: 2010.06.25/outbox.cif.g09.slc.cpg/sg10_41_cif.got.tgz:80143.got - 2010.06.27 22:07:45.
