data_PCOD8065442
_publ_section_title
;
Structure prediction by ZEFSAII (Michael W. Deem and Ramdas Pophale) SiO2 
 PCOD8065442
Probable space group: P 2/M
;
_chemical_formula_sum "Si O2"
_cell_formula_units_Z 32
_cell_length_a 11.770106
_cell_length_b 8.791423
_cell_length_c 28.604144
_cell_angle_alpha 90.000000
_cell_angle_beta 31.148631
_cell_angle_gamma 90.000000
_cell_volume 1531.007551
_symmetry_space_group_name_H-M "P 2/M"
_symmetry_group_IT_number 10
_symmetry_cell_setting 'monoclinic'
loop_
_space_group_symop_operation_xyz
x,y,z
-x,y,-z
-x,-y,-z
x,-y,z
loop_
_atom_site_type_symbol
_atom_site_label
_atom_site_fract_x
_atom_site_fract_y
_atom_site_fract_z
Si Si1 0.549642 0.679712 0.719583
Si Si2 0.129351 0.825895 0.908942
Si Si3 0.076966 0.325295 0.170988
Si Si4 0.658049 0.326514 0.831458
Si Si5 0.653203 0.319363 0.488742
Si Si6 0.264323 0.172907 0.020086
Si Si7 0.585703 0.680650 0.334643
Si Si8 0.875855 0.177993 0.670573
O O1 0.574671 0.500000 0.712371
O O2 0.345711 0.726595 0.824202
O O3 0.516102 0.738607 0.678320
O O4 0.775450 0.754358 0.658095
O O5 0.975387 0.811414 0.918126
O O6 0.202968 0.000000 0.891681
O O7 0.000000 0.764227 0.000000
O O8 0.087480 0.500000 0.150363
O O9 0.147332 0.309059 0.199712
O O10 0.244567 0.228283 0.080416
O O11 0.832953 0.257157 0.252433
O O12 0.643449 0.500000 0.818667
O O13 0.705448 0.215843 0.771778
O O14 0.427574 0.281065 0.934841
O O15 0.500000 0.263604 0.500000
O O16 0.671700 0.500000 0.481970
O O17 0.555843 0.257278 0.572005
O O18 0.893664 0.252421 0.397610
O O19 0.350612 0.000000 0.988413
O O20 0.591630 0.500000 0.334375
O O21 0.905780 0.000000 0.654273
#
# Coordination Sequence:
#
# PCOD8065442 Si02
#       8
#     4   4   4   4   4   4   4   4
#     4  11  22  39  64  90 120 160 210 258 303 363
#     4  10  21  37  56  81 119 166 210 255 306 360
#     4  10  20  38  61  88 122 160 207 259 306 361
#     4  11  23  39  62  88 118 162 214 262 309 365
#     4  10  21  42  71  98 125 160 205 252 304 367
#     4  11  22  35  55  87 127 167 205 250 310 374
#     4   9  19  37  64  94 122 157 204 259 307 356
#     4  12  26  43  62  89 128 162 199 254 315 377
#
# _framework density 20.901268000000002
#
# number of rings (size 3 to 8) (size 9 to 14) (size 15 to 20)
#    0.000    1.500    1.250    4.125    0.000    7.000 
#    0.000    4.375    0.000    0.000    0.000    0.000 
#    0.000    0.000    0.000    0.000    0.000    0.000 
#
# Total GULP energy -396972.503231 kJ/mol
# GULP energy per Si atom -12405.390726 kJ/mol
# Density = 2.085370 g / cm^3
# Si number density = 20.901268 Si / 1000 Ang^3
#
#
#
# Elastic Constant Matrix: (Units=GPa)
#
#
# Indices 1 2 3 4 5 6 
#
# 1 116.6099 37.3361 40.1301 0.0000 -3.8058 0.0000
# 2 37.3361 53.0626 19.8207 0.0000 -5.2864 0.0000
# 3 40.1301 19.8207 94.8920 0.0000 2.4738 0.0000
# 4 0.0000 0.0000 0.0000 21.2254 0.0000 -1.9524
# 5 -3.8058 -5.2864 2.4738 0.0000 40.5823 0.0000
# 6 0.0000 0.0000 0.0000 -1.9524 0.0000 24.5468
#
#
#
# Elastic Compliance Matrix: (Units=1/GPa)
#
#
# Indices 1 2 3 4 5 6 
#
# 1 0.012128 -0.007127 -0.003652 0.000000 0.000432 0.000000
# 2 -0.007127 0.024981 -0.002275 0.000000 0.002725 0.000000
# 3 -0.003652 -0.002275 0.012595 0.000000 -0.001407 0.000000
# 4 0.000000 0.000000 0.000000 0.047461 0.000000 0.003775
# 5 0.000432 0.002725 -0.001407 0.000000 0.025122 0.000000
# 6 0.000000 0.000000 0.000000 0.003775 0.000000 0.041039
#
#
# Mechanical properties :
#
#
# Convention : Reuss Voigt Hill
#
# Bulk Modulus (GPa) = 42.37813 51.01536 46.69674
# Shear Modulus (GPa) = 25.34227 28.42274 26.88250
#
# Velocity S-wave (km/s) = 3.48584 3.69162 3.59021
# Velocity P-wave (km/s) = 6.04325 6.52928 6.29096
#
# Compressibility (1/GPa) = 0.02359708
#
# Stress axis : x y z
#
# Youngs Moduli (GPa) = 82.45252 40.02966 79.39965
#
# Poissons Ratio (x) = 0.28528 0.28994
# Poissons Ratio (y) = 0.58761 0.18065
# Poissons Ratio (z) = 0.30109 0.09108
#
# Static dielectric constant tensor:
#      x y z
#    x 4.034820 0.000000 0.036800 
#    y 0.000000 3.607960 0.000000 
#    z 0.036800 0.000000 3.711500 
# 
# 
# High freq. dielectric constant tensor:
#      x y z
#    x 1.835700 0.000000 -0.001390 
#    y 0.000000 1.798860 0.000000 
#    z -0.001390 0.000000 1.816690 
# 
# From -- ./inp_files/94982.got.cif
#   From: 2010.06.25/outbox.cif.g09.slc.cpg/sg10_48_cif.got.tgz:94982.got - 2010.06.27 22:07:45.
