data_PCOD8065629
_publ_section_title
;
Structure prediction by ZEFSAII (Michael W. Deem and Ramdas Pophale) SiO2 
 PCOD8065629
Probable space group: P 2/M
;
_chemical_formula_sum "Si O2"
_cell_formula_units_Z 32
_cell_length_a 11.471112
_cell_length_b 14.124703
_cell_length_c 16.215678
_cell_angle_alpha 90.000000
_cell_angle_beta 35.763030
_cell_angle_gamma 90.000000
_cell_volume 1535.520399
_symmetry_space_group_name_H-M "P 2/M"
_symmetry_group_IT_number 10
_symmetry_cell_setting 'monoclinic'
loop_
_space_group_symop_operation_xyz
x,y,z
-x,y,-z
-x,-y,-z
x,-y,z
loop_
_atom_site_type_symbol
_atom_site_label
_atom_site_fract_x
_atom_site_fract_y
_atom_site_fract_z
Si Si1 0.028924 0.391542 0.670129
Si Si2 0.017275 0.220108 0.783316
Si Si3 0.433348 0.799120 0.950254
Si Si4 0.551732 0.110705 0.223489
Si Si5 0.348690 0.889424 0.514196
Si Si6 0.196251 0.740846 0.848598
Si Si7 0.568273 0.606683 0.647896
Si Si8 0.629872 0.393541 0.803585
O O1 0.035264 0.500000 0.694819
O O2 0.986514 0.328992 0.774540
O O3 0.241736 0.358064 0.512587
O O4 0.855102 0.373929 0.703383
O O5 0.134118 0.160597 0.646778
O O6 0.153297 0.214699 0.785266
O O7 0.799846 0.177612 0.924058
O O8 0.542692 0.851893 0.809620
O O9 0.480081 0.686163 0.924442
O O10 0.500000 0.842360 0.000000
O O11 0.419474 0.135077 0.380286
O O12 0.752886 0.171629 0.119864
O O13 0.599670 0.000000 0.190106
O O14 0.500000 0.855093 0.500000
O O15 0.313410 0.000000 0.544082
O O16 0.375985 0.667878 0.737488
O O17 0.000000 0.690209 0.000000
O O18 0.512745 0.500000 0.655495
O O19 0.632712 0.614872 0.704647
O O20 0.559118 0.500000 0.871407
#
# Coordination Sequence:
#
# PCOD8065629 Si02
#       8
#     4   4   4   4   4   4   4   4
#     4  10  22  38  61  95 130 171 220 266 321 381
#     4  12  24  38  65  99 132 170 213 272 324 390
#     4  12  25  45  65  97 132 173 223 265 328 392
#     4  11  24  44  69  95 130 168 214 274 329 387
#     4  10  22  42  69 100 128 164 217 271 327 388
#     4  12  23  40  62  95 134 172 219 260 327 398
#     4  10  21  38  62  93 130 171 216 270 324 385
#     4  10  20  39  67  93 125 170 223 272 317 379
#
# _framework density 20.839839999999999
#
# number of rings (size 3 to 8) (size 9 to 14) (size 15 to 20)
#    0.000    1.125    5.000    1.125    0.000    4.000 
#    0.000    1.875    0.000    1.500    0.000    0.000 
#    0.000    0.000    0.000    0.000    0.000    0.000 
#
# Total GULP energy -396699.166049 kJ/mol
# GULP energy per Si atom -12396.848939 kJ/mol
# Density = 2.079241 g / cm^3
# Si number density = 20.839840 Si / 1000 Ang^3
#
#
#
# Elastic Constant Matrix: (Units=GPa)
#
#
# Indices 1 2 3 4 5 6 
#
# 1 118.8061 32.0391 39.9593 0.0000 13.9674 0.0000
# 2 32.0391 67.5580 38.4003 0.0000 -4.3117 0.0000
# 3 39.9593 38.4003 110.8967 0.0000 -3.7859 0.0000
# 4 0.0000 0.0000 0.0000 41.6096 0.0000 36.7522
# 5 13.9674 -4.3117 -3.7859 0.0000 37.2332 0.0000
# 6 0.0000 0.0000 0.0000 36.7522 0.0000 94.3719
#
#
#
# Elastic Compliance Matrix: (Units=1/GPa)
#
#
# Indices 1 2 3 4 5 6 
#
# 1 0.010980 -0.003952 -0.002754 0.000000 -0.004857 0.000000
# 2 -0.003952 0.019935 -0.005368 0.000000 0.003245 0.000000
# 3 -0.002754 -0.005368 0.011924 0.000000 0.001624 0.000000
# 4 0.000000 0.000000 0.000000 0.036634 0.000000 -0.014267
# 5 -0.004857 0.003245 0.001624 0.000000 0.029221 0.000000
# 6 0.000000 0.000000 0.000000 -0.014267 0.000000 0.016152
#
#
# Mechanical properties :
#
#
# Convention : Reuss Voigt Hill
#
# Bulk Modulus (GPa) = 53.50143 57.56204 55.53174
# Shear Modulus (GPa) = 32.21162 47.10040 39.65601
#
# Velocity S-wave (km/s) = 3.93577 4.75922 4.36695
# Velocity P-wave (km/s) = 6.81044 7.60798 7.22023
#
# Compressibility (1/GPa) = 0.01869109
#
# Stress axis : x y z
#
# Youngs Moduli (GPa) = 91.07484 50.16403 83.86532
#
# Poissons Ratio (x) = 0.19824 0.23095
# Poissons Ratio (y) = 0.35992 0.45019
# Poissons Ratio (z) = 0.25080 0.26928
#
# Static dielectric constant tensor:
#      x y z
#    x 3.838350 0.000000 0.093760 
#    y 0.000000 3.824800 0.000000 
#    z 0.093760 0.000000 3.769980 
# 
# 
# High freq. dielectric constant tensor:
#      x y z
#    x 1.817800 0.000000 0.011560 
#    y 0.000000 1.809600 0.000000 
#    z 0.011560 0.000000 1.818780 
# 
# From -- ./inp_files/54037.got.cif
#   From: 2010.06.25/outbox.cif.g09.slc.cpg/sg10_28_cif.got.tgz:54037.got - 2010.06.27 22:07:45.
