data_PCOD8065771
_publ_section_title
;
Structure prediction by ZEFSAII (Michael W. Deem and Ramdas Pophale) SiO2 
 PCOD8065771
Probable space group: P 2/M
;
_chemical_formula_sum "Si O2"
_cell_formula_units_Z 24
_cell_length_a 9.679826
_cell_length_b 7.694984
_cell_length_c 23.370270
_cell_angle_alpha 90.000000
_cell_angle_beta 133.456735
_cell_angle_gamma 90.000000
_cell_volume 1263.607456
_symmetry_space_group_name_H-M "P 2/M"
_symmetry_group_IT_number 10
_symmetry_cell_setting 'monoclinic'
loop_
_space_group_symop_operation_xyz
x,y,z
-x,y,-z
-x,-y,-z
x,-y,z
loop_
_atom_site_type_symbol
_atom_site_label
_atom_site_fract_x
_atom_site_fract_y
_atom_site_fract_z
Si Si1 0.929468 0.197773 0.777826
Si Si2 0.605599 0.803634 0.194719
Si Si3 0.036618 0.201553 0.339244
Si Si4 0.438469 0.793680 0.263657
Si Si5 0.894895 0.500000 0.558435
Si Si6 0.344698 0.305037 0.913868
Si Si7 0.299564 0.500000 0.613860
O O1 0.912907 0.278332 0.709500
O O2 0.770962 0.271209 0.776135
O O3 0.141506 0.212796 0.863295
O O4 0.880577 0.000000 0.754560
O O5 0.451857 0.752933 0.199427
O O6 0.581055 0.691117 0.130494
O O7 0.810300 0.779134 0.282532
O O8 0.580551 0.000000 0.166302
O O9 0.139311 0.325298 0.414199
O O10 0.099168 0.000000 0.366266
O O11 0.589086 0.677547 0.340703
O O12 0.478340 0.000000 0.285797
O O13 0.737476 0.500000 0.464385
O O14 0.105542 0.500000 0.593466
O O15 0.312887 0.500000 0.925961
O O16 0.500000 0.214700 0.000000
#
# Coordination Sequence:
#
# PCOD8065771 Si02
#       7
#     4   4   4   4   2   4   2
#     4   9  20  36  57  80 106 144 185 224 270 320
#     4   9  18  33  56  78 102 146 187 220 269 317
#     4   9  18  34  55  80 106 142 187 229 267 316
#     4  10  21  38  56  82 111 142 187 227 268 327
#     4  11  22  35  55  85 110 141 188 222 276 334
#     4  10  21  34  53  85 115 141 177 224 272 317
#     4  11  24  35  55  85 110 148 178 224 288 319
#
# _framework density 18.99324
#
# number of rings (size 3 to 8) (size 9 to 14) (size 15 to 20)
#    0.000    2.333    1.667    1.500    7.000    2.000 
#    0.000    4.167    0.000    8.000    0.000    0.000 
#    0.000    0.000    0.000    0.000    0.000    0.000 
#
# Total GULP energy -297437.730687 kJ/mol
# GULP energy per Si atom -12393.238779 kJ/mol
# Density = 1.895001 g / cm^3
# Si number density = 18.993240 Si / 1000 Ang^3
#
#
#
# Elastic Constant Matrix: (Units=GPa)
#
#
# Indices 1 2 3 4 5 6 
#
# 1 137.7847 21.2727 46.1473 0.0000 -3.8605 0.0000
# 2 21.2727 66.8955 35.4912 0.0000 -5.7530 0.0000
# 3 46.1473 35.4912 111.1487 0.0000 -7.1873 0.0000
# 4 0.0000 0.0000 0.0000 18.8814 0.0000 -6.0713
# 5 -3.8605 -5.7530 -7.1873 0.0000 17.0818 0.0000
# 6 0.0000 0.0000 0.0000 -6.0713 0.0000 16.8342
#
#
#
# Elastic Compliance Matrix: (Units=1/GPa)
#
#
# Indices 1 2 3 4 5 6 
#
# 1 0.008486 -0.000983 -0.003194 0.000000 0.000243 0.000000
# 2 -0.000983 0.018348 -0.005207 0.000000 0.003766 0.000000
# 3 -0.003194 -0.005207 0.012156 0.000000 0.002639 0.000000
# 4 0.000000 0.000000 0.000000 0.059910 0.000000 0.021606
# 5 0.000243 0.003766 0.002639 0.000000 0.060976 0.000000
# 6 0.000000 0.000000 0.000000 0.021606 0.000000 0.067195
#
#
# Mechanical properties :
#
#
# Convention : Reuss Voigt Hill
#
# Bulk Modulus (GPa) = 49.45004 57.96124 53.70564
# Shear Modulus (GPa) = 19.79582 24.75400 22.27491
#
# Velocity S-wave (km/s) = 3.23190 3.61405 3.42830
# Velocity P-wave (km/s) = 6.32606 6.92807 6.63390
#
# Compressibility (1/GPa) = 0.02022243
#
# Stress axis : x y z
#
# Youngs Moduli (GPa) = 117.84240 54.50252 82.26276
#
# Poissons Ratio (x) = 0.05359 0.26271
# Poissons Ratio (y) = 0.11587 0.42833
# Poissons Ratio (z) = 0.37633 0.28379
#
# Static dielectric constant tensor:
#      x y z
#    x 3.869550 0.000000 -0.096760 
#    y 0.000000 3.436550 0.000000 
#    z -0.096760 0.000000 3.305660 
# 
# 
# High freq. dielectric constant tensor:
#      x y z
#    x 1.739790 0.000000 -0.015380 
#    y 0.000000 1.741450 0.000000 
#    z -0.015380 0.000000 1.708830 
# 
# From -- ./inp_files/33802.got.cif
#   From: 2010.06.25/outbox.cif.g09.slc.cpg/sg10_17_cif.got.tgz:33802.got - 2010.06.27 22:07:45.
