data_PCOD8065888
_publ_section_title
;
Structure prediction by ZEFSAII (Michael W. Deem and Ramdas Pophale) SiO2 
 PCOD8065888
Probable space group: P 2/M
;
_chemical_formula_sum "Si O2"
_cell_formula_units_Z 24
_cell_length_a 19.220902
_cell_length_b 8.021360
_cell_length_c 27.617120
_cell_angle_alpha 90.000000
_cell_angle_beta 15.805855
_cell_angle_gamma 90.000000
_cell_volume 1159.773285
_symmetry_space_group_name_H-M "P 2/M"
_symmetry_group_IT_number 10
_symmetry_cell_setting 'monoclinic'
loop_
_space_group_symop_operation_xyz
x,y,z
-x,y,-z
-x,-y,-z
x,-y,z
loop_
_atom_site_type_symbol
_atom_site_label
_atom_site_fract_x
_atom_site_fract_y
_atom_site_fract_z
Si Si1 0.945988 0.806623 0.983736
Si Si2 0.247515 0.310724 0.693107
Si Si3 0.793959 0.500000 0.785599
Si Si4 0.214697 0.811555 0.052754
Si Si5 0.077171 0.500000 0.503687
Si Si6 0.764427 0.180556 0.850831
Si Si7 0.554787 0.805029 0.737206
O O1 0.174735 0.775604 0.792606
O O2 0.920080 0.000000 0.009637
O O3 0.676604 0.745040 0.142465
O O4 0.000000 0.720331 0.000000
O O5 0.500000 0.226955 0.500000
O O6 0.310186 0.500000 0.664106
O O7 0.017228 0.304620 0.808774
O O8 0.927106 0.332356 0.718519
O O9 0.826592 0.500000 0.705847
O O10 0.500000 0.500000 0.000000
O O11 0.292933 0.773790 0.055192
O O12 0.116924 0.000000 0.110570
O O13 0.466401 0.782886 0.852005
O O14 0.221678 0.671772 0.420521
O O15 0.000000 0.500000 0.500000
O O16 0.907533 0.000000 0.751003
O O17 0.500000 0.165871 0.000000
O O18 0.638085 0.000000 0.672073
#
# Coordination Sequence:
#
# PCOD8065888 Si02
#       7
#     4   4   2   4   2   4   4
#     4   9  19  39  64  86 114 160 204 249 310 364
#     4  10  21  35  53  88 124 156 196 245 296 354
#     4  10  24  42  60  87 116 156 199 247 296 358
#     4   9  19  36  62  89 112 159 204 243 305 357
#     4  12  28  42  63  95 120 165 211 244 311 365
#     4   9  19  36  60  86 116 152 197 243 296 355
#     4   9  21  41  64  92 124 155 206 260 302 364
#
# _framework density 20.693701000000001
#
# number of rings (size 3 to 8) (size 9 to 14) (size 15 to 20)
#    0.000    2.500    0.000    1.500   10.500    2.667 
#    3.000    0.000    0.000    0.000    0.000    0.000 
#    0.000    0.000    0.000    0.000    0.000    0.000 
#
# Total GULP energy -297363.870230 kJ/mol
# GULP energy per Si atom -12390.161260 kJ/mol
# Density = 2.064660 g / cm^3
# Si number density = 20.693701 Si / 1000 Ang^3
#
#
#
# Elastic Constant Matrix: (Units=GPa)
#
#
# Indices 1 2 3 4 5 6 
#
# 1 151.3104 25.4236 48.4739 0.0000 32.6189 0.0000
# 2 25.4236 103.9201 27.9739 0.0000 7.4241 0.0000
# 3 48.4739 27.9739 103.2884 0.0000 16.6979 0.0000
# 4 0.0000 0.0000 0.0000 17.2205 0.0000 5.9521
# 5 32.6189 7.4241 16.6979 0.0000 28.0851 0.0000
# 6 0.0000 0.0000 0.0000 5.9521 0.0000 37.0735
#
#
#
# Elastic Compliance Matrix: (Units=1/GPa)
#
#
# Indices 1 2 3 4 5 6 
#
# 1 0.009668 -0.000953 -0.002771 0.000000 -0.009329 0.000000
# 2 -0.000953 0.010509 -0.002355 0.000000 -0.000271 0.000000
# 3 -0.002771 -0.002355 0.012169 0.000000 -0.003394 0.000000
# 4 0.000000 0.000000 0.000000 0.061482 0.000000 -0.009871
# 5 -0.009329 -0.000271 -0.003394 0.000000 0.048531 0.000000
# 6 0.000000 0.000000 0.000000 -0.009871 0.000000 0.028558
#
#
# Mechanical properties :
#
#
# Convention : Reuss Voigt Hill
#
# Bulk Modulus (GPa) = 49.53512 62.47352 56.00432
# Shear Modulus (GPa) = 26.34292 33.58564 29.96428
#
# Velocity S-wave (km/s) = 3.57177 4.03300 3.80938
# Velocity P-wave (km/s) = 6.40307 7.20708 6.81694
#
# Compressibility (1/GPa) = 0.02018770
#
# Stress axis : x y z
#
# Youngs Moduli (GPa) = 103.43513 95.15422 82.17865
#
# Poissons Ratio (x) = 0.09066 0.22771
# Poissons Ratio (y) = 0.09855 0.19355
# Poissons Ratio (z) = 0.28661 0.22411
#
# Static dielectric constant tensor:
#      x y z
#    x 4.016960 0.000000 0.253770 
#    y 0.000000 4.865240 0.000000 
#    z 0.253770 0.000000 3.461230 
# 
# 
# High freq. dielectric constant tensor:
#      x y z
#    x 1.810410 0.000000 0.020710 
#    y 0.000000 1.822470 0.000000 
#    z 0.020710 0.000000 1.775750 
# 
# From -- ./inp_files/90027.got.cif
#   From: 2010.06.25/outbox.cif.g09.slc.cpg/sg10_46_cif.got.tgz:90027.got - 2010.06.27 22:07:45.
