data_PCOD8065084
_publ_section_title
;
Structure prediction by ZEFSAII (Michael W. Deem and Ramdas Pophale) SiO2 
 PCOD8065084
Probable space group: P 2/M
;
_chemical_formula_sum "Si O2"
_cell_formula_units_Z 32
_cell_length_a 12.273500
_cell_length_b 19.858216
_cell_length_c 9.242619
_cell_angle_alpha 90.000000
_cell_angle_beta 131.896925
_cell_angle_gamma 90.000000
_cell_volume 1676.792706
_symmetry_space_group_name_H-M "P 2/M"
_symmetry_group_IT_number 10
_symmetry_cell_setting 'monoclinic'
loop_
_space_group_symop_operation_xyz
x,y,z
-x,y,-z
-x,-y,-z
x,-y,z
loop_
_atom_site_type_symbol
_atom_site_label
_atom_site_fract_x
_atom_site_fract_y
_atom_site_fract_z
Si Si1 0.175626 0.822068 0.474709
Si Si2 0.163184 0.180935 0.805494
Si Si3 0.188705 0.312594 0.332083
Si Si4 0.350312 0.421835 0.667256
Si Si5 0.679593 0.577303 0.030327
Si Si6 0.396754 0.925817 0.531067
Si Si7 0.606538 0.926509 0.976831
Si Si8 0.842437 0.310976 0.022703
O O1 0.197440 0.817138 0.665600
O O2 0.237757 0.753121 0.463576
O O3 0.261186 0.881395 0.468178
O O4 0.003382 0.833394 0.295881
O O5 0.257321 0.119286 0.949355
O O6 0.214799 0.249973 0.927253
O O7 0.267632 0.377051 0.473869
O O8 0.015317 0.317544 0.181740
O O9 0.229899 0.303478 0.200098
O O10 0.333559 0.500000 0.606117
O O11 0.519405 0.400831 0.833086
O O12 0.285953 0.409860 0.770084
O O13 0.703715 0.500000 0.014644
O O14 0.795889 0.618168 0.044156
O O15 0.500000 0.891133 0.500000
O O16 0.336839 0.000000 0.427141
O O17 0.509260 0.939567 0.754970
O O18 0.663043 0.000000 0.084747
O O19 0.500000 0.891029 0.000000
#
# Coordination Sequence:
#
# PCOD8065084 Si02
#       8
#     4   4   4   4   4   4   4   4
#     4  10  21  38  58  82 114 149 191 237 281 336
#     4  10  21  37  59  84 111 149 192 237 284 332
#     4  10  22  38  55  80 114 151 187 229 281 336
#     4   9  19  37  59  83 112 145 185 232 281 334
#     4   9  19  37  59  83 111 144 185 233 280 331
#     4  10  22  39  58  83 116 150 185 230 284 343
#     4  10  20  37  58  84 115 145 185 234 283 336
#     4  10  22  38  55  80 115 149 187 233 279 333
#
# _framework density 19.084052
#
# number of rings (size 3 to 8) (size 9 to 14) (size 15 to 20)
#    0.000    2.250    1.250    1.500    1.750    4.500 
#    2.250    5.000    0.000    2.250    0.000    0.000 
#    0.000    0.000    0.000    0.000    0.000    0.000 
#
# Total GULP energy -396539.771788 kJ/mol
# GULP energy per Si atom -12391.867868 kJ/mol
# Density = 1.904062 g / cm^3
# Si number density = 19.084052 Si / 1000 Ang^3
#
#
#
# Elastic Constant Matrix: (Units=GPa)
#
#
# Indices 1 2 3 4 5 6 
#
# 1 97.3664 55.6345 26.2478 0.0000 -19.0765 0.0000
# 2 55.6345 105.9803 38.0201 0.0000 4.1914 0.0000
# 3 26.2478 38.0201 60.8001 0.0000 0.8208 0.0000
# 4 0.0000 0.0000 0.0000 32.0250 0.0000 6.9139
# 5 -19.0765 4.1914 0.8208 0.0000 16.9706 0.0000
# 6 0.0000 0.0000 0.0000 6.9139 0.0000 37.4211
#
#
#
# Elastic Compliance Matrix: (Units=1/GPa)
#
#
# Indices 1 2 3 4 5 6 
#
# 1 0.024632 -0.013142 -0.002835 0.000000 0.031071 0.000000
# 2 -0.013142 0.019296 -0.006133 0.000000 -0.019242 0.000000
# 3 -0.002835 -0.006133 0.021543 0.000000 -0.002714 0.000000
# 4 0.000000 0.000000 0.000000 0.032523 0.000000 -0.006009
# 5 0.031071 -0.019242 -0.002714 0.000000 0.098736 0.000000
# 6 0.000000 0.000000 0.000000 -0.006009 0.000000 0.027833
#
#
# Mechanical properties :
#
#
# Convention : Reuss Voigt Hill
#
# Bulk Modulus (GPa) = 47.05796 55.99463 51.52629
# Shear Modulus (GPa) = 18.12468 26.89962 22.51215
#
# Velocity S-wave (km/s) = 3.08511 3.75845 3.43830
# Velocity P-wave (km/s) = 6.11574 6.94545 6.54376
#
# Compressibility (1/GPa) = 0.02125039
#
# Stress axis : x y z
#
# Youngs Moduli (GPa) = 40.59786 51.82413 46.41899
#
# Poissons Ratio (x) = 0.68109 0.13159
# Poissons Ratio (y) = 0.53355 0.28469
# Poissons Ratio (z) = 0.11509 0.31784
#
# Static dielectric constant tensor:
#      x y z
#    x 3.397130 0.000000 -0.111010 
#    y 0.000000 3.507190 0.000000 
#    z -0.111010 0.000000 3.472530 
# 
# 
# High freq. dielectric constant tensor:
#      x y z
#    x 1.741750 0.000000 -0.010160 
#    y 0.000000 1.744550 0.000000 
#    z -0.010160 0.000000 1.738870 
# 
# From -- ./inp_files/26078.got.cif
#   From: 2010.06.25/outbox.cif.g09.slc.cpg/sg10_14_cif.got.tgz:26078.got - 2010.06.27 22:07:45.
