data_PCOD8065619
_publ_section_title
;
Structure prediction by ZEFSAII (Michael W. Deem and Ramdas Pophale) SiO2 
 PCOD8065619
Probable space group: P 2/M
;
_chemical_formula_sum "Si O2"
_cell_formula_units_Z 24
_cell_length_a 13.559389
_cell_length_b 8.832680
_cell_length_c 16.806096
_cell_angle_alpha 90.000000
_cell_angle_beta 143.643775
_cell_angle_gamma 90.000000
_cell_volume 1193.192203
_symmetry_space_group_name_H-M "P 2/M"
_symmetry_group_IT_number 10
_symmetry_cell_setting 'monoclinic'
loop_
_space_group_symop_operation_xyz
x,y,z
-x,y,-z
-x,-y,-z
x,-y,z
loop_
_atom_site_type_symbol
_atom_site_label
_atom_site_fract_x
_atom_site_fract_y
_atom_site_fract_z
Si Si1 0.865625 0.324362 0.784584
Si Si2 0.762609 0.324788 0.539678
Si Si3 0.960287 0.177072 0.384633
Si Si4 0.687676 0.678729 0.107975
Si Si5 0.607405 0.323059 0.751595
Si Si6 0.209624 0.821949 0.989783
O O1 0.912877 0.500000 0.824426
O O2 0.784784 0.290533 0.646925
O O3 0.732756 0.273007 0.763736
O O4 0.031037 0.228076 0.907251
O O5 0.801048 0.500000 0.545493
O O6 0.885804 0.219561 0.570833
O O7 0.576655 0.279487 0.395404
O O8 0.000000 0.225366 0.500000
O O9 0.795058 0.267444 0.252802
O O10 0.924320 0.000000 0.353294
O O11 0.698695 0.500000 0.106612
O O12 0.764517 0.750028 0.079289
O O13 0.500000 0.734161 0.000000
O O14 0.623205 0.500000 0.780207
O O15 0.646347 0.232561 0.857247
O O16 0.217403 0.000000 0.985993
#
# Coordination Sequence:
#
# PCOD8065619 Si02
#       6
#     4   4   4   4   4   4
#     4  10  20  39  65  91 123 164 211 261 307 359
#     4  10  21  39  65  93 123 162 210 258 305 359
#     4  11  25  43  64  94 130 164 198 244 310 376
#     4  11  25  45  69  94 119 157 210 259 306 364
#     4  10  22  39  62  93 126 165 213 259 303 358
#     4  12  25  40  61  91 129 167 204 252 314 372
#
# _framework density 20.11411
#
# number of rings (size 3 to 8) (size 9 to 14) (size 15 to 20)
#    0.000    1.333    1.667    3.500    2.333    8.000 
#    0.000    0.000    0.000    3.000    0.000    0.000 
#    0.000    0.000    0.000    0.000    0.000    0.000 
#
# Total GULP energy -297778.383507 kJ/mol
# GULP energy per Si atom -12407.432646 kJ/mol
# Density = 2.006833 g / cm^3
# Si number density = 20.114110 Si / 1000 Ang^3
#
#
#
# Elastic Constant Matrix: (Units=GPa)
#
#
# Indices 1 2 3 4 5 6 
#
# 1 79.0870 29.0797 38.5432 0.0000 3.6059 0.0000
# 2 29.0797 68.8942 39.2513 0.0000 1.2759 0.0000
# 3 38.5432 39.2513 134.9833 0.0000 4.0276 0.0000
# 4 0.0000 0.0000 0.0000 18.2967 0.0000 -7.8603
# 5 3.6059 1.2759 4.0276 0.0000 41.0506 0.0000
# 6 0.0000 0.0000 0.0000 -7.8603 0.0000 8.6843
#
#
#
# Elastic Compliance Matrix: (Units=1/GPa)
#
#
# Indices 1 2 3 4 5 6 
#
# 1 0.016030 -0.004982 -0.003100 0.000000 -0.000949 0.000000
# 2 -0.004982 0.018946 -0.004094 0.000000 0.000250 0.000000
# 3 -0.003100 -0.004094 0.009500 0.000000 -0.000532 0.000000
# 4 0.000000 0.000000 0.000000 0.089427 0.000000 0.080942
# 5 -0.000949 0.000250 -0.000532 0.000000 0.024488 0.000000
# 6 0.000000 0.000000 0.000000 0.080942 0.000000 0.188411
#
#
# Mechanical properties :
#
#
# Convention : Reuss Voigt Hill
#
# Bulk Modulus (GPa) = 49.69441 55.19033 52.44237
# Shear Modulus (GPa) = 13.23229 25.34568 19.28899
#
# Velocity S-wave (km/s) = 2.56766 3.55363 3.10010
# Velocity P-wave (km/s) = 5.79227 6.65852 6.24045
#
# Compressibility (1/GPa) = 0.02012299
#
# Stress axis : x y z
#
# Youngs Moduli (GPa) = 62.38117 52.78179 105.26399
#
# Poissons Ratio (x) = 0.26298 0.32634
# Poissons Ratio (y) = 0.31081 0.43095
# Poissons Ratio (z) = 0.19339 0.21609
#
# Static dielectric constant tensor:
#      x y z
#    x 3.723940 0.000000 -0.029930 
#    y 0.000000 3.547430 0.000000 
#    z -0.029930 0.000000 3.950340 
# 
# 
# High freq. dielectric constant tensor:
#      x y z
#    x 1.792450 0.000000 -0.002240 
#    y 0.000000 1.777680 0.000000 
#    z -0.002240 0.000000 1.805460 
# 
# From -- ./inp_files/77864.got.cif
#   From: 2010.06.25/outbox.cif.g09.slc.cpg/sg10_39_cif.got.tgz:77864.got - 2010.06.27 22:07:45.
