data_PCOD8065109
_publ_section_title
;
Structure prediction by ZEFSAII (Michael W. Deem and Ramdas Pophale) SiO2 
 PCOD8065109
Probable space group: P 2/M
;
_chemical_formula_sum "Si O2"
_cell_formula_units_Z 32
_cell_length_a 21.087597
_cell_length_b 9.100202
_cell_length_c 26.891254
_cell_angle_alpha 90.000000
_cell_angle_beta 18.785645
_cell_angle_gamma 90.000000
_cell_volume 1661.818169
_symmetry_space_group_name_H-M "P 2/M"
_symmetry_group_IT_number 10
_symmetry_cell_setting 'monoclinic'
loop_
_space_group_symop_operation_xyz
x,y,z
-x,y,-z
-x,-y,-z
x,-y,z
loop_
_atom_site_type_symbol
_atom_site_label
_atom_site_fract_x
_atom_site_fract_y
_atom_site_fract_z
Si Si1 0.694460 0.326368 0.385548
Si Si2 0.190883 0.167178 0.881716
Si Si3 0.384849 0.175304 0.455064
Si Si4 0.180419 0.330027 0.238023
Si Si5 0.225429 0.174112 0.467426
Si Si6 0.489202 0.330186 0.927434
Si Si7 0.925238 0.833253 0.921772
Si Si8 0.541390 0.826042 0.152799
O O1 0.500000 0.274252 0.500000
O O2 0.695839 0.500000 0.390946
O O3 0.716004 0.250688 0.423102
O O4 0.887895 0.273780 0.212609
O O5 0.392011 0.238059 0.712395
O O6 0.189139 0.000000 0.863790
O O7 0.193352 0.174203 0.938948
O O8 0.000000 0.249143 0.000000
O O9 0.276296 0.226574 0.485479
O O10 0.377127 0.000000 0.466257
O O11 0.121514 0.500000 0.277822
O O12 0.316291 0.302030 0.184822
O O13 0.986951 0.234616 0.389370
O O14 0.297468 0.281410 0.101369
O O15 0.387283 0.235206 0.308215
O O16 0.219866 0.000000 0.469077
O O17 0.470755 0.500000 0.926464
O O18 0.510839 0.236150 0.861976
O O19 0.997469 0.000000 0.857585
O O20 0.766131 0.779876 0.999155
O O21 0.525914 0.000000 0.162617
#
# Coordination Sequence:
#
# PCOD8065109 Si02
#       8
#     4   4   4   4   4   4   4   4
#     4  11  25  41  55  79 116 151 186 233 285 334
#     4   9  16  30  57  85 106 137 184 232 273 319
#     4  10  20  37  59  84 112 145 187 231 277 333
#     4   9  20  39  60  83 113 150 192 232 271 325
#     4  10  21  37  57  85 119 148 181 231 284 333
#     4   9  20  39  60  83 113 150 192 232 271 325
#     4  10  20  37  59  84 112 145 187 231 277 333
#     4  10  21  37  57  85 119 148 181 231 284 333
#
# _framework density 19.256017
#
# number of rings (size 3 to 8) (size 9 to 14) (size 15 to 20)
#    0.000    2.250    1.250    1.875    1.750    5.000 
#    0.000    4.375    0.000    2.250    0.000    0.000 
#    0.000    0.000    0.000    0.000    0.000    0.000 
#
# Total GULP energy -396780.564794 kJ/mol
# GULP energy per Si atom -12399.392650 kJ/mol
# Density = 1.921219 g / cm^3
# Si number density = 19.256017 Si / 1000 Ang^3
#
#
#
# Elastic Constant Matrix: (Units=GPa)
#
#
# Indices 1 2 3 4 5 6 
#
# 1 92.4904 24.9172 25.8828 0.0000 -0.1971 0.0000
# 2 24.9172 30.4076 26.7204 0.0000 -3.1322 0.0000
# 3 25.8828 26.7204 96.1264 0.0000 -11.1153 0.0000
# 4 0.0000 0.0000 0.0000 24.3256 0.0000 -4.8123
# 5 -0.1971 -3.1322 -11.1153 0.0000 28.0943 0.0000
# 6 0.0000 0.0000 0.0000 -4.8123 0.0000 20.6139
#
#
#
# Elastic Compliance Matrix: (Units=1/GPa)
#
#
# Indices 1 2 3 4 5 6 
#
# 1 0.013975 -0.010781 -0.000937 0.000000 -0.001474 0.000000
# 2 -0.010781 0.051832 -0.011366 0.000000 0.001206 0.000000
# 3 -0.000937 -0.011366 0.014322 0.000000 0.004393 0.000000
# 4 0.000000 0.000000 0.000000 0.043099 0.000000 0.010061
# 5 -0.001474 0.001206 0.004393 0.000000 0.037457 0.000000
# 6 0.000000 0.000000 0.000000 0.010061 0.000000 0.050860
#
#
# Mechanical properties :
#
#
# Convention : Reuss Voigt Hill
#
# Bulk Modulus (GPa) = 29.44289 41.56280 35.50284
# Shear Modulus (GPa) = 18.58508 24.04037 21.31273
#
# Velocity S-wave (km/s) = 3.11007 3.53719 3.33048
# Velocity P-wave (km/s) = 5.31226 6.18979 5.76774
#
# Compressibility (1/GPa) = 0.03396406
#
# Stress axis : x y z
#
# Youngs Moduli (GPa) = 71.55503 19.29299 69.82036
#
# Poissons Ratio (x) = 0.20799 0.06540
# Poissons Ratio (y) = 0.77141 0.79355
# Poissons Ratio (z) = 0.06703 0.21928
#
# Static dielectric constant tensor:
#      x y z
#    x 3.577260 0.000000 -0.072450 
#    y 0.000000 3.180210 0.000000 
#    z -0.072450 0.000000 3.598900 
# 
# 
# High freq. dielectric constant tensor:
#      x y z
#    x 1.758290 0.000000 -0.003130 
#    y 0.000000 1.717500 0.000000 
#    z -0.003130 0.000000 1.760060 
# 
# From -- ./inp_files/93563.got.cif
#   From: 2010.06.25/outbox.cif.g09.slc.cpg/sg10_47_cif.got.tgz:93563.got - 2010.06.27 22:07:45.
