data_PCOD8065587
_publ_section_title
;
Structure prediction by ZEFSAII (Michael W. Deem and Ramdas Pophale) SiO2 
 PCOD8065587
Probable space group: P 2/M
;
_chemical_formula_sum "Si O2"
_cell_formula_units_Z 32
_cell_length_a 10.629461
_cell_length_b 17.757381
_cell_length_c 13.386156
_cell_angle_alpha 90.000000
_cell_angle_beta 36.898358
_cell_angle_gamma 90.000000
_cell_volume 1516.997181
_symmetry_space_group_name_H-M "P 2/M"
_symmetry_group_IT_number 10
_symmetry_cell_setting 'monoclinic'
loop_
_space_group_symop_operation_xyz
x,y,z
-x,y,-z
-x,-y,-z
x,-y,z
loop_
_atom_site_type_symbol
_atom_site_label
_atom_site_fract_x
_atom_site_fract_y
_atom_site_fract_z
Si Si1 0.291726 0.583532 0.192327
Si Si2 0.805065 0.156245 0.191245
Si Si3 0.805802 0.331079 0.183799
Si Si4 0.061374 0.088445 0.698628
Si Si5 0.109399 0.587352 0.668279
Si Si6 0.601215 0.082785 0.040683
Si Si7 0.625585 0.837708 0.644579
Si Si8 0.615867 0.663434 0.663509
O O1 0.221971 0.500000 0.276085
O O2 0.337254 0.641500 0.252387
O O3 0.119526 0.615542 0.223148
O O4 0.500000 0.573974 0.000000
O O5 0.833523 0.244181 0.194714
O O6 0.791395 0.110594 0.302700
O O7 0.582127 0.140268 0.284072
O O8 0.000000 0.126754 0.000000
O O9 0.792070 0.372147 0.298221
O O10 0.620431 0.346278 0.223723
O O11 0.000000 0.363873 0.000000
O O12 0.166060 0.122495 0.531642
O O13 0.045735 0.000000 0.691470
O O14 0.830138 0.120670 0.875172
O O15 0.106507 0.500000 0.695931
O O16 0.256488 0.604878 0.482589
O O17 0.437356 0.135258 0.204638
O O18 0.626186 0.000000 0.077141
O O19 0.500000 0.069337 0.000000
O O20 0.682337 0.749825 0.607248
#
# Coordination Sequence:
#
# PCOD8065587 Si02
#       8
#     4   4   4   4   4   4   4   4
#     4  10  22  42  65  90 124 163 205 257 310 363
#     4  10  20  39  62  89 127 162 200 257 318 367
#     4  10  22  39  62  88 123 164 204 255 309 367
#     4  11  23  39  65  94 122 163 208 255 311 371
#     4  11  23  40  62  90 125 162 203 257 309 362
#     4  10  23  44  64  87 124 165 209 259 308 363
#     4  11  23  41  62  92 127 162 205 257 312 369
#     4  11  23  40  61  91 124 164 206 252 311 371
#
# _framework density 21.094304000000001
#
# number of rings (size 3 to 8) (size 9 to 14) (size 15 to 20)
#    0.000    1.500    1.250    3.375    0.000    7.500 
#    9.000    1.875    0.000    0.000    0.000    0.000 
#    0.000    0.000    0.000    0.000    0.000    0.000 
#
# Total GULP energy -396659.116537 kJ/mol
# GULP energy per Si atom -12395.597392 kJ/mol
# Density = 2.104629 g / cm^3
# Si number density = 21.094304 Si / 1000 Ang^3
#
#
#
# Elastic Constant Matrix: (Units=GPa)
#
#
# Indices 1 2 3 4 5 6 
#
# 1 58.0760 30.4898 -7.3826 0.0000 14.3528 0.0000
# 2 30.4898 48.8597 17.4166 0.0000 2.5067 0.0000
# 3 -7.3826 17.4166 89.4703 0.0000 10.8047 0.0000
# 4 0.0000 0.0000 0.0000 30.6616 0.0000 3.4682
# 5 14.3528 2.5067 10.8047 0.0000 28.5089 0.0000
# 6 0.0000 0.0000 0.0000 3.4682 0.0000 33.3805
#
#
#
# Elastic Compliance Matrix: (Units=1/GPa)
#
#
# Indices 1 2 3 4 5 6 
#
# 1 0.037286 -0.025999 0.010614 0.000000 -0.020508 0.000000
# 2 -0.025999 0.040124 -0.011644 0.000000 0.013974 0.000000
# 3 0.010614 -0.011644 0.015553 0.000000 -0.010214 0.000000
# 4 0.000000 0.000000 0.000000 0.033002 0.000000 -0.003429
# 5 -0.020508 0.013974 -0.010214 0.000000 0.048044 0.000000
# 6 0.000000 0.000000 0.000000 -0.003429 0.000000 0.030314
#
#
# Mechanical properties :
#
#
# Convention : Reuss Voigt Hill
#
# Bulk Modulus (GPa) = 25.70246 30.82818 28.26532
# Shear Modulus (GPa) = 18.42654 28.90235 23.66445
#
# Velocity S-wave (km/s) = 2.95876 3.70557 3.35302
# Velocity P-wave (km/s) = 4.88706 5.74060 5.33094
#
# Compressibility (1/GPa) = 0.03890678
#
# Stress axis : x y z
#
# Youngs Moduli (GPa) = 26.81988 24.92259 64.29709
#
# Poissons Ratio (x) = 0.64796 -0.68247
# Poissons Ratio (y) = 0.69728 0.74864
# Poissons Ratio (z) = -0.28467 0.29019
#
# Static dielectric constant tensor:
#      x y z
#    x 3.301210 0.000000 -0.089830 
#    y 0.000000 3.870910 0.000000 
#    z -0.089830 0.000000 3.965190 
# 
# 
# High freq. dielectric constant tensor:
#      x y z
#    x 1.831750 0.000000 -0.004130 
#    y 0.000000 1.819430 0.000000 
#    z -0.004130 0.000000 1.836650 
# 
# From -- ./inp_files/65378.got.cif
#   From: 2010.06.25/outbox.cif.g09.slc.cpg/sg10_33_cif.got.tgz:65378.got - 2010.06.27 22:07:45.
