data_PCOD8065118
_publ_section_title
;
Structure prediction by ZEFSAII (Michael W. Deem and Ramdas Pophale) SiO2 
 PCOD8065118
Probable space group: P 2/M
;
_chemical_formula_sum "Si O2"
_cell_formula_units_Z 28
_cell_length_a 19.569981
_cell_length_b 7.752075
_cell_length_c 14.111872
_cell_angle_alpha 90.000000
_cell_angle_beta 143.657820
_cell_angle_gamma 90.000000
_cell_volume 1268.700999
_symmetry_space_group_name_H-M "P 2/M"
_symmetry_group_IT_number 10
_symmetry_cell_setting 'monoclinic'
loop_
_space_group_symop_operation_xyz
x,y,z
-x,y,-z
-x,-y,-z
x,-y,z
loop_
_atom_site_type_symbol
_atom_site_label
_atom_site_fract_x
_atom_site_fract_y
_atom_site_fract_z
Si Si1 0.534909 0.194014 0.140488
Si Si2 0.379008 0.205997 0.406065
Si Si3 0.043001 0.801962 0.269298
Si Si4 0.294088 0.195410 0.955856
Si Si5 0.300169 0.796450 0.518380
Si Si6 0.793960 0.800844 0.941155
Si Si7 0.963342 0.500000 0.596684
Si Si8 0.810304 0.500000 0.267424
O O1 0.641350 0.280484 0.319263
O O2 0.571510 0.000000 0.153252
O O3 0.500000 0.286134 0.000000
O O4 0.432156 0.194297 0.102687
O O5 0.500000 0.273176 0.500000
O O6 0.360036 0.280277 0.490795
O O7 0.277210 0.281768 0.225048
O O8 0.374776 0.000000 0.404228
O O9 0.164214 0.751623 0.356396
O O10 0.021666 0.677580 0.331951
O O11 0.045397 0.000000 0.307772
O O12 0.931299 0.773261 0.076332
O O13 0.255312 0.323797 0.829788
O O14 0.246061 0.000000 0.885722
O O15 0.250206 0.274034 0.007070
O O16 0.319550 0.000000 0.543091
O O17 0.760993 0.000000 0.908722
O O18 0.835733 0.500000 0.408014
O O19 0.065224 0.500000 0.637738
#
# Coordination Sequence:
#
# PCOD8065118 Si02
#       8
#     4   4   4   4   4   4   2   2
#     4   9  18  32  53  81 115 157 198 239 292 350
#     4   9  16  28  52  87 122 152 195 250 294 345
#     4  10  21  38  60  85 119 159 198 240 295 355
#     4  10  20  37  59  85 118 151 194 245 293 354
#     4   9  18  32  53  85 121 159 200 243 295 352
#     4   9  17  31  54  83 113 153 194 236 295 348
#     4  11  24  40  57  84 121 156 197 250 295 350
#     4  11  24  38  58  88 114 152 206 244 300 356
#
# _framework density 22.069817
#
# number of rings (size 3 to 8) (size 9 to 14) (size 15 to 20)
#    0.000    2.429    1.429    0.857    2.000    4.571 
#    0.000    5.357    0.000    2.571    0.000    3.500 
#    0.000    0.000    0.000    0.000    0.000    0.000 
#
# Total GULP energy -346867.306298 kJ/mol
# GULP energy per Si atom -12388.118082 kJ/mol
# Density = 2.201959 g / cm^3
# Si number density = 22.069817 Si / 1000 Ang^3
#
#
#
# Elastic Constant Matrix: (Units=GPa)
#
#
# Indices 1 2 3 4 5 6 
#
# 1 93.4352 -2.0770 66.1512 0.0000 10.5923 0.0000
# 2 -2.0770 56.1228 22.3102 0.0000 -1.7822 0.0000
# 3 66.1512 22.3102 191.3246 0.0000 -5.3443 0.0000
# 4 0.0000 0.0000 0.0000 12.9698 0.0000 -8.9550
# 5 10.5923 -1.7822 -5.3443 0.0000 35.8087 0.0000
# 6 0.0000 0.0000 0.0000 -8.9550 0.0000 21.9306
#
#
#
# Elastic Compliance Matrix: (Units=1/GPa)
#
#
# Indices 1 2 3 4 5 6 
#
# 1 0.015486 0.002718 -0.005820 0.000000 -0.005314 0.000000
# 2 0.002718 0.019174 -0.003185 0.000000 -0.000325 0.000000
# 3 -0.005820 -0.003185 0.007686 0.000000 0.002710 0.000000
# 4 0.000000 0.000000 0.000000 0.107375 0.000000 0.043845
# 5 -0.005314 -0.000325 0.002710 0.000000 0.029886 0.000000
# 6 0.000000 0.000000 0.000000 0.043845 0.000000 0.063502
#
#
# Mechanical properties :
#
#
# Convention : Reuss Voigt Hill
#
# Bulk Modulus (GPa) = 33.58754 57.07237 45.32995
# Shear Modulus (GPa) = 18.82488 31.10837 24.96663
#
# Velocity S-wave (km/s) = 2.92373 3.75846 3.36706
# Velocity P-wave (km/s) = 5.16231 6.68960 5.97496
#
# Compressibility (1/GPa) = 0.02977295
#
# Stress axis : x y z
#
# Youngs Moduli (GPa) = 64.57600 52.15314 130.10816
#
# Poissons Ratio (x) = -0.14174 0.75717
# Poissons Ratio (y) = -0.17550 0.41435
# Poissons Ratio (z) = 0.37580 0.16609
#
# Static dielectric constant tensor:
#      x y z
#    x 3.972780 0.000000 -0.020810 
#    y 0.000000 3.550420 0.000000 
#    z -0.020810 0.000000 4.374080 
# 
# 
# High freq. dielectric constant tensor:
#      x y z
#    x 1.858900 0.000000 0.008500 
#    y 0.000000 1.824280 0.000000 
#    z 0.008500 0.000000 1.879930 
# 
# From -- ./inp_files/70358.got.cif
#   From: 2010.06.25/outbox.cif.g09.slc.cpg/sg10_36_cif.got.tgz:70358.got - 2010.06.27 22:07:45.
