data_PCOD8065415
_publ_section_title
;
Structure prediction by ZEFSAII (Michael W. Deem and Ramdas Pophale) SiO2 
 PCOD8065415
Probable space group: P 2/M
;
_chemical_formula_sum "Si O2"
_cell_formula_units_Z 16
_cell_length_a 15.986588
_cell_length_b 7.734869
_cell_length_c 20.927614
_cell_angle_alpha 90.000000
_cell_angle_beta 17.777789
_cell_angle_gamma 90.000000
_cell_volume 790.119012
_symmetry_space_group_name_H-M "P 2/M"
_symmetry_group_IT_number 10
_symmetry_cell_setting 'monoclinic'
loop_
_space_group_symop_operation_xyz
x,y,z
-x,y,-z
-x,-y,-z
x,-y,z
loop_
_atom_site_type_symbol
_atom_site_label
_atom_site_fract_x
_atom_site_fract_y
_atom_site_fract_z
Si Si1 0.691663 0.801636 0.414685
Si Si2 0.302770 0.802748 0.959059
Si Si3 0.445239 0.308940 0.348502
Si Si4 0.525768 0.500000 0.876156
Si Si5 0.942810 0.500000 0.678507
O O1 0.500000 0.712249 0.500000
O O2 0.550515 0.782331 0.586034
O O3 0.997964 0.723100 0.190583
O O4 0.728021 0.000000 0.369763
O O5 0.508232 0.673035 0.846015
O O6 0.328877 0.000000 0.966300
O O7 0.378435 0.804293 0.828948
O O8 0.578497 0.500000 0.258242
O O9 0.130647 0.328770 0.552128
O O10 0.293714 0.500000 0.097796
O O11 0.821405 0.500000 0.695338
#
# Coordination Sequence:
#
# PCOD8065415 Si02
#       5
#     4   4   4   2   2
#     4  10  22  40  59  84 120 156 197 247 293 344
#     4  11  22  38  63  88 119 158 195 242 292 348
#     4  10  20  38  60  87 117 155 194 240 292 347
#     4  11  19  43  63  87 121 152 203 238 292 354
#     4   9  21  37  67  83 119 162 181 254 296 334
#
# _framework density 20.250114
#
# number of rings (size 3 to 8) (size 9 to 14) (size 15 to 20)
#    0.750    1.000    3.750    0.750    0.000    3.500 
#    0.000   11.250    0.000    0.000    0.000    0.000 
#    0.000    0.000    0.000    0.000    0.000    0.000 
#
# Total GULP energy -198338.054464 kJ/mol
# GULP energy per Si atom -12396.128404 kJ/mol
# Density = 2.020402 g / cm^3
# Si number density = 20.250114 Si / 1000 Ang^3
#
#
#
# Elastic Constant Matrix: (Units=GPa)
#
#
# Indices 1 2 3 4 5 6 
#
# 1 144.9138 26.2177 37.4634 0.0000 1.4203 0.0000
# 2 26.2177 74.8791 12.1551 0.0000 -10.4392 0.0000
# 3 37.4634 12.1551 34.2948 0.0000 8.8813 0.0000
# 4 0.0000 0.0000 0.0000 18.1082 0.0000 8.8577
# 5 1.4203 -10.4392 8.8813 0.0000 40.8316 0.0000
# 6 0.0000 0.0000 0.0000 8.8577 0.0000 11.5987
#
#
#
# Elastic Compliance Matrix: (Units=1/GPa)
#
#
# Indices 1 2 3 4 5 6 
#
# 1 0.009932 -0.001513 -0.010728 0.000000 0.001601 0.000000
# 2 -0.001513 0.015433 -0.005142 0.000000 0.005117 0.000000
# 3 -0.010728 -0.005142 0.045508 0.000000 -0.010840 0.000000
# 4 0.000000 0.000000 0.000000 0.088154 0.000000 -0.067321
# 5 0.001601 0.005117 -0.010840 0.000000 0.028101 0.000000
# 6 0.000000 0.000000 0.000000 -0.067321 0.000000 0.137628
#
#
# Mechanical properties :
#
#
# Convention : Reuss Voigt Hill
#
# Bulk Modulus (GPa) = 27.69601 45.08447 36.39024
# Shear Modulus (GPa) = 13.45684 25.99111 19.72397
#
# Velocity S-wave (km/s) = 2.58065 3.58649 3.12431
# Velocity P-wave (km/s) = 4.75251 6.28193 5.56996
#
# Compressibility (1/GPa) = 0.03610628
#
# Stress axis : x y z
#
# Youngs Moduli (GPa) = 100.68293 64.79773 21.97400
#
# Poissons Ratio (x) = 0.09803 0.23574
# Poissons Ratio (y) = 0.15232 0.11300
# Poissons Ratio (z) = 1.08016 0.33321
#
# Static dielectric constant tensor:
#      x y z
#    x 3.723010 0.000000 -0.107000 
#    y 0.000000 3.360030 0.000000 
#    z -0.107000 0.000000 3.698230 
# 
# 
# High freq. dielectric constant tensor:
#      x y z
#    x 1.792550 0.000000 0.014240 
#    y 0.000000 1.771820 0.000000 
#    z 0.014240 0.000000 1.788510 
# 
# From -- ./inp_files/84469.got.cif
#   From: 2010.06.25/outbox.cif.g09.slc.cpg/sg10_43_cif.got.tgz:84469.got - 2010.06.27 22:07:45.
