data_PCOD8065833
_publ_section_title
;
Structure prediction by ZEFSAII (Michael W. Deem and Ramdas Pophale) SiO2 
 PCOD8065833
Probable space group: P 2/M
;
_chemical_formula_sum "Si O2"
_cell_formula_units_Z 28
_cell_length_a 29.257186
_cell_length_b 8.978380
_cell_length_c 17.448641
_cell_angle_alpha 90.000000
_cell_angle_beta 21.621525
_cell_angle_gamma 90.000000
_cell_volume 1688.879980
_symmetry_space_group_name_H-M "P 2/M"
_symmetry_group_IT_number 10
_symmetry_cell_setting 'monoclinic'
loop_
_space_group_symop_operation_xyz
x,y,z
-x,y,-z
-x,-y,-z
x,-y,z
loop_
_atom_site_type_symbol
_atom_site_label
_atom_site_fract_x
_atom_site_fract_y
_atom_site_fract_z
Si Si1 0.532991 0.831529 0.727663
Si Si2 0.468543 0.823978 0.666156
Si Si3 0.584610 0.672409 0.795307
Si Si4 0.845269 0.826726 0.380572
Si Si5 0.914823 0.675053 0.954293
Si Si6 0.177805 0.834447 0.755706
Si Si7 0.698407 0.176317 0.208639
O O1 0.457138 0.767796 0.771999
O O2 0.508855 0.728483 0.838805
O O3 0.675777 0.827938 0.481969
O O4 0.492131 0.000000 0.811738
O O5 0.346905 0.779839 0.806689
O O6 0.593875 0.763803 0.430597
O O7 0.483341 0.000000 0.643728
O O8 0.616217 0.500000 0.735406
O O9 0.711817 0.760323 0.608223
O O10 0.500000 0.703587 0.000000
O O11 0.882868 0.801460 0.232663
O O12 0.949044 0.745561 0.269808
O O13 0.840434 0.000000 0.408513
O O14 0.924269 0.500000 0.929897
O O15 0.863497 0.713298 0.118513
O O16 0.826376 0.740201 0.026097
O O17 0.138588 0.000000 0.845730
O O18 0.719217 0.000000 0.184315
#
# Coordination Sequence:
#
# PCOD8065833 Si02
#       7
#     4   4   4   4   4   4   4
#     4   9  16  29  50  73  95 123 163 201 233 273
#     4   8  14  27  48  69  89 124 168 204 232 265
#     4  10  21  36  52  73 100 124 148 187 242 295
#     4  10  21  35  51  67  87 121 164 201 232 276
#     4  12  22  29  41  66  99 131 160 193 236 281
#     4   9  17  30  46  64  90 125 163 197 229 271
#     4   9  16  29  47  64  91 130 169 200 229 268
#
# _framework density 16.579034
#
# number of rings (size 3 to 8) (size 9 to 14) (size 15 to 20)
#    0.000    2.429    1.429    4.286    0.000    5.714 
#    0.000    2.143    0.000    0.000    0.000    1.000 
#    0.000    8.000    0.000    0.000    0.000    0.000 
#
# Total GULP energy -347107.378639 kJ/mol
# GULP energy per Si atom -12396.692094 kJ/mol
# Density = 1.654130 g / cm^3
# Si number density = 16.579034 Si / 1000 Ang^3
#
#
#
# Elastic Constant Matrix: (Units=GPa)
#
#
# Indices 1 2 3 4 5 6 
#
# 1 134.7611 55.8765 49.4014 0.0000 -18.9674 0.0000
# 2 55.8765 97.8910 41.7638 0.0000 -6.5540 0.0000
# 3 49.4014 41.7638 48.6286 0.0000 -6.4715 0.0000
# 4 0.0000 0.0000 0.0000 20.0179 0.0000 2.5387
# 5 -18.9674 -6.5540 -6.4715 0.0000 24.9828 0.0000
# 6 0.0000 0.0000 0.0000 2.5387 0.0000 14.7058
#
#
#
# Elastic Compliance Matrix: (Units=1/GPa)
#
#
# Indices 1 2 3 4 5 6 
#
# 1 0.013244 -0.002764 -0.010190 0.000000 0.006690 0.000000
# 2 -0.002764 0.016711 -0.011641 0.000000 -0.000730 0.000000
# 3 -0.010190 -0.011641 0.040887 0.000000 -0.000199 0.000000
# 4 0.000000 0.000000 0.000000 0.051073 0.000000 -0.008817
# 5 0.006690 -0.000730 -0.000199 0.000000 0.044864 0.000000
# 6 0.000000 0.000000 0.000000 -0.008817 0.000000 0.069523
#
#
# Mechanical properties :
#
#
# Convention : Reuss Voigt Hill
#
# Bulk Modulus (GPa) = 46.18594 63.92935 55.05765
# Shear Modulus (GPa) = 17.08187 20.89056 18.98622
#
# Velocity S-wave (km/s) = 3.21336 3.55358 3.38774
# Velocity P-wave (km/s) = 6.45648 7.44858 6.97020
#
# Compressibility (1/GPa) = 0.02165161
#
# Stress axis : x y z
#
# Youngs Moduli (GPa) = 75.50691 59.84173 24.45781
#
# Poissons Ratio (x) = 0.16542 0.24922
# Poissons Ratio (y) = 0.20873 0.28470
# Poissons Ratio (z) = 0.76941 0.69660
#
# Static dielectric constant tensor:
#      x y z
#    x 3.575950 0.000000 -0.200470 
#    y 0.000000 2.985910 0.000000 
#    z -0.200470 0.000000 2.788120 
# 
# 
# High freq. dielectric constant tensor:
#      x y z
#    x 1.640290 0.000000 -0.022820 
#    y 0.000000 1.626100 0.000000 
#    z -0.022820 0.000000 1.598840 
# 
# From -- ./inp_files/80631.got.cif
#   From: 2010.06.25/outbox.cif.g09.slc.cpg/sg10_41_cif.got.tgz:80631.got - 2010.06.27 22:07:45.
