data_PCOD8065755
_publ_section_title
;
Structure prediction by ZEFSAII (Michael W. Deem and Ramdas Pophale) SiO2 
 PCOD8065755
Probable space group: P 2/M
;
_chemical_formula_sum "Si O2"
_cell_formula_units_Z 28
_cell_length_a 21.011074
_cell_length_b 14.628727
_cell_length_c 9.088721
_cell_angle_alpha 90.000000
_cell_angle_beta 149.898315
_cell_angle_gamma 90.000000
_cell_volume 1401.069978
_symmetry_space_group_name_H-M "P 2/M"
_symmetry_group_IT_number 10
_symmetry_cell_setting 'monoclinic'
loop_
_space_group_symop_operation_xyz
x,y,z
-x,y,-z
-x,-y,-z
x,-y,z
loop_
_atom_site_type_symbol
_atom_site_label
_atom_site_fract_x
_atom_site_fract_y
_atom_site_fract_z
Si Si1 0.141242 0.102328 0.608169
Si Si2 0.251710 0.395127 0.676630
Si Si3 0.141239 0.897671 0.956792
Si Si4 0.359129 0.235317 0.388220
Si Si5 0.748307 0.395126 0.669823
Si Si6 0.640866 0.235316 0.951697
Si Si7 0.000006 0.608122 0.336015
O O1 0.153106 0.098460 0.806211
O O2 0.000001 0.138811 0.281096
O O3 0.160194 0.000000 0.582399
O O4 0.253298 0.166657 0.769448
O O5 0.282774 0.500000 0.780365
O O6 0.238986 0.383618 0.477973
O O7 0.122715 0.359024 0.493395
O O8 0.360176 0.330016 0.958804
O O9 0.160189 0.000000 0.058366
O O10 0.253292 0.833341 0.243730
O O11 0.360161 0.330020 0.481861
O O12 0.499997 0.192008 0.686835
O O13 0.329757 0.257772 0.159513
O O14 0.717248 0.500000 0.649315
O O15 0.877308 0.359021 0.002563
O O16 0.000003 0.500000 0.346772
O O17 0.000000 0.651875 0.500000
#
# Coordination Sequence:
#
# PCOD8065755 Si02
#       7
#     4   4   4   4   4   4   4
#     4   8  15  30  53  80 108 138 175 222 276 332
#     4  10  21  36  53  75 107 147 189 228 270 325
#     4   8  15  30  53  80 108 138 175 222 276 332
#     4  10  21  34  51  80 112 143 184 231 277 324
#     4  10  21  36  53  75 107 147 189 228 270 325
#     4  10  21  34  51  80 112 143 184 231 277 324
#     4   9  17  31  53  79 104 133 174 225 277 320
#
# _framework density 19.984725999999998
#
# number of rings (size 3 to 8) (size 9 to 14) (size 15 to 20)
#    0.000    2.714    0.000    2.143    2.000    5.143 
#    0.000    5.714    0.000    0.857    0.000    4.000 
#    0.000    0.000    0.000    0.000    0.000    0.000 
#
# Total GULP energy -347084.997849 kJ/mol
# GULP energy per Si atom -12395.892780 kJ/mol
# Density = 1.993924 g / cm^3
# Si number density = 19.984726 Si / 1000 Ang^3
#
#
#
# Elastic Constant Matrix: (Units=GPa)
#
#
# Indices 1 2 3 4 5 6 
#
# 1 67.7968 41.1366 43.5647 0.0000 11.4116 0.0000
# 2 41.1366 94.9453 60.4242 0.0000 17.4101 0.0000
# 3 43.5647 60.4242 107.7881 0.0000 24.6884 0.0000
# 4 0.0000 0.0000 0.0000 24.7033 0.0000 6.7824
# 5 11.4116 17.4101 24.6884 0.0000 30.4232 0.0000
# 6 0.0000 0.0000 0.0000 6.7824 0.0000 17.1904
#
#
#
# Elastic Compliance Matrix: (Units=1/GPa)
#
#
# Indices 1 2 3 4 5 6 
#
# 1 0.021927 -0.005977 -0.005418 0.000000 -0.000407 0.000000
# 2 -0.005977 0.018143 -0.007235 0.000000 -0.002269 0.000000
# 3 -0.005418 -0.007235 0.017330 0.000000 -0.007891 0.000000
# 4 0.000000 0.000000 0.000000 0.045398 0.000000 -0.017912
# 5 -0.000407 -0.002269 -0.007891 0.000000 0.040725 0.000000
# 6 0.000000 0.000000 0.000000 -0.017912 0.000000 0.065239
#
#
# Mechanical properties :
#
#
# Convention : Reuss Voigt Hill
#
# Bulk Modulus (GPa) = 49.65394 62.30900 55.98147
# Shear Modulus (GPa) = 19.78354 22.82369 21.30361
#
# Velocity S-wave (km/s) = 3.14973 3.38310 3.26850
# Velocity P-wave (km/s) = 6.17476 6.81957 6.50516
#
# Compressibility (1/GPa) = 0.02013939
#
# Stress axis : x y z
#
# Youngs Moduli (GPa) = 45.60605 55.11891 57.70209
#
# Poissons Ratio (x) = 0.32947 0.31263
# Poissons Ratio (y) = 0.27261 0.41746
# Poissons Ratio (z) = 0.24710 0.39877
#
# Static dielectric constant tensor:
#      x y z
#    x 3.382460 0.000000 0.225700 
#    y 0.000000 3.699600 0.000000 
#    z 0.225700 0.000000 3.632420 
# 
# 
# High freq. dielectric constant tensor:
#      x y z
#    x 1.750640 0.000000 0.019370 
#    y 0.000000 1.773210 0.000000 
#    z 0.019370 0.000000 1.772080 
# 
# From -- ./inp_files/35305.got.cif
#   From: 2010.06.25/outbox.cif.g09.slc.cpg/sg10_18_cif.got.tgz:35305.got - 2010.06.27 22:07:45.
