data_PCOD8065459
_publ_section_title
;
Structure prediction by ZEFSAII (Michael W. Deem and Ramdas Pophale) SiO2 
 PCOD8065459
Probable space group: P 2/M
;
_chemical_formula_sum "Si O2"
_cell_formula_units_Z 32
_cell_length_a 30.693509
_cell_length_b 8.602824
_cell_length_c 11.096366
_cell_angle_alpha 90.000000
_cell_angle_beta 146.847893
_cell_angle_gamma 90.000000
_cell_volume 1602.313017
_symmetry_space_group_name_H-M "P 2/M"
_symmetry_group_IT_number 10
_symmetry_cell_setting 'monoclinic'
loop_
_space_group_symop_operation_xyz
x,y,z
-x,y,-z
-x,-y,-z
x,-y,z
loop_
_atom_site_type_symbol
_atom_site_label
_atom_site_fract_x
_atom_site_fract_y
_atom_site_fract_z
Si Si1 0.074021 0.819261 0.091277
Si Si2 0.272159 0.181299 0.936396
Si Si3 0.112352 0.818194 0.702329
Si Si4 0.537448 0.818702 0.258152
Si Si5 0.961227 0.319069 0.239977
Si Si6 0.425122 0.680969 0.405438
Si Si7 0.612159 0.319276 0.202051
Si Si8 0.756850 0.179489 0.406054
O O1 0.153120 0.783081 0.349269
O O2 0.065931 0.000000 0.039479
O O3 0.077349 0.721659 0.976815
O O4 0.000000 0.762861 0.000000
O O5 0.197050 0.227922 0.843694
O O6 0.252415 0.225494 0.754045
O O7 0.293073 0.000000 0.998321
O O8 0.345940 0.284710 0.147589
O O9 0.101800 0.725944 0.802437
O O10 0.043469 0.774174 0.447920
O O11 0.106768 0.000000 0.716429
O O12 0.577316 0.776810 0.476848
O O13 0.598667 0.774335 0.294236
O O14 0.518974 0.000000 0.209413
O O15 0.453895 0.728596 0.049708
O O16 0.980219 0.500000 0.292520
O O17 0.500000 0.736538 0.500000
O O18 0.430895 0.500000 0.449754
O O19 0.603988 0.500000 0.211926
O O20 0.699288 0.283518 0.353959
O O21 0.735344 0.000000 0.378250
#
# Coordination Sequence:
#
# PCOD8065459 Si02
#       8
#     4   4   4   4   4   4   4   4
#     4  10  21  39  62  85 112 151 196 239 283 336
#     4  10  22  39  61  87 113 149 195 240 284 334
#     4  10  20  38  62  85 113 152 196 236 280 338
#     4  11  22  39  63  87 114 151 195 238 281 333
#     4  11  22  36  57  87 120 152 188 234 290 343
#     4  11  24  40  59  86 119 153 188 232 289 345
#     4  11  22  38  60  87 120 153 188 232 287 345
#     4  10  21  38  60  86 116 150 193 239 283 337
#
# _framework density 19.971128
#
# number of rings (size 3 to 8) (size 9 to 14) (size 15 to 20)
#    0.000    1.500    0.000    7.125    0.000    8.250 
#    0.000    2.500    0.000    0.000    0.000    0.000 
#    0.000    0.000    0.000    0.000    0.000    0.000 
#
# Total GULP energy -397025.513293 kJ/mol
# GULP energy per Si atom -12407.047290 kJ/mol
# Density = 1.992567 g / cm^3
# Si number density = 19.971128 Si / 1000 Ang^3
#
#
#
# Elastic Constant Matrix: (Units=GPa)
#
#
# Indices 1 2 3 4 5 6 
#
# 1 115.1819 32.3214 69.2423 0.0000 2.4660 0.0000
# 2 32.3214 65.8020 27.6611 0.0000 1.3556 0.0000
# 3 69.2423 27.6611 117.7972 0.0000 0.8998 0.0000
# 4 0.0000 0.0000 0.0000 15.0490 0.0000 -3.0038
# 5 2.4660 1.3556 0.8998 0.0000 43.8675 0.0000
# 6 0.0000 0.0000 0.0000 -3.0038 0.0000 22.0300
#
#
#
# Elastic Compliance Matrix: (Units=1/GPa)
#
#
# Indices 1 2 3 4 5 6 
#
# 1 0.014271 -0.003855 -0.007480 0.000000 -0.000530 0.000000
# 2 -0.003855 0.017911 -0.001938 0.000000 -0.000297 0.000000
# 3 -0.007480 -0.001938 0.013339 0.000000 0.000207 0.000000
# 4 0.000000 0.000000 0.000000 0.068308 0.000000 0.009314
# 5 -0.000530 -0.000297 0.000207 0.000000 0.022831 0.000000
# 6 0.000000 0.000000 0.000000 0.009314 0.000000 0.046663
#
#
# Mechanical properties :
#
#
# Convention : Reuss Voigt Hill
#
# Bulk Modulus (GPa) = 52.69419 61.91453 57.30436
# Shear Modulus (GPa) = 23.12739 27.49306 25.31022
#
# Velocity S-wave (km/s) = 3.40669 3.71434 3.56383
# Velocity P-wave (km/s) = 6.47430 7.03309 6.75947
#
# Compressibility (1/GPa) = 0.01897743
#
# Stress axis : x y z
#
# Youngs Moduli (GPa) = 70.07019 55.83082 74.96707
#
# Poissons Ratio (x) = 0.21522 0.56072
# Poissons Ratio (y) = 0.27011 0.14527
# Poissons Ratio (z) = 0.52410 0.10818
#
# Static dielectric constant tensor:
#      x y z
#    x 3.694420 0.000000 0.014530 
#    y 0.000000 3.585700 0.000000 
#    z 0.014530 0.000000 3.549900 
# 
# 
# High freq. dielectric constant tensor:
#      x y z
#    x 1.790640 0.000000 -0.000690 
#    y 0.000000 1.780620 0.000000 
#    z -0.000690 0.000000 1.778930 
# 
# From -- ./inp_files/58254.got.cif
#   From: 2010.06.25/outbox.cif.g09.slc.cpg/sg10_30_cif.got.tgz:58254.got - 2010.06.27 22:07:45.
