data_PCOD8065646
_publ_section_title
;
Structure prediction by ZEFSAII (Michael W. Deem and Ramdas Pophale) SiO2 
 PCOD8065646
Probable space group: P 2/M
;
_chemical_formula_sum "Si O2"
_cell_formula_units_Z 24
_cell_length_a 14.079108
_cell_length_b 9.209885
_cell_length_c 9.603461
_cell_angle_alpha 90.000000
_cell_angle_beta 79.986587
_cell_angle_gamma 90.000000
_cell_volume 1226.282822
_symmetry_space_group_name_H-M "P 2/M"
_symmetry_group_IT_number 10
_symmetry_cell_setting 'monoclinic'
loop_
_space_group_symop_operation_xyz
x,y,z
-x,y,-z
-x,-y,-z
x,-y,z
loop_
_atom_site_type_symbol
_atom_site_label
_atom_site_fract_x
_atom_site_fract_y
_atom_site_fract_z
Si Si1 0.422050 0.831173 0.213412
Si Si2 0.918932 0.669681 0.634029
Si Si3 0.776724 0.330440 0.237898
Si Si4 0.716663 0.667459 0.558438
Si Si5 0.365107 0.830232 0.920657
Si Si6 0.025302 0.831343 0.833906
O O1 0.373933 0.749949 0.354148
O O2 0.533846 0.785765 0.175688
O O3 0.413714 0.000000 0.245443
O O4 0.368323 0.792313 0.083167
O O5 0.919245 0.500000 0.672786
O O6 0.816776 0.721790 0.599394
O O7 0.000000 0.704806 0.500000
O O8 0.938007 0.764228 0.766770
O O9 0.795090 0.500000 0.206981
O O10 0.716040 0.303723 0.393649
O O11 0.720005 0.263892 0.122564
O O12 0.878564 0.253604 0.230286
O O13 0.702435 0.500000 0.596128
O O14 0.343536 0.000000 0.903045
O O15 0.038469 0.000000 0.794135
O O16 0.000000 0.807295 0.000000
#
# Coordination Sequence:
#
# PCOD8065646 Si02
#       6
#     4   4   4   4   4   4
#     4   9  20  39  62  85 115 153 190 234 290 343
#     4  10  20  40  62  82 116 156 192 234 281 338
#     4  11  23  40  60  85 117 154 191 235 289 341
#     4  10  22  38  58  86 118 151 192 238 284 337
#     4   9  20  40  61  85 117 151 190 238 286 339
#     4  11  25  41  58  86 119 151 192 240 285 338
#
# _framework density 19.571344
#
# number of rings (size 3 to 8) (size 9 to 14) (size 15 to 20)
#    0.000    2.000    1.667    2.000    2.333    5.667 
#    0.000    5.000    0.000    0.000    0.000    0.000 
#    0.000    0.000    0.000    0.000    0.000    0.000 
#
# Total GULP energy -297697.759386 kJ/mol
# GULP energy per Si atom -12404.073308 kJ/mol
# Density = 1.952680 g / cm^3
# Si number density = 19.571344 Si / 1000 Ang^3
#
#
#
# Elastic Constant Matrix: (Units=GPa)
#
#
# Indices 1 2 3 4 5 6 
#
# 1 34.6292 11.0932 -3.6441 0.0000 5.7901 0.0000
# 2 11.0932 64.2968 28.0367 0.0000 3.0023 0.0000
# 3 -3.6441 28.0367 50.6455 0.0000 0.8763 0.0000
# 4 0.0000 0.0000 0.0000 25.6171 0.0000 -5.5143
# 5 5.7901 3.0023 0.8763 0.0000 38.1983 0.0000
# 6 0.0000 0.0000 0.0000 -5.5143 0.0000 1.1497
#
#
#
# Elastic Compliance Matrix: (Units=1/GPa)
#
#
# Indices 1 2 3 4 5 6 
#
# 1 0.033180 -0.008685 0.007274 0.000000 -0.004514 0.000000
# 2 -0.008685 0.022845 -0.013269 0.000000 -0.000175 0.000000
# 3 0.007274 -0.013269 0.027626 0.000000 -0.000693 0.000000
# 4 0.000000 0.000000 0.000000 -1.202369 0.000000 -5.767010
# 5 -0.004514 -0.000175 -0.000693 0.000000 0.026893 0.000000
# 6 0.000000 0.000000 0.000000 -5.767010 0.000000-26.790925
#
#
# Mechanical properties :
#
#
# Convention : Reuss Voigt Hill
#
# Bulk Modulus (GPa) = 18.41967 24.50479 21.46223
# Shear Modulus (GPa) = -0.17963 20.59873 10.20955
#
# Velocity S-wave (km/s) = -0.30328 3.24774 2.28646
# Velocity P-wave (km/s) = 3.05112 5.15865 4.23798
#
# Compressibility (1/GPa) = 0.05428980
#
# Stress axis : x y z
#
# Youngs Moduli (GPa) = 30.13881 43.77239 36.19787
#
# Poissons Ratio (x) = 0.38018 -0.26329
# Poissons Ratio (y) = 0.26177 0.48031
# Poissons Ratio (z) = -0.21922 0.58081
#
# Static dielectric constant tensor:
#      x y z
#    x 3.594670 0.000000 0.036680 
#    y 0.000000 3.470810 0.000000 
#    z 0.036680 0.000000 3.548670 
# 
# 
# High freq. dielectric constant tensor:
#      x y z
#    x 1.765000 0.000000 0.002320 
#    y 0.000000 1.759100 0.000000 
#    z 0.002320 0.000000 1.767620 
# 
# From -- ./inp_files/27066.got.cif
#   From: 2010.06.25/outbox.cif.g09.slc.cpg/sg10_14_cif.got.tgz:27066.got - 2010.06.27 22:07:45.
