data_PCOD8065236
_publ_section_title
;
Structure prediction by ZEFSAII (Michael W. Deem and Ramdas Pophale) SiO2 
 PCOD8065236
Probable space group: P 2/M
;
_chemical_formula_sum "Si O2"
_cell_formula_units_Z 28
_cell_length_a 26.794443
_cell_length_b 8.728088
_cell_length_c 9.258430
_cell_angle_alpha 90.000000
_cell_angle_beta 141.587268
_cell_angle_gamma 90.000000
_cell_volume 1345.296054
_symmetry_space_group_name_H-M "P 2/M"
_symmetry_group_IT_number 10
_symmetry_cell_setting 'monoclinic'
loop_
_space_group_symop_operation_xyz
x,y,z
-x,y,-z
-x,-y,-z
x,-y,z
loop_
_atom_site_type_symbol
_atom_site_label
_atom_site_fract_x
_atom_site_fract_y
_atom_site_fract_z
Si Si1 0.201573 0.822309 0.155808
Si Si2 0.627048 0.320525 0.949198
Si Si3 0.035376 0.326552 0.724349
Si Si4 0.235352 0.176251 0.557843
Si Si5 0.926612 0.327089 0.739321
Si Si6 0.660293 0.680593 0.697210
Si Si7 0.483503 0.818771 0.799795
O O1 0.242075 0.790275 0.402804
O O2 0.249655 0.730844 0.141243
O O3 0.204360 0.000000 0.122825
O O4 0.109337 0.769667 0.954288
O O5 0.608872 0.500000 0.911617
O O6 0.704236 0.285896 0.221087
O O7 0.641514 0.264261 0.817750
O O8 0.551197 0.233379 0.841692
O O9 0.066157 0.500000 0.768521
O O10 0.000000 0.250679 0.500000
O O11 0.957082 0.326035 0.646176
O O12 0.146498 0.211263 0.412021
O O13 0.256348 0.000000 0.639141
O O14 0.901959 0.500000 0.733254
O O15 0.000000 0.264313 0.000000
O O16 0.651970 0.500000 0.667250
O O17 0.601128 0.756728 0.447549
O O18 0.479926 0.000000 0.793841
O O19 0.500000 0.756918 0.000000
#
# Coordination Sequence:
#
# PCOD8065236 Si02
#       7
#     4   4   4   4   4   4   4
#     4  11  24  41  61  89 124 163 207 254 308 367
#     4  11  25  43  65  94 126 162 206 252 301 360
#     4  10  22  39  60  86 120 160 205 256 308 365
#     4  11  24  40  61  90 125 162 205 256 309 365
#     4  10  20  37  61  87 117 159 207 254 307 364
#     4  11  25  43  65  93 126 163 206 253 301 358
#     4  11  24  43  68  98 130 162 200 246 300 361
#
# _framework density 20.813264
#
# number of rings (size 3 to 8) (size 9 to 14) (size 15 to 20)
#    0.000    1.286    1.429    3.429    2.000   11.429 
#    0.000    0.000    0.000    0.000    0.000    0.000 
#    0.000    0.000    0.000    0.000    0.000    0.000 
#
# Total GULP energy -347313.166247 kJ/mol
# GULP energy per Si atom -12404.041652 kJ/mol
# Density = 2.076589 g / cm^3
# Si number density = 20.813264 Si / 1000 Ang^3
#
#
#
# Elastic Constant Matrix: (Units=GPa)
#
#
# Indices 1 2 3 4 5 6 
#
# 1 113.1500 33.3198 16.3814 0.0000 -2.8229 0.0000
# 2 33.3198 65.4937 27.3856 0.0000 -8.4860 0.0000
# 3 16.3814 27.3856 74.8427 0.0000 -8.6672 0.0000
# 4 0.0000 0.0000 0.0000 25.5633 0.0000 -4.3886
# 5 -2.8229 -8.4860 -8.6672 0.0000 36.8716 0.0000
# 6 0.0000 0.0000 0.0000 -4.3886 0.0000 8.0308
#
#
#
# Elastic Compliance Matrix: (Units=1/GPa)
#
#
# Indices 1 2 3 4 5 6 
#
# 1 0.010414 -0.005178 -0.000443 0.000000 -0.000498 0.000000
# 2 -0.005178 0.020861 -0.006157 0.000000 0.002957 0.000000
# 3 -0.000443 -0.006157 0.015978 0.000000 0.002305 0.000000
# 4 0.000000 0.000000 0.000000 0.043169 0.000000 0.023591
# 5 -0.000498 0.002957 0.002305 0.000000 0.028305 0.000000
# 6 0.000000 0.000000 0.000000 0.023591 0.000000 0.137413
#
#
# Mechanical properties :
#
#
# Convention : Reuss Voigt Hill
#
# Bulk Modulus (GPa) = 42.19813 45.29555 43.74684
# Shear Modulus (GPa) = 17.38560 25.85309 21.61934
#
# Velocity S-wave (km/s) = 2.89331 3.52823 3.22643
# Velocity P-wave (km/s) = 5.61073 6.19742 5.91136
#
# Compressibility (1/GPa) = 0.02369773
#
# Stress axis : x y z
#
# Youngs Moduli (GPa) = 96.02303 47.93732 62.58537
#
# Poissons Ratio (x) = 0.24820 0.02770
# Poissons Ratio (y) = 0.49718 0.38536
# Poissons Ratio (z) = 0.04250 0.29517
#
# Static dielectric constant tensor:
#      x y z
#    x 4.024380 0.000000 -0.044900 
#    y 0.000000 3.709930 0.000000 
#    z -0.044900 0.000000 3.902160 
# 
# 
# High freq. dielectric constant tensor:
#      x y z
#    x 1.829020 0.000000 -0.003200 
#    y 0.000000 1.811310 0.000000 
#    z -0.003200 0.000000 1.821440 
# 
# From -- ./inp_files/36831.got.cif
#   From: 2010.06.25/outbox.cif.g09.slc.cpg/sg10_19_cif.got.tgz:36831.got - 2010.06.27 22:07:45.
