data_PCOD8065775
_publ_section_title
;
Structure prediction by ZEFSAII (Michael W. Deem and Ramdas Pophale) SiO2 
 PCOD8065775
Probable space group: P 2/M
;
_chemical_formula_sum "Si O2"
_cell_formula_units_Z 30
_cell_length_a 36.101818
_cell_length_b 7.711395
_cell_length_c 5.246802
_cell_angle_alpha 90.000000
_cell_angle_beta 106.897991
_cell_angle_gamma 90.000000
_cell_volume 1397.618550
_symmetry_space_group_name_H-M "P 2/M"
_symmetry_group_IT_number 10
_symmetry_cell_setting 'monoclinic'
loop_
_space_group_symop_operation_xyz
x,y,z
-x,y,-z
-x,-y,-z
x,-y,z
loop_
_atom_site_type_symbol
_atom_site_label
_atom_site_fract_x
_atom_site_fract_y
_atom_site_fract_z
Si Si1 0.974272 0.000000 0.198541
Si Si2 0.352505 0.300902 0.455055
Si Si3 0.735344 0.794722 0.720799
Si Si4 0.610347 0.698611 0.970652
Si Si5 0.131606 0.697629 0.513324
Si Si6 0.911426 0.709427 0.072735
Si Si7 0.522800 0.795324 0.795601
Si Si8 0.780273 0.795067 0.310663
O O1 0.950634 0.180561 0.151269
O O2 0.000000 0.000000 0.500000
O O3 0.000000 0.000000 0.000000
O O4 0.365598 0.500000 0.481258
O O5 0.306594 0.288841 0.363207
O O6 0.371175 0.209702 0.242487
O O7 0.371167 0.209702 0.742306
O O8 0.757923 0.728394 0.516278
O O9 0.731025 0.000000 0.712120
O O10 0.757886 0.728406 0.015707
O O11 0.623855 0.500000 0.997649
O O12 0.564361 0.707853 0.878719
O O13 0.119918 0.500000 0.489914
O O14 0.113057 0.776167 0.732113
O O15 0.177393 0.716475 0.604809
O O16 0.113029 0.776203 0.220394
O O17 0.919371 0.500000 0.088622
O O18 0.500000 0.731867 0.500000
O O19 0.528353 0.000000 0.806714
O O20 0.500000 0.731863 0.000000
O O21 0.783757 0.000000 0.317625
#
# Coordination Sequence:
#
# PCOD8065775 Si02
#       8
#     2   4   4   4   4   4   4   4
#     4  12  26  42  66  96 122 164 210 244 306 368
#     4  10  21  36  54  75 103 139 179 223 264 316
#     4  10  21  36  51  78 111 144 186 229 279 329
#     4  10  21  36  54  78 102 132 177 216 261 322
#     4  10  21  38  60  88 119 156 198 242 296 351
#     4  10  23  41  62  91 125 158 202 253 297 356
#     4  10  21  36  54  78 106 132 164 209 261 320
#     4  10  21  34  54  82 113 147 187 235 282 335
#
# _framework density 21.465084999999998
#
# number of rings (size 3 to 8) (size 9 to 14) (size 15 to 20)
#    0.000    1.867    0.000    3.200    1.867    3.200 
#    0.000    0.000    0.000    0.000    0.000    0.000 
#    0.000    0.000    0.000    0.000    0.000    0.000 
#
# Total GULP energy -371991.440449 kJ/mol
# GULP energy per Si atom -12399.714682 kJ/mol
# Density = 2.141623 g / cm^3
# Si number density = 21.465085 Si / 1000 Ang^3
#
#
#
# Elastic Constant Matrix: (Units=GPa)
#
#
# Indices 1 2 3 4 5 6 
#
# 1 158.6320 17.7817 90.7848 0.0000 -20.1279 0.0000
# 2 17.7817 35.6548 21.1385 0.0000 -1.5622 0.0000
# 3 90.7848 21.1385 234.4738 0.0000 -15.1815 0.0000
# 4 0.0000 0.0000 0.0000 8.8553 0.0000 13.6652
# 5 -20.1279 -1.5622 -15.1815 0.0000 53.2328 0.0000
# 6 0.0000 0.0000 0.0000 13.6652 0.0000 38.2291
#
#
#
# Elastic Compliance Matrix: (Units=1/GPa)
#
#
# Indices 1 2 3 4 5 6 
#
# 1 0.008555 -0.002419 -0.002944 0.000000 0.002324 0.000000
# 2 -0.002419 0.030315 -0.001832 0.000000 -0.000548 0.000000
# 3 -0.002944 -0.001832 0.005598 0.000000 0.000430 0.000000
# 4 0.000000 0.000000 0.000000 0.251847 0.000000 -0.090024
# 5 0.002324 -0.000548 0.000430 0.000000 0.019771 0.000000
# 6 0.000000 0.000000 0.000000 -0.090024 0.000000 0.058338
#
#
# Mechanical properties :
#
#
# Convention : Reuss Voigt Hill
#
# Bulk Modulus (GPa) = 33.24686 76.46340 54.85513
# Shear Modulus (GPa) = 12.53640 40.00050 26.26845
#
# Velocity S-wave (km/s) = 2.41931 4.32153 3.50205
# Velocity P-wave (km/s) = 4.82975 7.78462 6.47792
#
# Compressibility (1/GPa) = 0.03007803
#
# Stress axis : x y z
#
# Youngs Moduli (GPa) = 116.89594 32.98671 178.64957
#
# Poissons Ratio (x) = 0.07981 0.52588
# Poissons Ratio (y) = 0.28281 0.32724
# Poissons Ratio (z) = 0.34410 0.06042
#
# Static dielectric constant tensor:
#      x y z
#    x 3.842660 0.000000 -0.380910 
#    y 0.000000 3.663380 0.000000 
#    z -0.380910 0.000000 4.660720 
# 
# 
# High freq. dielectric constant tensor:
#      x y z
#    x 1.848400 0.000000 -0.009140 
#    y 0.000000 1.823700 0.000000 
#    z -0.009140 0.000000 1.868030 
# 
# From -- ./inp_files/13676.got.cif
#   From: 2010.06.25/outbox.cif.g09.slc.cpg/sg10_7_cif.got.tgz:13676.got - 2010.06.27 22:07:45.
