data_PCOD8065265
_publ_section_title
;
Structure prediction by ZEFSAII (Michael W. Deem and Ramdas Pophale) SiO2 
 PCOD8065265
Probable space group: P 2/M
;
_chemical_formula_sum "Si O2"
_cell_formula_units_Z 26
_cell_length_a 18.655585
_cell_length_b 9.672004
_cell_length_c 9.063551
_cell_angle_alpha 90.000000
_cell_angle_beta 127.474424
_cell_angle_gamma 90.000000
_cell_volume 1297.893521
_symmetry_space_group_name_H-M "P 2/M"
_symmetry_group_IT_number 10
_symmetry_cell_setting 'monoclinic'
loop_
_space_group_symop_operation_xyz
x,y,z
-x,y,-z
-x,-y,-z
x,-y,z
loop_
_atom_site_type_symbol
_atom_site_label
_atom_site_fract_x
_atom_site_fract_y
_atom_site_fract_z
Si Si1 0.189137 0.338975 0.225033
Si Si2 0.366991 0.163758 0.436241
Si Si3 0.838523 0.651776 0.484889
Si Si4 0.554287 0.162350 0.774113
Si Si5 0.000000 0.748868 0.500000
Si Si6 0.134705 0.847385 0.900635
Si Si7 0.283495 0.158183 0.846674
O O1 0.205871 0.500000 0.205233
O O2 0.282060 0.257593 0.368440
O O3 0.134389 0.324244 0.310194
O O4 0.129739 0.268011 0.022112
O O5 0.447602 0.196642 0.655802
O O6 0.404443 0.217563 0.326915
O O7 0.342052 0.000000 0.406615
O O8 0.796136 0.500000 0.413024
O O9 0.760440 0.757779 0.341283
O O10 0.927005 0.656828 0.493775
O O11 0.567448 0.000000 0.782080
O O12 0.615239 0.214754 0.988875
O O13 0.049503 0.842118 0.684023
O O14 0.226548 0.823729 0.925438
O O15 0.135320 0.000000 0.973899
O O16 0.284394 0.000000 0.794207
#
# Coordination Sequence:
#
# PCOD8065265 Si02
#       7
#     4   4   4   4   2   4   4
#     4  11  23  37  53  81 118 150 181 221 273 329
#     4   9  16  31  55  81 112 147 185 227 272 317
#     4  10  23  40  57  78 110 149 185 225 275 331
#     4   8  14  28  54  84 110 142 185 232 271 312
#     4  10  22  42  64  84 102 134 186 234 274 328
#     4  10  20  37  62  86 111 139 177 225 278 330
#     4   9  17  33  57  84 109 141 186 233 272 317
#
# _framework density 20.032458999999999
#
# number of rings (size 3 to 8) (size 9 to 14) (size 15 to 20)
#    0.000    2.462    1.538    1.846    0.000    5.538 
#    0.000    5.385    0.000    4.615    0.000    0.000 
#    0.000    0.000    0.000    0.000    0.000    0.000 
#
# Total GULP energy -322184.214278 kJ/mol
# GULP energy per Si atom -12391.700549 kJ/mol
# Density = 1.998686 g / cm^3
# Si number density = 20.032459 Si / 1000 Ang^3
#
#
#
# Elastic Constant Matrix: (Units=GPa)
#
#
# Indices 1 2 3 4 5 6 
#
# 1 48.9124 29.0274 39.4521 0.0000 2.1560 0.0000
# 2 29.0274 111.6555 62.1046 0.0000 -5.4433 0.0000
# 3 39.4521 62.1046 144.6333 0.0000 15.7666 0.0000
# 4 0.0000 0.0000 0.0000 23.5352 0.0000 -7.1423
# 5 2.1560 -5.4433 15.7666 0.0000 31.8674 0.0000
# 6 0.0000 0.0000 0.0000 -7.1423 0.0000 15.6453
#
#
#
# Elastic Compliance Matrix: (Units=1/GPa)
#
#
# Indices 1 2 3 4 5 6 
#
# 1 0.027453 -0.003848 -0.005879 0.000000 0.000394 0.000000
# 2 -0.003848 0.013033 -0.005092 0.000000 0.005006 0.000000
# 3 -0.005879 -0.005092 0.011369 0.000000 -0.006097 0.000000
# 4 0.000000 0.000000 0.000000 0.049323 0.000000 0.022516
# 5 0.000394 0.005006 -0.006097 0.000000 0.035225 0.000000
# 6 0.000000 0.000000 0.000000 0.022516 0.000000 0.074196
#
#
# Mechanical properties :
#
#
# Convention : Reuss Voigt Hill
#
# Bulk Modulus (GPa) = 45.01221 62.92996 53.97108
# Shear Modulus (GPa) = 20.19040 25.85072 23.02056
#
# Velocity S-wave (km/s) = 3.17816 3.59617 3.39361
# Velocity P-wave (km/s) = 5.99884 6.98036 6.50813
#
# Compressibility (1/GPa) = 0.02221619
#
# Stress axis : x y z
#
# Youngs Moduli (GPa) = 36.42609 76.72861 87.95828
#
# Poissons Ratio (x) = 0.29523 0.51713
# Poissons Ratio (y) = 0.14016 0.44792
# Poissons Ratio (z) = 0.21416 0.39074
#
# Static dielectric constant tensor:
#      x y z
#    x 3.488750 0.000000 0.195300 
#    y 0.000000 3.424980 0.000000 
#    z 0.195300 0.000000 3.971180 
# 
# 
# High freq. dielectric constant tensor:
#      x y z
#    x 1.759080 0.000000 0.010180 
#    y 0.000000 1.756810 0.000000 
#    z 0.010180 0.000000 1.793590 
# 
# From -- ./inp_files/31644.got.cif
#   From: 2010.06.25/outbox.cif.g09.slc.cpg/sg10_16_cif.got.tgz:31644.got - 2010.06.27 22:07:45.
