data_PCOD8065635
_publ_section_title
;
Structure prediction by ZEFSAII (Michael W. Deem and Ramdas Pophale) SiO2 
 PCOD8065635
Probable space group: P 2/M
;
_chemical_formula_sum "Si O2"
_cell_formula_units_Z 24
_cell_length_a 8.635244
_cell_length_b 15.266292
_cell_length_c 13.788857
_cell_angle_alpha 90.000000
_cell_angle_beta 37.043328
_cell_angle_gamma 90.000000
_cell_volume 1095.052541
_symmetry_space_group_name_H-M "P 2/M"
_symmetry_group_IT_number 10
_symmetry_cell_setting 'monoclinic'
loop_
_space_group_symop_operation_xyz
x,y,z
-x,y,-z
-x,-y,-z
x,-y,z
loop_
_atom_site_type_symbol
_atom_site_label
_atom_site_fract_x
_atom_site_fract_y
_atom_site_fract_z
Si Si1 0.640253 0.600436 0.532425
Si Si2 0.243629 0.715197 0.827343
Si Si3 0.971146 0.743305 0.626656
Si Si4 0.524315 0.826550 0.126339
Si Si5 0.955548 0.835189 0.229016
Si Si6 0.702933 0.000000 0.682005
Si Si7 0.793227 0.000000 0.193255
O O1 0.500000 0.609907 0.500000
O O2 0.689291 0.500000 0.534538
O O3 0.467946 0.644345 0.702712
O O4 0.915700 0.648815 0.400569
O O5 0.326710 0.800232 0.849029
O O6 0.156417 0.749103 0.766418
O O7 0.000000 0.668165 0.000000
O O8 0.000000 0.769227 0.500000
O O9 0.667147 0.745751 0.803498
O O10 0.107974 0.818883 0.625145
O O11 0.353989 0.913942 0.225404
O O12 0.733537 0.841382 0.937648
O O13 0.826363 0.919762 0.249348
O O14 0.499362 0.000000 0.695685
O O15 0.000000 0.000000 0.500000
O O16 0.000000 0.000000 0.000000
#
# Coordination Sequence:
#
# PCOD8065635 Si02
#       7
#     4   4   4   4   4   2   2
#     4  11  24  45  72  98 131 176 229 289 358 431
#     4  10  20  39  70  99 131 174 226 284 342 416
#     4  12  25  42  66  97 141 179 227 282 348 412
#     4  11  22  41  65 100 138 182 225 284 345 407
#     4  11  22  40  72  99 132 188 240 276 333 416
#     4  12  24  37  67 109 150 177 228 298 348 396
#     4  12  20  45  74 105 138 190 245 285 341 409
#
# _framework density 21.916758000000002
#
# number of rings (size 3 to 8) (size 9 to 14) (size 15 to 20)
#    0.000    0.833    6.667    1.500    0.000    1.333 
#    0.000    2.917    0.000    5.000    0.000    0.000 
#    0.000    0.000    0.000    0.000    0.000    0.000 
#
# Total GULP energy -297478.413881 kJ/mol
# GULP energy per Si atom -12394.933912 kJ/mol
# Density = 2.186687 g / cm^3
# Si number density = 21.916758 Si / 1000 Ang^3
#
#
#
# Elastic Constant Matrix: (Units=GPa)
#
#
# Indices 1 2 3 4 5 6 
#
# 1 103.8211 50.0039 44.4181 0.0000 4.6005 0.0000
# 2 50.0039 132.5614 65.1589 0.0000 -3.2661 0.0000
# 3 44.4181 65.1589 91.7536 0.0000 -13.7726 0.0000
# 4 0.0000 0.0000 0.0000 26.4808 0.0000 -3.5051
# 5 4.6005 -3.2661 -13.7726 0.0000 55.0168 0.0000
# 6 0.0000 0.0000 0.0000 -3.5051 0.0000 35.1747
#
#
#
# Elastic Compliance Matrix: (Units=1/GPa)
#
#
# Indices 1 2 3 4 5 6 
#
# 1 0.013070 -0.002610 -0.004843 0.000000 -0.002460 0.000000
# 2 -0.002610 0.012219 -0.007556 0.000000 -0.000948 0.000000
# 3 -0.004843 -0.007556 0.019329 0.000000 0.004795 0.000000
# 4 0.000000 0.000000 0.000000 0.038268 0.000000 0.003813
# 5 -0.002460 -0.000948 0.004795 0.000000 0.019526 0.000000
# 6 0.000000 0.000000 0.000000 0.003813 0.000000 0.028810
#
#
# Mechanical properties :
#
#
# Convention : Reuss Voigt Hill
#
# Bulk Modulus (GPa) = 68.49460 71.92196 70.20828
# Shear Modulus (GPa) = 30.10121 34.57146 32.33634
#
# Velocity S-wave (km/s) = 3.71001 3.97596 3.84528
# Velocity P-wave (km/s) = 7.04785 7.34608 7.19851
#
# Compressibility (1/GPa) = 0.01459969
#
# Stress axis : x y z
#
# Youngs Moduli (GPa) = 76.51023 81.83960 51.73652
#
# Poissons Ratio (x) = 0.21364 0.25055
# Poissons Ratio (y) = 0.19973 0.39092
# Poissons Ratio (z) = 0.37052 0.61837
#
# Static dielectric constant tensor:
#      x y z
#    x 4.235280 0.000000 -0.115450 
#    y 0.000000 3.708600 0.000000 
#    z -0.115450 0.000000 3.996840 
# 
# 
# High freq. dielectric constant tensor:
#      x y z
#    x 1.886710 0.000000 -0.006620 
#    y 0.000000 1.831160 0.000000 
#    z -0.006620 0.000000 1.856600 
# 
# From -- ./inp_files/61707.got.cif
#   From: 2010.06.25/outbox.cif.g09.slc.cpg/sg10_31_cif.got.tgz:61707.got - 2010.06.27 22:07:45.
