data_PCOD8065380
_publ_section_title
;
Structure prediction by ZEFSAII (Michael W. Deem and Ramdas Pophale) SiO2 
 PCOD8065380
Probable space group: P 2/M
;
_chemical_formula_sum "Si O2"
_cell_formula_units_Z 32
_cell_length_a 23.644079
_cell_length_b 8.893254
_cell_length_c 12.373401
_cell_angle_alpha 90.000000
_cell_angle_beta 133.958811
_cell_angle_gamma 90.000000
_cell_volume 1872.869660
_symmetry_space_group_name_H-M "P 2/M"
_symmetry_group_IT_number 10
_symmetry_cell_setting 'monoclinic'
loop_
_space_group_symop_operation_xyz
x,y,z
-x,y,-z
-x,-y,-z
x,-y,z
loop_
_atom_site_type_symbol
_atom_site_label
_atom_site_fract_x
_atom_site_fract_y
_atom_site_fract_z
Si Si1 0.082041 0.327245 0.810421
Si Si2 0.916671 0.324025 0.938305
Si Si3 0.173573 0.174740 0.360636
Si Si4 0.661784 0.676498 0.093510
Si Si5 0.186584 0.176963 0.776669
Si Si6 0.336980 0.825284 0.675481
Si Si7 0.902390 0.674105 0.538043
Si Si8 0.506128 0.166234 0.879682
O O1 0.107548 0.500000 0.828950
O O2 0.141354 0.221560 0.825017
O O3 0.995202 0.303115 0.648118
O O4 0.085530 0.279325 0.939604
O O5 0.902189 0.500000 0.901065
O O6 0.848296 0.231317 0.787777
O O7 0.000000 0.274647 0.000000
O O8 0.266300 0.204748 0.499174
O O9 0.123007 0.269596 0.378303
O O10 0.153194 0.000000 0.347949
O O11 0.670404 0.500000 0.097777
O O12 0.726867 0.751463 0.103376
O O13 0.677004 0.727838 0.236229
O O14 0.575317 0.722224 0.934817
O O15 0.140498 0.231998 0.610376
O O16 0.195003 0.000000 0.780599
O O17 0.419186 0.780598 0.724655
O O18 0.340924 0.000000 0.716892
O O19 0.879099 0.500000 0.495028
O O20 0.525978 0.000000 0.861253
O O21 0.500000 0.163575 0.000000
#
# Coordination Sequence:
#
# PCOD8065380 Si02
#       8
#     4   4   4   4   4   4   4   4
#     4  10  22  39  56  73  99 136 178 217 259 309
#     4  10  20  38  57  74  99 136 176 216 264 309
#     4  11  21  32  52  80 107 137 174 214 256 303
#     4  11  20  30  48  73 102 136 172 208 251 305
#     4  12  24  36  51  75 106 137 174 215 259 310
#     4   9  18  32  48  71 105 139 168 206 256 306
#     4  11  21  36  55  75 102 138 175 212 258 309
#     4   8  15  29  47  67  99 138 168 200 250 305
#
# _framework density 17.086079999999999
#
# number of rings (size 3 to 8) (size 9 to 14) (size 15 to 20)
#    0.000    1.750    2.500    4.125    0.000    6.000 
#    0.000    0.000    0.000    0.000    0.000    0.875 
#    0.000    7.000    0.000    0.000    0.000    0.000 
#
# Total GULP energy -396835.029236 kJ/mol
# GULP energy per Si atom -12401.094664 kJ/mol
# Density = 1.704719 g / cm^3
# Si number density = 17.086080 Si / 1000 Ang^3
#
#
#
# Elastic Constant Matrix: (Units=GPa)
#
#
# Indices 1 2 3 4 5 6 
#
# 1 91.7562 55.3479 45.0703 0.0000 16.2654 0.0000
# 2 55.3479 112.3609 39.9663 0.0000 14.5224 0.0000
# 3 45.0703 39.9663 72.8998 0.0000 16.8908 0.0000
# 4 0.0000 0.0000 0.0000 19.4498 0.0000 2.3862
# 5 16.2654 14.5224 16.8908 0.0000 27.1602 0.0000
# 6 0.0000 0.0000 0.0000 2.3862 0.0000 26.6755
#
#
#
# Elastic Compliance Matrix: (Units=1/GPa)
#
#
# Indices 1 2 3 4 5 6 
#
# 1 0.018939 -0.006221 -0.007525 0.000000 -0.003335 0.000000
# 2 -0.006221 0.013247 -0.003082 0.000000 -0.001440 0.000000
# 3 -0.007525 -0.003082 0.021771 0.000000 -0.007384 0.000000
# 4 0.000000 0.000000 0.000000 0.051985 0.000000 -0.004650
# 5 -0.003335 -0.001440 -0.007384 0.000000 0.044179 0.000000
# 6 0.000000 0.000000 0.000000 -0.004650 0.000000 0.037904
#
#
# Mechanical properties :
#
#
# Convention : Reuss Voigt Hill
#
# Bulk Modulus (GPa) = 49.26472 61.97621 55.62046
# Shear Modulus (GPa) = 21.88680 23.76592 22.82636
#
# Velocity S-wave (km/s) = 3.58295 3.73359 3.65905
# Velocity P-wave (km/s) = 6.78326 7.41201 7.10459
#
# Compressibility (1/GPa) = 0.02029850
#
# Stress axis : x y z
#
# Youngs Moduli (GPa) = 52.80152 75.48875 45.93280
#
# Poissons Ratio (x) = 0.46963 0.34566
# Poissons Ratio (y) = 0.32849 0.14159
# Poissons Ratio (z) = 0.39735 0.23269
#
# Static dielectric constant tensor:
#      x y z
#    x 3.232770 0.000000 0.343780 
#    y 0.000000 3.196950 0.000000 
#    z 0.343780 0.000000 3.289000 
# 
# 
# High freq. dielectric constant tensor:
#      x y z
#    x 1.642410 0.000000 0.026980 
#    y 0.000000 1.664760 0.000000 
#    z 0.026980 0.000000 1.645940 
# 
# From -- ./inp_files/55320.got.cif
#   From: 2010.06.25/outbox.cif.g09.slc.cpg/sg10_28_cif.got.tgz:55320.got - 2010.06.27 22:07:45.
