data_PCOD8065054
_publ_section_title
;
Structure prediction by ZEFSAII (Michael W. Deem and Ramdas Pophale) SiO2 
 PCOD8065054
Probable space group: P 2/M
;
_chemical_formula_sum "Si O2"
_cell_formula_units_Z 32
_cell_length_a 25.040148
_cell_length_b 9.321779
_cell_length_c 20.077828
_cell_angle_alpha 90.000000
_cell_angle_beta 158.119189
_cell_angle_gamma 90.000000
_cell_volume 1746.566139
_symmetry_space_group_name_H-M "P 2/M"
_symmetry_group_IT_number 10
_symmetry_cell_setting 'monoclinic'
loop_
_space_group_symop_operation_xyz
x,y,z
-x,y,-z
-x,-y,-z
x,-y,z
loop_
_atom_site_type_symbol
_atom_site_label
_atom_site_fract_x
_atom_site_fract_y
_atom_site_fract_z
Si Si1 0.361159 0.837861 0.425462
Si Si2 0.361403 0.333844 0.696818
Si Si3 0.737995 0.332572 0.955858
Si Si4 0.202149 0.171206 0.621558
Si Si5 0.303968 0.162146 0.215972
Si Si6 0.328513 0.664213 0.885495
Si Si7 0.583081 0.332750 0.387987
Si Si8 0.914633 0.333989 0.288028
O O1 0.528979 0.827850 0.606159
O O2 0.278691 0.783987 0.263010
O O3 0.322607 0.742919 0.445280
O O4 0.315109 0.000000 0.387881
O O5 0.320206 0.500000 0.660939
O O6 0.249603 0.231668 0.604848
O O7 0.350877 0.293257 0.606972
O O8 0.521145 0.302589 0.906394
O O9 0.736935 0.500000 0.940907
O O10 0.781555 0.257570 0.936620
O O11 0.582328 0.281272 0.801544
O O12 0.854863 0.291655 0.146385
O O13 0.312365 0.230085 0.804335
O O14 0.045295 0.230764 0.457346
O O15 0.201892 0.000000 0.621102
O O16 0.248891 0.000000 0.145062
O O17 0.321659 0.500000 0.852047
O O18 0.206472 0.694807 0.797887
O O19 0.591446 0.500000 0.411458
O O20 0.964081 0.500000 0.347149
#
# Coordination Sequence:
#
# PCOD8065054 Si02
#       8
#     4   4   4   4   4   4   4   4
#     4   8  14  24  38  61  97 137 169 196 237 296
#     4  10  20  37  58  78 101 134 173 212 257 309
#     4   9  16  28  48  74  99 124 164 214 254 292
#     4  12  26  38  50  76 109 136 169 212 256 306
#     4   8  14  24  38  61  97 137 169 196 237 296
#     4  10  20  38  62  80  97 130 173 213 258 312
#     4   9  16  28  48  74  99 124 164 214 254 292
#     4  10  20  37  58  78 101 134 173 212 257 309
#
# _framework density 18.321666
#
# number of rings (size 3 to 8) (size 9 to 14) (size 15 to 20)
#    0.000    2.500    1.250    2.625    0.000    5.500 
#    0.000    2.500    0.000    0.000    0.000    0.875 
#    0.000    7.000    0.000    0.000    0.000    0.000 
#
# Total GULP energy -396730.640550 kJ/mol
# GULP energy per Si atom -12397.832517 kJ/mol
# Density = 1.827996 g / cm^3
# Si number density = 18.321666 Si / 1000 Ang^3
#
#
#
# Elastic Constant Matrix: (Units=GPa)
#
#
# Indices 1 2 3 4 5 6 
#
# 1 91.3637 43.3883 26.0606 0.0000 -24.3536 0.0000
# 2 43.3883 70.8276 18.6749 0.0000 -11.3828 0.0000
# 3 26.0606 18.6749 21.1538 0.0000 -7.5311 0.0000
# 4 0.0000 0.0000 0.0000 13.3055 0.0000 -1.9345
# 5 -24.3536 -11.3828 -7.5311 0.0000 34.2799 0.0000
# 6 0.0000 0.0000 0.0000 -1.9345 0.0000 23.4469
#
#
#
# Elastic Compliance Matrix: (Units=1/GPa)
#
#
# Indices 1 2 3 4 5 6 
#
# 1 0.021767 -0.007355 -0.017018 0.000000 0.009283 0.000000
# 2 -0.007355 0.021131 -0.009716 0.000000 -0.000343 0.000000
# 3 -0.017018 -0.009716 0.077417 0.000000 0.001692 0.000000
# 4 0.000000 0.000000 0.000000 0.076070 0.000000 0.006276
# 5 0.009283 -0.000343 0.001692 0.000000 0.036024 0.000000
# 6 0.000000 0.000000 0.000000 0.006276 0.000000 0.043167
#
#
# Mechanical properties :
#
#
# Convention : Reuss Voigt Hill
#
# Bulk Modulus (GPa) = 19.17983 39.95477 29.56730
# Shear Modulus (GPa) = 13.84533 20.55454 17.19993
#
# Velocity S-wave (km/s) = 2.75195 3.35307 3.06727
# Velocity P-wave (km/s) = 4.53748 6.07005 5.35883
#
# Compressibility (1/GPa) = 0.05213809
#
# Stress axis : x y z
#
# Youngs Moduli (GPa) = 45.94157 47.32366 12.91704
#
# Poissons Ratio (x) = 0.34808 0.21982
# Poissons Ratio (y) = 0.33791 0.12550
# Poissons Ratio (z) = 0.78181 0.45978
#
# Static dielectric constant tensor:
#      x y z
#    x 3.600380 0.000000 -0.371110 
#    y 0.000000 3.295020 0.000000 
#    z -0.371110 0.000000 3.228800 
# 
# 
# High freq. dielectric constant tensor:
#      x y z
#    x 1.713000 0.000000 -0.027620 
#    y 0.000000 1.695260 0.000000 
#    z -0.027620 0.000000 1.681750 
# 
# From -- ./inp_files/87054.got.cif
#   From: 2010.06.25/outbox.cif.g09.slc.cpg/sg10_44_cif.got.tgz:87054.got - 2010.06.27 22:07:45.
