data_PCOD8065210
_publ_section_title
;
Structure prediction by ZEFSAII (Michael W. Deem and Ramdas Pophale) SiO2 
 PCOD8065210
Probable space group: P 2/M
;
_chemical_formula_sum "Si O2"
_cell_formula_units_Z 32
_cell_length_a 29.374706
_cell_length_b 8.862782
_cell_length_c 12.370941
_cell_angle_alpha 90.000000
_cell_angle_beta 149.449097
_cell_angle_gamma 90.000000
_cell_volume 1637.078723
_symmetry_space_group_name_H-M "P 2/M"
_symmetry_group_IT_number 10
_symmetry_cell_setting 'monoclinic'
loop_
_space_group_symop_operation_xyz
x,y,z
-x,y,-z
-x,-y,-z
x,-y,z
loop_
_atom_site_type_symbol
_atom_site_label
_atom_site_fract_x
_atom_site_fract_y
_atom_site_fract_z
Si Si1 0.169626 0.823254 0.318555
Si Si2 0.903576 0.174986 0.273719
Si Si3 0.509376 0.326244 0.841103
Si Si4 0.241572 0.179657 0.856946
Si Si5 0.444129 0.178615 0.283957
Si Si6 0.642895 0.674702 0.302488
Si Si7 0.123413 0.322330 0.442474
Si Si8 0.058283 0.174248 0.883798
O O1 0.272919 0.783154 0.516755
O O2 0.122464 0.732012 0.317363
O O3 0.159031 0.000000 0.319000
O O4 0.119068 0.772369 0.106834
O O5 0.822226 0.244270 0.177528
O O6 0.883781 0.200068 0.106471
O O7 0.000000 0.249172 0.500000
O O8 0.908405 0.000000 0.314686
O O9 0.518232 0.500000 0.826803
O O10 0.510609 0.229355 0.735102
O O11 0.416589 0.295984 0.713238
O O12 0.590022 0.280225 0.085771
O O13 0.207926 0.247529 0.675042
O O14 0.239738 0.000000 0.845218
O O15 0.342140 0.238326 0.083902
O O16 0.500000 0.244007 0.500000
O O17 0.446129 0.000000 0.290509
O O18 0.672528 0.500000 0.357135
O O19 0.133898 0.500000 0.469308
O O20 0.031291 0.272181 0.309650
O O21 0.029300 0.000000 0.835950
#
# Coordination Sequence:
#
# PCOD8065210 Si02
#       8
#     4   4   4   4   4   4   4   4
#     4  11  23  36  55  84 116 147 185 230 279 338
#     4   9  16  32  60  83 103 139 186 229 272 329
#     4   9  19  37  60  82 109 150 191 227 277 341
#     4  10  20  37  61  84 110 148 190 231 282 339
#     4  10  22  37  55  84 118 148 185 238 288 330
#     4   9  19  37  59  83 112 145 185 232 281 336
#     4  12  24  37  56  81 113 149 189 234 279 330
#     4  10  21  38  58  82 111 147 188 230 279 338
#
# _framework density 19.547014000000001
#
# number of rings (size 3 to 8) (size 9 to 14) (size 15 to 20)
#    0.000    2.000    1.250    3.375    0.000    7.250 
#    0.000    5.000    0.000    0.000    0.000    0.000 
#    0.000    0.000    0.000    0.000    0.000    0.000 
#
# Total GULP energy -396859.296087 kJ/mol
# GULP energy per Si atom -12401.853003 kJ/mol
# Density = 1.950252 g / cm^3
# Si number density = 19.547014 Si / 1000 Ang^3
#
#
#
# Elastic Constant Matrix: (Units=GPa)
#
#
# Indices 1 2 3 4 5 6 
#
# 1 99.2770 13.4265 26.9792 0.0000 -17.6819 0.0000
# 2 13.4265 35.4112 18.9938 0.0000 -2.0148 0.0000
# 3 26.9792 18.9938 83.2223 0.0000 -18.1519 0.0000
# 4 0.0000 0.0000 0.0000 13.9329 0.0000 3.0854
# 5 -17.6819 -2.0148 -18.1519 0.0000 32.5572 0.0000
# 6 0.0000 0.0000 0.0000 3.0854 0.0000 25.6810
#
#
#
# Elastic Compliance Matrix: (Units=1/GPa)
#
#
# Indices 1 2 3 4 5 6 
#
# 1 0.011974 -0.003155 -0.002033 0.000000 0.005174 0.000000
# 2 -0.003155 0.033175 -0.007371 0.000000 -0.003770 0.000000
# 3 -0.002033 -0.007371 0.015958 0.000000 0.007337 0.000000
# 4 0.000000 0.000000 0.000000 0.073734 0.000000 -0.008859
# 5 0.005174 -0.003770 0.007337 0.000000 0.037382 0.000000
# 6 0.000000 0.000000 0.000000 -0.008859 0.000000 0.040004
#
#
# Mechanical properties :
#
#
# Convention : Reuss Voigt Hill
#
# Bulk Modulus (GPa) = 27.78701 37.41219 32.59960
# Shear Modulus (GPa) = 20.05288 25.00162 22.52725
#
# Velocity S-wave (km/s) = 3.20641 3.58026 3.39848
# Velocity P-wave (km/s) = 5.28719 6.02264 5.66686
#
# Compressibility (1/GPa) = 0.03598804
#
# Stress axis : x y z
#
# Youngs Moduli (GPa) = 83.51739 30.14306 62.66609
#
# Poissons Ratio (x) = 0.09510 0.12740
# Poissons Ratio (y) = 0.26350 0.46192
# Poissons Ratio (z) = 0.16979 0.22219
#
# Static dielectric constant tensor:
#      x y z
#    x 3.690500 0.000000 -0.001770 
#    y 0.000000 3.265870 0.000000 
#    z -0.001770 0.000000 3.669940 
# 
# 
# High freq. dielectric constant tensor:
#      x y z
#    x 1.775370 0.000000 -0.002440 
#    y 0.000000 1.734540 0.000000 
#    z -0.002440 0.000000 1.762230 
# 
# From -- ./inp_files/58360.got.cif
#   From: 2010.06.25/outbox.cif.g09.slc.cpg/sg10_30_cif.got.tgz:58360.got - 2010.06.27 22:07:45.
