data_PCOD8065327
_publ_section_title
;
Structure prediction by ZEFSAII (Michael W. Deem and Ramdas Pophale) SiO2 
 PCOD8065327
Probable space group: P 2/M
;
_chemical_formula_sum "Si O2"
_cell_formula_units_Z 28
_cell_length_a 14.409536
_cell_length_b 12.349020
_cell_length_c 8.671874
_cell_angle_alpha 90.000000
_cell_angle_beta 117.910676
_cell_angle_gamma 90.000000
_cell_volume 1363.608504
_symmetry_space_group_name_H-M "P 2/M"
_symmetry_group_IT_number 10
_symmetry_cell_setting 'monoclinic'
loop_
_space_group_symop_operation_xyz
x,y,z
-x,y,-z
-x,-y,-z
x,-y,z
loop_
_atom_site_type_symbol
_atom_site_label
_atom_site_fract_x
_atom_site_fract_y
_atom_site_fract_z
Si Si1 0.715357 0.324880 0.854752
Si Si2 0.991321 0.873761 0.813447
Si Si3 0.885264 0.500000 0.971337
Si Si4 0.784322 0.880774 0.473316
Si Si5 0.498488 0.379804 0.173830
Si Si6 0.835263 0.260227 0.225774
Si Si7 0.399030 0.784104 0.509885
Si Si8 0.897288 0.500000 0.320715
O O1 0.814203 0.396681 0.878381
O O2 0.619245 0.392028 0.852313
O O3 0.680358 0.264097 0.675848
O O4 0.754420 0.245255 0.020995
O O5 0.870813 0.856021 0.671225
O O6 0.056055 0.793103 0.750704
O O7 0.026400 0.000000 0.818704
O O8 0.000000 0.839801 0.000000
O O9 0.931772 0.500000 0.175341
O O10 0.000000 0.500000 0.000000
O O11 0.790612 0.801561 0.335920
O O12 0.667480 0.875445 0.455273
O O13 0.801266 0.000000 0.419709
O O14 0.548933 0.500000 0.212113
O O15 0.566435 0.306084 0.340238
O O16 0.500000 0.332749 0.000000
O O17 0.836386 0.384897 0.290707
O O18 0.500000 0.834162 0.500000
O O19 0.000000 0.500000 0.500000
#
# Coordination Sequence:
#
# PCOD8065327 Si02
#       8
#     4   4   2   4   4   4   4   2
#     4  10  21  37  58  85 124 156 203 249 297 366
#     4  10  21  38  63  91 121 163 212 257 301 360
#     4  10  22  36  52  80 120 165 197 231 286 349
#     4  11  23  41  63  88 120 160 208 258 310 366
#     4  10  20  37  63  89 120 157 203 254 301 358
#     4  11  22  38  61  89 126 162 203 249 306 369
#     4  10  23  39  62  90 117 156 202 257 311 362
#     4  10  22  36  52  80 120 159 194 237 290 355
#
# _framework density 20.533752
#
# number of rings (size 3 to 8) (size 9 to 14) (size 15 to 20)
#    0.000    1.714    0.714    3.429    1.000    8.000 
#    1.286    0.714    0.000    9.000    0.000    0.000 
#    0.000    0.000    0.000    0.000    0.000    0.000 
#
# Total GULP energy -346888.156950 kJ/mol
# GULP energy per Si atom -12388.862748 kJ/mol
# Density = 2.048702 g / cm^3
# Si number density = 20.533752 Si / 1000 Ang^3
#
#
#
# Elastic Constant Matrix: (Units=GPa)
#
#
# Indices 1 2 3 4 5 6 
#
# 1 123.8217 46.5320 37.4296 0.0000 -0.1494 0.0000
# 2 46.5320 94.7427 42.0286 0.0000 -3.8304 0.0000
# 3 37.4296 42.0286 133.9916 0.0000 7.7800 0.0000
# 4 0.0000 0.0000 0.0000 20.8294 0.0000 -0.1491
# 5 -0.1494 -3.8304 7.7800 0.0000 32.7509 0.0000
# 6 0.0000 0.0000 0.0000 -0.1491 0.0000 33.6939
#
#
#
# Elastic Compliance Matrix: (Units=1/GPa)
#
#
# Indices 1 2 3 4 5 6 
#
# 1 0.010150 -0.004338 -0.001468 0.000000 -0.000112 0.000000
# 2 -0.004338 0.014301 -0.003417 0.000000 0.002465 0.000000
# 3 -0.001468 -0.003417 0.009094 0.000000 -0.002567 0.000000
# 4 0.000000 0.000000 0.000000 0.048011 0.000000 0.000212
# 5 -0.000112 0.002465 -0.002567 0.000000 0.031431 0.000000
# 6 0.000000 0.000000 0.000000 0.000212 0.000000 0.029680
#
#
# Mechanical properties :
#
#
# Convention : Reuss Voigt Hill
#
# Bulk Modulus (GPa) = 66.23202 67.17072 66.70137
# Shear Modulus (GPa) = 30.09392 32.55922 31.32657
#
# Velocity S-wave (km/s) = 3.83245 3.98633 3.91015
# Velocity P-wave (km/s) = 7.20477 7.34651 7.27599
#
# Compressibility (1/GPa) = 0.01509844
#
# Stress axis : x y z
#
# Youngs Moduli (GPa) = 98.52071 69.92448 109.96211
#
# Poissons Ratio (x) = 0.30337 0.16143
# Poissons Ratio (y) = 0.42743 0.37574
# Poissons Ratio (z) = 0.14463 0.23893
#
# Static dielectric constant tensor:
#      x y z
#    x 3.769660 0.000000 0.007890 
#    y 0.000000 3.622420 0.000000 
#    z 0.007890 0.000000 3.811910 
# 
# 
# High freq. dielectric constant tensor:
#      x y z
#    x 1.804570 0.000000 -0.001780 
#    y 0.000000 1.788590 0.000000 
#    z -0.001780 0.000000 1.819450 
# 
# From -- ./inp_files/28723.got.cif
#   From: 2010.06.25/outbox.cif.g09.slc.cpg/sg10_15_cif.got.tgz:28723.got - 2010.06.27 22:07:45.
