data_PCOD8065093
_publ_section_title
;
Structure prediction by ZEFSAII (Michael W. Deem and Ramdas Pophale) SiO2 
 PCOD8065093
Probable space group: P 2/M
;
_chemical_formula_sum "Si O2"
_cell_formula_units_Z 28
_cell_length_a 21.756469
_cell_length_b 11.705006
_cell_length_c 17.858952
_cell_angle_alpha 90.000000
_cell_angle_beta 161.747913
_cell_angle_gamma 90.000000
_cell_volume 1424.411779
_symmetry_space_group_name_H-M "P 2/M"
_symmetry_group_IT_number 10
_symmetry_cell_setting 'monoclinic'
loop_
_space_group_symop_operation_xyz
x,y,z
-x,y,-z
-x,-y,-z
x,-y,z
loop_
_atom_site_type_symbol
_atom_site_label
_atom_site_fract_x
_atom_site_fract_y
_atom_site_fract_z
Si Si1 0.448927 0.631869 0.264109
Si Si2 0.320142 0.000000 0.407205
Si Si3 0.609518 0.129637 0.228507
Si Si4 0.797947 0.135759 0.298287
Si Si5 0.857503 0.244930 0.999967
Si Si6 0.715752 0.198812 0.511513
Si Si7 0.247574 0.000000 0.156288
Si Si8 0.779576 0.627798 0.771056
O O1 0.422020 0.500000 0.209337
O O2 0.239669 0.686175 0.043967
O O3 0.534796 0.711713 0.298176
O O4 0.617703 0.648072 0.521491
O O5 0.289678 0.112328 0.423292
O O6 0.189650 0.000000 0.179004
O O7 0.528086 0.000000 0.607343
O O8 0.758291 0.180981 0.337846
O O9 0.703892 0.133400 0.419668
O O10 0.583102 0.000000 0.173671
O O11 0.387896 0.180455 0.966630
O O12 0.000000 0.191263 0.500000
O O13 0.821743 0.000000 0.322401
O O14 0.733861 0.284368 0.784448
O O15 0.848898 0.108347 0.996239
O O16 0.086724 0.275383 0.258312
O O17 0.761305 0.500000 0.782912
O O18 0.000000 0.651001 0.000000
#
# Coordination Sequence:
#
# PCOD8065093 Si02
#       8
#     4   2   4   4   4   4   2   4
#     4  11  24  40  58  80 108 143 194 254 305 339
#     4  11  23  41  55  75 114 157 195 239 283 337
#     4   9  18  32  53  82 120 148 184 218 264 337
#     4   8  15  31  54  83 111 151 182 218 261 320
#     4  12  24  37  55  80 108 146 196 243 292 344
#     4  12  23  38  57  83 116 154 188 232 291 345
#     4  11  25  37  55  76 108 159 205 234 278 346
#     4  10  20  37  59  77  97 137 194 256 303 336
#
# _framework density 19.657238
#
# number of rings (size 3 to 8) (size 9 to 14) (size 15 to 20)
#    0.000    1.571    3.571    3.000    2.000    3.429 
#    0.000    0.000    0.000    0.000    0.000    2.000 
#    0.000    5.714    0.000    0.000    0.000    0.000 
#
# Total GULP energy -346911.032766 kJ/mol
# GULP energy per Si atom -12389.679742 kJ/mol
# Density = 1.961250 g / cm^3
# Si number density = 19.657238 Si / 1000 Ang^3
#
#
#
# Elastic Constant Matrix: (Units=GPa)
#
#
# Indices 1 2 3 4 5 6 
#
# 1 90.5609 21.4259 47.7822 0.0000 17.3807 0.0000
# 2 21.4259 84.6087 7.7456 0.0000 13.6612 0.0000
# 3 47.7822 7.7456 71.2789 0.0000 24.8020 0.0000
# 4 0.0000 0.0000 0.0000 18.0383 0.0000 3.3700
# 5 17.3807 13.6612 24.8020 0.0000 38.7961 0.0000
# 6 0.0000 0.0000 0.0000 3.3700 0.0000 11.9771
#
#
#
# Elastic Compliance Matrix: (Units=1/GPa)
#
#
# Indices 1 2 3 4 5 6 
#
# 1 0.018077 -0.003616 -0.012025 0.000000 0.000862 0.000000
# 2 -0.003616 0.013258 0.002629 0.000000 -0.004729 0.000000
# 3 -0.012025 0.002629 0.026046 0.000000 -0.012190 0.000000
# 4 0.000000 0.000000 0.000000 0.058514 0.000000 -0.016464
# 5 0.000862 -0.004729 -0.012190 0.000000 0.034847 0.000000
# 6 0.000000 0.000000 0.000000 -0.016464 0.000000 0.088125
#
#
# Mechanical properties :
#
#
# Convention : Reuss Voigt Hill
#
# Bulk Modulus (GPa) = 31.89142 44.48397 38.18769
# Shear Modulus (GPa) = 18.15910 25.06196 21.61053
#
# Velocity S-wave (km/s) = 3.04268 3.57452 3.31927
# Velocity P-wave (km/s) = 5.34817 6.30200 5.84457
#
# Compressibility (1/GPa) = 0.03135640
#
# Stress axis : x y z
#
# Youngs Moduli (GPa) = 55.31849 75.42760 38.39307
#
# Poissons Ratio (x) = 0.27276 0.46169
# Poissons Ratio (y) = 0.20004 -0.10093
# Poissons Ratio (z) = 0.66522 -0.19829
#
# Static dielectric constant tensor:
#      x y z
#    x 3.573730 0.000000 0.388980 
#    y 0.000000 3.443820 0.000000 
#    z 0.388980 0.000000 3.578460 
# 
# 
# High freq. dielectric constant tensor:
#      x y z
#    x 1.755820 0.000000 0.032940 
#    y 0.000000 1.733250 0.000000 
#    z 0.032940 0.000000 1.761690 
# 
# From -- ./inp_files/79604.got.cif
#   From: 2010.06.25/outbox.cif.g09.slc.cpg/sg10_40_cif.got.tgz:79604.got - 2010.06.27 22:07:45.
