data_PCOD8065394
_publ_section_title
;
Structure prediction by ZEFSAII (Michael W. Deem and Ramdas Pophale) SiO2 
 PCOD8065394
Probable space group: P 2/M
;
_chemical_formula_sum "Si O2"
_cell_formula_units_Z 28
_cell_length_a 14.378622
_cell_length_b 8.622687
_cell_length_c 14.370359
_cell_angle_alpha 90.000000
_cell_angle_beta 120.597558
_cell_angle_gamma 90.000000
_cell_volume 1533.597744
_symmetry_space_group_name_H-M "P 2/M"
_symmetry_group_IT_number 10
_symmetry_cell_setting 'monoclinic'
loop_
_space_group_symop_operation_xyz
x,y,z
-x,y,-z
-x,-y,-z
x,-y,z
loop_
_atom_site_type_symbol
_atom_site_label
_atom_site_fract_x
_atom_site_fract_y
_atom_site_fract_z
Si Si1 0.786694 0.325460 0.069299
Si Si2 0.351567 0.674435 0.177967
Si Si3 0.235258 0.819455 0.286527
Si Si4 0.608659 0.818444 0.102062
Si Si5 0.984672 0.682927 0.885335
Si Si6 0.391455 0.319074 0.499815
Si Si7 0.568608 0.821235 0.283695
O O1 0.775424 0.500000 0.101368
O O2 0.717950 0.218467 0.102601
O O3 0.911380 0.275133 0.125152
O O4 0.745407 0.312452 0.943344
O O5 0.399867 0.500000 0.205700
O O6 0.305038 0.713377 0.254201
O O7 0.442067 0.798609 0.196763
O O8 0.110248 0.774539 0.214725
O O9 0.286605 0.778093 0.412800
O O10 0.249289 0.000000 0.271253
O O11 0.627105 0.764233 0.218443
O O12 0.589765 0.000000 0.093766
O O13 0.500000 0.741784 0.000000
O O14 0.960380 0.500000 0.872439
O O15 0.000000 0.739311 0.000000
O O16 0.500000 0.265397 0.500000
O O17 0.370777 0.500000 0.473913
O O18 0.400008 0.285621 0.613787
O O19 0.592786 0.000000 0.319720
#
# Coordination Sequence:
#
# PCOD8065394 Si02
#       7
#     4   4   4   4   4   4   4
#     4  10  21  35  56  82 111 152 193 229 270 326
#     4  11  20  33  53  81 115 151 188 228 272 326
#     4  12  24  36  55  84 115 149 187 229 280 337
#     4  10  21  36  54  81 117 152 183 226 283 333
#     4  10  20  38  58  80 114 151 188 230 278 329
#     4  11  23  38  58  82 111 149 188 228 281 335
#     4  11  22  36  55  82 115 151 188 229 278 331
#
# _framework density 18.257719999999999
#
# number of rings (size 3 to 8) (size 9 to 14) (size 15 to 20)
#    0.000    1.286    4.286    2.571    0.000    3.429 
#    0.000    0.000    0.000    0.857    0.000    6.000 
#    0.000    0.000    0.000    0.000    0.000    0.000 
#
# Total GULP energy -347180.612864 kJ/mol
# GULP energy per Si atom -12399.307602 kJ/mol
# Density = 1.821616 g / cm^3
# Si number density = 18.257720 Si / 1000 Ang^3
#
#
#
# Elastic Constant Matrix: (Units=GPa)
#
#
# Indices 1 2 3 4 5 6 
#
# 1 87.2288 20.7000 47.2940 0.0000 -3.1471 0.0000
# 2 20.7000 39.6227 38.5740 0.0000 -1.2266 0.0000
# 3 47.2940 38.5740 100.6969 0.0000 0.7641 0.0000
# 4 0.0000 0.0000 0.0000 24.3456 0.0000 2.0726
# 5 -3.1471 -1.2266 0.7641 0.0000 32.4489 0.0000
# 6 0.0000 0.0000 0.0000 2.0726 0.0000 25.5534
#
#
#
# Elastic Compliance Matrix: (Units=1/GPa)
#
#
# Indices 1 2 3 4 5 6 
#
# 1 0.015528 -0.001516 -0.006724 0.000000 0.001607 0.000000
# 2 -0.001516 0.040511 -0.014820 0.000000 0.001733 0.000000
# 3 -0.006724 -0.014820 0.018779 0.000000 -0.001655 0.000000
# 4 0.000000 0.000000 0.000000 0.041361 0.000000 -0.003355
# 5 0.001607 0.001733 -0.001655 0.000000 0.031078 0.000000
# 6 0.000000 0.000000 0.000000 -0.003355 0.000000 0.039406
#
#
# Mechanical properties :
#
#
# Convention : Reuss Voigt Hill
#
# Bulk Modulus (GPa) = 34.84650 48.96493 41.90571
# Shear Modulus (GPa) = 20.63149 24.53495 22.58322
#
# Velocity S-wave (km/s) = 3.36522 3.66978 3.52079
# Velocity P-wave (km/s) = 5.85038 6.69577 6.28730
#
# Compressibility (1/GPa) = 0.02869729
#
# Stress axis : x y z
#
# Youngs Moduli (GPa) = 64.40142 24.68447 53.25231
#
# Poissons Ratio (x) = 0.03742 0.35808
# Poissons Ratio (y) = 0.09763 0.78919
# Poissons Ratio (z) = 0.43305 0.36582
#
# Static dielectric constant tensor:
#      x y z
#    x 3.321500 0.000000 0.014260 
#    y 0.000000 3.259560 0.000000 
#    z 0.014260 0.000000 3.384780 
# 
# 
# High freq. dielectric constant tensor:
#      x y z
#    x 1.692110 0.000000 -0.001500 
#    y 0.000000 1.705860 0.000000 
#    z -0.001500 0.000000 1.701730 
# 
# From -- ./inp_files/66251.got.cif
#   From: 2010.06.25/outbox.cif.g09.slc.cpg/sg10_34_cif.got.tgz:66251.got - 2010.06.27 22:07:45.
