data_PCOD8065753
_publ_section_title
;
Structure prediction by ZEFSAII (Michael W. Deem and Ramdas Pophale) SiO2 
 PCOD8065753
Probable space group: P 2/M
;
_chemical_formula_sum "Si O2"
_cell_formula_units_Z 32
_cell_length_a 23.067391
_cell_length_b 8.631563
_cell_length_c 15.311081
_cell_angle_alpha 90.000000
_cell_angle_beta 148.396485
_cell_angle_gamma 90.000000
_cell_volume 1597.558192
_symmetry_space_group_name_H-M "P 2/M"
_symmetry_group_IT_number 10
_symmetry_cell_setting 'monoclinic'
loop_
_space_group_symop_operation_xyz
x,y,z
-x,y,-z
-x,-y,-z
x,-y,z
loop_
_atom_site_type_symbol
_atom_site_label
_atom_site_fract_x
_atom_site_fract_y
_atom_site_fract_z
Si Si1 0.308054 0.323037 0.804539
Si Si2 0.029508 0.831702 0.279462
Si Si3 0.360176 0.315610 0.062683
Si Si4 0.374343 0.319330 0.363121
Si Si5 0.727541 0.183469 0.420918
Si Si6 0.789383 0.183983 0.986155
Si Si7 0.912041 0.170350 0.452983
Si Si8 0.411153 0.816329 0.590370
O O1 0.339033 0.500000 0.827602
O O2 0.335565 0.233350 0.749687
O O3 0.179301 0.302450 0.658180
O O4 0.367064 0.262358 0.969336
O O5 0.146795 0.745562 0.406168
O O6 0.025976 0.854668 0.377702
O O7 0.029404 0.000000 0.231887
O O8 0.910412 0.748532 0.109141
O O9 0.363554 0.500000 0.073921
O O10 0.250236 0.256117 0.971783
O O11 0.464084 0.243569 0.245721
O O12 0.500000 0.281748 0.500000
O O13 0.347126 0.500000 0.319712
O O14 0.297054 0.224414 0.199607
O O15 0.350376 0.261142 0.430322
O O16 0.654372 0.239252 0.407728
O O17 0.740478 0.000000 0.431369
O O18 0.798036 0.000000 0.009049
O O19 0.000000 0.239360 0.500000
O O20 0.865290 0.000000 0.363130
O O21 0.410013 0.000000 0.579275
#
# Coordination Sequence:
#
# PCOD8065753 Si02
#       8
#     4   4   4   4   4   4   4   4
#     4  10  21  34  51  78 113 154 194 230 276 335
#     4   8  16  32  54  81 111 144 181 229 282 325
#     4  11  23  37  53  81 121 155 185 232 290 338
#     4  11  23  40  61  85 118 152 177 220 290 348
#     4   9  20  40  61  82 113 150 192 237 281 326
#     4  11  21  35  61  90 114 144 189 236 277 334
#     4   9  16  29  50  74 106 147 190 234 282 329
#     4  11  23  39  63  88 108 143 194 241 278 332
#
# _framework density 20.030567999999999
#
# number of rings (size 3 to 8) (size 9 to 14) (size 15 to 20)
#    0.000    2.000    1.250    3.375    0.000    5.250 
#    0.000    9.375    0.000    3.750    0.000    0.000 
#    0.000    0.000    0.000    0.000    0.000    0.000 
#
# Total GULP energy -396473.786847 kJ/mol
# GULP energy per Si atom -12389.805839 kJ/mol
# Density = 1.998498 g / cm^3
# Si number density = 20.030568 Si / 1000 Ang^3
#
#
#
# Elastic Constant Matrix: (Units=GPa)
#
#
# Indices 1 2 3 4 5 6 
#
# 1 89.6448 12.9067 18.5865 0.0000 -15.1262 0.0000
# 2 12.9067 29.4873 13.9131 0.0000 -1.6348 0.0000
# 3 18.5865 13.9131 73.0615 0.0000 -2.9646 0.0000
# 4 0.0000 0.0000 0.0000 18.8269 0.0000 -6.9899
# 5 -15.1262 -1.6348 -2.9646 0.0000 27.4364 0.0000
# 6 0.0000 0.0000 0.0000 -6.9899 0.0000 23.9962
#
#
#
# Elastic Compliance Matrix: (Units=1/GPa)
#
#
# Indices 1 2 3 4 5 6 
#
# 1 0.013430 -0.004413 -0.002296 0.000000 0.006893 0.000000
# 2 -0.004413 0.038769 -0.006293 0.000000 -0.000803 0.000000
# 3 -0.002296 -0.006293 0.015471 0.000000 0.000031 0.000000
# 4 0.000000 0.000000 0.000000 0.059556 0.000000 0.017348
# 5 0.006893 -0.000803 0.000031 0.000000 0.040204 0.000000
# 6 0.000000 0.000000 0.000000 0.017348 0.000000 0.046727
#
#
# Mechanical properties :
#
#
# Convention : Reuss Voigt Hill
#
# Bulk Modulus (GPa) = 24.00045 31.44514 27.72280
# Shear Modulus (GPa) = 19.68127 23.83770 21.75949
#
# Velocity S-wave (km/s) = 3.13798 3.45348 3.29950
# Velocity P-wave (km/s) = 5.01370 5.62447 5.32784
#
# Compressibility (1/GPa) = 0.04166588
#
# Stress axis : x y z
#
# Youngs Moduli (GPa) = 74.46207 25.79384 64.63748
#
# Poissons Ratio (x) = 0.11382 0.14844
# Poissons Ratio (y) = 0.32857 0.40675
# Poissons Ratio (z) = 0.17100 0.16232
#
# Static dielectric constant tensor:
#      x y z
#    x 3.773890 0.000000 -0.003080 
#    y 0.000000 3.440850 0.000000 
#    z -0.003080 0.000000 3.769580 
# 
# 
# High freq. dielectric constant tensor:
#      x y z
#    x 1.781090 0.000000 -0.000210 
#    y 0.000000 1.762060 0.000000 
#    z -0.000210 0.000000 1.778530 
# 
# From -- ./inp_files/71569.got.cif
#   From: 2010.06.25/outbox.cif.g09.slc.cpg/sg10_36_cif.got.tgz:71569.got - 2010.06.27 22:07:45.
