data_PCOD8065532
_publ_section_title
;
Structure prediction by ZEFSAII (Michael W. Deem and Ramdas Pophale) SiO2 
 PCOD8065532
Probable space group: P 2/M
;
_chemical_formula_sum "Si O2"
_cell_formula_units_Z 32
_cell_length_a 31.305391
_cell_length_b 9.192110
_cell_length_c 12.620718
_cell_angle_alpha 90.000000
_cell_angle_beta 27.249846
_cell_angle_gamma 90.000000
_cell_volume 1662.884343
_symmetry_space_group_name_H-M "P 2/M"
_symmetry_group_IT_number 10
_symmetry_cell_setting 'monoclinic'
loop_
_space_group_symop_operation_xyz
x,y,z
-x,y,-z
-x,-y,-z
x,-y,z
loop_
_atom_site_type_symbol
_atom_site_label
_atom_site_fract_x
_atom_site_fract_y
_atom_site_fract_z
Si Si1 0.285337 0.333229 0.453774
Si Si2 0.333416 0.665378 0.976490
Si Si3 0.294906 0.666296 0.827883
Si Si4 0.896207 0.337791 0.270313
Si Si5 0.091355 0.668669 0.360139
Si Si6 0.442885 0.334224 0.937302
Si Si7 0.629838 0.172608 0.539812
Si Si8 0.848484 0.829729 0.575045
O O1 0.299967 0.500000 0.456847
O O2 0.178494 0.302958 0.657028
O O3 0.305195 0.230439 0.509482
O O4 0.351923 0.295491 0.207203
O O5 0.294990 0.500000 0.073011
O O6 0.353471 0.694397 0.807730
O O7 0.422792 0.686970 0.855512
O O8 0.257160 0.776559 0.186068
O O9 0.308600 0.500000 0.760044
O O10 0.333372 0.772851 0.654274
O O11 0.185598 0.701132 0.086626
O O12 0.873883 0.500000 0.364670
O O13 0.890828 0.214826 0.370105
O O14 0.000000 0.331752 0.000000
O O15 0.085788 0.500000 0.402210
O O16 0.088439 0.758889 0.473818
O O17 0.000000 0.720477 0.500000
O O18 0.474532 0.500000 0.888864
O O19 0.525080 0.227900 0.791113
O O20 0.630808 0.000000 0.538244
O O21 0.851360 0.000000 0.582574
#
# Coordination Sequence:
#
# PCOD8065532 Si02
#       8
#     4   4   4   4   4   4   4   4
#     4  10  21  40  64  86 112 150 198 247 291 342
#     4   9  18  37  64  88 110 145 196 245 284 338
#     4   9  19  37  60  84 114 150 193 242 291 342
#     4  10  21  39  63  88 113 148 197 247 290 340
#     4   9  19  37  62  86 109 147 201 249 285 336
#     4  10  20  38  65  89 111 146 198 250 293 344
#     4  12  26  39  54  82 124 162 193 237 293 358
#     4  11  21  33  54  84 121 154 181 229 294 356
#
# _framework density 19.243670999999999
#
# number of rings (size 3 to 8) (size 9 to 14) (size 15 to 20)
#    0.000    2.000    1.250    3.375    0.000    7.000 
#    0.000    7.500    0.000    0.000    0.000    0.000 
#    0.000    0.000    0.000    0.000    0.000    0.000 
#
# Total GULP energy -396815.808977 kJ/mol
# GULP energy per Si atom -12400.494031 kJ/mol
# Density = 1.919987 g / cm^3
# Si number density = 19.243671 Si / 1000 Ang^3
#
#
#
# Elastic Constant Matrix: (Units=GPa)
#
#
# Indices 1 2 3 4 5 6 
#
# 1 128.8264 63.4572 51.1777 0.0000 -3.6300 0.0000
# 2 63.4572 104.0603 36.5989 0.0000 3.0445 0.0000
# 3 51.1777 36.5989 72.9992 0.0000 -3.1929 0.0000
# 4 0.0000 0.0000 0.0000 13.4173 0.0000 12.5352
# 5 -3.6300 3.0445 -3.1929 0.0000 31.0900 0.0000
# 6 0.0000 0.0000 0.0000 12.5352 0.0000 -2.8264
#
#
#
# Elastic Compliance Matrix: (Units=1/GPa)
#
#
# Indices 1 2 3 4 5 6 
#
# 1 0.013177 -0.005891 -0.006220 0.000000 0.001477 0.000000
# 2 -0.005891 0.014396 -0.003194 0.000000 -0.002426 0.000000
# 3 -0.006220 -0.003194 0.019731 0.000000 0.001613 0.000000
# 4 0.000000 0.000000 0.000000 0.014490 0.000000 0.064265
# 5 0.001477 -0.002426 0.001613 0.000000 0.032740 0.000000
# 6 0.000000 0.000000 0.000000 0.064265 0.000000 -0.068788
#
#
# Mechanical properties :
#
#
# Convention : Reuss Voigt Hill
#
# Bulk Modulus (GPa) = 59.89801 67.59482 63.74641
# Shear Modulus (GPa) = 80.74854 18.64634 49.69744
#
# Velocity S-wave (km/s) = 6.48477 3.11619 5.08738
# Velocity P-wave (km/s) = 9.34148 6.93898 8.22839
#
# Compressibility (1/GPa) = 0.01669504
#
# Stress axis : x y z
#
# Youngs Moduli (GPa) = 75.89237 69.46145 50.68149
#
# Poissons Ratio (x) = 0.40919 0.31522
# Poissons Ratio (y) = 0.44708 0.16187
# Poissons Ratio (z) = 0.47202 0.22186
#
# Static dielectric constant tensor:
#      x y z
#    x 3.726510 0.000000 -0.046520 
#    y 0.000000 3.384800 0.000000 
#    z -0.046520 0.000000 3.371800 
# 
# 
# High freq. dielectric constant tensor:
#      x y z
#    x 1.762150 0.000000 -0.001730 
#    y 0.000000 1.733430 0.000000 
#    z -0.001730 0.000000 1.737440 
# 
# From -- ./inp_files/58212.got.cif
#   From: 2010.06.25/outbox.cif.g09.slc.cpg/sg10_30_cif.got.tgz:58212.got - 2010.06.27 22:07:45.
