data_PCOD8065928
_publ_section_title
;
Structure prediction by ZEFSAII (Michael W. Deem and Ramdas Pophale) SiO2 
 PCOD8065928
Probable space group: P 2/M
;
_chemical_formula_sum "Si O2"
_cell_formula_units_Z 28
_cell_length_a 12.431101
_cell_length_b 13.553969
_cell_length_c 8.647666
_cell_angle_alpha 90.000000
_cell_angle_beta 107.257300
_cell_angle_gamma 90.000000
_cell_volume 1391.458463
_symmetry_space_group_name_H-M "P 2/M"
_symmetry_group_IT_number 10
_symmetry_cell_setting 'monoclinic'
loop_
_space_group_symop_operation_xyz
x,y,z
-x,y,-z
-x,-y,-z
x,-y,z
loop_
_atom_site_type_symbol
_atom_site_label
_atom_site_fract_x
_atom_site_fract_y
_atom_site_fract_z
Si Si1 0.307439 0.240565 0.613100
Si Si2 0.053648 0.113495 0.184321
Si Si3 0.927198 0.267686 0.328535
Si Si4 0.271371 0.225305 0.245377
Si Si5 0.509703 0.110012 0.686994
Si Si6 0.185559 0.610739 0.973575
Si Si7 0.597148 0.607830 0.139577
O O1 0.192007 0.227939 0.658468
O O2 0.291467 0.262443 0.426774
O O3 0.387934 0.148557 0.692800
O O4 0.375897 0.336887 0.692117
O O5 0.186100 0.133898 0.224194
O O6 0.997540 0.174416 0.298743
O O7 0.034251 0.000000 0.216722
O O8 0.000000 0.144667 0.000000
O O9 0.912098 0.344787 0.180250
O O10 0.000000 0.316447 0.500000
O O11 0.386801 0.182478 0.219143
O O12 0.214249 0.315152 0.126592
O O13 0.500000 0.105920 0.500000
O O14 0.529869 0.000000 0.763559
O O15 0.149298 0.500000 0.016444
O O16 0.294446 0.599208 0.918570
O O17 0.552477 0.500000 0.169612
O O18 0.500000 0.663033 0.000000
#
# Coordination Sequence:
#
# PCOD8065928 Si02
#       7
#     4   4   4   4   4   4   4
#     4  10  21  35  60  88 117 154 193 249 296 348
#     4  11  23  40  63  88 117 159 203 242 290 351
#     4  11  22  41  61  86 122 156 200 249 295 350
#     4  11  20  38  61  86 122 154 199 243 298 353
#     4   9  19  35  56  85 118 154 191 235 293 353
#     4  10  22  38  60  86 118 157 199 245 301 359
#     4   9  18  35  57  82 114 154 195 240 296 351
#
# _framework density 20.122771
#
# number of rings (size 3 to 8) (size 9 to 14) (size 15 to 20)
#    0.000    1.857    2.857    1.286    0.000    2.286 
#    0.000    1.429    0.000    9.000    0.000    0.000 
#    0.000    0.000    0.000    0.000    0.000    0.000 
#
# Total GULP energy -347027.280855 kJ/mol
# GULP energy per Si atom -12393.831459 kJ/mol
# Density = 2.007697 g / cm^3
# Si number density = 20.122771 Si / 1000 Ang^3
#
#
#
# Elastic Constant Matrix: (Units=GPa)
#
#
# Indices 1 2 3 4 5 6 
#
# 1 67.6550 36.3444 26.7455 0.0000 21.3468 0.0000
# 2 36.3444 106.2552 55.6033 0.0000 4.2135 0.0000
# 3 26.7455 55.6033 130.6989 0.0000 17.2398 0.0000
# 4 0.0000 0.0000 0.0000 17.2973 0.0000 7.5350
# 5 21.3468 4.2135 17.2398 0.0000 28.3569 0.0000
# 6 0.0000 0.0000 0.0000 7.5350 0.0000 20.2416
#
#
#
# Elastic Compliance Matrix: (Units=1/GPa)
#
#
# Indices 1 2 3 4 5 6 
#
# 1 0.024344 -0.008023 0.000752 0.000000 -0.017591 0.000000
# 2 -0.008023 0.014805 -0.005614 0.000000 0.007252 0.000000
# 3 0.000752 -0.005614 0.010709 0.000000 -0.006242 0.000000
# 4 0.000000 0.000000 0.000000 0.069002 0.000000 -0.025686
# 5 -0.017591 0.007252 -0.006242 0.000000 0.051224 0.000000
# 6 0.000000 0.000000 0.000000 -0.025686 0.000000 0.058965
#
#
# Mechanical properties :
#
#
# Convention : Reuss Voigt Hill
#
# Bulk Modulus (GPa) = 41.51218 60.22173 50.86695
# Shear Modulus (GPa) = 19.02238 25.57354 22.29796
#
# Velocity S-wave (km/s) = 3.07794 3.56880 3.33242
# Velocity P-wave (km/s) = 5.77112 6.85375 6.33560
#
# Compressibility (1/GPa) = 0.02408932
#
# Stress axis : x y z
#
# Youngs Moduli (GPa) = 41.07830 67.54284 93.38009
#
# Poissons Ratio (x) = 0.54187 -0.07020
# Poissons Ratio (y) = 0.32955 0.52420
# Poissons Ratio (z) = -0.03088 0.37916
#
# Static dielectric constant tensor:
#      x y z
#    x 3.814380 0.000000 0.319350 
#    y 0.000000 3.929410 0.000000 
#    z 0.319350 0.000000 3.898170 
# 
# 
# High freq. dielectric constant tensor:
#      x y z
#    x 1.786490 0.000000 0.018790 
#    y 0.000000 1.776240 0.000000 
#    z 0.018790 0.000000 1.788620 
# 
# From -- ./inp_files/25409.got.cif
#   From: 2010.06.25/outbox.cif.g09.slc.cpg/sg10_13_cif.got.tgz:25409.got - 2010.06.27 22:07:45.
