data_PCOD8065046
_publ_section_title
;
Structure prediction by ZEFSAII (Michael W. Deem and Ramdas Pophale) SiO2 
 PCOD8065046
Probable space group: P 2/M
;
_chemical_formula_sum "Si O2"
_cell_formula_units_Z 28
_cell_length_a 14.982821
_cell_length_b 12.528980
_cell_length_c 9.475022
_cell_angle_alpha 90.000000
_cell_angle_beta 61.922196
_cell_angle_gamma 90.000000
_cell_volume 1569.315899
_symmetry_space_group_name_H-M "P 2/M"
_symmetry_group_IT_number 10
_symmetry_cell_setting 'monoclinic'
loop_
_space_group_symop_operation_xyz
x,y,z
-x,y,-z
-x,-y,-z
x,-y,z
loop_
_atom_site_type_symbol
_atom_site_label
_atom_site_fract_x
_atom_site_fract_y
_atom_site_fract_z
Si Si1 0.600011 0.373869 0.339528
Si Si2 0.944262 0.500000 0.187957
Si Si3 0.909559 0.500000 0.673651
Si Si4 0.398838 0.381136 0.986986
Si Si5 0.772991 0.697823 0.702244
Si Si6 0.204935 0.694723 0.641757
Si Si7 0.914604 0.120970 0.663805
Si Si8 0.052167 0.877501 0.821086
O O1 0.500000 0.338121 0.500000
O O2 0.617088 0.500000 0.344680
O O3 0.586262 0.340559 0.185322
O O4 0.698119 0.313545 0.328324
O O5 0.875651 0.603271 0.264093
O O6 0.043611 0.500000 0.208112
O O7 0.000000 0.500000 0.000000
O O8 0.846002 0.605959 0.701010
O O9 0.000000 0.500000 0.500000
O O10 0.351484 0.500000 0.015471
O O11 0.500000 0.384119 0.000000
O O12 0.328618 0.305254 0.131627
O O13 0.754708 0.685380 0.548586
O O14 0.813918 0.813196 0.713826
O O15 0.149469 0.808086 0.705021
O O16 0.000000 0.170758 0.500000
O O17 0.957327 0.130643 0.787793
O O18 0.889400 0.000000 0.638449
O O19 0.090002 0.000000 0.806675
O O20 0.000000 0.832904 0.000000
#
# Coordination Sequence:
#
# PCOD8065046 Si02
#       8
#     4   2   2   4   4   4   4   4
#     4  10  22  39  59  81 113 146 186 231 281 338
#     4  12  26  34  49  78 119 150 183 222 277 334
#     4  12  22  36  49  78 117 152 181 218 275 334
#     4  10  22  39  59  83 110 146 188 232 278 336
#     4  12  22  34  57  82 112 148 188 229 276 331
#     4  12  22  36  55  82 112 151 184 229 281 330
#     4  10  20  37  57  80 112 152 195 229 267 322
#     4  10  22  38  56  81 113 152 194 233 271 324
#
# _framework density 17.842168999999998
#
# number of rings (size 3 to 8) (size 9 to 14) (size 15 to 20)
#    0.000    1.143    4.286    2.571    4.000    1.143 
#    0.000    0.000    0.000    0.857    0.000    0.000 
#    0.000    0.000    0.000    0.000    0.000    0.000 
#
# Total GULP energy -347161.614728 kJ/mol
# GULP energy per Si atom -12398.629097 kJ/mol
# Density = 1.780156 g / cm^3
# Si number density = 17.842169 Si / 1000 Ang^3
#
#
#
# Elastic Constant Matrix: (Units=GPa)
#
#
# Indices 1 2 3 4 5 6 
#
# 1 92.5871 31.2672 44.0429 0.0000 13.8607 0.0000
# 2 31.2672 73.0823 31.7422 0.0000 -7.0212 0.0000
# 3 44.0429 31.7422 157.3840 0.0000 9.5911 0.0000
# 4 0.0000 0.0000 0.0000 28.8127 0.0000 15.3596
# 5 13.8607 -7.0212 9.5911 0.0000 34.4257 0.0000
# 6 0.0000 0.0000 0.0000 15.3596 0.0000 39.3315
#
#
#
# Elastic Compliance Matrix: (Units=1/GPa)
#
#
# Indices 1 2 3 4 5 6 
#
# 1 0.015019 -0.005918 -0.002612 0.000000 -0.006526 0.000000
# 2 -0.005918 0.017882 -0.002358 0.000000 0.006687 0.000000
# 3 -0.002612 -0.002358 0.007655 0.000000 -0.001562 0.000000
# 4 0.000000 0.000000 0.000000 0.043832 0.000000 -0.017117
# 5 -0.006526 0.006687 -0.001562 0.000000 0.033475 0.000000
# 6 0.000000 0.000000 0.000000 -0.017117 0.000000 0.032109
#
#
# Mechanical properties :
#
#
# Convention : Reuss Voigt Hill
#
# Bulk Modulus (GPa) = 53.24628 59.68421 56.46525
# Shear Modulus (GPa) = 28.08885 34.91406 31.50145
#
# Velocity S-wave (km/s) = 3.97204 4.42840 4.20642
# Velocity P-wave (km/s) = 7.13750 7.72473 7.43692
#
# Compressibility (1/GPa) = 0.01878065
#
# Stress axis : x y z
#
# Youngs Moduli (GPa) = 66.58438 55.92312 130.62592
#
# Poissons Ratio (x) = 0.33096 0.34113
# Poissons Ratio (y) = 0.39406 0.30799
# Poissons Ratio (z) = 0.17389 0.13186
#
# Static dielectric constant tensor:
#      x y z
#    x 3.184390 0.000000 0.230560 
#    y 0.000000 3.127520 0.000000 
#    z 0.230560 0.000000 3.466330 
# 
# 
# High freq. dielectric constant tensor:
#      x y z
#    x 1.688330 0.000000 0.013580 
#    y 0.000000 1.672230 0.000000 
#    z 0.013580 0.000000 1.708840 
# 
# From -- ./inp_files/28541.got.cif
#   From: 2010.06.25/outbox.cif.g09.slc.cpg/sg10_15_cif.got.tgz:28541.got - 2010.06.27 22:07:45.
