data_PCOD8065831
_publ_section_title
;
Structure prediction by ZEFSAII (Michael W. Deem and Ramdas Pophale) SiO2 
 PCOD8065831
Probable space group: P 2/M
;
_chemical_formula_sum "Si O2"
_cell_formula_units_Z 32
_cell_length_a 21.574336
_cell_length_b 12.988003
_cell_length_c 7.542149
_cell_angle_alpha 90.000000
_cell_angle_beta 121.626733
_cell_angle_gamma 90.000000
_cell_volume 1799.494742
_symmetry_space_group_name_H-M "P 2/M"
_symmetry_group_IT_number 10
_symmetry_cell_setting 'monoclinic'
loop_
_space_group_symop_operation_xyz
x,y,z
-x,y,-z
-x,-y,-z
x,-y,z
loop_
_atom_site_type_symbol
_atom_site_label
_atom_site_fract_x
_atom_site_fract_y
_atom_site_fract_z
Si Si1 0.640210 0.618234 0.411796
Si Si2 0.784351 0.739615 0.630575
Si Si3 0.724255 0.121179 0.836383
Si Si4 0.920540 0.614439 0.837894
Si Si5 0.640210 0.381766 0.008833
Si Si6 0.580989 0.244066 0.621483
Si Si7 0.920540 0.614439 0.423726
Si Si8 0.784351 0.260385 0.222477
O O1 0.633884 0.500000 0.459819
O O2 0.723985 0.651042 0.559679
O O3 0.589013 0.685835 0.459459
O O4 0.613819 0.634773 0.170729
O O5 0.763585 0.837124 0.718993
O O6 0.859129 0.691314 0.820009
O O7 0.791481 0.776844 0.437222
O O8 0.639218 0.152032 0.708827
O O9 0.731024 0.000000 0.846536
O O10 0.763585 0.162876 0.071764
O O11 0.914124 0.500000 0.914816
O O12 0.907488 0.604770 0.611231
O O13 0.000000 0.661236 0.000000
O O14 0.633884 0.500000 0.941832
O O15 0.589013 0.314165 0.807580
O O16 0.723985 0.348958 0.112276
O O17 0.500000 0.196033 0.500000
O O18 0.914124 0.500000 0.327556
O O19 0.859129 0.691314 0.257378
O O20 0.000000 0.661236 0.500000
#
# Coordination Sequence:
#
# PCOD8065831 Si02
#       8
#     4   4   4   4   4   4   4   4
#     4   9  17  30  49  73 103 138 170 195 231 290
#     4   9  18  33  52  74 100 133 166 210 250 290
#     4  10  22  38  57  76  90 121 173 219 263 304
#     4   9  17  28  45  75 110 140 166 194 236 291
#     4   9  17  30  49  73 103 138 170 195 231 290
#     4  10  21  35  50  73 103 128 159 205 256 305
#     4   9  17  28  45  75 110 140 166 194 236 291
#     4   9  18  33  52  74 100 133 166 210 250 290
#
# _framework density 17.782769999999999
#
# number of rings (size 3 to 8) (size 9 to 14) (size 15 to 20)
#    0.000    2.750    0.000    1.125    1.750    5.250 
#    0.000    2.500    0.000    0.750    0.000    7.000 
#    0.000    0.000    0.000    0.000    0.000    0.000 
#
# Total GULP energy -396757.689235 kJ/mol
# GULP energy per Si atom -12398.677789 kJ/mol
# Density = 1.774230 g / cm^3
# Si number density = 17.782770 Si / 1000 Ang^3
#
#
#
# Elastic Constant Matrix: (Units=GPa)
#
#
# Indices 1 2 3 4 5 6 
#
# 1 96.1864 47.2566 49.9638 0.0000 16.6855 0.0000
# 2 47.2566 106.8574 44.9825 0.0000 6.4516 0.0000
# 3 49.9638 44.9825 86.2678 0.0000 11.4529 0.0000
# 4 0.0000 0.0000 0.0000 15.1555 0.0000 -3.7575
# 5 16.6855 6.4516 11.4529 0.0000 35.0151 0.0000
# 6 0.0000 0.0000 0.0000 -3.7575 0.0000 13.8310
#
#
#
# Elastic Compliance Matrix: (Units=1/GPa)
#
#
# Indices 1 2 3 4 5 6 
#
# 1 0.016974 -0.004287 -0.006928 0.000000 -0.005033 0.000000
# 2 -0.004287 0.013074 -0.004480 0.000000 0.001099 0.000000
# 3 -0.006928 -0.004480 0.018182 0.000000 -0.001820 0.000000
# 4 0.000000 0.000000 0.000000 0.070748 0.000000 0.019220
# 5 -0.005033 0.001099 -0.001820 0.000000 0.031350 0.000000
# 6 0.000000 0.000000 0.000000 0.019220 0.000000 0.077523
#
#
# Mechanical properties :
#
#
# Convention : Reuss Voigt Hill
#
# Bulk Modulus (GPa) = 59.37971 63.74636 61.56304
# Shear Modulus (GPa) = 18.87843 22.60758 20.74300
#
# Velocity S-wave (km/s) = 3.26178 3.56942 3.41906
# Velocity P-wave (km/s) = 6.90288 7.27412 7.09093
#
# Compressibility (1/GPa) = 0.01684077
#
# Stress axis : x y z
#
# Youngs Moduli (GPa) = 58.91350 76.49031 54.99979
#
# Poissons Ratio (x) = 0.32788 0.38102
# Poissons Ratio (y) = 0.25253 0.24641
# Poissons Ratio (z) = 0.40813 0.34269
#
# Static dielectric constant tensor:
#      x y z
#    x 3.415380 0.000000 -0.099410 
#    y 0.000000 2.903420 0.000000 
#    z -0.099410 0.000000 3.450420 
# 
# 
# High freq. dielectric constant tensor:
#      x y z
#    x 1.693380 0.000000 -0.004270 
#    y 0.000000 1.644510 0.000000 
#    z -0.004270 0.000000 1.694880 
# 
# From -- ./inp_files/34877.got.cif
#   From: 2010.06.25/outbox.cif.g09.slc.cpg/sg10_18_cif.got.tgz:34877.got - 2010.06.27 22:07:45.
