data_PCOD8065552
_publ_section_title
;
Structure prediction by ZEFSAII (Michael W. Deem and Ramdas Pophale) SiO2 
 PCOD8065552
Probable space group: P 2/M
;
_chemical_formula_sum "Si O2"
_cell_formula_units_Z 28
_cell_length_a 32.815519
_cell_length_b 7.981048
_cell_length_c 33.222643
_cell_angle_alpha 90.000000
_cell_angle_beta 171.020961
_cell_angle_gamma 90.000000
_cell_volume 1358.005386
_symmetry_space_group_name_H-M "P 2/M"
_symmetry_group_IT_number 10
_symmetry_cell_setting 'monoclinic'
loop_
_space_group_symop_operation_xyz
x,y,z
-x,y,-z
-x,-y,-z
x,-y,z
loop_
_atom_site_type_symbol
_atom_site_label
_atom_site_fract_x
_atom_site_fract_y
_atom_site_fract_z
Si Si1 0.602683 0.811571 0.249999
Si Si2 0.222460 0.500000 0.750000
Si Si3 0.277558 0.500000 0.250000
Si Si4 0.855938 0.684968 0.250001
Si Si5 0.882678 0.308393 0.750001
Si Si6 0.970686 0.189234 0.750000
Si Si7 0.485229 0.690215 0.749999
Si Si8 0.338542 0.190979 0.250001
O O1 0.563656 0.691400 0.249999
O O2 0.878493 0.783809 0.497854
O O3 0.586069 0.000000 0.249999
O O4 0.382781 0.783810 0.002142
O O5 0.193320 0.665024 0.750000
O O6 0.000000 0.500000 0.500000
O O7 0.500000 0.500000 0.000000
O O8 0.500000 0.500000 0.500000
O O9 0.303019 0.328211 0.250000
O O10 0.000000 0.500000 0.000000
O O11 0.876623 0.500000 0.250001
O O12 0.867011 0.500000 0.750003
O O13 0.615666 0.213813 0.499077
O O14 0.931541 0.309373 0.749999
O O15 0.117517 0.213812 0.000927
O O16 0.750524 0.218645 0.502147
O O17 0.954510 0.000000 0.750001
O O18 0.246228 0.218650 0.997850
O O19 0.500626 0.500000 0.749993
O O20 0.320857 0.000000 0.250002
#
# Coordination Sequence:
#
# PCOD8065552 Si02
#       8
#     4   2   2   4   4   4   4   4
#     4  12  23  40  61  89 127 167 207 259 314 369
#     4  10  20  38  68  96 118 152 202 252 304 368
#     4  12  26  46  72 102 138 170 212 270 328 398
#     4  10  22  38  64  92 118 158 209 251 298 373
#     4  12  23  44  69  96 134 176 225 272 324 384
#     4  12  25  42  62  95 129 172 220 272 326 374
#     4  12  25  42  62  88 128 171 220 268 317 371
#     4  12  25  45  71 103 133 177 219 271 328 395
#
# _framework density 20.618475
#
# number of rings (size 3 to 8) (size 9 to 14) (size 15 to 20)
#    0.429    0.000    1.429    9.000    0.000    0.571 
#    0.000    0.000    0.000    8.571    0.000    0.000 
#    0.000    0.000    0.000    0.000    0.000    0.000 
#
# Total GULP energy -347328.899696 kJ/mol
# GULP energy per Si atom -12404.603561 kJ/mol
# Density = 2.057155 g / cm^3
# Si number density = 20.618475 Si / 1000 Ang^3
#
#
#
# Elastic Constant Matrix: (Units=GPa)
#
#
# Indices 1 2 3 4 5 6 
#
# 1 133.9668 25.2430 71.2721 0.0000 0.5085 0.0000
# 2 25.2430 131.2923 34.2282 0.0000 0.4124 0.0000
# 3 71.2721 34.2282 205.4052 0.0000 2.7700 0.0000
# 4 0.0000 0.0000 0.0000 49.6799 0.0000 1.0665
# 5 0.5085 0.4124 2.7700 0.0000 36.9983 0.0000
# 6 0.0000 0.0000 0.0000 1.0665 0.0000 26.4511
#
#
#
# Elastic Compliance Matrix: (Units=1/GPa)
#
#
# Indices 1 2 3 4 5 6 
#
# 1 0.009276 -0.000987 -0.003056 0.000000 0.000112 0.000000
# 2 -0.000987 0.008068 -0.001002 0.000000 -0.000001 0.000000
# 3 -0.003056 -0.001002 0.006101 0.000000 -0.000404 0.000000
# 4 0.000000 0.000000 0.000000 0.020146 0.000000 -0.000812
# 5 0.000112 -0.000001 -0.000404 0.000000 0.027057 0.000000
# 6 0.000000 0.000000 0.000000 -0.000812 0.000000 0.037838
#
#
# Mechanical properties :
#
#
# Convention : Reuss Voigt Hill
#
# Bulk Modulus (GPa) = 74.87674 81.35011 78.11343
# Shear Modulus (GPa) = 40.64159 45.28727 42.96443
#
# Velocity S-wave (km/s) = 4.44455 4.69170 4.56980
# Velocity P-wave (km/s) = 7.92041 8.30000 8.11243
#
# Compressibility (1/GPa) = 0.01335528
#
# Stress axis : x y z
#
# Youngs Moduli (GPa) = 107.80855 123.95311 163.90693
#
# Poissons Ratio (x) = 0.12236 0.50082
# Poissons Ratio (y) = 0.10643 0.16420
# Poissons Ratio (z) = 0.32941 0.12418
#
# Static dielectric constant tensor:
#      x y z
#    x 3.615990 0.000000 0.005160 
#    y 0.000000 3.840400 0.000000 
#    z 0.005160 0.000000 3.728410 
# 
# 
# High freq. dielectric constant tensor:
#      x y z
#    x 1.801610 0.000000 0.001310 
#    y 0.000000 1.813400 0.000000 
#    z 0.001310 0.000000 1.830250 
# 
# From -- ./inp_files/96060.got.cif
#   From: 2010.06.25/outbox.cif.g09.slc.cpg/sg10_49_cif.got.tgz:96060.got - 2010.06.27 22:07:45.
