data_PCOD8065331
_publ_section_title
;
Structure prediction by ZEFSAII (Michael W. Deem and Ramdas Pophale) SiO2 
 PCOD8065331
Probable space group: P 2/M
;
_chemical_formula_sum "Si O2"
_cell_formula_units_Z 24
_cell_length_a 8.865124
_cell_length_b 8.341424
_cell_length_c 30.691904
_cell_angle_alpha 90.000000
_cell_angle_beta 149.886288
_cell_angle_gamma 90.000000
_cell_volume 1138.697394
_symmetry_space_group_name_H-M "P 2/M"
_symmetry_group_IT_number 10
_symmetry_cell_setting 'monoclinic'
loop_
_space_group_symop_operation_xyz
x,y,z
-x,y,-z
-x,-y,-z
x,-y,z
loop_
_atom_site_type_symbol
_atom_site_label
_atom_site_fract_x
_atom_site_fract_y
_atom_site_fract_z
Si Si1 0.848663 0.811445 0.090936
Si Si2 0.144359 0.185392 0.747283
Si Si3 0.174069 0.190571 0.085406
Si Si4 0.794239 0.316660 0.739580
Si Si5 0.145943 0.184689 0.581719
Si Si6 0.156858 0.315522 0.410786
O O1 0.017058 0.745832 0.090082
O O2 0.976977 0.720979 0.164601
O O3 0.898469 0.000000 0.109808
O O4 0.500000 0.768288 0.000000
O O5 0.484249 0.251347 0.830928
O O6 0.957814 0.288606 0.734778
O O7 0.004629 0.203798 0.664695
O O8 0.137119 0.000000 0.759628
O O9 0.159786 0.000000 0.081585
O O10 0.000000 0.260678 0.000000
O O11 0.689585 0.500000 0.715985
O O12 0.503714 0.204501 0.670068
O O13 0.000000 0.241254 0.500000
O O14 0.004007 0.294756 0.583299
O O15 0.068517 0.000000 0.571957
O O16 0.500000 0.259078 0.500000
O O17 0.134625 0.500000 0.390568
#
# Coordination Sequence:
#
# PCOD8065331 Si02
#       6
#     4   4   4   4   4   4
#     4  10  20  37  63  91 120 157 203 252 302 362
#     4  11  22  38  62  88 118 158 205 252 297 355
#     4   9  18  34  58  88 117 148 191 243 296 348
#     4  12  25  40  60  87 123 161 200 252 312 368
#     4  11  24  42  65  91 119 156 205 254 300 358
#     4  11  24  41  62  90 125 161 196 241 303 365
#
# _framework density 21.076716000000001
#
# number of rings (size 3 to 8) (size 9 to 14) (size 15 to 20)
#    0.000    1.333    0.000    6.000    0.000    9.667 
#    0.000    0.833    0.000    3.500    0.000    0.000 
#    0.000    0.000    0.000    0.000    0.000    0.000 
#
# Total GULP energy -297790.396668 kJ/mol
# GULP energy per Si atom -12407.933194 kJ/mol
# Density = 2.102874 g / cm^3
# Si number density = 21.076716 Si / 1000 Ang^3
#
#
#
# Elastic Constant Matrix: (Units=GPa)
#
#
# Indices 1 2 3 4 5 6 
#
# 1 143.0947 9.7110 57.7745 0.0000 4.1744 0.0000
# 2 9.7110 44.2380 18.5893 0.0000 -1.8164 0.0000
# 3 57.7745 18.5893 149.4164 0.0001 2.3067 -0.0001
# 4 0.0000 0.0000 0.0001 32.6161 0.0000 -2.9302
# 5 4.1744 -1.8164 2.3067 0.0000 46.6505 0.0000
# 6 0.0000 0.0000 -0.0001 -2.9302 0.0000 26.2036
#
#
#
# Elastic Compliance Matrix: (Units=1/GPa)
#
#
# Indices 1 2 3 4 5 6 
#
# 1 0.008309 -0.000531 -0.003137 0.000000 -0.000609 0.000000
# 2 -0.000531 0.023940 -0.002791 0.000000 0.001118 0.000000
# 3 -0.003137 -0.002791 0.008257 0.000000 -0.000236 0.000000
# 4 0.000000 0.000000 0.000000 0.030971 0.000000 0.003463
# 5 -0.000609 0.001118 -0.000236 0.000000 0.021546 0.000000
# 6 0.000000 0.000000 0.000000 0.003463 0.000000 0.038550
#
#
# Mechanical properties :
#
#
# Convention : Reuss Voigt Hill
#
# Bulk Modulus (GPa) = 36.24692 56.54429 46.39561
# Shear Modulus (GPa) = 32.53405 37.80565 35.16985
#
# Velocity S-wave (km/s) = 3.93313 4.23982 4.08935
# Velocity P-wave (km/s) = 6.15313 7.13121 6.66015
#
# Compressibility (1/GPa) = 0.02758855
#
# Stress axis : x y z
#
# Youngs Moduli (GPa) = 120.35348 41.77110 121.11458
#
# Poissons Ratio (x) = 0.02216 0.37998
# Poissons Ratio (y) = 0.06386 0.33798
# Poissons Ratio (z) = 0.37759 0.11656
#
# Static dielectric constant tensor:
#      x y z
#    x 3.926210 0.000000 0.041160 
#    y 0.000000 3.462280 0.000000 
#    z 0.041160 0.000000 3.954240 
# 
# 
# High freq. dielectric constant tensor:
#      x y z
#    x 1.841350 0.000000 0.000220 
#    y 0.000000 1.806170 0.000000 
#    z 0.000220 0.000000 1.842300 
# 
# From -- ./inp_files/94575.got.cif
#   From: 2010.06.25/outbox.cif.g09.slc.cpg/sg10_48_cif.got.tgz:94575.got - 2010.06.27 22:07:45.
