data_PCOD8065651
_publ_section_title
;
Structure prediction by ZEFSAII (Michael W. Deem and Ramdas Pophale) SiO2 
 PCOD8065651
Probable space group: P 2/M
;
_chemical_formula_sum "Si O2"
_cell_formula_units_Z 32
_cell_length_a 12.205285
_cell_length_b 8.873267
_cell_length_c 29.099936
_cell_angle_alpha 90.000000
_cell_angle_beta 30.748791
_cell_angle_gamma 90.000000
_cell_volume 1611.306002
_symmetry_space_group_name_H-M "P 2/M"
_symmetry_group_IT_number 10
_symmetry_cell_setting 'monoclinic'
loop_
_space_group_symop_operation_xyz
x,y,z
-x,y,-z
-x,-y,-z
x,-y,z
loop_
_atom_site_type_symbol
_atom_site_label
_atom_site_fract_x
_atom_site_fract_y
_atom_site_fract_z
Si Si1 0.728177 0.326989 0.401893
Si Si2 0.864116 0.679391 0.985011
Si Si3 0.722874 0.824083 0.943477
Si Si4 0.457084 0.672429 0.367412
Si Si5 0.699075 0.173661 0.664557
Si Si6 0.721655 0.822310 0.128329
Si Si7 0.913955 0.669051 0.430911
Si Si8 0.144592 0.824062 0.737073
O O1 0.500000 0.257821 0.500000
O O2 0.692921 0.500000 0.399675
O O3 0.896493 0.310740 0.382633
O O4 0.830593 0.241057 0.322543
O O5 0.883478 0.500000 0.981118
O O6 0.745161 0.726543 0.981427
O O7 0.099796 0.753711 0.901939
O O8 0.727103 0.741008 0.077207
O O9 0.911170 0.781114 0.840245
O O10 0.730793 0.000000 0.953866
O O11 0.500000 0.780357 0.000000
O O12 0.515744 0.500000 0.337833
O O13 0.315892 0.730534 0.376176
O O14 0.320821 0.696168 0.462898
O O15 0.679011 0.761339 0.291279
O O16 0.507654 0.214333 0.767812
O O17 0.920511 0.210033 0.609756
O O18 0.695977 0.000000 0.651679
O O19 0.762643 0.000000 0.107624
O O20 0.992669 0.500000 0.414907
O O21 0.177972 0.000000 0.722109
#
# Coordination Sequence:
#
# PCOD8065651 Si02
#       8
#     4   4   4   4   4   4   4   4
#     4  10  20  40  63  84 116 156 199 241 290 355
#     4  11  22  37  62  92 117 145 195 251 293 341
#     4  10  23  43  62  83 120 163 198 238 297 364
#     4  11  22  39  61  84 117 159 198 238 294 358
#     4  11  24  38  56  87 121 153 195 244 293 347
#     4  10  21  39  61  84 117 159 194 232 294 362
#     4  10  22  39  59  83 115 159 199 236 292 355
#     4  11  23  38  62  93 118 151 201 251 297 346
#
# _framework density 19.859666000000001
#
# number of rings (size 3 to 8) (size 9 to 14) (size 15 to 20)
#    0.000    1.500    1.250    4.500    0.000   10.500 
#    0.000    3.750    0.000    0.000    0.000    0.000 
#    0.000    0.000    0.000    0.000    0.000    0.000 
#
# Total GULP energy -396982.011470 kJ/mol
# GULP energy per Si atom -12405.687858 kJ/mol
# Density = 1.981446 g / cm^3
# Si number density = 19.859666 Si / 1000 Ang^3
#
#
#
# Elastic Constant Matrix: (Units=GPa)
#
#
# Indices 1 2 3 4 5 6 
#
# 1 120.6843 50.1557 44.6782 0.0000 0.0236 0.0000
# 2 50.1557 89.3957 41.0673 0.0000 4.4594 0.0000
# 3 44.6782 41.0673 78.9985 0.0000 -6.8749 0.0000
# 4 0.0000 0.0000 0.0000 -9.1922 0.0000 0.8437
# 5 0.0236 4.4594 -6.8749 0.0000 27.8692 0.0000
# 6 0.0000 0.0000 0.0000 0.8437 0.0000 37.4365
#
#
#
# Elastic Compliance Matrix: (Units=1/GPa)
#
#
# Indices 1 2 3 4 5 6 
#
# 1 0.011801 -0.004632 -0.004295 0.000000 -0.000328 0.000000
# 2 -0.004632 0.017043 -0.006619 0.000000 -0.004356 0.000000
# 3 -0.004295 -0.006619 0.019030 0.000000 0.005757 0.000000
# 4 0.000000 0.000000 0.000000 -0.108563 0.000000 0.002447
# 5 -0.000328 -0.004356 0.005757 0.000000 0.037999 0.000000
# 6 0.000000 0.000000 0.000000 0.002447 0.000000 0.026657
#
#
# Mechanical properties :
#
#
# Convention : Reuss Voigt Hill
#
# Bulk Modulus (GPa) = 59.58901 62.32011 60.95456
# Shear Modulus (GPa) = 122.99356 21.43451 72.21403
#
# Velocity S-wave (km/s) = 7.87818 3.28883 6.03665
# Velocity P-wave (km/s) = 10.62189 6.77276 8.90772
#
# Compressibility (1/GPa) = 0.01678162
#
# Stress axis : x y z
#
# Youngs Moduli (GPa) = 84.73825 58.67531 52.54941
#
# Poissons Ratio (x) = 0.27176 0.22570
# Poissons Ratio (y) = 0.39247 0.34785
# Poissons Ratio (z) = 0.36396 0.38840
#
# Static dielectric constant tensor:
#      x y z
#    x 3.584930 0.000000 0.054530 
#    y 0.000000 3.605290 0.000000 
#    z 0.054530 0.000000 3.637670 
# 
# 
# High freq. dielectric constant tensor:
#      x y z
#    x 1.782240 0.000000 0.005380 
#    y 0.000000 1.777490 0.000000 
#    z 0.005380 0.000000 1.776690 
# 
# From -- ./inp_files/95004.got.cif
#   From: 2010.06.25/outbox.cif.g09.slc.cpg/sg10_48_cif.got.tgz:95004.got - 2010.06.27 22:07:45.
