data_PCOD8065039
_publ_section_title
;
Structure prediction by ZEFSAII (Michael W. Deem and Ramdas Pophale) SiO2 
 PCOD8065039
Probable space group: P 2/M
;
_chemical_formula_sum "Si O2"
_cell_formula_units_Z 28
_cell_length_a 20.978938
_cell_length_b 14.615548
_cell_length_c 9.378192
_cell_angle_alpha 90.000000
_cell_angle_beta 151.609840
_cell_angle_gamma 90.000000
_cell_volume 1367.236685
_symmetry_space_group_name_H-M "P 2/M"
_symmetry_group_IT_number 10
_symmetry_cell_setting 'monoclinic'
loop_
_space_group_symop_operation_xyz
x,y,z
-x,y,-z
-x,-y,-z
x,-y,z
loop_
_atom_site_type_symbol
_atom_site_label
_atom_site_fract_x
_atom_site_fract_y
_atom_site_fract_z
Si Si1 0.411877 0.761061 0.184934
Si Si2 0.143107 0.304250 0.751511
Si Si3 0.094618 0.399649 0.373022
Si Si4 0.615142 0.105230 0.111556
Si Si5 0.153403 0.225594 0.310099
Si Si6 0.198964 0.353988 0.172261
Si Si7 0.485270 0.601703 0.811113
O O1 0.500000 0.767691 0.500000
O O2 0.442245 0.667130 0.159912
O O3 0.254540 0.766279 0.915225
O O4 0.439831 0.847761 0.140224
O O5 0.115945 0.383467 0.583059
O O6 0.000000 0.253204 0.500000
O O7 0.199087 0.351328 0.002876
O O8 0.151952 0.500000 0.445585
O O9 0.168823 0.319417 0.432509
O O10 0.935025 0.399910 0.026155
O O11 0.754532 0.148248 0.440148
O O12 0.643989 0.000000 0.134793
O O13 0.500000 0.118298 0.000000
O O14 0.205324 0.251053 0.253031
O O15 0.000000 0.190002 0.000000
O O16 0.328672 0.410435 0.470631
O O17 0.550363 0.500000 0.929457
O O18 0.500000 0.642569 0.000000
#
# Coordination Sequence:
#
# PCOD8065039 Si02
#       7
#     4   4   4   4   4   4   4
#     4  12  23  42  67  92 123 165 209 260 314 374
#     4  10  22  39  60  88 122 170 207 251 302 359
#     4  10  21  36  59  90 126 169 215 256 299 355
#     4  11  25  46  70  96 124 155 201 260 323 387
#     4  10  21  39  66  92 123 163 208 257 305 365
#     4  10  20  37  56  87 125 168 208 253 299 354
#     4  11  24  38  57  88 130 173 215 258 304 362
#
# _framework density 20.479264000000001
#
# number of rings (size 3 to 8) (size 9 to 14) (size 15 to 20)
#    0.000    1.429    2.857    2.571    0.000    7.714 
#    0.000    0.000    0.000    0.857    0.000    0.000 
#    0.000    0.000    0.000    0.000    0.000    0.000 
#
# Total GULP energy -347137.287269 kJ/mol
# GULP energy per Si atom -12397.760260 kJ/mol
# Density = 2.043265 g / cm^3
# Si number density = 20.479264 Si / 1000 Ang^3
#
#
#
# Elastic Constant Matrix: (Units=GPa)
#
#
# Indices 1 2 3 4 5 6 
#
# 1 85.6989 55.0851 57.2450 0.0000 0.6496 0.0000
# 2 55.0851 127.8329 49.3935 0.0000 -2.4074 0.0000
# 3 57.2450 49.3935 128.8279 0.0000 -10.3212 0.0000
# 4 0.0000 0.0000 0.0000 15.2753 0.0000 6.3202
# 5 0.6496 -2.4074 -10.3212 0.0000 42.6108 0.0000
# 6 0.0000 0.0000 0.0000 6.3202 0.0000 11.5673
#
#
#
# Elastic Compliance Matrix: (Units=1/GPa)
#
#
# Indices 1 2 3 4 5 6 
#
# 1 0.020147 -0.006098 -0.006799 0.000000 -0.002298 0.000000
# 2 -0.006098 0.011034 -0.001492 0.000000 0.000355 0.000000
# 3 -0.006799 -0.001492 0.011582 0.000000 0.002825 0.000000
# 4 0.000000 0.000000 0.000000 0.084588 0.000000 -0.046217
# 5 -0.002298 0.000355 0.002825 0.000000 0.024207 0.000000
# 6 0.000000 0.000000 0.000000 -0.046217 0.000000 0.111703
#
#
# Mechanical properties :
#
#
# Convention : Reuss Voigt Hill
#
# Bulk Modulus (GPa) = 71.50628 73.97855 72.74241
# Shear Modulus (GPa) = 16.85202 25.93310 21.39256
#
# Velocity S-wave (km/s) = 2.87170 3.56239 3.23553
# Velocity P-wave (km/s) = 6.78143 7.28854 7.03955
#
# Compressibility (1/GPa) = 0.01398479
#
# Stress axis : x y z
#
# Youngs Moduli (GPa) = 49.63482 90.63092 86.34320
#
# Poissons Ratio (x) = 0.55268 0.58701
# Poissons Ratio (y) = 0.30268 0.12885
# Poissons Ratio (z) = 0.33744 0.13525
#
# Static dielectric constant tensor:
#      x y z
#    x 3.954530 0.000000 -0.069150 
#    y 0.000000 3.327340 0.000000 
#    z -0.069150 0.000000 4.017440 
# 
# 
# High freq. dielectric constant tensor:
#      x y z
#    x 1.814340 0.000000 -0.004120 
#    y 0.000000 1.747970 0.000000 
#    z -0.004120 0.000000 1.827340 
# 
# From -- ./inp_files/35291.got.cif
#   From: 2010.06.25/outbox.cif.g09.slc.cpg/sg10_18_cif.got.tgz:35291.got - 2010.06.27 22:07:45.
