data_PCOD8065962
_publ_section_title
;
Structure prediction by ZEFSAII (Michael W. Deem and Ramdas Pophale) SiO2 
 PCOD8065962
Probable space group: P 2/M
;
_chemical_formula_sum "Si O2"
_cell_formula_units_Z 32
_cell_length_a 15.783219
_cell_length_b 9.037452
_cell_length_c 25.461905
_cell_angle_alpha 90.000000
_cell_angle_beta 29.748295
_cell_angle_gamma 90.000000
_cell_volume 1802.109066
_symmetry_space_group_name_H-M "P 2/M"
_symmetry_group_IT_number 10
_symmetry_cell_setting 'monoclinic'
loop_
_space_group_symop_operation_xyz
x,y,z
-x,y,-z
-x,-y,-z
x,-y,z
loop_
_atom_site_type_symbol
_atom_site_label
_atom_site_fract_x
_atom_site_fract_y
_atom_site_fract_z
Si Si1 0.214773 0.826529 0.025928
Si Si2 0.725320 0.674839 0.527479
Si Si3 0.507329 0.826529 0.733372
Si Si4 0.833309 0.672952 0.055564
Si Si5 0.102565 0.326318 0.299145
Si Si6 0.600363 0.830992 0.799879
Si Si7 0.033076 0.325161 0.219723
Si Si8 0.342933 0.674993 0.552356
O O1 0.136972 0.744884 0.017318
O O2 0.415615 0.793092 0.923116
O O3 0.180799 0.000000 0.037157
O O4 0.127365 0.767419 0.124986
O O5 0.703211 0.500000 0.549377
O O6 0.629689 0.767420 0.622662
O O7 0.646189 0.723383 0.514147
O O8 0.923888 0.722865 0.421504
O O9 0.325897 0.744884 0.828393
O O10 0.600579 0.793091 0.738152
O O11 0.473070 0.000000 0.744887
O O12 0.797688 0.500000 0.067437
O O13 0.000000 0.703839 0.000000
O O14 0.112806 0.500000 0.295732
O O15 0.259690 0.265162 0.246770
O O16 0.112293 0.277138 0.233101
O O17 0.648757 0.000000 0.783747
O O18 0.054549 0.500000 0.198037
O O19 0.834821 0.276613 0.325517
O O20 0.500000 0.747416 0.500000
O O21 0.353315 0.500000 0.548897
#
# Coordination Sequence:
#
# PCOD8065962 Si02
#       8
#     4   4   4   4   4   4   4   4
#     4  10  21  36  53  76 106 137 168 208 259 307
#     4   9  18  33  52  76 104 133 170 213 255 303
#     4  10  21  36  53  76 106 137 168 208 259 307
#     4  10  21  37  57  79 102 133 173 212 251 300
#     4   9  19  34  52  75 103 135 172 217 262 300
#     4   9  20  36  51  70  99 135 172 209 255 312
#     4   9  18  33  52  76 104 133 170 213 255 303
#     4   8  15  30  52  75 100 131 167 208 250 294
#
# _framework density 17.756971
#
# number of rings (size 3 to 8) (size 9 to 14) (size 15 to 20)
#    0.000    2.750    0.000    3.375    0.000    7.000 
#    0.000    9.375    0.000    0.750    0.000    0.000 
#    0.000    0.000    0.000    0.000    0.000    0.000 
#
# Total GULP energy -396765.765630 kJ/mol
# GULP energy per Si atom -12398.930176 kJ/mol
# Density = 1.771655 g / cm^3
# Si number density = 17.756971 Si / 1000 Ang^3
#
#
#
# Elastic Constant Matrix: (Units=GPa)
#
#
# Indices 1 2 3 4 5 6 
#
# 1 118.9030 49.2894 89.8328 0.0000 -2.1126 0.0000
# 2 49.2894 65.7824 59.0469 0.0000 6.2681 0.0000
# 3 89.8328 59.0469 145.3526 0.0000 19.1058 0.0000
# 4 0.0000 0.0000 0.0000 17.6647 0.0000 4.7139
# 5 -2.1126 6.2681 19.1058 0.0000 26.5187 0.0000
# 6 0.0000 0.0000 0.0000 4.7139 0.0000 10.3228
#
#
#
# Elastic Compliance Matrix: (Units=1/GPa)
#
#
# Indices 1 2 3 4 5 6 
#
# 1 0.019268 -0.005512 -0.011093 0.000000 0.010830 0.000000
# 2 -0.005512 0.025556 -0.006764 0.000000 -0.001607 0.000000
# 3 -0.011093 -0.006764 0.018104 0.000000 -0.012328 0.000000
# 4 0.000000 0.000000 0.000000 0.064466 0.000000 -0.029438
# 5 0.010830 -0.001607 -0.012328 0.000000 0.047834 0.000000
# 6 0.000000 0.000000 0.000000 -0.029438 0.000000 0.110316
#
#
# Mechanical properties :
#
#
# Convention : Reuss Voigt Hill
#
# Bulk Modulus (GPa) = 61.76455 80.70846 71.23651
# Shear Modulus (GPa) = 14.80701 19.69253 17.24977
#
# Velocity S-wave (km/s) = 2.89081 3.33378 3.12017
# Velocity P-wave (km/s) = 6.78242 7.76976 7.29282
#
# Compressibility (1/GPa) = 0.01619052
#
# Stress axis : x y z
#
# Youngs Moduli (GPa) = 51.89831 39.12943 55.23760
#
# Poissons Ratio (x) = 0.21570 0.61274
# Poissons Ratio (y) = 0.28608 0.37361
# Poissons Ratio (z) = 0.57570 0.26466
#
# Static dielectric constant tensor:
#      x y z
#    x 3.685920 0.000000 -0.098050 
#    y 0.000000 3.147670 0.000000 
#    z -0.098050 0.000000 3.533330 
# 
# 
# High freq. dielectric constant tensor:
#      x y z
#    x 1.691470 0.000000 0.000780 
#    y 0.000000 1.677270 0.000000 
#    z 0.000780 0.000000 1.692670 
# 
# From -- ./inp_files/71515.got.cif
#   From: 2010.06.25/outbox.cif.g09.slc.cpg/sg10_36_cif.got.tgz:71515.got - 2010.06.27 22:07:45.
