data_PCOD8065023
_publ_section_title
;
Structure prediction by ZEFSAII (Michael W. Deem and Ramdas Pophale) SiO2 
 PCOD8065023
Probable space group: P 2/M
;
_chemical_formula_sum "Si O2"
_cell_formula_units_Z 24
_cell_length_a 14.616752
_cell_length_b 9.163705
_cell_length_c 14.885759
_cell_angle_alpha 90.000000
_cell_angle_beta 140.465042
_cell_angle_gamma 90.000000
_cell_volume 1269.184414
_symmetry_space_group_name_H-M "P 2/M"
_symmetry_group_IT_number 10
_symmetry_cell_setting 'monoclinic'
loop_
_space_group_symop_operation_xyz
x,y,z
-x,y,-z
-x,-y,-z
x,-y,z
loop_
_atom_site_type_symbol
_atom_site_label
_atom_site_fract_x
_atom_site_fract_y
_atom_site_fract_z
Si Si1 0.154560 0.670168 0.653192
Si Si2 0.842144 0.332699 0.647982
Si Si3 0.124119 0.827953 0.807997
Si Si4 0.380890 0.667137 0.670931
Si Si5 0.840888 0.670059 0.853472
Si Si6 0.327618 0.828115 0.125206
O O1 0.151333 0.500000 0.674665
O O2 0.194877 0.758553 0.773091
O O3 0.272389 0.707920 0.668206
O O4 0.000000 0.721680 0.500000
O O5 0.894712 0.500000 0.677409
O O6 0.695988 0.306493 0.482759
O O7 0.810498 0.293938 0.726941
O O8 0.963802 0.230046 0.699763
O O9 0.119314 0.000000 0.792526
O O10 0.219338 0.780116 0.964807
O O11 0.432400 0.500000 0.718098
O O12 0.515188 0.773021 0.781273
O O13 0.823406 0.500000 0.862327
O O14 0.723068 0.757173 0.820309
O O15 0.000000 0.724619 0.000000
O O16 0.331862 0.000000 0.141109
#
# Coordination Sequence:
#
# PCOD8065023 Si02
#       6
#     4   4   4   4   4   4
#     4  10  20  38  64  90 116 150 197 248 293 343
#     4  10  20  38  63  90 117 149 197 250 293 346
#     4  11  23  37  58  88 120 158 196 237 292 352
#     4  10  22  40  62  87 118 154 194 245 298 348
#     4  10  20  36  64  92 114 151 200 248 294 344
#     4  11  25  41  57  84 126 163 193 239 294 353
#
# _framework density 18.909783000000001
#
# number of rings (size 3 to 8) (size 9 to 14) (size 15 to 20)
#    0.000    1.667    3.333    1.000    0.000    6.000 
#    0.000    6.667    0.000    0.000    0.000    0.000 
#    0.000    0.000    0.000    0.000    0.000    0.000 
#
# Total GULP energy -297748.369209 kJ/mol
# GULP energy per Si atom -12406.182050 kJ/mol
# Density = 1.886674 g / cm^3
# Si number density = 18.909783 Si / 1000 Ang^3
#
#
#
# Elastic Constant Matrix: (Units=GPa)
#
#
# Indices 1 2 3 4 5 6 
#
# 1 111.1236 42.8797 34.0731 0.0000 -7.2590 0.0000
# 2 42.8797 56.6213 31.0448 0.0000 -6.3950 0.0000
# 3 34.0731 31.0448 54.7569 0.0000 -8.6806 0.0000
# 4 0.0000 0.0000 0.0000 28.5158 0.0000 0.9917
# 5 -7.2590 -6.3950 -8.6806 0.0000 36.8124 0.0000
# 6 0.0000 0.0000 0.0000 0.9917 0.0000 22.1549
#
#
#
# Elastic Compliance Matrix: (Units=1/GPa)
#
#
# Indices 1 2 3 4 5 6 
#
# 1 0.013216 -0.007966 -0.003650 0.000000 0.000361 0.000000
# 2 -0.007966 0.030470 -0.012183 0.000000 0.000849 0.000000
# 3 -0.003650 -0.012183 0.028040 0.000000 0.003776 0.000000
# 4 0.000000 0.000000 0.000000 0.035123 0.000000 -0.001572
# 5 0.000361 0.000849 0.003776 0.000000 0.028274 0.000000
# 6 0.000000 0.000000 0.000000 -0.001572 0.000000 0.045207
#
#
# Mechanical properties :
#
#
# Convention : Reuss Voigt Hill
#
# Bulk Modulus (GPa) = 41.44829 48.72189 45.08509
# Shear Modulus (GPa) = 21.18904 25.13022 23.15963
#
# Velocity S-wave (km/s) = 3.35107 3.64944 3.50343
# Velocity P-wave (km/s) = 6.07778 6.60146 6.34502
#
# Compressibility (1/GPa) = 0.02412645
#
# Stress axis : x y z
#
# Youngs Moduli (GPa) = 75.66729 32.81889 35.66374
#
# Poissons Ratio (x) = 0.26145 0.13016
# Poissons Ratio (y) = 0.60280 0.43451
# Poissons Ratio (z) = 0.27616 0.39985
#
# Static dielectric constant tensor:
#      x y z
#    x 3.476680 0.000000 -0.182410 
#    y 0.000000 3.360300 0.000000 
#    z -0.182410 0.000000 3.536320 
# 
# 
# High freq. dielectric constant tensor:
#      x y z
#    x 1.742600 0.000000 -0.011240 
#    y 0.000000 1.728510 0.000000 
#    z -0.011240 0.000000 1.737780 
# 
# From -- ./inp_files/33967.got.cif
#   From: 2010.06.25/outbox.cif.g09.slc.cpg/sg10_17_cif.got.tgz:33967.got - 2010.06.27 22:07:45.
