data_PCOD8065507
_publ_section_title
;
Structure prediction by ZEFSAII (Michael W. Deem and Ramdas Pophale) SiO2 
 PCOD8065507
Probable space group: P 2/M
;
_chemical_formula_sum "Si O2"
_cell_formula_units_Z 26
_cell_length_a 30.588197
_cell_length_b 8.759725
_cell_length_c 30.575695
_cell_angle_alpha 90.000000
_cell_angle_beta 170.216148
_cell_angle_gamma 90.000000
_cell_volume 1392.179606
_symmetry_space_group_name_H-M "P 2/M"
_symmetry_group_IT_number 10
_symmetry_cell_setting 'monoclinic'
loop_
_space_group_symop_operation_xyz
x,y,z
-x,y,-z
-x,-y,-z
x,-y,z
loop_
_atom_site_type_symbol
_atom_site_label
_atom_site_fract_x
_atom_site_fract_y
_atom_site_fract_z
Si Si1 0.185290 0.680784 0.337277
Si Si2 0.024230 0.682143 0.474635
Si Si3 0.880530 0.681592 0.628941
Si Si4 0.735708 0.000000 0.765146
Si Si5 0.404507 0.317928 0.103285
Si Si6 0.707412 0.830871 0.821113
Si Si7 0.548519 0.682073 0.948928
O O1 0.198620 0.500000 0.349190
O O2 0.449489 0.744592 0.579307
O O3 0.143985 0.741415 0.345788
O O4 0.951493 0.735191 0.077024
O O5 0.024094 0.500000 0.474720
O O6 0.286428 0.744712 0.711851
O O7 0.000000 0.744971 0.500000
O O8 0.786479 0.744707 0.211856
O O9 0.881387 0.500000 0.628733
O O10 0.642797 0.745729 0.366345
O O11 0.143360 0.746004 0.867307
O O12 0.500000 0.000000 0.500000
O O13 0.720487 0.849430 0.781196
O O14 0.000000 0.000000 0.000000
O O15 0.404145 0.500000 0.102880
O O16 0.427488 0.255036 0.076663
O O17 0.710740 0.000000 0.846382
O O18 0.548532 0.500000 0.948817
#
# Coordination Sequence:
#
# PCOD8065507 Si02
#       7
#     4   4   4   2   4   4   4
#     4  11  20  35  55  82 114 143 175 220 276 319
#     4   9  15  21  27  37  52  76 115 168 233 289
#     4   9  17  26  41  61  88 120 149 187 239 299
#     4  10  20  38  64  84 106 144 190 222 256 314
#     4   9  15  24  34  51  74 104 144 180 228 292
#     4  10  22  36  59  85 108 144 185 221 260 314
#     4   9  15  21  30  40  57  85 121 171 224 280
#
# _framework density 18.675751999999999
#
# number of rings (size 3 to 8) (size 9 to 14) (size 15 to 20)
#    0.462    2.000    0.000    4.154    0.000    8.000 
#    0.000    0.000    0.000    9.231    0.000    0.000 
#    0.000    0.000    0.000    0.000    0.000    0.000 
#
# Total GULP energy -322346.717331 kJ/mol
# GULP energy per Si atom -12397.950667 kJ/mol
# Density = 1.863324 g / cm^3
# Si number density = 18.675752 Si / 1000 Ang^3
#
#
#
# Elastic Constant Matrix: (Units=GPa)
#
#
# Indices 1 2 3 4 5 6 
#
# 1 176.5050 14.0456 78.7314 0.0000 23.5427 0.0000
# 2 14.0456 31.6646 10.1163 0.0000 7.6554 0.0000
# 3 78.7314 10.1163 163.4609 0.0000 33.5036 0.0000
# 4 0.0000 0.0000 0.0000 18.3345 0.0000 3.2409
# 5 23.5427 7.6554 33.5036 0.0000 34.1943 0.0000
# 6 0.0000 0.0000 0.0000 3.2409 0.0000 -2.3772
#
#
#
# Elastic Compliance Matrix: (Units=1/GPa)
#
#
# Indices 1 2 3 4 5 6 
#
# 1 0.007429 -0.001903 -0.003127 0.000000 -0.001624 0.000000
# 2 -0.001903 0.033934 0.000132 0.000000 -0.006416 0.000000
# 3 -0.003127 0.000132 0.008985 0.000000 -0.006680 0.000000
# 4 0.000000 0.000000 0.000000 0.043951 0.000000 0.059918
# 5 -0.001624 -0.006416 -0.006680 0.000000 0.038344 0.000000
# 6 0.000000 0.000000 0.000000 0.059918 0.000000 -0.338972
#
#
# Mechanical properties :
#
#
# Convention : Reuss Voigt Hill
#
# Bulk Modulus (GPa) = 24.66107 64.15745 44.40926
# Shear Modulus (GPa) = -27.32023 27.94614 0.31296
#
# Velocity S-wave (km/s) = -3.82890 3.87251 0.40980
# Velocity P-wave (km/s) = 2.51272 7.37720 4.90455
#
# Compressibility (1/GPa) = 0.04054975
#
# Stress axis : x y z
#
# Youngs Moduli (GPa) = 134.61427 29.46872 111.29786
#
# Poissons Ratio (x) = 0.05609 0.34806
# Poissons Ratio (y) = 0.25621 -0.01464
# Poissons Ratio (z) = 0.42098 -0.00388
#
# Static dielectric constant tensor:
#      x y z
#    x 3.636040 0.000000 -0.030490 
#    y 0.000000 2.772790 0.000000 
#    z -0.030490 0.000000 3.577690 
# 
# 
# High freq. dielectric constant tensor:
#      x y z
#    x 1.737300 0.000000 0.001640 
#    y 0.000000 1.653060 0.000000 
#    z 0.001640 0.000000 1.748290 
# 
# From -- ./inp_files/95944.got.cif
#   From: 2010.06.25/outbox.cif.g09.slc.cpg/sg10_48_cif.got.tgz:95944.got - 2010.06.27 22:07:45.
