data_PCOD8065650
_publ_section_title
;
Structure prediction by ZEFSAII (Michael W. Deem and Ramdas Pophale) SiO2 
 PCOD8065650
Probable space group: P 2/M
;
_chemical_formula_sum "Si O2"
_cell_formula_units_Z 28
_cell_length_a 27.191905
_cell_length_b 9.126811
_cell_length_c 9.223560
_cell_angle_alpha 90.000000
_cell_angle_beta 38.609280
_cell_angle_gamma 90.000000
_cell_volume 1428.387864
_symmetry_space_group_name_H-M "P 2/M"
_symmetry_group_IT_number 10
_symmetry_cell_setting 'monoclinic'
loop_
_space_group_symop_operation_xyz
x,y,z
-x,y,-z
-x,-y,-z
x,-y,z
loop_
_atom_site_type_symbol
_atom_site_label
_atom_site_fract_x
_atom_site_fract_y
_atom_site_fract_z
Si Si1 0.438317 0.337476 0.269834
Si Si2 0.729661 0.329879 0.464146
Si Si3 0.463084 0.835759 0.741453
Si Si4 0.300103 0.672111 0.139244
Si Si5 0.834855 0.826255 0.714651
Si Si6 0.987181 0.825873 0.191844
Si Si7 0.862868 0.826631 0.978684
O O1 0.430329 0.500000 0.358094
O O2 0.355661 0.283142 0.396854
O O3 0.466088 0.220533 0.322206
O O4 0.500000 0.344602 0.000000
O O5 0.746486 0.500000 0.397205
O O6 0.735004 0.292772 0.621889
O O7 0.792147 0.234421 0.235738
O O8 0.500000 0.835668 0.500000
O O9 0.438338 0.000000 0.845438
O O10 0.388513 0.730235 0.923319
O O11 0.302514 0.500000 0.103014
O O12 0.246304 0.749512 0.142893
O O13 0.903814 0.772016 0.447737
O O14 0.823070 0.000000 0.733756
O O15 0.856899 0.775066 0.826105
O O16 0.988847 0.000000 0.183786
O O17 0.000000 0.762180 0.000000
O O18 0.055628 0.767464 0.140652
O O19 0.859377 0.000000 0.996240
#
# Coordination Sequence:
#
# PCOD8065650 Si02
#       7
#     4   4   4   4   4   4   4
#     4  10  20  40  63  84 113 153 198 241 289 343
#     4  10  22  39  59  84 115 151 195 243 287 341
#     4  11  25  41  59  87 120 150 191 244 294 343
#     4  11  23  41  61  83 114 155 198 237 289 348
#     4  10  21  37  58  87 122 152 190 241 288 339
#     4   9  17  33  59  87 116 154 195 233 283 344
#     4  10  21  36  58  88 120 154 190 235 291 345
#
# _framework density 19.602519000000001
#
# number of rings (size 3 to 8) (size 9 to 14) (size 15 to 20)
#    0.000    1.857    1.429    2.143    2.000    6.571 
#    0.000    0.714    0.000    4.286    0.000    0.000 
#    0.000    0.000    0.000    0.000    0.000    0.000 
#
# Total GULP energy -347266.664372 kJ/mol
# GULP energy per Si atom -12402.380870 kJ/mol
# Density = 1.955790 g / cm^3
# Si number density = 19.602519 Si / 1000 Ang^3
#
#
#
# Elastic Constant Matrix: (Units=GPa)
#
#
# Indices 1 2 3 4 5 6 
#
# 1 136.6640 40.3088 18.1460 0.0000 5.7082 0.0000
# 2 40.3088 51.7177 22.2522 0.0000 7.3453 0.0000
# 3 18.1460 22.2522 56.8207 0.0000 4.8963 0.0000
# 4 0.0000 0.0000 0.0000 22.7618 0.0000 6.2854
# 5 5.7082 7.3453 4.8963 0.0000 34.8114 0.0000
# 6 0.0000 0.0000 0.0000 6.2854 0.0000 14.0330
#
#
#
# Elastic Compliance Matrix: (Units=1/GPa)
#
#
# Indices 1 2 3 4 5 6 
#
# 1 0.009503 -0.007339 -0.000162 0.000000 0.000013 0.000000
# 2 -0.007339 0.029394 -0.008844 0.000000 -0.003755 0.000000
# 3 -0.000162 -0.008844 0.021208 0.000000 -0.001090 0.000000
# 4 0.000000 0.000000 0.000000 0.050134 0.000000 -0.022455
# 5 0.000013 -0.003755 -0.001090 0.000000 0.029670 0.000000
# 6 0.000000 0.000000 0.000000 -0.022455 0.000000 0.081318
#
#
# Mechanical properties :
#
#
# Convention : Reuss Voigt Hill
#
# Bulk Modulus (GPa) = 36.47520 45.17958 40.82739
# Shear Modulus (GPa) = 19.00742 25.28761 22.14752
#
# Velocity S-wave (km/s) = 3.11729 3.59558 3.36494
# Velocity P-wave (km/s) = 5.62178 6.35102 5.99749
#
# Compressibility (1/GPa) = 0.02741589
#
# Stress axis : x y z
#
# Youngs Moduli (GPa) = 105.23369 34.02048 47.15104
#
# Poissons Ratio (x) = 0.24966 0.00763
# Poissons Ratio (y) = 0.77226 0.41701
# Poissons Ratio (z) = 0.01704 0.30088
#
# Static dielectric constant tensor:
#      x y z
#    x 4.715260 0.000000 -0.204740 
#    y 0.000000 3.496140 0.000000 
#    z -0.204740 0.000000 3.638230 
# 
# 
# High freq. dielectric constant tensor:
#      x y z
#    x 1.780500 0.000000 -0.001310 
#    y 0.000000 1.743490 0.000000 
#    z -0.001310 0.000000 1.770360 
# 
# From -- ./inp_files/37000.got.cif
#   From: 2010.06.25/outbox.cif.g09.slc.cpg/sg10_19_cif.got.tgz:37000.got - 2010.06.27 22:07:45.
