data_PCOD8065242
_publ_section_title
;
Structure prediction by ZEFSAII (Michael W. Deem and Ramdas Pophale) SiO2 
 PCOD8065242
Probable space group: P 2/M
;
_chemical_formula_sum "Si O2"
_cell_formula_units_Z 30
_cell_length_a 11.259601
_cell_length_b 13.162298
_cell_length_c 18.936713
_cell_angle_alpha 90.000000
_cell_angle_beta 30.352333
_cell_angle_gamma 90.000000
_cell_volume 1418.150713
_symmetry_space_group_name_H-M "P 2/M"
_symmetry_group_IT_number 10
_symmetry_cell_setting 'monoclinic'
loop_
_space_group_symop_operation_xyz
x,y,z
-x,y,-z
-x,-y,-z
x,-y,z
loop_
_atom_site_type_symbol
_atom_site_label
_atom_site_fract_x
_atom_site_fract_y
_atom_site_fract_z
Si Si1 0.421802 0.745099 0.384491
Si Si2 0.431994 0.613721 0.115918
Si Si3 0.166529 0.614138 0.847000
Si Si4 0.096615 0.224184 0.340220
Si Si5 0.179220 0.243411 0.038984
Si Si6 0.500000 0.812649 0.500000
Si Si7 0.997011 0.887001 0.750057
Si Si8 0.503394 0.120817 0.220841
O O1 0.562843 0.648109 0.279054
O O2 0.452198 0.745845 0.453977
O O3 0.518088 0.847228 0.295863
O O4 0.148756 0.736012 0.501337
O O5 0.393508 0.500000 0.164366
O O6 0.198217 0.678059 0.247849
O O7 0.500000 0.612443 0.000000
O O8 0.638590 0.664140 0.054932
O O9 0.163126 0.500000 0.816567
O O10 0.072059 0.702896 0.843931
O O11 0.000000 0.617895 0.000000
O O12 0.271920 0.174079 0.306584
O O13 0.038252 0.136604 0.313836
O O14 0.167300 0.187172 0.119929
O O15 0.259817 0.161516 0.938880
O O16 0.270850 0.880954 0.631122
O O17 0.907116 0.000000 0.811061
O O18 0.487867 0.000000 0.222023
#
# Coordination Sequence:
#
# PCOD8065242 Si02
#       8
#     4   4   4   4   4   2   4   4
#     4  11  23  43  63  93 127 160 206 262 305 370
#     4  10  20  37  61  88 120 161 203 251 307 361
#     4  11  23  43  68  91 122 165 207 256 319 376
#     4  10  23  40  62  91 131 164 207 259 304 368
#     4  11  21  40  61  93 124 158 205 264 308 364
#     4  10  23  40  61  84 126 164 203 248 313 366
#     4  11  21  36  60  90 127 166 206 250 307 369
#     4  11  24  41  65  91 124 169 212 253 308 368
#
# _framework density 21.154309999999999
#
# number of rings (size 3 to 8) (size 9 to 14) (size 15 to 20)
#    0.000    1.333    4.000    1.800    0.000    4.267 
#    0.000    3.000    0.000    2.400    0.000    0.000 
#    0.000    0.000    0.000    0.000    0.000    0.000 
#
# Total GULP energy -371886.920710 kJ/mol
# GULP energy per Si atom -12396.230690 kJ/mol
# Density = 2.110616 g / cm^3
# Si number density = 21.154310 Si / 1000 Ang^3
#
#
#
# Elastic Constant Matrix: (Units=GPa)
#
#
# Indices 1 2 3 4 5 6 
#
# 1 60.0488 31.2684 19.5101 0.0000 5.5258 0.0000
# 2 31.2684 159.3424 59.7358 0.0000 -5.8370 0.0000
# 3 19.5101 59.7358 108.2748 0.0000 -3.4312 0.0000
# 4 0.0000 0.0000 0.0000 39.3694 0.0000 14.5390
# 5 5.5258 -5.8370 -3.4312 0.0000 30.7064 0.0000
# 6 0.0000 0.0000 0.0000 14.5390 0.0000 37.1894
#
#
#
# Elastic Compliance Matrix: (Units=1/GPa)
#
#
# Indices 1 2 3 4 5 6 
#
# 1 0.019344 -0.003273 -0.001816 0.000000 -0.004306 0.000000
# 2 -0.003273 0.008498 -0.004043 0.000000 0.001753 0.000000
# 3 -0.001816 -0.004043 0.011822 0.000000 0.000879 0.000000
# 4 0.000000 0.000000 0.000000 0.029686 0.000000 -0.011606
# 5 -0.004306 0.001753 0.000879 0.000000 0.033773 0.000000
# 6 0.000000 0.000000 0.000000 -0.011606 0.000000 0.031427
#
#
# Mechanical properties :
#
#
# Convention : Reuss Voigt Hill
#
# Bulk Modulus (GPa) = 46.73183 60.96605 53.84894
# Shear Modulus (GPa) = 31.26052 35.92983 33.59518
#
# Velocity S-wave (km/s) = 3.84831 4.12571 3.98942
# Velocity P-wave (km/s) = 6.47185 7.18175 6.83602
#
# Compressibility (1/GPa) = 0.02139869
#
# Stress axis : x y z
#
# Youngs Moduli (GPa) = 51.69648 117.67593 84.59133
#
# Poissons Ratio (x) = 0.38511 0.15366
# Poissons Ratio (y) = 0.16918 0.34201
# Poissons Ratio (z) = 0.09390 0.47578
#
# Static dielectric constant tensor:
#      x y z
#    x 3.735510 0.000000 -0.071650 
#    y 0.000000 3.781920 0.000000 
#    z -0.071650 0.000000 4.002440 
# 
# 
# High freq. dielectric constant tensor:
#      x y z
#    x 1.822470 0.000000 -0.000820 
#    y 0.000000 1.818160 0.000000 
#    z -0.000820 0.000000 1.841230 
# 
# From -- ./inp_files/84024.got.cif
#   From: 2010.06.25/outbox.cif.g09.slc.cpg/sg10_43_cif.got.tgz:84024.got - 2010.06.27 22:07:45.
