data_PCOD8065437
_publ_section_title
;
Structure prediction by ZEFSAII (Michael W. Deem and Ramdas Pophale) SiO2 
 PCOD8065437
Probable space group: P 2/M
;
_chemical_formula_sum "Si O2"
_cell_formula_units_Z 32
_cell_length_a 14.096726
_cell_length_b 14.168222
_cell_length_c 8.615524
_cell_angle_alpha 90.000000
_cell_angle_beta 115.637953
_cell_angle_gamma 90.000000
_cell_volume 1551.326650
_symmetry_space_group_name_H-M "P 2/M"
_symmetry_group_IT_number 10
_symmetry_cell_setting 'monoclinic'
loop_
_space_group_symop_operation_xyz
x,y,z
-x,y,-z
-x,-y,-z
x,-y,z
loop_
_atom_site_type_symbol
_atom_site_label
_atom_site_fract_x
_atom_site_fract_y
_atom_site_fract_z
Si Si1 0.892679 0.111320 0.842794
Si Si2 0.919985 0.764843 0.570116
Si Si3 0.299620 0.111259 0.074702
Si Si4 0.273234 0.394154 0.971975
Si Si5 0.280854 0.775531 0.763894
Si Si6 0.461727 0.605099 0.304766
Si Si7 0.968960 0.390374 0.151007
Si Si8 0.491357 0.787080 0.815551
O O1 0.889658 0.155370 0.670766
O O2 0.789637 0.143401 0.866153
O O3 0.894067 0.000000 0.823902
O O4 0.000000 0.146888 0.000000
O O5 0.817005 0.738422 0.401306
O O6 0.000000 0.807356 0.500000
O O7 0.964322 0.669834 0.679155
O O8 0.413462 0.157772 0.204317
O O9 0.315499 0.000000 0.085789
O O10 0.257670 0.143700 0.876006
O O11 0.282215 0.500000 0.906873
O O12 0.323132 0.316092 0.891794
O O13 0.153346 0.366364 0.918795
O O14 0.335438 0.391799 0.182217
O O15 0.368325 0.815146 0.701436
O O16 0.500000 0.640379 0.500000
O O17 0.506405 0.500000 0.307735
O O18 0.511165 0.675855 0.217290
O O19 0.993840 0.500000 0.200633
O O20 0.000000 0.360531 0.000000
O O21 0.500000 0.812391 0.000000
#
# Coordination Sequence:
#
# PCOD8065437 Si02
#       8
#     4   4   4   4   4   4   4   4
#     4  10  23  42  65  92 122 165 211 260 325 389
#     4  12  24  38  64  95 129 163 209 267 324 376
#     4  10  22  43  68  89 122 170 214 258 321 393
#     4  10  20  38  61  86 126 170 214 256 310 379
#     4  11  23  38  60  98 121 166 211 261 324 374
#     4  10  21  36  59  88 122 162 205 259 315 370
#     4  10  23  40  62  91 128 176 219 260 312 382
#     4  10  21  38  60  89 125 161 211 257 317 379
#
# _framework density 20.627507000000001
#
# number of rings (size 3 to 8) (size 9 to 14) (size 15 to 20)
#    0.000    1.625    3.750    1.125    1.750    6.500 
#    0.000    1.250    0.000    1.875    0.000    0.000 
#    0.000    0.000    0.000    0.000    0.000    0.000 
#
# Total GULP energy -396449.454022 kJ/mol
# GULP energy per Si atom -12389.045438 kJ/mol
# Density = 2.058056 g / cm^3
# Si number density = 20.627507 Si / 1000 Ang^3
#
#
#
# Elastic Constant Matrix: (Units=GPa)
#
#
# Indices 1 2 3 4 5 6 
#
# 1 163.7999 49.8139 57.8359 0.0000 2.7587 0.0000
# 2 49.8139 77.9219 29.9037 0.0000 -4.2090 0.0000
# 3 57.8359 29.9037 115.9657 0.0000 17.0948 0.0000
# 4 0.0000 0.0000 0.0000 19.1192 0.0000 2.7341
# 5 2.7587 -4.2090 17.0948 0.0000 31.3963 0.0000
# 6 0.0000 0.0000 0.0000 2.7341 0.0000 22.9611
#
#
#
# Elastic Compliance Matrix: (Units=1/GPa)
#
#
# Indices 1 2 3 4 5 6 
#
# 1 0.008509 -0.004174 -0.003234 0.000000 0.000454 0.000000
# 2 -0.004174 0.016832 -0.002876 0.000000 0.004189 0.000000
# 3 -0.003234 -0.002876 0.011952 0.000000 -0.006609 0.000000
# 4 0.000000 0.000000 0.000000 0.053210 0.000000 -0.006336
# 5 0.000454 0.004189 -0.006609 0.000000 0.035971 0.000000
# 6 0.000000 0.000000 0.000000 -0.006336 0.000000 0.044306
#
#
# Mechanical properties :
#
#
# Convention : Reuss Voigt Hill
#
# Bulk Modulus (GPa) = 59.79392 70.31049 65.05220
# Shear Modulus (GPa) = 25.39068 29.37093 27.38080
#
# Velocity S-wave (km/s) = 3.51224 3.77752 3.64729
# Velocity P-wave (km/s) = 6.74524 7.29287 7.02439
#
# Compressibility (1/GPa) = 0.01672411
#
# Stress axis : x y z
#
# Youngs Moduli (GPa) = 117.52825 59.41193 83.66654
#
# Poissons Ratio (x) = 0.24797 0.27059
# Poissons Ratio (y) = 0.49053 0.24065
# Poissons Ratio (z) = 0.38010 0.17089
#
# Static dielectric constant tensor:
#      x y z
#    x 4.483900 0.000000 0.254170 
#    y 0.000000 3.671310 0.000000 
#    z 0.254170 0.000000 3.728650 
# 
# 
# High freq. dielectric constant tensor:
#      x y z
#    x 1.816250 0.000000 0.014350 
#    y 0.000000 1.806900 0.000000 
#    z 0.014350 0.000000 1.794350 
# 
# From -- ./inp_files/29566.got.cif
#   From: 2010.06.25/outbox.cif.g09.slc.cpg/sg10_15_cif.got.tgz:29566.got - 2010.06.27 22:07:45.
