data_PCOD8065956
_publ_section_title
;
Structure prediction by ZEFSAII (Michael W. Deem and Ramdas Pophale) SiO2 
 PCOD8065956
Probable space group: P 2/M
;
_chemical_formula_sum "Si O2"
_cell_formula_units_Z 16
_cell_length_a 14.416052
_cell_length_b 13.315262
_cell_length_c 12.710456
_cell_angle_alpha 90.000000
_cell_angle_beta 20.170162
_cell_angle_gamma 90.000000
_cell_volume 841.271739
_symmetry_space_group_name_H-M "P 2/M"
_symmetry_group_IT_number 10
_symmetry_cell_setting 'monoclinic'
loop_
_space_group_symop_operation_xyz
x,y,z
-x,y,-z
-x,-y,-z
x,-y,z
loop_
_atom_site_type_symbol
_atom_site_label
_atom_site_fract_x
_atom_site_fract_y
_atom_site_fract_z
Si Si1 0.715223 0.614899 0.356694
Si Si2 0.172577 0.384155 0.217856
Si Si3 0.786153 0.113019 0.641473
Si Si4 0.727050 0.703883 0.564657
O O1 0.500000 0.647992 0.500000
O O2 0.664352 0.500000 0.449541
O O3 0.682293 0.692422 0.487942
O O4 0.000000 0.626556 0.000000
O O5 0.245417 0.500000 0.151679
O O6 0.000000 0.343571 0.500000
O O7 0.984028 0.366509 0.317171
O O8 0.455550 0.327138 0.914295
O O9 0.797789 0.182774 0.525045
O O10 0.000000 0.151146 0.500000
O O11 0.856610 0.000000 0.528997
O O12 0.500000 0.117116 0.000000
#
# Coordination Sequence:
#
# PCOD8065956 Si02
#       4
#     4   4   4   4
#     4  10  21  36  53  75 104 140 184 228 267 312
#     4  11  22  33  49  79 114 143 173 211 263 331
#     4  10  21  37  57  82 110 140 178 222 268 323
#     4  12  21  35  57  77 106 146 184 220 269 319
#
# _framework density 19.018823999999999
#
# number of rings (size 3 to 8) (size 9 to 14) (size 15 to 20)
#    0.000    1.250    0.000    8.250    0.000    4.000 
#    0.000    0.000    0.000    1.500    0.000    0.000 
#    0.000    0.000    0.000    0.000    0.000    0.000 
#
# Total GULP energy -198443.694857 kJ/mol
# GULP energy per Si atom -12402.730929 kJ/mol
# Density = 1.897554 g / cm^3
# Si number density = 19.018824 Si / 1000 Ang^3
#
#
#
# Elastic Constant Matrix: (Units=GPa)
#
#
# Indices 1 2 3 4 5 6 
#
# 1 135.6290 69.5520 33.3159 0.0000 -1.2490 0.0000
# 2 69.5520 112.6591 34.9068 0.0000 10.6705 0.0000
# 3 33.3159 34.9068 66.0877 0.0000 -14.4903 0.0000
# 4 0.0000 0.0000 0.0000 20.9806 0.0000 0.9594
# 5 -1.2490 10.6705 -14.4903 0.0000 42.9647 0.0000
# 6 0.0000 0.0000 0.0000 0.9594 0.0000 36.5643
#
#
#
# Elastic Compliance Matrix: (Units=1/GPa)
#
#
# Indices 1 2 3 4 5 6 
#
# 1 0.011144 -0.006387 -0.001971 0.000000 0.001245 0.000000
# 2 -0.006387 0.015318 -0.006205 0.000000 -0.006083 0.000000
# 3 -0.001971 -0.006205 0.021303 0.000000 0.008668 0.000000
# 4 0.000000 0.000000 0.000000 0.047720 0.000000 -0.001252
# 5 0.001245 -0.006083 0.008668 0.000000 0.027745 0.000000
# 6 0.000000 0.000000 0.000000 -0.001252 0.000000 0.027382
#
#
# Mechanical properties :
#
#
# Convention : Reuss Voigt Hill
#
# Bulk Modulus (GPa) = 53.65062 65.54722 59.59892
# Shear Modulus (GPa) = 26.88863 31.87532 29.38198
#
# Velocity S-wave (km/s) = 3.76412 4.09832 3.93477
# Velocity P-wave (km/s) = 6.86745 7.54548 7.21444
#
# Compressibility (1/GPa) = 0.01863911
#
# Stress axis : x y z
#
# Youngs Moduli (GPa) = 89.73295 65.28183 46.94189
#
# Poissons Ratio (x) = 0.41697 0.09253
# Poissons Ratio (y) = 0.57315 0.29126
# Poissons Ratio (z) = 0.17688 0.40505
#
# Static dielectric constant tensor:
#      x y z
#    x 3.524020 0.000000 -0.243690 
#    y 0.000000 3.510460 0.000000 
#    z -0.243690 0.000000 3.459560 
# 
# 
# High freq. dielectric constant tensor:
#      x y z
#    x 1.742270 0.000000 -0.028690 
#    y 0.000000 1.722050 0.000000 
#    z -0.028690 0.000000 1.742470 
# 
# From -- ./inp_files/6301.got.cif
#   From: 2010.06.25/outbox.cif.g09.slc.cpg/sg10_4_cif.got.tgz:6301.got - 2010.06.27 22:07:45.
