data_PCOD8065280
_publ_section_title
;
Structure prediction by ZEFSAII (Michael W. Deem and Ramdas Pophale) SiO2 
 PCOD8065280
Probable space group: P 2/M
;
_chemical_formula_sum "Si O2"
_cell_formula_units_Z 24
_cell_length_a 14.663595
_cell_length_b 9.036098
_cell_length_c 14.957407
_cell_angle_alpha 90.000000
_cell_angle_beta 39.982746
_cell_angle_gamma 90.000000
_cell_volume 1273.471672
_symmetry_space_group_name_H-M "P 2/M"
_symmetry_group_IT_number 10
_symmetry_cell_setting 'monoclinic'
loop_
_space_group_symop_operation_xyz
x,y,z
-x,y,-z
-x,-y,-z
x,-y,z
loop_
_atom_site_type_symbol
_atom_site_label
_atom_site_fract_x
_atom_site_fract_y
_atom_site_fract_z
Si Si1 0.843948 0.673246 0.150617
Si Si2 0.170838 0.826646 0.141895
Si Si3 0.352737 0.328081 0.863134
Si Si4 0.859582 0.175798 0.322176
Si Si5 0.318517 0.326791 0.390612
Si Si6 0.839065 0.827844 0.645086
O O1 0.830149 0.500000 0.182376
O O2 0.732795 0.726494 0.159546
O O3 0.806425 0.763608 0.267487
O O4 0.000000 0.715356 0.000000
O O5 0.189561 0.785231 0.231195
O O6 0.019344 0.767560 0.220470
O O7 0.179817 0.000000 0.120195
O O8 0.298315 0.752975 0.992378
O O9 0.325308 0.500000 0.899328
O O10 0.516028 0.290372 0.725486
O O11 0.758735 0.237653 0.474136
O O12 0.850650 0.000000 0.330946
O O13 0.287344 0.500000 0.424715
O O14 0.265521 0.272326 0.334246
O O15 0.000000 0.788604 0.500000
O O16 0.808441 0.000000 0.648591
#
# Coordination Sequence:
#
# PCOD8065280 Si02
#       6
#     4   4   4   4   4   4
#     4  10  20  37  62  88 115 155 199 241 290 345
#     4  10  21  37  61  88 115 152 195 240 293 348
#     4  10  23  41  59  85 123 156 191 243 296 346
#     4  11  22  38  61  89 119 153 195 244 292 348
#     4  11  24  40  59  87 121 157 194 240 295 349
#     4  10  20  39  62  86 118 154 195 243 290 344
#
# _framework density 18.846119999999999
#
# number of rings (size 3 to 8) (size 9 to 14) (size 15 to 20)
#    0.000    1.667    3.333    1.000    0.000    5.333 
#    0.000    6.667    0.000    0.000    0.000    0.000 
#    0.000    0.000    0.000    0.000    0.000    0.000 
#
# Total GULP energy -297735.967903 kJ/mol
# GULP energy per Si atom -12405.665329 kJ/mol
# Density = 1.880323 g / cm^3
# Si number density = 18.846120 Si / 1000 Ang^3
#
#
#
# Elastic Constant Matrix: (Units=GPa)
#
#
# Indices 1 2 3 4 5 6 
#
# 1 118.7213 36.7163 35.8695 0.0000 9.5620 0.0000
# 2 36.7163 51.6260 35.2207 0.0000 8.3712 0.0000
# 3 35.8695 35.2207 71.9660 0.0000 22.2418 0.0000
# 4 0.0000 0.0000 0.0000 54.7908 0.0000 9.6405
# 5 9.5620 8.3712 22.2418 0.0000 28.8016 0.0000
# 6 0.0000 0.0000 0.0000 9.6405 0.0000 33.4994
#
#
#
# Elastic Compliance Matrix: (Units=1/GPa)
#
#
# Indices 1 2 3 4 5 6 
#
# 1 0.011091 -0.006175 -0.002525 0.000000 0.000063 0.000000
# 2 -0.006175 0.032763 -0.013985 0.000000 0.003327 0.000000
# 3 -0.002525 -0.013985 0.026904 0.000000 -0.015873 0.000000
# 4 0.000000 0.000000 0.000000 0.019225 0.000000 -0.005532
# 5 0.000063 0.003327 -0.015873 0.000000 0.045991 0.000000
# 6 0.000000 0.000000 0.000000 -0.005532 0.000000 0.031443
#
#
# Mechanical properties :
#
#
# Convention : Reuss Voigt Hill
#
# Bulk Modulus (GPa) = 39.38929 50.88068 45.13498
# Shear Modulus (GPa) = 22.59884 32.38548 27.49216
#
# Velocity S-wave (km/s) = 3.46659 4.14988 3.82353
# Velocity P-wave (km/s) = 6.08020 7.07238 6.59498
#
# Compressibility (1/GPa) = 0.02538761
#
# Stress axis : x y z
#
# Youngs Moduli (GPa) = 90.16560 30.52185 37.16881
#
# Poissons Ratio (x) = 0.18848 0.09385
# Poissons Ratio (y) = 0.55679 0.51981
# Poissons Ratio (z) = 0.22767 0.42685
#
# Static dielectric constant tensor:
#      x y z
#    x 3.714960 0.000000 0.033370 
#    y 0.000000 3.372310 0.000000 
#    z 0.033370 0.000000 3.411640 
# 
# 
# High freq. dielectric constant tensor:
#      x y z
#    x 1.741900 0.000000 0.007810 
#    y 0.000000 1.729030 0.000000 
#    z 0.007810 0.000000 1.737410 
# 
# From -- ./inp_files/26997.got.cif
#   From: 2010.06.25/outbox.cif.g09.slc.cpg/sg10_14_cif.got.tgz:26997.got - 2010.06.27 22:07:45.
