data_PCOD8065224
_publ_section_title
;
Structure prediction by ZEFSAII (Michael W. Deem and Ramdas Pophale) SiO2 
 PCOD8065224
Probable space group: P 2/M
;
_chemical_formula_sum "Si O2"
_cell_formula_units_Z 32
_cell_length_a 21.492583
_cell_length_b 8.601809
_cell_length_c 27.780193
_cell_angle_alpha 90.000000
_cell_angle_beta 161.251979
_cell_angle_gamma 90.000000
_cell_volume 1650.701973
_symmetry_space_group_name_H-M "P 2/M"
_symmetry_group_IT_number 10
_symmetry_cell_setting 'monoclinic'
loop_
_space_group_symop_operation_xyz
x,y,z
-x,y,-z
-x,-y,-z
x,-y,z
loop_
_atom_site_type_symbol
_atom_site_label
_atom_site_fract_x
_atom_site_fract_y
_atom_site_fract_z
Si Si1 0.504744 0.182658 0.558561
Si Si2 0.086428 0.320867 0.664786
Si Si3 0.777201 0.682745 0.835829
Si Si4 0.557772 0.681703 0.141681
Si Si5 0.654970 0.320138 0.320022
Si Si6 0.801804 0.319114 0.598862
Si Si7 0.530539 0.180838 0.323664
Si Si8 0.837875 0.820539 0.178834
O O1 0.500000 0.238679 0.500000
O O2 0.679684 0.269707 0.713833
O O3 0.299353 0.224766 0.432157
O O4 0.541508 0.000000 0.589582
O O5 0.106324 0.500000 0.695750
O O6 0.249588 0.274771 0.746104
O O7 0.104193 0.213258 0.724089
O O8 0.883155 0.288388 0.490267
O O9 0.751351 0.500000 0.824563
O O10 0.676416 0.771768 0.806200
O O11 0.000000 0.733164 0.000000
O O12 0.512114 0.500000 0.104111
O O13 0.584591 0.733939 0.216258
O O14 0.383571 0.776323 0.991006
O O15 0.607805 0.500000 0.294671
O O16 0.535132 0.219016 0.270602
O O17 0.780469 0.500000 0.594357
O O18 0.699604 0.278878 0.473341
O O19 0.026907 0.273961 0.759510
O O20 0.568014 0.000000 0.360421
O O21 0.870839 0.000000 0.192294
#
# Coordination Sequence:
#
# PCOD8065224 Si02
#       8
#     4   4   4   4   4   4   4   4
#     4  10  21  38  61  90 122 153 186 232 289 345
#     4  10  20  37  63  87 111 149 196 241 286 346
#     4  10  21  38  61  88 117 153 197 239 278 331
#     4  10  22  39  58  85 117 152 194 240 291 344
#     4  10  20  37  61  86 115 151 194 240 285 340
#     4  11  21  37  62  86 112 152 199 242 281 333
#     4  11  21  35  59  88 118 153 191 235 288 343
#     4  12  24  38  57  84 118 154 193 239 294 346
#
# _framework density 19.385693
#
# number of rings (size 3 to 8) (size 9 to 14) (size 15 to 20)
#    0.000    1.500    1.250    6.375    0.000    6.000 
#    2.250    0.000    0.000    2.250    0.000    0.000 
#    0.000    0.000    0.000    0.000    0.000    0.000 
#
# Total GULP energy -396971.083190 kJ/mol
# GULP energy per Si atom -12405.346350 kJ/mol
# Density = 1.934157 g / cm^3
# Si number density = 19.385693 Si / 1000 Ang^3
#
#
#
# Elastic Constant Matrix: (Units=GPa)
#
#
# Indices 1 2 3 4 5 6 
#
# 1 107.8956 16.3559 22.7762 0.0000 7.0233 0.0000
# 2 16.3559 60.0550 18.4357 0.0000 6.0103 0.0000
# 3 22.7762 18.4357 66.1001 0.0000 15.9923 0.0000
# 4 0.0000 0.0000 0.0000 9.0918 0.0000 -1.4995
# 5 7.0233 6.0103 15.9923 0.0000 26.3551 0.0000
# 6 0.0000 0.0000 0.0000 -1.4995 0.0000 28.2201
#
#
#
# Elastic Compliance Matrix: (Units=1/GPa)
#
#
# Indices 1 2 3 4 5 6 
#
# 1 0.010188 -0.001840 -0.002862 0.000000 -0.000559 0.000000
# 2 -0.001840 0.018578 -0.004268 0.000000 -0.001157 0.000000
# 3 -0.002862 -0.004268 0.019790 0.000000 -0.010273 0.000000
# 4 0.000000 0.000000 0.000000 0.110962 0.000000 0.005896
# 5 -0.000559 -0.001157 -0.010273 0.000000 0.044590 0.000000
# 6 0.000000 0.000000 0.000000 0.005896 0.000000 0.035749
#
#
# Mechanical properties :
#
#
# Convention : Reuss Voigt Hill
#
# Bulk Modulus (GPa) = 32.66171 38.79849 35.73010
# Shear Modulus (GPa) = 18.65656 24.49892 21.57774
#
# Velocity S-wave (km/s) = 3.10560 3.55880 3.33990
# Velocity P-wave (km/s) = 5.45386 6.07817 5.77446
#
# Compressibility (1/GPa) = 0.03061689
#
# Stress axis : x y z
#
# Youngs Moduli (GPa) = 98.15777 53.82587 50.52941
#
# Poissons Ratio (x) = 0.09905 0.14462
# Poissons Ratio (y) = 0.18062 0.21564
# Poissons Ratio (z) = 0.28093 0.22971
#
# Static dielectric constant tensor:
#      x y z
#    x 3.631350 0.000000 0.116890 
#    y 0.000000 3.504560 0.000000 
#    z 0.116890 0.000000 3.493670 
# 
# 
# High freq. dielectric constant tensor:
#      x y z
#    x 1.761140 0.000000 0.011230 
#    y 0.000000 1.755890 0.000000 
#    z 0.011230 0.000000 1.747990 
# 
# From -- ./inp_files/93698.got.cif
#   From: 2010.06.25/outbox.cif.g09.slc.cpg/sg10_47_cif.got.tgz:93698.got - 2010.06.27 22:07:45.
