data_PCOD8065385
_publ_section_title
;
Structure prediction by ZEFSAII (Michael W. Deem and Ramdas Pophale) SiO2 
 PCOD8065385
Probable space group: P 2/M
;
_chemical_formula_sum "Si O2"
_cell_formula_units_Z 32
_cell_length_a 13.143475
_cell_length_b 16.934552
_cell_length_c 17.048607
_cell_angle_alpha 90.000000
_cell_angle_beta 155.097138
_cell_angle_gamma 90.000000
_cell_volume 1597.859486
_symmetry_space_group_name_H-M "P 2/M"
_symmetry_group_IT_number 10
_symmetry_cell_setting 'monoclinic'
loop_
_space_group_symop_operation_xyz
x,y,z
-x,y,-z
-x,-y,-z
x,-y,z
loop_
_atom_site_type_symbol
_atom_site_label
_atom_site_fract_x
_atom_site_fract_y
_atom_site_fract_z
Si Si1 0.309407 0.589073 0.582924
Si Si2 0.631872 0.771958 0.011528
Si Si3 0.080388 0.325451 0.289258
Si Si4 0.769838 0.263489 0.384787
Si Si5 0.333879 0.817448 0.526509
Si Si6 0.874043 0.408511 0.993355
Si Si7 0.058396 0.908914 0.828242
Si Si8 0.299774 0.086450 0.292971
O O1 0.260954 0.500000 0.575977
O O2 0.200026 0.601081 0.419106
O O3 0.168927 0.648257 0.542324
O O4 0.592608 0.610584 0.784614
O O5 0.451409 0.727519 0.828281
O O6 0.500000 0.791805 0.000000
O O7 0.710466 0.854240 0.026113
O O8 0.855830 0.712231 0.181061
O O9 0.278996 0.254728 0.426931
O O10 0.996279 0.353450 0.144886
O O11 0.697548 0.207670 0.405992
O O12 0.000000 0.228182 0.500000
O O13 0.610022 0.848298 0.706960
O O14 0.148082 0.888954 0.380284
O O15 0.913166 0.500000 0.043780
O O16 0.000000 0.387680 0.000000
O O17 0.955032 0.891287 0.843949
O O18 0.133652 0.000000 0.871583
O O19 0.500000 0.082417 0.500000
O O20 0.275929 0.000000 0.236035
#
# Coordination Sequence:
#
# PCOD8065385 Si02
#       8
#     4   4   4   4   4   4   4   4
#     4  10  21  39  62  87 118 157 199 245 297 351
#     4  11  22  40  60  82 116 155 195 246 303 354
#     4  10  20  38  57  89 118 156 199 244 296 353
#     4  11  22  40  59  83 117 151 197 252 299 351
#     4   9  18  33  56  86 114 156 194 237 295 352
#     4  10  21  39  59  85 122 160 198 243 291 348
#     4   9  18  35  58  86 117 153 196 238 288 352
#     4   8  14  30  55  83 117 150 188 234 283 345
#
# _framework density 20.026792
#
# number of rings (size 3 to 8) (size 9 to 14) (size 15 to 20)
#    0.000    2.250    1.250    3.750    0.000    1.000 
#   20.250    3.750    0.000    6.000    0.000    0.000 
#    0.000    0.500    0.000    0.000    0.000    0.000 
#
# Total GULP energy -396615.775088 kJ/mol
# GULP energy per Si atom -12394.242972 kJ/mol
# Density = 1.998121 g / cm^3
# Si number density = 20.026792 Si / 1000 Ang^3
#
#
#
# Elastic Constant Matrix: (Units=GPa)
#
#
# Indices 1 2 3 4 5 6 
#
# 1 140.6935 68.4372 36.0849 0.0000 4.3729 0.0000
# 2 68.4372 102.3613 33.6421 0.0000 -0.6570 0.0000
# 3 36.0849 33.6421 77.5660 0.0000 -9.9001 0.0000
# 4 0.0000 0.0000 0.0000 12.4517 0.0000 6.0331
# 5 4.3729 -0.6570 -9.9001 0.0000 20.2745 0.0000
# 6 0.0000 0.0000 0.0000 6.0331 0.0000 21.9332
#
#
#
# Elastic Compliance Matrix: (Units=1/GPa)
#
#
# Indices 1 2 3 4 5 6 
#
# 1 0.011147 -0.006537 -0.002862 0.000000 -0.004014 0.000000
# 2 -0.006537 0.015319 -0.003583 0.000000 0.000157 0.000000
# 3 -0.002862 -0.003583 0.016895 0.000000 0.008751 0.000000
# 4 0.000000 0.000000 0.000000 0.092660 0.000000 -0.025488
# 5 -0.004014 0.000157 0.008751 0.000000 0.054467 0.000000
# 6 0.000000 0.000000 0.000000 -0.025488 0.000000 0.052604
#
#
# Mechanical properties :
#
#
# Convention : Reuss Voigt Hill
#
# Bulk Modulus (GPa) = 57.48824 66.32770 61.90797
# Shear Modulus (GPa) = 18.19149 23.09564 20.64357
#
# Velocity S-wave (km/s) = 3.01717 3.39962 3.21409
# Velocity P-wave (km/s) = 6.39576 6.97146 6.68980
#
# Compressibility (1/GPa) = 0.01739486
#
# Stress axis : x y z
#
# Youngs Moduli (GPa) = 89.71407 65.28005 59.19006
#
# Poissons Ratio (x) = 0.42676 0.16943
# Poissons Ratio (y) = 0.58650 0.21206
# Poissons Ratio (z) = 0.25680 0.23388
#
# Static dielectric constant tensor:
#      x y z
#    x 3.685670 0.000000 0.112470 
#    y 0.000000 3.709380 0.000000 
#    z 0.112470 0.000000 3.604010 
# 
# 
# High freq. dielectric constant tensor:
#      x y z
#    x 1.768950 0.000000 0.003590 
#    y 0.000000 1.779240 0.000000 
#    z 0.003590 0.000000 1.776710 
# 
# From -- ./inp_files/65408.got.cif
#   From: 2010.06.25/outbox.cif.g09.slc.cpg/sg10_33_cif.got.tgz:65408.got - 2010.06.27 22:07:45.
