data_PCOD8065264
_publ_section_title
;
Structure prediction by ZEFSAII (Michael W. Deem and Ramdas Pophale) SiO2 
 PCOD8065264
Probable space group: P 2/M
;
_chemical_formula_sum "Si O2"
_cell_formula_units_Z 32
_cell_length_a 12.013152
_cell_length_b 9.080297
_cell_length_c 28.314084
_cell_angle_alpha 90.000000
_cell_angle_beta 31.290084
_cell_angle_gamma 90.000000
_cell_volume 1604.122118
_symmetry_space_group_name_H-M "P 2/M"
_symmetry_group_IT_number 10
_symmetry_cell_setting 'monoclinic'
loop_
_space_group_symop_operation_xyz
x,y,z
-x,y,-z
-x,-y,-z
x,-y,z
loop_
_atom_site_type_symbol
_atom_site_label
_atom_site_fract_x
_atom_site_fract_y
_atom_site_fract_z
Si Si1 0.022360 0.830123 0.625678
Si Si2 0.056157 0.827543 0.120350
Si Si3 0.592110 0.167322 0.326704
Si Si4 0.175269 0.834926 0.668357
Si Si5 0.829945 0.327251 0.521839
Si Si6 0.816642 0.172157 0.029289
Si Si7 0.387012 0.673037 0.182382
Si Si8 0.205363 0.669004 0.151462
O O1 0.801434 0.757169 0.722335
O O2 0.203045 0.815515 0.601844
O O3 0.110076 0.750352 0.548289
O O4 0.978539 0.000000 0.629284
O O5 0.814546 0.780593 0.222165
O O6 0.102236 0.771818 0.051026
O O7 0.230649 0.758308 0.093389
O O8 0.083465 0.000000 0.114426
O O9 0.609245 0.179661 0.378176
O O10 0.402878 0.271552 0.376763
O O11 0.538026 0.000000 0.331528
O O12 0.018451 0.708485 0.743038
O O13 0.078417 0.000000 0.713296
O O14 0.822697 0.500000 0.515904
O O15 0.000000 0.283333 0.500000
O O16 0.757995 0.000000 0.049783
O O17 0.610324 0.264053 0.120474
O O18 0.000000 0.207898 0.000000
O O19 0.365833 0.500000 0.201073
O O20 0.383489 0.703915 0.126893
O O21 0.208108 0.500000 0.135899
#
# Coordination Sequence:
#
# PCOD8065264 Si02
#       8
#     4   4   4   4   4   4   4   4
#     4  10  20  37  62  86 110 144 183 224 272 327
#     4   9  19  36  57  81 111 144 180 228 278 323
#     4   9  18  35  58  82 109 142 181 225 275 330
#     4   8  16  32  55  84 113 138 171 219 274 329
#     4  11  25  41  54  76 112 149 188 232 274 321
#     4  10  22  39  57  80 109 145 194 239 272 319
#     4  10  21  37  57  84 117 147 177 222 279 332
#     4   9  17  30  52  82 113 143 177 217 267 333
#
# _framework density 19.948606000000002
#
# number of rings (size 3 to 8) (size 9 to 14) (size 15 to 20)
#    0.000    2.500    0.000    2.250    0.000    7.750 
#    0.000    6.250    0.000    0.000    0.000    0.000 
#    0.000    0.000    0.000    0.000    0.000    0.000 
#
# Total GULP energy -396642.410382 kJ/mol
# GULP energy per Si atom -12395.075324 kJ/mol
# Density = 1.990320 g / cm^3
# Si number density = 19.948606 Si / 1000 Ang^3
#
#
#
# Elastic Constant Matrix: (Units=GPa)
#
#
# Indices 1 2 3 4 5 6 
#
# 1 58.9598 18.4952 4.5360 0.0000 -6.2621 0.0000
# 2 18.4952 49.3683 11.1325 0.0000 -10.3888 0.0000
# 3 4.5360 11.1325 39.2911 0.0000 -5.2170 0.0000
# 4 0.0000 0.0000 0.0000 17.5672 0.0000 -1.4633
# 5 -6.2621 -10.3888 -5.2170 0.0000 33.3410 0.0000
# 6 0.0000 0.0000 0.0000 -1.4633 0.0000 31.8755
#
#
#
# Elastic Compliance Matrix: (Units=1/GPa)
#
#
# Indices 1 2 3 4 5 6 
#
# 1 0.019286 -0.006901 -0.000077 0.000000 0.001460 0.000000
# 2 -0.006901 0.025309 -0.005616 0.000000 0.005711 0.000000
# 3 -0.000077 -0.005616 0.027386 0.000000 0.002521 0.000000
# 4 0.000000 0.000000 0.000000 0.057143 0.000000 0.002623
# 5 0.001460 0.005711 0.002521 0.000000 0.032441 0.000000
# 6 0.000000 0.000000 0.000000 0.002623 0.000000 0.031492
#
#
# Mechanical properties :
#
#
# Convention : Reuss Voigt Hill
#
# Bulk Modulus (GPa) = 21.37056 23.99408 22.68232
# Shear Modulus (GPa) = 21.38171 24.12043 22.75107
#
# Velocity S-wave (km/s) = 3.27745 3.48102 3.38077
# Velocity P-wave (km/s) = 5.00583 5.31138 5.16087
#
# Compressibility (1/GPa) = 0.04679335
#
# Stress axis : x y z
#
# Youngs Moduli (GPa) = 51.84995 39.51093 36.51513
#
# Poissons Ratio (x) = 0.27265 0.00283
# Poissons Ratio (y) = 0.35780 0.20507
# Poissons Ratio (z) = 0.00402 0.22189
#
# Static dielectric constant tensor:
#      x y z
#    x 3.851940 0.000000 0.026500 
#    y 0.000000 3.571900 0.000000 
#    z 0.026500 0.000000 3.413410 
# 
# 
# High freq. dielectric constant tensor:
#      x y z
#    x 1.783250 0.000000 0.001760 
#    y 0.000000 1.776040 0.000000 
#    z 0.001760 0.000000 1.759340 
# 
# From -- ./inp_files/49933.got.cif
#   From: 2010.06.25/outbox.cif.g09.slc.cpg/sg10_25_cif.got.tgz:49933.got - 2010.06.27 22:07:45.
