data_PCOD8065756
_publ_section_title
;
Structure prediction by ZEFSAII (Michael W. Deem and Ramdas Pophale) SiO2 
 PCOD8065756
Probable space group: P 2/M
;
_chemical_formula_sum "Si O2"
_cell_formula_units_Z 32
_cell_length_a 11.811105
_cell_length_b 13.267593
_cell_length_c 11.922151
_cell_angle_alpha 90.000000
_cell_angle_beta 113.189594
_cell_angle_gamma 90.000000
_cell_volume 1717.317325
_symmetry_space_group_name_H-M "P 2/M"
_symmetry_group_IT_number 10
_symmetry_cell_setting 'monoclinic'
loop_
_space_group_symop_operation_xyz
x,y,z
-x,y,-z
-x,-y,-z
x,-y,z
loop_
_atom_site_type_symbol
_atom_site_label
_atom_site_fract_x
_atom_site_fract_y
_atom_site_fract_z
Si Si1 0.221300 0.382903 0.911753
Si Si2 0.492970 0.383865 0.373047
Si Si3 0.662008 0.114159 0.456182
Si Si4 0.125458 0.270408 0.496425
Si Si5 0.935399 0.618561 0.755766
Si Si6 0.299176 0.617723 0.706182
Si Si7 0.613132 0.113080 0.696159
Si Si8 0.736378 0.698102 0.834030
O O1 0.246679 0.500000 0.946133
O O2 0.297977 0.341966 0.833927
O O3 0.078595 0.364558 0.831275
O O4 0.268514 0.320107 0.035601
O O5 0.500000 0.332306 0.500000
O O6 0.528002 0.500000 0.400933
O O7 0.591749 0.333435 0.326500
O O8 0.358045 0.372192 0.270653
O O9 0.773262 0.182639 0.456599
O O10 0.662039 0.116432 0.589612
O O11 0.529084 0.150792 0.356231
O O12 0.685609 0.000000 0.423905
O O13 0.110951 0.317151 0.367982
O O14 0.169225 0.359754 0.595950
O O15 0.000000 0.226439 0.500000
O O16 0.903853 0.500000 0.728395
O O17 0.869425 0.666188 0.839026
O O18 0.316735 0.500000 0.722458
O O19 0.700320 0.185198 0.803495
O O20 0.624229 0.000000 0.748956
#
# Coordination Sequence:
#
# PCOD8065756 Si02
#       8
#     4   4   4   4   4   4   4   4
#     4  10  22  38  53  76 112 158 197 224 262 323
#     4  10  21  34  51  80 113 141 178 232 285 325
#     4   9  19  37  58  85 113 136 173 231 294 346
#     4  12  21  33  57  83 110 147 189 228 282 333
#     4  11  22  36  54  80 115 152 192 234 270 321
#     4  10  21  36  52  77 118 153 185 226 272 333
#     4   9  19  36  60  84 109 138 174 230 293 346
#     4  12  21  34  59  81 107 143 192 232 275 328
#
# _framework density 18.633714000000001
#
# number of rings (size 3 to 8) (size 9 to 14) (size 15 to 20)
#    0.000    1.625    2.500    4.125    1.750    3.250 
#    0.000    1.875    0.000    3.000    0.000    2.625 
#    0.000    0.000    0.000    0.000    0.000    0.000 
#
# Total GULP energy -396728.326003 kJ/mol
# GULP energy per Si atom -12397.760188 kJ/mol
# Density = 1.859130 g / cm^3
# Si number density = 18.633714 Si / 1000 Ang^3
#
#
#
# Elastic Constant Matrix: (Units=GPa)
#
#
# Indices 1 2 3 4 5 6 
#
# 1 113.6623 40.7969 33.7399 0.0000 -21.1611 0.0000
# 2 40.7969 66.3701 33.1262 0.0000 -2.9049 0.0000
# 3 33.7399 33.1262 111.1143 0.0000 -21.4176 0.0000
# 4 0.0000 0.0000 0.0000 24.3617 0.0000 8.3762
# 5 -21.1611 -2.9049 -21.4176 0.0000 27.8057 0.0000
# 6 0.0000 0.0000 0.0000 8.3762 0.0000 24.6022
#
#
#
# Elastic Compliance Matrix: (Units=1/GPa)
#
#
# Indices 1 2 3 4 5 6 
#
# 1 0.013330 -0.007832 0.000100 0.000000 0.009403 0.000000
# 2 -0.007832 0.022464 -0.005890 0.000000 -0.008151 0.000000
# 3 0.000100 -0.005890 0.012473 0.000000 0.009068 0.000000
# 4 0.000000 0.000000 0.000000 0.046490 0.000000 -0.015828
# 5 0.009403 -0.008151 0.009068 0.000000 0.049254 0.000000
# 6 0.000000 0.000000 0.000000 -0.015828 0.000000 0.046036
#
#
# Mechanical properties :
#
#
# Convention : Reuss Voigt Hill
#
# Bulk Modulus (GPa) = 47.56655 56.27474 51.92065
# Shear Modulus (GPa) = 22.29154 27.58616 24.93885
#
# Velocity S-wave (km/s) = 3.46251 3.85183 3.66235
# Velocity P-wave (km/s) = 6.44732 7.07447 6.76816
#
# Compressibility (1/GPa) = 0.02102318
#
# Stress axis : x y z
#
# Youngs Moduli (GPa) = 75.01719 44.51473 80.17070
#
# Poissons Ratio (x) = 0.34865 -0.00800
# Poissons Ratio (y) = 0.58755 0.47221
# Poissons Ratio (z) = -0.00749 0.26219
#
# Static dielectric constant tensor:
#      x y z
#    x 3.658910 0.000000 -0.178290 
#    y 0.000000 3.410110 0.000000 
#    z -0.178290 0.000000 3.347350 
# 
# 
# High freq. dielectric constant tensor:
#      x y z
#    x 1.732260 0.000000 -0.003880 
#    y 0.000000 1.709120 0.000000 
#    z -0.003880 0.000000 1.710050 
# 
# From -- ./inp_files/47424.got.cif
#   From: 2010.06.25/outbox.cif.g09.slc.cpg/sg10_24_cif.got.tgz:47424.got - 2010.06.27 22:07:45.
