data_PCOD8065814
_publ_section_title
;
Structure prediction by ZEFSAII (Michael W. Deem and Ramdas Pophale) SiO2 
 PCOD8065814
Probable space group: P 2/M
;
_chemical_formula_sum "Si O2"
_cell_formula_units_Z 16
_cell_length_a 14.198866
_cell_length_b 8.934493
_cell_length_c 15.891352
_cell_angle_alpha 90.000000
_cell_angle_beta 153.288836
_cell_angle_gamma 90.000000
_cell_volume 906.165272
_symmetry_space_group_name_H-M "P 2/M"
_symmetry_group_IT_number 10
_symmetry_cell_setting 'monoclinic'
loop_
_space_group_symop_operation_xyz
x,y,z
-x,y,-z
-x,-y,-z
x,-y,z
loop_
_atom_site_type_symbol
_atom_site_label
_atom_site_fract_x
_atom_site_fract_y
_atom_site_fract_z
Si Si1 0.610053 0.675320 0.000626
Si Si2 0.896429 0.823475 0.000399
Si Si3 0.028650 0.177128 0.286937
Si Si4 0.544677 0.823034 0.286383
O O1 0.630562 0.500000 0.001499
O O2 0.466953 0.744937 0.813232
O O3 0.500000 0.714354 0.000000
O O4 0.841056 0.745960 0.187898
O O5 0.653980 0.774116 0.815263
O O6 0.910308 0.000000 0.002531
O O7 0.000000 0.748252 0.000000
O O8 0.022518 0.772294 0.184307
O O9 0.247444 0.231692 0.500298
O O10 0.999025 0.000000 0.271181
O O11 0.544030 0.000000 0.270823
#
# Coordination Sequence:
#
# PCOD8065814 Si02
#       4
#     4   4   4   4
#     4  10  21  35  50  69  94 125 161 200 240 284
#     4   8  14  26  46  73 102 127 153 190 234 278
#     4   9  18  32  50  73  99 126 158 196 237 281
#     4   9  18  32  50  73  99 126 158 196 237 281
#
# _framework density 17.656821999999998
#
# number of rings (size 3 to 8) (size 9 to 14) (size 15 to 20)
#    0.000    3.000    0.000    2.250    0.000    5.000 
#    0.000   10.000    0.000   12.000    0.000   14.000 
#    0.000    0.000    0.000    0.000    0.000    0.000 
#
# Total GULP energy -198361.346838 kJ/mol
# GULP energy per Si atom -12397.584177 kJ/mol
# Density = 1.761663 g / cm^3
# Si number density = 17.656822 Si / 1000 Ang^3
#
#
#
# Elastic Constant Matrix: (Units=GPa)
#
#
# Indices 1 2 3 4 5 6 
#
# 1 159.6262 44.1285 96.8050 0.0000 9.0616 0.0000
# 2 44.1285 35.1424 38.6148 0.0000 1.4121 0.0000
# 3 96.8050 38.6148 193.1042 0.0000 -8.5524 0.0000
# 4 0.0000 0.0000 0.0000 10.6169 0.0000 -1.4600
# 5 9.0616 1.4121 -8.5524 0.0000 9.7170 0.0000
# 6 0.0000 0.0000 0.0000 -1.4600 0.0000 0.3976
#
#
#
# Elastic Compliance Matrix: (Units=1/GPa)
#
#
# Indices 1 2 3 4 5 6 
#
# 1 0.013092 -0.010080 -0.005227 0.000000 -0.015346 0.000000
# 2 -0.010080 0.045673 -0.004118 0.000000 -0.000862 0.000000
# 3 -0.005227 -0.004118 0.009225 0.000000 0.013592 0.000000
# 4 0.000000 0.000000 0.000000 0.190267 0.000000 0.698644
# 5 -0.015346 -0.000862 0.013592 0.000000 0.129312 0.000000
# 6 0.000000 0.000000 0.000000 0.698644 0.000000 5.080358
#
#
# Mechanical properties :
#
#
# Convention : Reuss Voigt Hill
#
# Bulk Modulus (GPa) = 34.31826 82.99659 58.65742
# Shear Modulus (GPa) = 0.90637 18.03458 9.47048
#
# Velocity S-wave (km/s) = 0.71725 3.19939 2.31847
# Velocity P-wave (km/s) = 4.49048 7.79459 6.36082
#
# Compressibility (1/GPa) = 0.02913901
#
# Stress axis : x y z
#
# Youngs Moduli (GPa) = 76.37993 21.89496 108.40593
#
# Poissons Ratio (x) = 0.22070 0.56668
# Poissons Ratio (y) = 0.76989 0.44643
# Poissons Ratio (z) = 0.39927 0.09017
#
# Static dielectric constant tensor:
#      x y z
#    x 3.485180 0.000000 -0.002810 
#    y 0.000000 2.986860 0.000000 
#    z -0.002810 0.000000 3.472640 
# 
# 
# High freq. dielectric constant tensor:
#      x y z
#    x 1.687180 0.000000 -0.000140 
#    y 0.000000 1.653110 0.000000 
#    z -0.000140 0.000000 1.688550 
# 
# From -- ./inp_files/10416.got.cif
#   From: 2010.06.25/outbox.cif.g09.slc.cpg/sg10_6_cif.got.tgz:10416.got - 2010.06.27 22:07:45.
