data_PCOD8065321
_publ_section_title
;
Structure prediction by ZEFSAII (Michael W. Deem and Ramdas Pophale) SiO2 
 PCOD8065321
Probable space group: P 2/M
;
_chemical_formula_sum "Si O2"
_cell_formula_units_Z 28
_cell_length_a 9.731502
_cell_length_b 13.840140
_cell_length_c 23.314470
_cell_angle_alpha 90.000000
_cell_angle_beta 24.661191
_cell_angle_gamma 90.000000
_cell_volume 1310.219088
_symmetry_space_group_name_H-M "P 2/M"
_symmetry_group_IT_number 10
_symmetry_cell_setting 'monoclinic'
loop_
_space_group_symop_operation_xyz
x,y,z
-x,y,-z
-x,-y,-z
x,-y,z
loop_
_atom_site_type_symbol
_atom_site_label
_atom_site_fract_x
_atom_site_fract_y
_atom_site_fract_z
Si Si1 0.461967 0.759165 0.378143
Si Si2 0.459317 0.604381 0.082504
Si Si3 0.221287 0.109865 0.653672
Si Si4 0.714172 0.202069 0.676690
Si Si5 0.490824 0.000000 0.760922
Si Si6 0.556294 0.196512 0.865215
Si Si7 0.701873 0.391924 0.370763
Si Si8 0.233464 0.000000 0.987682
O O1 0.632602 0.854062 0.341051
O O2 0.498146 0.752737 0.295318
O O3 0.639366 0.665203 0.335887
O O4 0.078030 0.755390 0.540813
O O5 0.604388 0.500000 0.050897
O O6 0.615304 0.704840 0.046107
O O7 0.080550 0.608309 0.244527
O O8 0.500000 0.603739 0.000000
O O9 0.500000 0.113050 0.500000
O O10 0.933352 0.182516 0.742549
O O11 0.088766 0.000000 0.711091
O O12 0.730066 0.088508 0.656279
O O13 0.527452 0.212992 0.807758
O O14 0.362421 0.000000 0.874306
O O15 0.154425 0.000000 0.852090
O O16 0.366251 0.102294 0.962467
O O17 0.500000 0.343711 0.500000
O O18 0.570816 0.500000 0.409645
#
# Coordination Sequence:
#
# PCOD8065321 Si02
#       8
#     4   4   4   4   2   4   4   2
#     4  11  21  35  53  88 120 150 197 247 297 369
#     4  10  22  39  61  91 124 162 205 253 311 373
#     4  11  21  32  56  88 125 159 197 258 319 363
#     4  10  23  34  57  80 118 158 195 240 299 365
#     4   9  20  39  52  76 113 165 196 231 288 377
#     4  11  19  39  60  87 117 158 206 253 303 371
#     4  10  20  37  63  88 117 158 200 252 315 368
#     4   9  20  36  58  80 112 151 204 247 295 350
#
# _framework density 21.370471999999999
#
# number of rings (size 3 to 8) (size 9 to 14) (size 15 to 20)
#    0.000    1.714    3.571    1.286    2.000    1.714 
#    0.000    2.500    0.000    0.000    0.000   12.000 
#    0.000    0.000    0.000    0.000    0.000    0.000 
#
# Total GULP energy -346951.176413 kJ/mol
# GULP energy per Si atom -12391.113443 kJ/mol
# Density = 2.132183 g / cm^3
# Si number density = 21.370472 Si / 1000 Ang^3
#
#
#
# Elastic Constant Matrix: (Units=GPa)
#
#
# Indices 1 2 3 4 5 6 
#
# 1 91.0334 30.7185 -8.8154 0.0000 8.7612 0.0000
# 2 30.7185 165.3902 -0.8174 0.0000 7.9263 0.0000
# 3 -8.8154 -0.8174 22.5878 0.0000 2.9319 0.0000
# 4 0.0000 0.0000 0.0000 11.1931 0.0000 4.0738
# 5 8.7612 7.9263 2.9319 0.0000 22.8132 0.0000
# 6 0.0000 0.0000 0.0000 4.0738 0.0000 34.4875
#
#
#
# Elastic Compliance Matrix: (Units=1/GPa)
#
#
# Indices 1 2 3 4 5 6 
#
# 1 0.012693 -0.002098 0.005508 0.000000 -0.004854 0.000000
# 2 -0.002098 0.006501 -0.000402 0.000000 -0.001402 0.000000
# 3 0.005508 -0.000402 0.047455 0.000000 -0.008075 0.000000
# 4 0.000000 0.000000 0.000000 0.093354 0.000000 -0.011027
# 5 -0.004854 -0.001402 -0.008075 0.000000 0.047223 0.000000
# 6 0.000000 0.000000 0.000000 -0.011027 0.000000 0.030299
#
#
# Mechanical properties :
#
#
# Convention : Reuss Voigt Hill
#
# Bulk Modulus (GPa) = 13.76145 35.68699 24.72422
# Shear Modulus (GPa) = 19.55187 30.89380 25.22283
#
# Velocity S-wave (km/s) = 3.02801 3.80627 3.43923
# Velocity P-wave (km/s) = 4.32188 6.00436 5.23120
#
# Compressibility (1/GPa) = 0.07266674
#
# Stress axis : x y z
#
# Youngs Moduli (GPa) = 78.78132 153.81976 21.07268
#
# Poissons Ratio (x) = 0.32267 -0.11607
# Poissons Ratio (y) = 0.16526 0.00846
# Poissons Ratio (z) = -0.43393 0.06176
#
# Static dielectric constant tensor:
#      x y z
#    x 3.898370 0.000000 -0.152160 
#    y 0.000000 4.343660 0.000000 
#    z -0.152160 0.000000 3.793840 
# 
# 
# High freq. dielectric constant tensor:
#      x y z
#    x 1.816390 0.000000 0.005170 
#    y 0.000000 1.847740 0.000000 
#    z 0.005170 0.000000 1.824530 
# 
# From -- ./inp_files/82918.got.cif
#   From: 2010.06.25/outbox.cif.g09.slc.cpg/sg10_42_cif.got.tgz:82918.got - 2010.06.27 22:07:45.
