data_PCOD8065663
_publ_section_title
;
Structure prediction by ZEFSAII (Michael W. Deem and Ramdas Pophale) SiO2 
 PCOD8065663
Probable space group: P 2/M
;
_chemical_formula_sum "Si O2"
_cell_formula_units_Z 20
_cell_length_a 9.285469
_cell_length_b 13.168312
_cell_length_c 9.262295
_cell_angle_alpha 90.000000
_cell_angle_beta 79.786126
_cell_angle_gamma 90.000000
_cell_volume 1114.589760
_symmetry_space_group_name_H-M "P 2/M"
_symmetry_group_IT_number 10
_symmetry_cell_setting 'monoclinic'
loop_
_space_group_symop_operation_xyz
x,y,z
-x,y,-z
-x,-y,-z
x,-y,z
loop_
_atom_site_type_symbol
_atom_site_label
_atom_site_fract_x
_atom_site_fract_y
_atom_site_fract_z
Si Si1 0.431710 0.280241 0.860867
Si Si2 0.127341 0.380440 0.863316
Si Si3 0.386847 0.382308 0.399135
Si Si4 0.626785 0.884086 0.360404
Si Si5 0.135807 0.740218 0.572053
O O1 0.276385 0.336099 0.903604
O O2 0.545160 0.358453 0.767966
O O3 0.419756 0.176813 0.773375
O O4 0.500000 0.248928 0.000000
O O5 0.146077 0.500000 0.830373
O O6 0.088373 0.325649 0.719717
O O7 0.000000 0.357983 0.000000
O O8 0.500000 0.341910 0.500000
O O9 0.356766 0.500000 0.421933
O O10 0.234034 0.327344 0.448614
O O11 0.500000 0.873907 0.500000
O O12 0.778716 0.841148 0.395822
O O13 0.653323 0.000000 0.310469
O O14 0.000000 0.775652 0.500000
#
# Coordination Sequence:
#
# PCOD8065663 Si02
#       5
#     4   4   4   4   4
#     4  11  22  37  58  84 116 150 188 238 284 332
#     4  10  22  37  52  80 119 157 189 223 275 335
#     4  11  20  36  58  83 114 153 197 234 275 331
#     4  10  20  40  65  85 108 141 190 245 295 341
#     4  11  22  37  58  84 116 150 188 238 284 332
#
# _framework density 17.943823999999999
#
# number of rings (size 3 to 8) (size 9 to 14) (size 15 to 20)
#    0.000    1.400    6.000    1.200    2.800    4.000 
#    0.000    0.000    0.000    9.600    0.000    0.000 
#    0.000    0.000    0.000    0.000    0.000    0.000 
#
# Total GULP energy -248060.368553 kJ/mol
# GULP energy per Si atom -12403.018428 kJ/mol
# Density = 1.790298 g / cm^3
# Si number density = 17.943824 Si / 1000 Ang^3
#
#
#
# Elastic Constant Matrix: (Units=GPa)
#
#
# Indices 1 2 3 4 5 6 
#
# 1 94.9171 28.6402 58.1582 0.0000 7.4457 0.0000
# 2 28.6402 87.4098 34.7544 0.0000 -1.8509 0.0000
# 3 58.1582 34.7544 105.7573 0.0000 3.5683 0.0000
# 4 0.0000 0.0000 0.0000 20.3857 0.0000 -8.0630
# 5 7.4457 -1.8509 3.5683 0.0000 42.1050 0.0000
# 6 0.0000 0.0000 0.0000 -8.0630 0.0000 -22.8537
#
#
#
# Elastic Compliance Matrix: (Units=1/GPa)
#
#
# Indices 1 2 3 4 5 6 
#
# 1 0.016415 -0.002150 -0.008243 0.000000 -0.002299 0.000000
# 2 -0.002150 0.013479 -0.003290 0.000000 0.001251 0.000000
# 3 -0.008243 -0.003290 0.015068 0.000000 0.000036 0.000000
# 4 0.000000 0.000000 0.000000 0.043047 0.000000 -0.015187
# 5 -0.002299 0.001251 0.000036 0.000000 0.024209 0.000000
# 6 0.000000 0.000000 0.000000 -0.015187 0.000000 -0.038398
#
#
# Mechanical properties :
#
#
# Convention : Reuss Voigt Hill
#
# Bulk Modulus (GPa) = 56.82447 59.02108 57.92277
# Shear Modulus (GPa) = 46.70666 19.02949 32.86807
#
# Velocity S-wave (km/s) = 5.10743 3.26007 4.28450
# Velocity P-wave (km/s) = 8.15585 6.86544 7.53831
#
# Compressibility (1/GPa) = 0.01759805
#
# Stress axis : x y z
#
# Youngs Moduli (GPa) = 60.91908 74.18844 66.36371
#
# Poissons Ratio (x) = 0.15949 0.54704
# Poissons Ratio (y) = 0.13096 0.21831
# Poissons Ratio (z) = 0.50216 0.24405
#
# Static dielectric constant tensor:
#      x y z
#    x 3.333330 0.000000 -0.093810 
#    y 0.000000 3.317420 0.000000 
#    z -0.093810 0.000000 3.407540 
# 
# 
# High freq. dielectric constant tensor:
#      x y z
#    x 1.695490 0.000000 -0.008720 
#    y 0.000000 1.692270 0.000000 
#    z -0.008720 0.000000 1.696190 
# 
# From -- ./inp_files/18508.got.cif
#   From: 2010.06.25/outbox.cif.g09.slc.cpg/sg10_10_cif.got.tgz:18508.got - 2010.06.27 22:07:45.
