data_PCOD8065493
_publ_section_title
;
Structure prediction by ZEFSAII (Michael W. Deem and Ramdas Pophale) SiO2 
 PCOD8065493
Probable space group: P 2/M
;
_chemical_formula_sum "Si O2"
_cell_formula_units_Z 24
_cell_length_a 22.549338
_cell_length_b 8.823544
_cell_length_c 10.785863
_cell_angle_alpha 90.000000
_cell_angle_beta 147.887371
_cell_angle_gamma 90.000000
_cell_volume 1140.787370
_symmetry_space_group_name_H-M "P 2/M"
_symmetry_group_IT_number 10
_symmetry_cell_setting 'monoclinic'
loop_
_space_group_symop_operation_xyz
x,y,z
-x,y,-z
-x,-y,-z
x,-y,z
loop_
_atom_site_type_symbol
_atom_site_label
_atom_site_fract_x
_atom_site_fract_y
_atom_site_fract_z
Si Si1 0.531171 0.179450 0.414971
Si Si2 0.820789 0.669268 0.438864
Si Si3 0.030692 0.167311 0.913681
Si Si4 0.765269 0.321492 0.829313
Si Si5 0.427209 0.679063 0.988407
Si Si6 0.879217 0.329442 0.271468
O O1 0.500000 0.238377 0.500000
O O2 0.654513 0.233029 0.596635
O O3 0.453563 0.243278 0.167245
O O4 0.522741 0.000000 0.396817
O O5 0.851089 0.500000 0.539025
O O6 0.920473 0.780280 0.647345
O O7 0.806447 0.672326 0.265508
O O8 0.700179 0.719402 0.276741
O O9 0.063051 0.000000 0.921272
O O10 0.000000 0.159888 0.000000
O O11 0.134508 0.281872 0.086862
O O12 0.739805 0.500000 0.781024
O O13 0.804842 0.254803 0.032494
O O14 0.442988 0.500000 0.035309
O O15 0.500000 0.737821 0.000000
O O16 0.904834 0.500000 0.269518
O O17 0.000000 0.247061 0.500000
#
# Coordination Sequence:
#
# PCOD8065493 Si02
#       6
#     4   4   4   4   4   4
#     4  11  25  44  65  93 133 175 215 260 319 388
#     4  10  20  38  63  88 120 157 202 256 306 368
#     4  11  25  41  57  86 127 166 205 250 310 379
#     4  11  22  39  67  94 122 160 207 261 313 367
#     4  10  23  42  65  96 126 162 218 272 318 374
#     4   9  16  31  56  88 118 147 189 243 304 359
#
# _framework density 21.038101000000001
#
# number of rings (size 3 to 8) (size 9 to 14) (size 15 to 20)
#    0.000    1.667    1.667    2.500    2.333    5.000 
#    0.000    2.500    0.000    0.000    0.000    0.000 
#    0.000    0.000    0.000    0.000    0.000    0.000 
#
# Total GULP energy -297503.810591 kJ/mol
# GULP energy per Si atom -12395.992108 kJ/mol
# Density = 2.099022 g / cm^3
# Si number density = 21.038101 Si / 1000 Ang^3
#
#
#
# Elastic Constant Matrix: (Units=GPa)
#
#
# Indices 1 2 3 4 5 6 
#
# 1 94.7035 27.7803 22.3933 0.0000 11.9836 0.0000
# 2 27.7803 60.3347 26.7492 0.0000 -4.7418 0.0000
# 3 22.3933 26.7492 84.6137 0.0000 11.8241 0.0000
# 4 0.0000 0.0000 0.0000 29.5145 0.0000 -0.4674
# 5 11.9836 -4.7418 11.8241 0.0000 38.6187 0.0000
# 6 0.0000 0.0000 0.0000 -0.4674 0.0000 26.6436
#
#
#
# Elastic Compliance Matrix: (Units=1/GPa)
#
#
# Indices 1 2 3 4 5 6 
#
# 1 0.013105 -0.005966 -0.000952 0.000000 -0.004507 0.000000
# 2 -0.005966 0.022743 -0.006540 0.000000 0.006646 0.000000
# 3 -0.000952 -0.006540 0.014844 0.000000 -0.005052 0.000000
# 4 0.000000 0.000000 0.000000 0.033891 0.000000 0.000595
# 5 -0.004507 0.006646 -0.005052 0.000000 0.029656 0.000000
# 6 0.000000 0.000000 0.000000 0.000595 0.000000 0.037543
#
#
# Mechanical properties :
#
#
# Convention : Reuss Voigt Hill
#
# Bulk Modulus (GPa) = 42.05966 43.72196 42.89081
# Shear Modulus (GPa) = 26.79209 29.80397 28.29803
#
# Velocity S-wave (km/s) = 3.57249 3.76795 3.67152
# Velocity P-wave (km/s) = 6.08707 6.30534 6.19717
#
# Compressibility (1/GPa) = 0.02377575
#
# Stress axis : x y z
#
# Youngs Moduli (GPa) = 76.30742 43.96998 67.36800
#
# Poissons Ratio (x) = 0.26233 0.06415
# Poissons Ratio (y) = 0.45525 0.44056
# Poissons Ratio (z) = 0.07267 0.28754
#
# Static dielectric constant tensor:
#      x y z
#    x 4.134640 0.000000 -0.308650 
#    y 0.000000 3.794100 0.000000 
#    z -0.308650 0.000000 4.383880 
# 
# 
# High freq. dielectric constant tensor:
#      x y z
#    x 1.831960 0.000000 0.004770 
#    y 0.000000 1.798920 0.000000 
#    z 0.004770 0.000000 1.832310 
# 
# From -- ./inp_files/56699.got.cif
#   From: 2010.06.25/outbox.cif.g09.slc.cpg/sg10_29_cif.got.tgz:56699.got - 2010.06.27 22:07:45.
