data_PCOD8065089
_publ_section_title
;
Structure prediction by ZEFSAII (Michael W. Deem and Ramdas Pophale) SiO2 
 PCOD8065089
Probable space group: P 2/M
;
_chemical_formula_sum "Si O2"
_cell_formula_units_Z 32
_cell_length_a 9.259090
_cell_length_b 23.124107
_cell_length_c 15.482743
_cell_angle_alpha 90.000000
_cell_angle_beta 29.192587
_cell_angle_gamma 90.000000
_cell_volume 1616.871605
_symmetry_space_group_name_H-M "P 2/M"
_symmetry_group_IT_number 10
_symmetry_cell_setting 'monoclinic'
loop_
_space_group_symop_operation_xyz
x,y,z
-x,y,-z
-x,-y,-z
x,-y,z
loop_
_atom_site_type_symbol
_atom_site_label
_atom_site_fract_x
_atom_site_fract_y
_atom_site_fract_z
Si Si1 0.351085 0.434321 0.828249
Si Si2 0.672224 0.146276 0.636214
Si Si3 0.875977 0.849320 0.972567
Si Si4 0.371496 0.067553 0.661187
Si Si5 0.632838 0.244372 0.516159
Si Si6 0.673826 0.368601 0.993038
Si Si7 0.791129 0.756243 0.883936
Si Si8 0.641690 0.369757 0.340566
O O1 0.460649 0.500000 0.780864
O O2 0.490911 0.405190 0.670414
O O3 0.472567 0.397662 0.846207
O O4 0.000000 0.430600 0.000000
O O5 0.473342 0.141819 0.827291
O O6 0.602554 0.092317 0.610537
O O7 0.615808 0.204715 0.609979
O O8 0.000000 0.142784 0.500000
O O9 0.949973 0.797045 0.869977
O O10 0.000000 0.830696 0.000000
O O11 0.043899 0.905394 0.846741
O O12 0.500000 0.081493 0.500000
O O13 0.337356 0.000000 0.695019
O O14 0.500000 0.212211 0.500000
O O15 0.434762 0.301919 0.634016
O O16 0.975929 0.260315 0.313802
O O17 0.651555 0.299259 0.005126
O O18 0.017671 0.383370 0.818742
O O19 0.500000 0.393631 0.000000
O O20 0.500000 0.789723 0.000000
O O21 0.500000 0.395280 0.500000
#
# Coordination Sequence:
#
# PCOD8065089 Si02
#       8
#     4   4   4   4   4   4   4   4
#     4   9  20  38  61  85 113 156 200 249 292 356
#     4  11  23  37  58  91 123 153 189 247 309 350
#     4  10  22  35  58  87 115 154 194 239 294 353
#     4  10  22  42  65  84 113 162 208 243 284 349
#     4  11  20  37  56  82 119 155 191 235 294 357
#     4  10  21  36  58  86 116 152 195 244 299 356
#     4  11  21  35  56  83 117 151 190 238 296 355
#     4  10  20  37  58  85 114 154 197 244 299 357
#
# _framework density 19.791304
#
# number of rings (size 3 to 8) (size 9 to 14) (size 15 to 20)
#    0.000    1.750    2.500    3.375    1.750    3.500 
#    0.000    0.625    0.000    2.625    0.000    0.000 
#    0.000    0.000    0.000    0.000    0.000    0.000 
#
# Total GULP energy -396565.824151 kJ/mol
# GULP energy per Si atom -12392.682005 kJ/mol
# Density = 1.974626 g / cm^3
# Si number density = 19.791304 Si / 1000 Ang^3
#
#
#
# Elastic Constant Matrix: (Units=GPa)
#
#
# Indices 1 2 3 4 5 6 
#
# 1 110.7861 59.6286 57.4890 0.0000 13.7618 0.0000
# 2 59.6286 114.2684 45.7082 0.0000 22.9336 0.0000
# 3 57.4890 45.7082 114.6865 0.0000 9.1978 0.0000
# 4 0.0000 0.0000 0.0000 20.8367 0.0000 11.2119
# 5 13.7618 22.9336 9.1978 0.0000 39.6997 0.0000
# 6 0.0000 0.0000 0.0000 11.2119 0.0000 18.1200
#
#
#
# Elastic Compliance Matrix: (Units=1/GPa)
#
#
# Indices 1 2 3 4 5 6 
#
# 1 0.014740 -0.005484 -0.005143 0.000000 -0.000750 0.000000
# 2 -0.005484 0.013598 -0.002234 0.000000 -0.005437 0.000000
# 3 -0.005143 -0.002234 0.012168 0.000000 0.000255 0.000000
# 4 0.000000 0.000000 0.000000 0.071946 0.000000 -0.044517
# 5 -0.000750 -0.005437 0.000255 0.000000 0.028531 0.000000
# 6 0.000000 0.000000 0.000000 -0.044517 0.000000 0.082733
#
#
# Mechanical properties :
#
#
# Convention : Reuss Voigt Hill
#
# Bulk Modulus (GPa) = 67.64672 73.93250 70.78961
# Shear Modulus (GPa) = 19.65675 27.52562 23.59118
#
# Velocity S-wave (km/s) = 3.15493 3.73338 3.45628
# Velocity P-wave (km/s) = 6.89389 7.48474 7.19538
#
# Compressibility (1/GPa) = 0.01478268
#
# Stress axis : x y z
#
# Youngs Moduli (GPa) = 67.84251 73.54042 82.18584
#
# Poissons Ratio (x) = 0.40330 0.42268
# Poissons Ratio (y) = 0.37205 0.18364
# Poissons Ratio (z) = 0.34891 0.16432
#
# Static dielectric constant tensor:
#      x y z
#    x 3.872250 0.000000 0.095520 
#    y 0.000000 3.425250 0.000000 
#    z 0.095520 0.000000 4.120320 
# 
# 
# High freq. dielectric constant tensor:
#      x y z
#    x 1.771300 0.000000 0.006160 
#    y 0.000000 1.752850 0.000000 
#    z 0.006160 0.000000 1.776870 
# 
# From -- ./inp_files/62691.got.cif
#   From: 2010.06.25/outbox.cif.g09.slc.cpg/sg10_32_cif.got.tgz:62691.got - 2010.06.27 22:07:45.
