data_PCOD8065812
_publ_section_title
;
Structure prediction by ZEFSAII (Michael W. Deem and Ramdas Pophale) SiO2 
 PCOD8065812
Probable space group: P 2/M
;
_chemical_formula_sum "Si O2"
_cell_formula_units_Z 24
_cell_length_a 21.420871
_cell_length_b 8.888776
_cell_length_c 22.587959
_cell_angle_alpha 90.000000
_cell_angle_beta 18.498447
_cell_angle_gamma 90.000000
_cell_volume 1364.574782
_symmetry_space_group_name_H-M "P 2/M"
_symmetry_group_IT_number 10
_symmetry_cell_setting 'monoclinic'
loop_
_space_group_symop_operation_xyz
x,y,z
-x,y,-z
-x,-y,-z
x,-y,z
loop_
_atom_site_type_symbol
_atom_site_label
_atom_site_fract_x
_atom_site_fract_y
_atom_site_fract_z
Si Si1 0.927571 0.176359 0.500020
Si Si2 0.873071 0.321948 0.787370
Si Si3 0.447841 0.321944 0.212603
Si Si4 0.599196 0.679197 0.500002
Si Si5 0.792744 0.320927 0.207257
Si Si6 0.262363 0.322631 0.499979
O O1 0.711123 0.245859 0.687131
O O2 0.000000 0.217305 0.500000
O O3 0.085344 0.245822 0.312902
O O4 0.915171 0.000000 0.500053
O O5 0.877647 0.500000 0.773712
O O6 0.040166 0.271884 0.684167
O O7 0.663939 0.265986 0.999986
O O8 0.425118 0.500000 0.226265
O O9 0.408499 0.271831 0.315826
O O10 0.602451 0.500000 0.500012
O O11 0.378128 0.734435 0.683844
O O12 0.745843 0.734418 0.316137
O O13 0.668649 0.751140 0.500009
O O14 0.801969 0.500000 0.198026
O O15 0.000000 0.250593 0.000000
O O16 0.270380 0.500000 0.499922
#
# Coordination Sequence:
#
# PCOD8065812 Si02
#       6
#     4   4   4   4   4   4
#     4  10  21  35  50  69  93 120 149 182 221 267
#     4   9  18  32  49  69  92 118 150 188 228 269
#     4   9  18  32  49  69  92 118 150 188 228 269
#     4   8  13  20  30  46  70 103 143 182 217 255
#     4   8  13  19  26  41  69 104 141 179 216 254
#     4   8  14  25  40  58  81 110 147 188 225 263
#
# _framework density 17.587896000000001
#
# number of rings (size 3 to 8) (size 9 to 14) (size 15 to 20)
#    0.000    3.333    0.000    2.500    0.000    4.000 
#    0.000   10.000    0.000    0.000    0.000    0.000 
#    0.000    0.000    0.000   48.000    0.000  157.333 
#
# Total GULP energy -297470.753010 kJ/mol
# GULP energy per Si atom -12394.614709 kJ/mol
# Density = 1.754787 g / cm^3
# Si number density = 17.587896 Si / 1000 Ang^3
#
#
#
# Elastic Constant Matrix: (Units=GPa)
#
#
# Indices 1 2 3 4 5 6 
#
# 1 174.8296 29.4994 99.2799 0.0000 4.3307 0.0000
# 2 29.4994 18.8366 24.6228 0.0000 0.4339 0.0000
# 3 99.2799 24.6228 195.4102 0.0000 -6.2037 0.0000
# 4 0.0000 0.0000 0.0000 7.1442 0.0000 -0.7312
# 5 4.3307 0.4339 -6.2037 0.0000 14.5712 0.0000
# 6 0.0000 0.0000 0.0000 -0.7312 0.0000 -0.9977
#
#
#
# Elastic Compliance Matrix: (Units=1/GPa)
#
#
# Indices 1 2 3 4 5 6 
#
# 1 0.009673 -0.010122 -0.003772 0.000000 -0.004179 0.000000
# 2 -0.010122 0.074567 -0.004286 0.000000 -0.001037 0.000000
# 3 -0.003772 -0.004286 0.007718 0.000000 0.004534 0.000000
# 4 0.000000 0.000000 0.000000 0.130206 0.000000 -0.095427
# 5 -0.004179 -0.001037 0.004534 0.000000 0.071832 0.000000
# 6 0.000000 0.000000 0.000000 -0.095427 0.000000 -0.932343
#
#
# Mechanical properties :
#
#
# Convention : Reuss Voigt Hill
#
# Bulk Modulus (GPa) = 17.98641 77.32007 47.65324
# Shear Modulus (GPa) = -8.56964 19.85517 5.64277
#
# Velocity S-wave (km/s) = -2.20976 3.36357 1.79312
# Velocity P-wave (km/s) = 1.93341 7.69041 5.60716
#
# Compressibility (1/GPa) = 0.05559753
#
# Stress axis : x y z
#
# Youngs Moduli (GPa) = 103.37844 13.41082 129.57142
#
# Poissons Ratio (x) = 0.13575 0.48872
# Poissons Ratio (y) = 1.04642 0.55535
# Poissons Ratio (z) = 0.38992 0.05748
#
# Static dielectric constant tensor:
#      x y z
#    x 3.543150 0.000000 -0.002670 
#    y 0.000000 2.718780 0.000000 
#    z -0.002670 0.000000 3.574040 
# 
# 
# High freq. dielectric constant tensor:
#      x y z
#    x 1.686210 0.000000 -0.000060 
#    y 0.000000 1.622540 0.000000 
#    z -0.000060 0.000000 1.686920 
# 
# From -- ./inp_files/86079.got.cif
#   From: 2010.06.25/outbox.cif.g09.slc.cpg/sg10_44_cif.got.tgz:86079.got - 2010.06.27 22:07:45.
