data_PCOD8065732
_publ_section_title
;
Structure prediction by ZEFSAII (Michael W. Deem and Ramdas Pophale) SiO2 
 PCOD8065732
Probable space group: P 2/M
;
_chemical_formula_sum "Si O2"
_cell_formula_units_Z 28
_cell_length_a 20.932103
_cell_length_b 18.042146
_cell_length_c 9.304625
_cell_angle_alpha 90.000000
_cell_angle_beta 152.751305
_cell_angle_gamma 90.000000
_cell_volume 1608.891017
_symmetry_space_group_name_H-M "P 2/M"
_symmetry_group_IT_number 10
_symmetry_cell_setting 'monoclinic'
loop_
_space_group_symop_operation_xyz
x,y,z
-x,y,-z
-x,-y,-z
x,-y,z
loop_
_atom_site_type_symbol
_atom_site_label
_atom_site_fract_x
_atom_site_fract_y
_atom_site_fract_z
Si Si1 0.412786 0.289809 0.469421
Si Si2 0.587872 0.160658 0.321123
Si Si3 0.592870 0.000000 0.322979
Si Si4 0.089200 0.415474 0.042798
Si Si5 0.912127 0.160656 0.969635
Si Si6 0.912788 0.710192 0.181729
Si Si7 0.907128 0.000000 0.951490
Si Si8 0.589200 0.415473 0.314000
O O1 0.500000 0.289966 0.500000
O O2 0.463064 0.220361 0.665319
O O3 0.447266 0.365474 0.622207
O O4 0.250000 0.283749 0.105619
O O5 0.565121 0.078386 0.348891
O O6 0.750000 0.174236 0.606559
O O7 0.500000 0.169752 0.000000
O O8 0.749998 0.000000 0.580106
O O9 0.500000 0.000000 0.000000
O O10 0.052255 0.500000 0.927806
O O11 0.249999 0.406437 0.408517
O O12 0.052732 0.365472 0.833143
O O13 0.000000 0.388133 0.000000
O O14 0.934874 0.078385 0.088402
O O15 0.963063 0.220360 0.186934
O O16 0.000000 0.169754 0.000000
O O17 0.000000 0.710035 0.500000
O O18 0.000000 0.000000 0.000000
O O19 0.552255 0.500000 0.281208
O O20 0.500000 0.388131 0.000000
#
# Coordination Sequence:
#
# PCOD8065732 Si02
#       8
#     4   4   2   4   4   4   2   4
#     4  10  21  34  47  67  96 127 157 189 227 272
#     4   9  17  30  49  71  93 119 153 192 232 274
#     4   8  14  26  45  68  92 116 146 188 233 272
#     4   9  18  33  52  73  95 119 151 191 232 274
#     4   9  17  30  49  71  93 119 153 192 232 274
#     4  10  21  34  47  67  96 127 157 189 227 272
#     4   8  14  26  45  68  92 116 146 188 233 272
#     4   9  18  33  52  73  95 119 151 191 232 274
#
# _framework density 17.403293000000001
#
# number of rings (size 3 to 8) (size 9 to 14) (size 15 to 20)
#    0.000    2.857    0.000    0.857    0.000    2.857 
#    0.000    0.714    0.000    0.000    0.000    0.000 
#    0.000    0.000    0.000    0.000    0.000    0.000 
#
# Total GULP energy -346993.546205 kJ/mol
# GULP energy per Si atom -12392.626650 kJ/mol
# Density = 1.736368 g / cm^3
# Si number density = 17.403293 Si / 1000 Ang^3
#
#
#
# Elastic Constant Matrix: (Units=GPa)
#
#
# Indices 1 2 3 4 5 6 
#
# 1 121.1798 69.2425 44.4362 0.0000 -6.2311 0.0000
# 2 69.2425 135.0383 54.4939 0.0000 -13.3489 0.0000
# 3 44.4362 54.4939 89.0294 0.0000 -22.8659 0.0000
# 4 0.0000 0.0000 0.0000 16.5094 0.0000 3.7579
# 5 -6.2311 -13.3489 -22.8659 0.0000 19.8740 0.0000
# 6 0.0000 0.0000 0.0000 3.7579 0.0000 12.3355
#
#
#
# Elastic Compliance Matrix: (Units=1/GPa)
#
#
# Indices 1 2 3 4 5 6 
#
# 1 0.012517 -0.005148 -0.004225 0.000000 -0.004394 0.000000
# 2 -0.005148 0.011954 -0.004400 0.000000 0.001353 0.000000
# 3 -0.004225 -0.004400 0.021200 0.000000 0.020111 0.000000
# 4 0.000000 0.000000 0.000000 0.065085 0.000000 -0.019827
# 5 -0.004394 0.001353 0.020111 0.000000 0.072986 0.000000
# 6 0.000000 0.000000 0.000000 -0.019827 0.000000 0.087107
#
#
# Mechanical properties :
#
#
# Convention : Reuss Voigt Hill
#
# Bulk Modulus (GPa) = 55.17426 75.73252 65.45339
# Shear Modulus (GPa) = 16.42377 21.54879 18.98628
#
# Velocity S-wave (km/s) = 3.07533 3.52263 3.30655
# Velocity P-wave (km/s) = 6.66201 7.75602 7.22974
#
# Compressibility (1/GPa) = 0.01812439
#
# Stress axis : x y z
#
# Youngs Moduli (GPa) = 79.89160 83.65243 47.17019
#
# Poissons Ratio (x) = 0.43060 0.19931
# Poissons Ratio (y) = 0.41124 0.20757
# Poissons Ratio (z) = 0.33757 0.36811
#
# Static dielectric constant tensor:
#      x y z
#    x 4.804130 0.000000 -0.914290 
#    y 0.000000 3.996290 0.000000 
#    z -0.914290 0.000000 3.795540 
# 
# 
# High freq. dielectric constant tensor:
#      x y z
#    x 1.643710 0.000000 0.017290 
#    y 0.000000 1.701380 0.000000 
#    z 0.017290 0.000000 1.662810 
# 
# From -- ./inp_files/35399.got.cif
#   From: 2010.06.25/outbox.cif.g09.slc.cpg/sg10_18_cif.got.tgz:35399.got - 2010.06.27 22:07:45.
