data_PCOD8065061
_publ_section_title
;
Structure prediction by ZEFSAII (Michael W. Deem and Ramdas Pophale) SiO2 
 PCOD8065061
Probable space group: P 2/M
;
_chemical_formula_sum "Si O2"
_cell_formula_units_Z 32
_cell_length_a 12.680919
_cell_length_b 19.334007
_cell_length_c 20.282685
_cell_angle_alpha 90.000000
_cell_angle_beta 159.163345
_cell_angle_gamma 90.000000
_cell_volume 1768.837547
_symmetry_space_group_name_H-M "P 2/M"
_symmetry_group_IT_number 10
_symmetry_cell_setting 'monoclinic'
loop_
_space_group_symop_operation_xyz
x,y,z
-x,y,-z
-x,-y,-z
x,-y,z
loop_
_atom_site_type_symbol
_atom_site_label
_atom_site_fract_x
_atom_site_fract_y
_atom_site_fract_z
Si Si1 0.662709 0.659299 0.025676
Si Si2 0.181364 0.924816 0.040892
Si Si3 0.326897 0.423604 0.214727
Si Si4 0.205467 0.422246 0.287031
Si Si5 0.159559 0.080080 0.287804
Si Si6 0.661101 0.823336 0.291211
Si Si7 0.339210 0.663394 0.700783
Si Si8 0.325885 0.181449 0.962342
O O1 0.767882 0.738538 0.089376
O O2 0.959851 0.616458 0.186910
O O3 0.500000 0.638721 0.000000
O O4 0.450682 0.644249 0.839266
O O5 0.445514 0.870842 0.208720
O O6 0.320106 0.000000 0.104090
O O7 0.000000 0.930109 0.000000
O O8 0.939515 0.903541 0.844742
O O9 0.481657 0.500000 0.309545
O O10 0.294270 0.388246 0.268226
O O11 0.497590 0.375685 0.262874
O O12 0.000000 0.434619 0.000000
O O13 0.500000 0.422784 0.500000
O O14 0.087112 0.500000 0.204726
O O15 0.500000 0.099299 0.500000
O O16 0.961431 0.133122 0.213523
O O17 0.100673 0.000000 0.273049
O O18 0.619603 0.744448 0.289341
O O19 0.000000 0.846833 0.500000
O O20 0.552053 0.836688 0.153236
O O21 0.000000 0.640820 0.500000
O O22 0.500000 0.163112 0.000000
#
# Coordination Sequence:
#
# PCOD8065061 Si02
#       8
#     4   4   4   4   4   4   4   4
#     4  10  21  37  55  77 109 143 176 218 266 317
#     4   9  18  33  51  74 104 136 170 211 258 307
#     4  10  20  37  58  79 107 140 176 222 266 310
#     4  10  22  39  57  80 110 141 176 218 265 318
#     4   9  18  33  52  75 104 134 170 215 258 304
#     4   9  19  35  51  74 104 135 172 214 257 304
#     4  10  21  36  55  80 107 139 179 221 265 314
#     4   9  19  35  52  73 104 137 171 212 257 307
#
# _framework density 18.090978
#
# number of rings (size 3 to 8) (size 9 to 14) (size 15 to 20)
#    0.000    2.500    1.250    0.000    1.750    3.000 
#    2.250    0.000    0.000    0.000    0.000    0.000 
#    0.000    0.000    0.000    0.000    0.000    0.000 
#
# Total GULP energy -396541.590300 kJ/mol
# GULP energy per Si atom -12391.924697 kJ/mol
# Density = 1.804980 g / cm^3
# Si number density = 18.090978 Si / 1000 Ang^3
#
#
#
# Elastic Constant Matrix: (Units=GPa)
#
#
# Indices 1 2 3 4 5 6 
#
# 1 122.9841 53.5232 46.7572 0.0000 15.9373 0.0000
# 2 53.5232 78.2725 62.3759 0.0000 18.2980 0.0000
# 3 46.7572 62.3759 125.2400 0.0000 13.7813 0.0000
# 4 0.0000 0.0000 0.0000 10.1898 0.0000 -12.3987
# 5 15.9373 18.2980 13.7813 0.0000 22.9947 0.0000
# 6 0.0000 0.0000 0.0000 -12.3987 0.0000 14.7311
#
#
#
# Elastic Compliance Matrix: (Units=1/GPa)
#
#
# Indices 1 2 3 4 5 6 
#
# 1 0.011693 -0.006965 -0.000658 0.000000 -0.002168 0.000000
# 2 -0.006965 0.028468 -0.010296 0.000000 -0.011656 0.000000
# 3 -0.000658 -0.010296 0.013282 0.000000 0.000689 0.000000
# 4 0.000000 0.000000 0.000000 -4.069392 0.000000 -3.425079
# 5 -0.002168 -0.011656 0.000689 0.000000 0.053853 0.000000
# 6 0.000000 0.000000 0.000000 -3.425079 0.000000 -2.814897
#
#
# Mechanical properties :
#
#
# Convention : Reuss Voigt Hill
#
# Bulk Modulus (GPa) = 56.79727 72.42322 64.61024
# Shear Modulus (GPa) = -0.74236 20.50580 9.88172
#
# Velocity S-wave (km/s) = -0.64128 3.37038 2.33968
# Velocity P-wave (km/s) = 5.56014 7.43408 6.56433
#
# Compressibility (1/GPa) = 0.01760648
#
# Stress axis : x y z
#
# Youngs Moduli (GPa) = 85.51854 35.12743 75.28727
#
# Poissons Ratio (x) = 0.24465 0.04957
# Poissons Ratio (y) = 0.59560 0.77513
# Poissons Ratio (z) = 0.05630 0.36166
#
# Static dielectric constant tensor:
#      x y z
#    x 3.292790 0.000000 -0.109950 
#    y 0.000000 3.527770 0.000000 
#    z -0.109950 0.000000 3.328790 
# 
# 
# High freq. dielectric constant tensor:
#      x y z
#    x 1.704950 0.000000 -0.007110 
#    y 0.000000 1.698830 0.000000 
#    z -0.007110 0.000000 1.699770 
# 
# From -- ./inp_files/26043.got.cif
#   From: 2010.06.25/outbox.cif.g09.slc.cpg/sg10_14_cif.got.tgz:26043.got - 2010.06.27 22:07:45.
