data_PCOD8065454
_publ_section_title
;
Structure prediction by ZEFSAII (Michael W. Deem and Ramdas Pophale) SiO2 
 PCOD8065454
Probable space group: P 2/M
;
_chemical_formula_sum "Si O2"
_cell_formula_units_Z 20
_cell_length_a 8.351934
_cell_length_b 14.939931
_cell_length_c 8.145184
_cell_angle_alpha 90.000000
_cell_angle_beta 82.617691
_cell_angle_gamma 90.000000
_cell_volume 1007.909698
_symmetry_space_group_name_H-M "P 2/M"
_symmetry_group_IT_number 10
_symmetry_cell_setting 'monoclinic'
loop_
_space_group_symop_operation_xyz
x,y,z
-x,y,-z
-x,-y,-z
x,-y,z
loop_
_atom_site_type_symbol
_atom_site_label
_atom_site_fract_x
_atom_site_fract_y
_atom_site_fract_z
Si Si1 0.500000 0.142601 0.500000
Si Si2 0.698022 0.273413 0.685024
Si Si3 0.036855 0.746636 0.807514
Si Si4 0.277919 0.099452 0.811369
Si Si5 0.832100 0.598386 0.430699
Si Si6 0.500000 0.785097 0.000000
O O1 0.640711 0.199025 0.566064
O O2 0.408180 0.084963 0.649118
O O3 0.703167 0.366306 0.582955
O O4 0.874978 0.246109 0.723310
O O5 0.571262 0.280447 0.851240
O O6 0.122961 0.842855 0.778012
O O7 0.153287 0.667987 0.722632
O O8 0.000000 0.721826 0.000000
O O9 0.222204 0.000000 0.873970
O O10 0.357767 0.151289 0.953577
O O11 0.777237 0.500000 0.374237
O O12 0.000000 0.589319 0.500000
#
# Coordination Sequence:
#
# PCOD8065454 Si02
#       6
#     2   4   4   4   4   2
#     4  10  21  38  61  82 118 162 191 244 291 354
#     4  10  20  38  62  83 119 155 198 236 300 344
#     4  11  21  38  60  88 119 155 194 250 289 343
#     4  11  22  38  59  88 119 158 201 239 290 349
#     4   9  19  37  63  87 114 154 197 240 292 352
#     4  10  21  38  59  82 122 168 187 238 293 354
#
# _framework density 19.843046999999999
#
# number of rings (size 3 to 8) (size 9 to 14) (size 15 to 20)
#    0.000    1.800    4.000    0.600    0.000    0.800 
#    0.000    4.000    0.000    0.000    0.000    0.000 
#    0.000    0.000    0.000    0.000    0.000    0.000 
#
# Total GULP energy -247917.092877 kJ/mol
# GULP energy per Si atom -12395.854644 kJ/mol
# Density = 1.979788 g / cm^3
# Si number density = 19.843047 Si / 1000 Ang^3
#
#
#
# Elastic Constant Matrix: (Units=GPa)
#
#
# Indices 1 2 3 4 5 6 
#
# 1 75.6605 44.8028 22.5485 0.0000 8.6120 0.0000
# 2 44.8028 150.5519 58.9481 0.0000 -21.3578 0.0000
# 3 22.5485 58.9481 117.0838 0.0000 -16.2161 0.0000
# 4 0.0000 0.0000 0.0000 19.4514 0.0000 -2.5136
# 5 8.6120 -21.3578 -16.2161 0.0000 32.3322 0.0000
# 6 0.0000 0.0000 0.0000 -2.5136 0.0000 18.0558
#
#
#
# Elastic Compliance Matrix: (Units=1/GPa)
#
#
# Indices 1 2 3 4 5 6 
#
# 1 0.018588 -0.006234 -0.001824 0.000000 -0.009984 0.000000
# 2 -0.006234 0.010780 -0.003235 0.000000 0.007159 0.000000
# 3 -0.001824 -0.003235 0.011061 0.000000 0.003896 0.000000
# 4 0.000000 0.000000 0.000000 0.052352 0.000000 0.007288
# 5 -0.009984 0.007159 0.003896 0.000000 0.040271 0.000000
# 6 0.000000 0.000000 0.000000 0.007288 0.000000 0.056398
#
#
# Mechanical properties :
#
#
# Convention : Reuss Voigt Hill
#
# Bulk Modulus (GPa) = 56.04633 66.21058 61.12845
# Shear Modulus (GPa) = 22.93745 28.43433 25.68589
#
# Velocity S-wave (km/s) = 3.40361 3.78955 3.60175
# Velocity P-wave (km/s) = 6.61454 7.25170 6.94044
#
# Compressibility (1/GPa) = 0.01784238
#
# Stress axis : x y z
#
# Youngs Moduli (GPa) = 53.79691 92.76732 90.41081
#
# Poissons Ratio (x) = 0.57830 0.16491
# Poissons Ratio (y) = 0.33536 0.29250
# Poissons Ratio (z) = 0.09813 0.30012
#
# Static dielectric constant tensor:
#      x y z
#    x 3.656250 0.000000 -0.139190 
#    y 0.000000 3.639880 0.000000 
#    z -0.139190 0.000000 3.910700 
# 
# 
# High freq. dielectric constant tensor:
#      x y z
#    x 1.770600 0.000000 -0.004670 
#    y 0.000000 1.753930 0.000000 
#    z -0.004670 0.000000 1.783940 
# 
# From -- ./inp_files/18392.got.cif
#   From: 2010.06.25/outbox.cif.g09.slc.cpg/sg10_10_cif.got.tgz:18392.got - 2010.06.27 22:07:45.
