data_PCOD8065228
_publ_section_title
;
Structure prediction by ZEFSAII (Michael W. Deem and Ramdas Pophale) SiO2 
 PCOD8065228
Probable space group: P 2/M
;
_chemical_formula_sum "Si O2"
_cell_formula_units_Z 28
_cell_length_a 10.250143
_cell_length_b 8.404487
_cell_length_c 28.007269
_cell_angle_alpha 90.000000
_cell_angle_beta 145.357736
_cell_angle_gamma 90.000000
_cell_volume 1371.528254
_symmetry_space_group_name_H-M "P 2/M"
_symmetry_group_IT_number 10
_symmetry_cell_setting 'monoclinic'
loop_
_space_group_symop_operation_xyz
x,y,z
-x,y,-z
-x,-y,-z
x,-y,z
loop_
_atom_site_type_symbol
_atom_site_label
_atom_site_fract_x
_atom_site_fract_y
_atom_site_fract_z
Si Si1 0.885147 0.685076 0.828710
Si Si2 0.900685 0.184272 0.729349
Si Si3 0.653620 0.815125 0.001848
Si Si4 0.008099 0.686171 0.555441
Si Si5 0.359046 0.314682 0.829392
Si Si6 0.445431 0.185522 0.537521
Si Si7 0.573187 0.311244 0.257114
O O1 0.862338 0.500000 0.808675
O O2 0.899967 0.787703 0.785414
O O3 0.667784 0.745197 0.793549
O O4 0.111683 0.715129 0.928280
O O5 0.657199 0.236115 0.634521
O O6 0.093401 0.289688 0.762040
O O7 0.953184 0.000000 0.734714
O O8 0.712981 0.000000 0.024997
O O9 0.500000 0.756040 0.000000
O O10 0.519779 0.785326 0.912774
O O11 0.051269 0.500000 0.563587
O O12 0.773199 0.715430 0.512237
O O13 0.000000 0.763374 0.500000
O O14 0.220311 0.761755 0.648839
O O15 0.420129 0.500000 0.852585
O O16 0.405563 0.247570 0.790423
O O17 0.500000 0.233595 0.500000
O O18 0.388794 0.000000 0.525230
O O19 0.591870 0.500000 0.261669
#
# Coordination Sequence:
#
# PCOD8065228 Si02
#       7
#     4   4   4   4   4   4   4
#     4  11  22  39  64  88 115 151 195 237 284 346
#     4  11  22  37  57  85 119 152 193 244 292 338
#     4  11  23  40  61  87 122 152 186 238 291 342
#     4  10  20  37  61  86 117 155 196 241 291 342
#     4  11  22  38  62  87 116 154 196 238 289 348
#     4  10  22  38  56  82 117 155 195 240 290 344
#     4   9  21  39  58  88 122 151 190 245 294 337
#
# _framework density 20.415182000000001
#
# number of rings (size 3 to 8) (size 9 to 14) (size 15 to 20)
#    0.000    1.571    1.429    3.429    0.000    4.000 
#    0.000    7.857    0.000    0.000    0.000    0.000 
#    0.000    0.000    0.000    0.000    0.000    0.000 
#
# Total GULP energy -347365.535324 kJ/mol
# GULP energy per Si atom -12405.911976 kJ/mol
# Density = 2.036872 g / cm^3
# Si number density = 20.415182 Si / 1000 Ang^3
#
#
#
# Elastic Constant Matrix: (Units=GPa)
#
#
# Indices 1 2 3 4 5 6 
#
# 1 152.5195 11.8715 68.4158 0.0000 -0.6096 0.0000
# 2 11.8715 27.5576 15.8269 0.0000 -1.2052 0.0000
# 3 68.4158 15.8269 151.5760 0.0000 5.2351 0.0000
# 4 0.0000 0.0000 0.0000 17.8715 0.0000 -2.2571
# 5 -0.6096 -1.2052 5.2351 0.0000 38.8125 0.0000
# 6 0.0000 0.0000 0.0000 -2.2571 0.0000 8.6665
#
#
#
# Elastic Compliance Matrix: (Units=1/GPa)
#
#
# Indices 1 2 3 4 5 6 
#
# 1 0.008292 -0.001475 -0.003609 0.000000 0.000571 0.000000
# 2 -0.001475 0.038984 -0.003462 0.000000 0.001654 0.000000
# 3 -0.003609 -0.003462 0.008634 0.000000 -0.001329 0.000000
# 4 0.000000 0.000000 0.000000 0.057858 0.000000 0.015068
# 5 0.000571 0.001654 -0.001329 0.000000 0.026004 0.000000
# 6 0.000000 0.000000 0.000000 0.015068 0.000000 0.119311
#
#
# Mechanical properties :
#
#
# Convention : Reuss Voigt Hill
#
# Bulk Modulus (GPa) = 25.76077 58.20905 41.98491
# Shear Modulus (GPa) = 17.29428 28.77272 23.03350
#
# Velocity S-wave (km/s) = 2.91370 3.75824 3.36259
# Velocity P-wave (km/s) = 4.89545 6.88528 5.97379
#
# Compressibility (1/GPa) = 0.03881872
#
# Stress axis : x y z
#
# Youngs Moduli (GPa) = 120.59361 25.65185 115.82783
#
# Poissons Ratio (x) = 0.03783 0.41797
# Poissons Ratio (y) = 0.17785 0.40099
# Poissons Ratio (z) = 0.43517 0.08881
#
# Static dielectric constant tensor:
#      x y z
#    x 3.819340 0.000000 -0.070400 
#    y 0.000000 3.414800 0.000000 
#    z -0.070400 0.000000 4.006000 
# 
# 
# High freq. dielectric constant tensor:
#      x y z
#    x 1.803720 0.000000 -0.001380 
#    y 0.000000 1.779260 0.000000 
#    z -0.001380 0.000000 1.815530 
# 
# From -- ./inp_files/92101.got.cif
#   From: 2010.06.25/outbox.cif.g09.slc.cpg/sg10_47_cif.got.tgz:92101.got - 2010.06.27 22:07:45.
