data_PCOD8065954
_publ_section_title
;
Structure prediction by ZEFSAII (Michael W. Deem and Ramdas Pophale) SiO2 
 PCOD8065954
Probable space group: P 2/M
;
_chemical_formula_sum "Si O2"
_cell_formula_units_Z 16
_cell_length_a 20.705573
_cell_length_b 9.170362
_cell_length_c 7.728344
_cell_angle_alpha 90.000000
_cell_angle_beta 39.956243
_cell_angle_gamma 90.000000
_cell_volume 942.393098
_symmetry_space_group_name_H-M "P 2/M"
_symmetry_group_IT_number 10
_symmetry_cell_setting 'monoclinic'
loop_
_space_group_symop_operation_xyz
x,y,z
-x,y,-z
-x,-y,-z
x,-y,z
loop_
_atom_site_type_symbol
_atom_site_label
_atom_site_fract_x
_atom_site_fract_y
_atom_site_fract_z
Si Si1 0.388897 0.164907 0.201823
Si Si2 0.114543 0.330088 0.290275
Si Si3 0.789462 0.671130 0.544600
Si Si4 0.793094 0.835444 0.208725
O O1 0.324275 0.263936 0.200134
O O2 0.328075 0.164581 0.509964
O O3 0.397211 0.000000 0.110886
O O4 0.500000 0.231875 0.000000
O O5 0.129106 0.500000 0.220729
O O6 0.145806 0.290362 0.420390
O O7 0.000000 0.280916 0.500000
O O8 0.185406 0.241695 0.015850
O O9 0.783191 0.500000 0.523942
O O10 0.843336 0.747350 0.267586
O O11 0.835739 0.000000 0.118344
#
# Coordination Sequence:
#
# PCOD8065954 Si02
#       4
#     4   4   4   4
#     4   8  16  33  54  75 102 135 167 203 254 307
#     4  10  21  36  53  74 103 139 173 207 252 303
#     4   9  18  33  53  76 103 133 170 211 251 298
#     4   9  19  34  53  76 103 134 170 211 253 298
#
# _framework density 16.978052999999999
#
# number of rings (size 3 to 8) (size 9 to 14) (size 15 to 20)
#    1.500    1.500    0.000    0.750    0.000    4.000 
#    0.000    6.250    0.000    7.500    0.000    0.000 
#    0.000    0.000    0.000    0.000    0.000    0.000 
#
# Total GULP energy -198219.012096 kJ/mol
# GULP energy per Si atom -12388.688256 kJ/mol
# Density = 1.693941 g / cm^3
# Si number density = 16.978053 Si / 1000 Ang^3
#
#
#
# Elastic Constant Matrix: (Units=GPa)
#
#
# Indices 1 2 3 4 5 6 
#
# 1 66.2763 27.5500 6.0408 0.0000 -1.8952 0.0000
# 2 27.5500 76.0915 29.2896 0.0000 9.8238 0.0000
# 3 6.0408 29.2896 55.6565 0.0000 5.8001 0.0000
# 4 0.0000 0.0000 0.0000 26.3722 0.0000 0.6323
# 5 -1.8952 9.8238 5.8001 0.0000 25.5218 0.0000
# 6 0.0000 0.0000 0.0000 0.6323 0.0000 12.4179
#
#
#
# Elastic Compliance Matrix: (Units=1/GPa)
#
#
# Indices 1 2 3 4 5 6 
#
# 1 0.018284 -0.007786 0.001700 0.000000 0.003969 0.000000
# 2 -0.007786 0.020312 -0.009187 0.000000 -0.006309 0.000000
# 3 0.001700 -0.009187 0.022775 0.000000 -0.001514 0.000000
# 4 0.000000 0.000000 0.000000 0.037965 0.000000 -0.001933
# 5 0.003969 -0.006309 -0.001514 0.000000 0.042249 0.000000
# 6 0.000000 0.000000 0.000000 -0.001933 0.000000 0.080627
#
#
# Mechanical properties :
#
#
# Convention : Reuss Voigt Hill
#
# Bulk Modulus (GPa) = 32.44255 35.97613 34.20934
# Shear Modulus (GPa) = 19.00892 21.87196 20.44044
#
# Velocity S-wave (km/s) = 3.34970 3.59311 3.47354
# Velocity P-wave (km/s) = 5.84043 6.20078 6.02330
#
# Compressibility (1/GPa) = 0.03082372
#
# Stress axis : x y z
#
# Youngs Moduli (GPa) = 54.69369 49.23197 43.90738
#
# Poissons Ratio (x) = 0.38334 -0.07463
# Poissons Ratio (y) = 0.42587 0.40337
# Poissons Ratio (z) = -0.09296 0.45228
#
# Static dielectric constant tensor:
#      x y z
#    x 3.011300 0.000000 -0.052010 
#    y 0.000000 3.188630 0.000000 
#    z -0.052010 0.000000 2.950120 
# 
# 
# High freq. dielectric constant tensor:
#      x y z
#    x 1.635700 0.000000 -0.002220 
#    y 0.000000 1.663590 0.000000 
#    z -0.002220 0.000000 1.636850 
# 
# From -- ./inp_files/10474.got.cif
#   From: 2010.06.25/outbox.cif.g09.slc.cpg/sg10_6_cif.got.tgz:10474.got - 2010.06.27 22:07:45.
