data_PCOD8065747
_publ_section_title
;
Structure prediction by ZEFSAII (Michael W. Deem and Ramdas Pophale) SiO2 
 PCOD8065747
Probable space group: P 2/M
;
_chemical_formula_sum "Si O2"
_cell_formula_units_Z 32
_cell_length_a 16.138666
_cell_length_b 9.406485
_cell_length_c 11.035982
_cell_angle_alpha 90.000000
_cell_angle_beta 90.662697
_cell_angle_gamma 90.000000
_cell_volume 1675.239615
_symmetry_space_group_name_H-M "P 2/M"
_symmetry_group_IT_number 10
_symmetry_cell_setting 'monoclinic'
loop_
_space_group_symop_operation_xyz
x,y,z
-x,y,-z
-x,-y,-z
x,-y,z
loop_
_atom_site_type_symbol
_atom_site_label
_atom_site_fract_x
_atom_site_fract_y
_atom_site_fract_z
Si Si1 0.532303 0.166496 0.128325
Si Si2 0.033964 0.334184 0.746491
Si Si3 0.117136 0.838187 0.225840
Si Si4 0.716819 0.838916 0.189019
Si Si5 0.546710 0.831137 0.622515
Si Si6 0.120807 0.162020 0.949684
Si Si7 0.801392 0.665511 0.390756
Si Si8 0.735845 0.837129 0.606193
O O1 0.629149 0.201254 0.130932
O O2 0.491731 0.230321 0.251917
O O3 0.512585 0.000000 0.126796
O O4 0.500000 0.233644 0.000000
O O5 0.019532 0.500000 0.766789
O O6 0.061620 0.264106 0.873000
O O7 0.104076 0.305192 0.647201
O O8 0.947798 0.261861 0.702361
O O9 0.212476 0.821509 0.268943
O O10 0.087869 0.000000 0.243792
O O11 0.113990 0.790272 0.087211
O O12 0.783550 0.821090 0.084569
O O13 0.735609 0.731855 0.297406
O O14 0.715963 0.000000 0.240963
O O15 0.500000 0.772936 0.500000
O O16 0.642334 0.781278 0.620749
O O17 0.539024 0.000000 0.623793
O O18 0.090807 0.000000 0.929067
O O19 0.782220 0.500000 0.400518
O O20 0.787922 0.739972 0.517338
O O21 0.734594 0.000000 0.560103
#
# Coordination Sequence:
#
# PCOD8065747 Si02
#       8
#     4   4   4   4   4   4   4   4
#     4   9  17  27  48  83 115 140 173 221 271 318
#     4  10  21  36  54  76 101 135 178 222 265 312
#     4  10  21  34  50  76 109 141 171 213 266 317
#     4   9  17  31  54  80 106 138 175 213 260 315
#     4   9  17  30  50  77 110 143 177 219 264 314
#     4   9  18  32  52  77 108 141 174 213 259 314
#     4  10  21  37  55  75 101 134 178 224 265 310
#     4  10  21  35  54  78 107 140 175 215 264 318
#
# _framework density 19.101744
#
# number of rings (size 3 to 8) (size 9 to 14) (size 15 to 20)
#    0.000    2.500    0.000    1.875    1.750    6.500 
#    0.000    2.500    0.000    3.750    0.000    0.000 
#    0.000    0.000    0.000    0.000    0.000    0.000 
#
# Total GULP energy -396710.980547 kJ/mol
# GULP energy per Si atom -12397.218142 kJ/mol
# Density = 1.905827 g / cm^3
# Si number density = 19.101744 Si / 1000 Ang^3
#
#
#
# Elastic Constant Matrix: (Units=GPa)
#
#
# Indices 1 2 3 4 5 6 
#
# 1 139.6109 39.2725 52.4138 0.0000 6.9410 0.0000
# 2 39.2725 59.0351 28.3716 0.0000 -2.5761 0.0000
# 3 52.4138 28.3716 97.7703 0.0000 -8.0190 0.0000
# 4 0.0000 0.0000 0.0000 4.8961 0.0000 -10.0443
# 5 6.9410 -2.5761 -8.0190 0.0000 20.3032 0.0000
# 6 0.0000 0.0000 0.0000 -10.0443 0.0000 10.1907
#
#
#
# Elastic Compliance Matrix: (Units=1/GPa)
#
#
# Indices 1 2 3 4 5 6 
#
# 1 0.010690 -0.005094 -0.004760 0.000000 -0.006181 0.000000
# 2 -0.005094 0.022113 -0.003424 0.000000 0.003195 0.000000
# 3 -0.004760 -0.003424 0.014335 0.000000 0.006855 0.000000
# 4 0.000000 0.000000 0.000000 -0.199849 0.000000 -0.196977
# 5 -0.006181 0.003195 0.006855 0.000000 0.054479 0.000000
# 6 0.000000 0.000000 0.000000 -0.196977 0.000000 -0.096018
#
#
# Mechanical properties :
#
#
# Convention : Reuss Voigt Hill
#
# Bulk Modulus (GPa) = 48.58308 59.61466 54.09887
# Shear Modulus (GPa) = -31.08773 18.83524 -6.12624
#
# Velocity S-wave (km/s) = -4.03858 3.14355 -1.79280
# Velocity P-wave (km/s) = 1.93448 6.66728 4.90891
#
# Compressibility (1/GPa) = 0.02058330
#
# Stress axis : x y z
#
# Youngs Moduli (GPa) = 93.54788 45.22325 69.75724
#
# Poissons Ratio (x) = 0.23035 0.33201
# Poissons Ratio (y) = 0.47649 0.23886
# Poissons Ratio (z) = 0.44524 0.15485
#
# Static dielectric constant tensor:
#      x y z
#    x 3.660380 0.000000 -0.058860 
#    y 0.000000 3.219290 0.000000 
#    z -0.058860 0.000000 3.568530 
# 
# 
# High freq. dielectric constant tensor:
#      x y z
#    x 1.756790 0.000000 -0.002040 
#    y 0.000000 1.702350 0.000000 
#    z -0.002040 0.000000 1.741750 
# 
# From -- ./inp_files/49982.got.cif
#   From: 2010.06.25/outbox.cif.g09.slc.cpg/sg10_25_cif.got.tgz:49982.got - 2010.06.27 22:07:45.
