data_PCOD8065355
_publ_section_title
;
Structure prediction by ZEFSAII (Michael W. Deem and Ramdas Pophale) SiO2 
 PCOD8065355
Probable space group: P 2/M
;
_chemical_formula_sum "Si O2"
_cell_formula_units_Z 28
_cell_length_a 17.348149
_cell_length_b 8.728958
_cell_length_c 15.296323
_cell_angle_alpha 90.000000
_cell_angle_beta 143.099999
_cell_angle_gamma 90.000000
_cell_volume 1390.778334
_symmetry_space_group_name_H-M "P 2/M"
_symmetry_group_IT_number 10
_symmetry_cell_setting 'monoclinic'
loop_
_space_group_symop_operation_xyz
x,y,z
-x,y,-z
-x,-y,-z
x,-y,z
loop_
_atom_site_type_symbol
_atom_site_label
_atom_site_fract_x
_atom_site_fract_y
_atom_site_fract_z
Si Si1 0.670990 0.176163 0.665277
Si Si2 0.501668 0.678243 0.635871
Si Si3 0.951984 0.180236 0.697333
Si Si4 0.363626 0.323639 0.832590
Si Si5 0.916549 0.331255 0.839561
Si Si6 0.668819 0.178053 0.379428
Si Si7 0.910740 0.677268 0.338168
O O1 0.598934 0.282502 0.530662
O O2 0.633583 0.232825 0.729376
O O3 0.818265 0.199598 0.778292
O O4 0.633198 0.000000 0.617495
O O5 0.531944 0.500000 0.668330
O O6 0.446419 0.732226 0.678204
O O7 0.991296 0.268694 0.821912
O O8 0.807520 0.231646 0.540466
O O9 0.051507 0.225856 0.712330
O O10 0.961093 0.000000 0.720936
O O11 0.364886 0.500000 0.802409
O O12 0.342297 0.212164 0.732421
O O13 0.241375 0.295216 0.784764
O O14 0.500000 0.280956 0.000000
O O15 0.857542 0.500000 0.763978
O O16 0.000000 0.352520 0.000000
O O17 0.649701 0.000000 0.380155
O O18 0.940078 0.500000 0.346229
O O19 0.000000 0.733025 0.500000
#
# Coordination Sequence:
#
# PCOD8065355 Si02
#       7
#     4   4   4   4   4   4   4
#     4  11  21  36  58  85 119 153 192 245 304 360
#     4  11  21  35  59  87 116 153 198 247 295 353
#     4  11  23  38  62  92 122 158 204 259 313 369
#     4  10  22  41  63  89 122 162 203 253 312 372
#     4  11  24  42  63  87 119 162 210 258 310 372
#     4  11  22  37  60  90 121 156 200 254 309 368
#     4  10  20  37  64  93 122 159 207 256 306 370
#
# _framework density 20.132612999999999
#
# number of rings (size 3 to 8) (size 9 to 14) (size 15 to 20)
#    0.000    1.286    2.857    4.714    0.000    3.429 
#    2.571    0.000    0.000    0.000    0.000    0.000 
#    0.000    0.000    0.000    0.000    0.000    0.000 
#
# Total GULP energy -347142.964946 kJ/mol
# GULP energy per Si atom -12397.963034 kJ/mol
# Density = 2.008679 g / cm^3
# Si number density = 20.132613 Si / 1000 Ang^3
#
#
#
# Elastic Constant Matrix: (Units=GPa)
#
#
# Indices 1 2 3 4 5 6 
#
# 1 142.9214 47.8195 36.9915 0.0000 -6.3551 0.0000
# 2 47.8195 90.7209 29.1096 0.0000 -7.2006 0.0000
# 3 36.9915 29.1096 72.2115 0.0000 -4.3535 0.0000
# 4 0.0000 0.0000 0.0000 28.2413 0.0000 -2.5481
# 5 -6.3551 -7.2006 -4.3535 0.0000 29.6951 0.0000
# 6 0.0000 0.0000 0.0000 -2.5481 0.0000 38.5548
#
#
#
# Elastic Compliance Matrix: (Units=1/GPa)
#
#
# Indices 1 2 3 4 5 6 
#
# 1 0.009079 -0.003743 -0.003107 0.000000 0.000580 0.000000
# 2 -0.003743 0.014367 -0.003746 0.000000 0.002134 0.000000
# 3 -0.003107 -0.003746 0.017005 0.000000 0.000920 0.000000
# 4 0.000000 0.000000 0.000000 0.035622 0.000000 0.002354
# 5 0.000580 0.002134 0.000920 0.000000 0.034452 0.000000
# 6 0.000000 0.000000 0.000000 0.002354 0.000000 0.026093
#
#
# Mechanical properties :
#
#
# Convention : Reuss Voigt Hill
#
# Bulk Modulus (GPa) = 51.92041 59.29944 55.60992
# Shear Modulus (GPa) = 30.44539 32.09377 31.26958
#
# Velocity S-wave (km/s) = 3.89297 3.99697 3.94532
# Velocity P-wave (km/s) = 6.78618 7.12877 6.95958
#
# Compressibility (1/GPa) = 0.01926025
#
# Stress axis : x y z
#
# Youngs Moduli (GPa) = 110.14316 69.60508 58.80506
#
# Poissons Ratio (x) = 0.26050 0.18272
# Poissons Ratio (y) = 0.41222 0.22026
# Poissons Ratio (z) = 0.34224 0.26072
#
# Static dielectric constant tensor:
#      x y z
#    x 5.600230 0.000000 1.380580 
#    y 0.000000 3.695320 0.000000 
#    z 1.380580 0.000000 4.446530 
# 
# 
# High freq. dielectric constant tensor:
#      x y z
#    x 1.804590 0.000000 -0.000080 
#    y 0.000000 1.794040 0.000000 
#    z -0.000080 0.000000 1.751380 
# 
# From -- ./inp_files/68714.got.cif
#   From: 2010.06.25/outbox.cif.g09.slc.cpg/sg10_35_cif.got.tgz:68714.got - 2010.06.27 22:07:45.
