data_PCOD8065616
_publ_section_title
;
Structure prediction by ZEFSAII (Michael W. Deem and Ramdas Pophale) SiO2 
 PCOD8065616
Probable space group: P 2/M
;
_chemical_formula_sum "Si O2"
_cell_formula_units_Z 20
_cell_length_a 9.442991
_cell_length_b 16.132852
_cell_length_c 8.897730
_cell_angle_alpha 90.000000
_cell_angle_beta 130.251168
_cell_angle_gamma 90.000000
_cell_volume 1034.544775
_symmetry_space_group_name_H-M "P 2/M"
_symmetry_group_IT_number 10
_symmetry_cell_setting 'monoclinic'
loop_
_space_group_symop_operation_xyz
x,y,z
-x,y,-z
-x,-y,-z
x,-y,z
loop_
_atom_site_type_symbol
_atom_site_label
_atom_site_fract_x
_atom_site_fract_y
_atom_site_fract_z
Si Si1 0.832118 0.361903 0.491769
Si Si2 0.977660 0.500000 0.803908
Si Si3 0.302700 0.500000 0.806493
Si Si4 0.984344 0.097585 0.662574
Si Si5 0.627462 0.801415 0.448373
Si Si6 0.622132 0.908439 0.938037
O O1 0.882480 0.414705 0.677445
O O2 0.714592 0.420018 0.305923
O O3 0.706038 0.284330 0.442739
O O4 0.000000 0.331466 0.500000
O O5 0.177413 0.500000 0.867179
O O6 0.000000 0.500000 0.000000
O O7 0.500000 0.500000 0.000000
O O8 0.802739 0.140116 0.610688
O O9 0.000000 0.125483 0.500000
O O10 0.954749 0.000000 0.654017
O O11 0.170991 0.124860 0.878929
O O12 0.500000 0.780233 0.500000
O O13 0.485401 0.843514 0.236595
O O14 0.638362 0.000000 0.872147
O O15 0.500000 0.920091 0.000000
#
# Coordination Sequence:
#
# PCOD8065616 Si02
#       6
#     4   2   2   4   4   4
#     4   9  21  42  62  86 123 160 201 241 296 367
#     4   9  19  41  68  92 120 156 191 249 305 356
#     4   9  19  39  66  90 112 157 204 236 288 368
#     4  10  20  39  65  87 116 163 211 255 302 363
#     4  12  25  39  57  93 130 160 197 261 313 356
#     4  10  21  39  64  89 115 162 219 252 298 371
#
# _framework density 19.332173999999998
#
# number of rings (size 3 to 8) (size 9 to 14) (size 15 to 20)
#    0.000    2.000    2.000    2.400    0.000    4.800 
#    7.200    4.000    0.000    0.000    0.000    0.000 
#    0.000    0.000    0.000    0.000    0.000    0.000 
#
# Total GULP energy -247808.804910 kJ/mol
# GULP energy per Si atom -12390.440246 kJ/mol
# Density = 1.928817 g / cm^3
# Si number density = 19.332174 Si / 1000 Ang^3
#
#
#
# Elastic Constant Matrix: (Units=GPa)
#
#
# Indices 1 2 3 4 5 6 
#
# 1 107.8260 81.1894 84.0573 0.0000 13.3537 0.0000
# 2 81.1894 133.4836 81.7723 0.0000 7.7352 0.0000
# 3 84.0573 81.7723 162.1793 0.0000 18.2870 0.0000
# 4 0.0000 0.0000 0.0000 -92.8111 0.0000 -41.0977
# 5 13.3537 7.7352 18.2870 0.0000 42.6457 0.0000
# 6 0.0000 0.0000 0.0000 -41.0977 0.0000 9.8008
#
#
#
# Elastic Compliance Matrix: (Units=1/GPa)
#
#
# Indices 1 2 3 4 5 6 
#
# 1 0.021081 -0.008906 -0.006172 0.000000 -0.002339 0.000000
# 2 -0.008906 0.014608 -0.002906 0.000000 0.001385 0.000000
# 3 -0.006172 -0.002906 0.011089 0.000000 -0.002295 0.000000
# 4 0.000000 0.000000 0.000000 -0.003771 0.000000 -0.015815
# 5 -0.002339 0.001385 -0.002295 0.000000 0.024914 0.000000
# 6 0.000000 0.000000 0.000000 -0.015815 0.000000 0.035715
#
#
# Mechanical properties :
#
#
# Convention : Reuss Voigt Hill
#
# Bulk Modulus (GPa) = 92.50073 99.72521 96.11297
# Shear Modulus (GPa) = 34.91415 2.35840 18.63628
#
# Velocity S-wave (km/s) = 4.25433 1.10571 3.10821
# Velocity P-wave (km/s) = 8.49025 7.30255 7.91870
#
# Compressibility (1/GPa) = 0.01081073
#
# Stress axis : x y z
#
# Youngs Moduli (GPa) = 47.43549 68.45456 90.17797
#
# Poissons Ratio (x) = 0.60963 0.55661
# Poissons Ratio (y) = 0.42244 0.26206
# Poissons Ratio (z) = 0.29279 0.19893
#
# Static dielectric constant tensor:
#      x y z
#    x 3.550120 0.000000 0.223950 
#    y 0.000000 3.557290 0.000000 
#    z 0.223950 0.000000 3.483320 
# 
# 
# High freq. dielectric constant tensor:
#      x y z
#    x 1.751130 0.000000 0.014610 
#    y 0.000000 1.755780 0.000000 
#    z 0.014610 0.000000 1.754040 
# 
# From -- ./inp_files/19562.got.cif
#   From: 2010.06.25/outbox.cif.g09.slc.cpg/sg10_10_cif.got.tgz:19562.got - 2010.06.27 22:07:45.
