data_PCOD8065555
_publ_section_title
;
Structure prediction by ZEFSAII (Michael W. Deem and Ramdas Pophale) SiO2 
 PCOD8065555
Probable space group: P 2/M
;
_chemical_formula_sum "Si O2"
_cell_formula_units_Z 32
_cell_length_a 13.232783
_cell_length_b 18.429040
_cell_length_c 10.904198
_cell_angle_alpha 90.000000
_cell_angle_beta 145.490572
_cell_angle_gamma 90.000000
_cell_volume 1506.536368
_symmetry_space_group_name_H-M "P 2/M"
_symmetry_group_IT_number 10
_symmetry_cell_setting 'monoclinic'
loop_
_space_group_symop_operation_xyz
x,y,z
-x,y,-z
-x,-y,-z
x,-y,z
loop_
_atom_site_type_symbol
_atom_site_label
_atom_site_fract_x
_atom_site_fract_y
_atom_site_fract_z
Si Si1 0.796631 0.083481 0.797073
Si Si2 0.703369 0.416520 0.203812
Si Si3 0.471268 0.684327 0.332004
Si Si4 0.836801 0.665887 0.564916
Si Si5 0.028733 0.184326 0.389469
Si Si6 0.824850 0.583673 0.049394
Si Si7 0.663200 0.834114 0.891316
Si Si8 0.675148 0.916327 0.399693
O O1 0.683617 0.131319 0.777496
O O2 0.714994 0.094948 0.582499
O O3 0.785089 0.000000 0.828404
O O4 0.000000 0.110643 0.000000
O O5 0.714915 0.500000 0.258232
O O6 0.816384 0.368679 0.410262
O O7 0.785002 0.405054 0.152507
O O8 0.500000 0.389358 0.000000
O O9 0.500000 0.708766 0.500000
O O10 0.656232 0.657711 0.460075
O O11 0.391505 0.750382 0.173947
O O12 0.332848 0.617882 0.188949
O O13 0.891506 0.749619 0.609063
O O14 0.988777 0.623401 0.792914
O O15 0.167157 0.117882 0.523258
O O16 0.000000 0.208765 0.500000
O O17 0.843770 0.157709 0.147612
O O18 0.839905 0.500000 0.027618
O O19 0.511225 0.876600 0.815363
O O20 0.660097 0.000000 0.347811
#
# Coordination Sequence:
#
# PCOD8065555 Si02
#       8
#     4   4   4   4   4   4   4   4
#     4  10  20  38  71 104 131 167 219 280 333 384
#     4  10  20  38  71 104 131 167 219 280 333 384
#     4  12  27  44  67  99 134 177 225 271 331 399
#     4  12  24  44  69  96 134 178 221 279 330 390
#     4  12  27  44  67  99 134 177 225 271 331 399
#     4  11  24  44  69 102 134 174 224 274 333 392
#     4  12  24  44  69  96 134 178 221 279 330 390
#     4  11  24  44  69 102 134 174 224 274 333 392
#
# _framework density 21.240774999999999
#
# number of rings (size 3 to 8) (size 9 to 14) (size 15 to 20)
#    0.000    0.750    5.000    3.000    0.000    4.500 
#    0.000    1.250    0.000    0.000    0.000    0.000 
#    0.000    0.000    0.000    0.000    0.000    0.000 
#
# Total GULP energy -397087.015731 kJ/mol
# GULP energy per Si atom -12408.969242 kJ/mol
# Density = 2.119243 g / cm^3
# Si number density = 21.240775 Si / 1000 Ang^3
#
#
#
# Elastic Constant Matrix: (Units=GPa)
#
#
# Indices 1 2 3 4 5 6 
#
# 1 62.3613 23.3085 27.1380 0.0000 19.2176 0.0000
# 2 23.3085 114.8946 36.7225 0.0000 15.9546 0.0000
# 3 27.1380 36.7225 103.1489 0.0000 29.2943 0.0000
# 4 0.0000 0.0000 0.0000 35.5942 0.0000 8.6435
# 5 19.2176 15.9546 29.2943 0.0000 37.6758 0.0000
# 6 0.0000 0.0000 0.0000 8.6435 0.0000 28.3268
#
#
#
# Elastic Compliance Matrix: (Units=1/GPa)
#
#
# Indices 1 2 3 4 5 6 
#
# 1 0.020243 -0.002306 -0.002374 0.000000 -0.007503 0.000000
# 2 -0.002306 0.010185 -0.002732 0.000000 -0.001013 0.000000
# 3 -0.002374 -0.002732 0.013629 0.000000 -0.008229 0.000000
# 4 0.000000 0.000000 0.000000 0.030343 0.000000 -0.009259
# 5 -0.007503 -0.001013 -0.008229 0.000000 0.037197 0.000000
# 6 0.000000 0.000000 0.000000 -0.009259 0.000000 0.038127
#
#
# Mechanical properties :
#
#
# Convention : Reuss Voigt Hill
#
# Bulk Modulus (GPa) = 34.20716 50.52697 42.36707
# Shear Modulus (GPa) = 28.68754 33.20175 30.94465
#
# Velocity S-wave (km/s) = 3.67902 3.95791 3.82101
# Velocity P-wave (km/s) = 5.84691 6.68776 6.28142
#
# Compressibility (1/GPa) = 0.02923365
#
# Stress axis : x y z
#
# Youngs Moduli (GPa) = 49.40048 98.18166 73.37315
#
# Poissons Ratio (x) = 0.22640 0.17418
# Poissons Ratio (y) = 0.11392 0.20044
# Poissons Ratio (z) = 0.11727 0.26821
#
# Static dielectric constant tensor:
#      x y z
#    x 3.706570 0.000000 0.245280 
#    y 0.000000 3.853990 0.000000 
#    z 0.245280 0.000000 3.912750 
# 
# 
# High freq. dielectric constant tensor:
#      x y z
#    x 1.824080 0.000000 0.022300 
#    y 0.000000 1.838460 0.000000 
#    z 0.022300 0.000000 1.842830 
# 
# From -- ./inp_files/51990.got.cif
#   From: 2010.06.25/outbox.cif.g09.slc.cpg/sg10_26_cif.got.tgz:51990.got - 2010.06.27 22:07:45.
