data_PCOD8065145
_publ_section_title
;
Structure prediction by ZEFSAII (Michael W. Deem and Ramdas Pophale) SiO2 
 PCOD8065145
Probable space group: P 2/M
;
_chemical_formula_sum "Si O2"
_cell_formula_units_Z 24
_cell_length_a 7.844957
_cell_length_b 8.432928
_cell_length_c 17.310984
_cell_angle_alpha 90.000000
_cell_angle_beta 88.487579
_cell_angle_gamma 90.000000
_cell_volume 1144.825757
_symmetry_space_group_name_H-M "P 2/M"
_symmetry_group_IT_number 10
_symmetry_cell_setting 'monoclinic'
loop_
_space_group_symop_operation_xyz
x,y,z
-x,y,-z
-x,-y,-z
x,-y,z
loop_
_atom_site_type_symbol
_atom_site_label
_atom_site_fract_x
_atom_site_fract_y
_atom_site_fract_z
Si Si1 0.683912 0.813464 0.507618
Si Si2 0.801212 0.319612 0.349625
Si Si3 0.778422 0.812939 0.191620
Si Si4 0.154839 0.185619 0.337250
Si Si5 0.840799 0.685927 0.817182
Si Si6 0.534635 0.814180 0.911492
O O1 0.500000 0.734449 0.500000
O O2 0.791046 0.770759 0.431288
O O3 0.753107 0.747463 0.587713
O O4 0.671962 0.000000 0.515228
O O5 0.741860 0.500000 0.359802
O O6 0.706777 0.239439 0.277762
O O7 0.997329 0.302869 0.326196
O O8 0.632257 0.756051 0.134217
O O9 0.963787 0.740446 0.166966
O O10 0.802510 0.000000 0.191023
O O11 0.248189 0.219523 0.254895
O O12 0.106861 0.000000 0.346811
O O13 0.842651 0.500000 0.801739
O O14 0.710687 0.725656 0.887810
O O15 0.562931 0.000000 0.898554
O O16 0.500000 0.770258 0.000000
#
# Coordination Sequence:
#
# PCOD8065145 Si02
#       6
#     4   4   4   4   4   4
#     4  10  22  37  54  80 112 151 198 244 289 340
#     4  11  22  36  56  83 116 152 192 241 297 350
#     4  10  21  40  66  90 119 160 206 249 293 355
#     4  10  20  37  60  82 110 153 202 244 285 343
#     4  11  23  39  62  92 128 161 196 246 304 363
#     4  10  23  43  67  93 120 156 202 249 297 356
#
# _framework density 20.963889999999999
#
# number of rings (size 3 to 8) (size 9 to 14) (size 15 to 20)
#    0.000    1.667    0.000    6.500    2.333    6.000 
#    0.000    3.333    0.000    0.000    0.000    0.000 
#    0.000    0.000    0.000    0.000    0.000    0.000 
#
# Total GULP energy -297402.924506 kJ/mol
# GULP energy per Si atom -12391.788521 kJ/mol
# Density = 2.091618 g / cm^3
# Si number density = 20.963890 Si / 1000 Ang^3
#
#
#
# Elastic Constant Matrix: (Units=GPa)
#
#
# Indices 1 2 3 4 5 6 
#
# 1 71.8826 25.4189 30.6494 0.0000 7.0756 0.0000
# 2 25.4189 49.9088 24.3230 0.0000 8.6754 0.0000
# 3 30.6494 24.3230 119.7929 0.0000 11.7466 0.0000
# 4 0.0000 0.0000 0.0000 16.3501 0.0000 -8.4367
# 5 7.0756 8.6754 11.7466 0.0000 36.8014 0.0000
# 6 0.0000 0.0000 0.0000 -8.4367 0.0000 9.8499
#
#
#
# Elastic Compliance Matrix: (Units=1/GPa)
#
#
# Indices 1 2 3 4 5 6 
#
# 1 0.017924 -0.007551 -0.002983 0.000000 -0.000714 0.000000
# 2 -0.007551 0.025981 -0.002978 0.000000 -0.003722 0.000000
# 3 -0.002983 -0.002978 0.009900 0.000000 -0.001885 0.000000
# 4 0.000000 0.000000 0.000000 0.109604 0.000000 0.093878
# 5 -0.000714 -0.003722 -0.001885 0.000000 0.028789 0.000000
# 6 0.000000 0.000000 0.000000 0.093878 0.000000 0.181932
#
#
# Mechanical properties :
#
#
# Convention : Reuss Voigt Hill
#
# Bulk Modulus (GPa) = 37.33981 44.70745 41.02363
# Shear Modulus (GPa) = 12.19272 23.34648 17.76960
#
# Velocity S-wave (km/s) = 2.41427 3.34076 2.91457
# Velocity P-wave (km/s) = 5.06179 6.02106 5.56214
#
# Compressibility (1/GPa) = 0.02678107
#
# Stress axis : x y z
#
# Youngs Moduli (GPa) = 55.79184 38.48999 101.00635
#
# Poissons Ratio (x) = 0.29064 0.30127
# Poissons Ratio (y) = 0.42128 0.30082
# Poissons Ratio (z) = 0.16641 0.11463
#
# Static dielectric constant tensor:
#      x y z
#    x 3.876630 0.000000 0.089230 
#    y 0.000000 3.539410 0.000000 
#    z 0.089230 0.000000 4.336240 
# 
# 
# High freq. dielectric constant tensor:
#      x y z
#    x 1.813830 0.000000 0.001100 
#    y 0.000000 1.812960 0.000000 
#    z 0.001100 0.000000 1.833690 
# 
# From -- ./inp_files/74185.got.cif
#   From: 2010.06.25/outbox.cif.g09.slc.cpg/sg10_38_cif.got.tgz:74185.got - 2010.06.27 22:07:45.
