data_PCOD8065640
_publ_section_title
;
Structure prediction by ZEFSAII (Michael W. Deem and Ramdas Pophale) SiO2 
 PCOD8065640
Probable space group: P 2/M
;
_chemical_formula_sum "Si O2"
_cell_formula_units_Z 24
_cell_length_a 19.336267
_cell_length_b 14.606864
_cell_length_c 11.606600
_cell_angle_alpha 90.000000
_cell_angle_beta 158.654118
_cell_angle_gamma 90.000000
_cell_volume 1193.253415
_symmetry_space_group_name_H-M "P 2/M"
_symmetry_group_IT_number 10
_symmetry_cell_setting 'monoclinic'
loop_
_space_group_symop_operation_xyz
x,y,z
-x,y,-z
-x,-y,-z
x,-y,z
loop_
_atom_site_type_symbol
_atom_site_label
_atom_site_fract_x
_atom_site_fract_y
_atom_site_fract_z
Si Si1 0.883991 0.329585 0.709348
Si Si2 0.538216 0.698346 0.317508
Si Si3 0.824783 0.801599 0.925873
Si Si4 0.435807 0.000000 0.264782
Si Si5 0.485640 0.500000 0.181869
Si Si6 0.841326 0.000000 0.854573
Si Si7 0.787675 0.182572 0.125762
Si Si8 0.213150 0.500000 0.558187
O O1 0.666176 0.301907 0.400271
O O2 0.905084 0.406660 0.643032
O O3 0.000000 0.366886 0.000000
O O4 0.976016 0.236845 0.807950
O O5 0.648233 0.754741 0.586727
O O6 0.501771 0.590131 0.288261
O O7 0.336298 0.749186 0.985244
O O8 0.852484 0.910183 0.952041
O O9 0.791921 0.774200 0.005931
O O10 0.500000 0.000000 0.500000
O O11 0.622732 0.000000 0.471229
O O12 0.311602 0.085411 0.036164
O O13 0.641711 0.500000 0.323806
O O14 0.288441 0.500000 0.805163
O O15 0.000000 0.000000 0.000000
O O16 0.000000 0.171459 0.500000
#
# Coordination Sequence:
#
# PCOD8065640 Si02
#       8
#     4   4   4   2   2   2   4   2
#     4   9  19  34  61  92 121 158 211 255 306 369
#     4  10  20  40  61  87 121 161 208 253 306 366
#     4  11  22  39  63  93 123 161 204 254 304 365
#     4  12  21  44  69  87 119 169 203 242 301 370
#     4   9  20  34  59  89 120 164 207 256 308 375
#     4  12  22  38  70 100 122 150 204 258 296 356
#     4  12  25  40  62  90 124 163 208 249 304 368
#     4   9  17  34  57  86 128 163 199 251 323 366
#
# _framework density 20.113078999999999
#
# number of rings (size 3 to 8) (size 9 to 14) (size 15 to 20)
#    0.000    1.500    3.333    2.500    2.333    2.000 
#    0.000    2.917    0.000    1.000    0.000    0.000 
#    0.000    0.000    0.000    0.000    0.000    0.000 
#
# Total GULP energy -297369.002658 kJ/mol
# GULP energy per Si atom -12390.375111 kJ/mol
# Density = 2.006730 g / cm^3
# Si number density = 20.113079 Si / 1000 Ang^3
#
#
#
# Elastic Constant Matrix: (Units=GPa)
#
#
# Indices 1 2 3 4 5 6 
#
# 1 58.2886 30.7956 44.4804 0.0000 14.0058 0.0000
# 2 30.7956 165.9322 72.2235 0.0000 4.8259 0.0000
# 3 44.4804 72.2235 111.9655 0.0000 27.1875 0.0000
# 4 0.0000 0.0000 0.0000 35.8047 0.0000 7.9109
# 5 14.0058 4.8259 27.1875 0.0000 32.2003 0.0000
# 6 0.0000 0.0000 0.0000 7.9109 0.0000 19.9902
#
#
#
# Elastic Compliance Matrix: (Units=1/GPa)
#
#
# Indices 1 2 3 4 5 6 
#
# 1 0.024940 -0.000815 -0.008526 0.000000 -0.003527 0.000000
# 2 -0.000815 0.008874 -0.006495 0.000000 0.004508 0.000000
# 3 -0.008526 -0.006495 0.019335 0.000000 -0.011643 0.000000
# 4 0.000000 0.000000 0.000000 0.030605 0.000000 -0.012112
# 5 -0.003527 0.004508 -0.011643 0.000000 0.041745 0.000000
# 6 0.000000 0.000000 0.000000 -0.012112 0.000000 0.054817
#
#
# Mechanical properties :
#
#
# Convention : Reuss Voigt Hill
#
# Bulk Modulus (GPa) = 46.56017 70.13171 58.34594
# Shear Modulus (GPa) = 22.81572 30.17818 26.49695
#
# Velocity S-wave (km/s) = 3.37170 3.87773 3.63354
# Velocity P-wave (km/s) = 6.19332 7.41576 6.83194
#
# Compressibility (1/GPa) = 0.02147758
#
# Stress axis : x y z
#
# Youngs Moduli (GPa) = 40.09590 112.69285 51.71967
#
# Poissons Ratio (x) = 0.09188 0.44094
# Poissons Ratio (y) = 0.03269 0.33591
# Poissons Ratio (z) = 0.34184 0.73192
#
# Static dielectric constant tensor:
#      x y z
#    x 3.570700 0.000000 0.257870 
#    y 0.000000 4.145260 0.000000 
#    z 0.257870 0.000000 3.788880 
# 
# 
# High freq. dielectric constant tensor:
#      x y z
#    x 1.756750 0.000000 0.021290 
#    y 0.000000 1.804530 0.000000 
#    z 0.021290 0.000000 1.778900 
# 
# From -- ./inp_files/56072.got.cif
#   From: 2010.06.25/outbox.cif.g09.slc.cpg/sg10_29_cif.got.tgz:56072.got - 2010.06.27 22:07:45.
