data_PCOD8065963
_publ_section_title
;
Structure prediction by ZEFSAII (Michael W. Deem and Ramdas Pophale) SiO2 
 PCOD8065963
Probable space group: P 2/M
;
_chemical_formula_sum "Si O2"
_cell_formula_units_Z 32
_cell_length_a 30.094698
_cell_length_b 8.634610
_cell_length_c 16.490622
_cell_angle_alpha 90.000000
_cell_angle_beta 154.622201
_cell_angle_gamma 90.000000
_cell_volume 1836.567089
_symmetry_space_group_name_H-M "P 2/M"
_symmetry_group_IT_number 10
_symmetry_cell_setting 'monoclinic'
loop_
_space_group_symop_operation_xyz
x,y,z
-x,y,-z
-x,-y,-z
x,-y,z
loop_
_atom_site_type_symbol
_atom_site_label
_atom_site_fract_x
_atom_site_fract_y
_atom_site_fract_z
Si Si1 0.545353 0.681897 0.190937
Si Si2 0.650374 0.818917 0.217045
Si Si3 0.225201 0.822577 0.991100
Si Si4 0.457614 0.180894 0.644146
Si Si5 0.399198 0.681270 0.384945
Si Si6 0.677109 0.675158 0.993497
Si Si7 0.193678 0.673143 0.635824
Si Si8 0.006060 0.177538 0.418415
O O1 0.522993 0.500000 0.149654
O O2 0.636079 0.728025 0.278065
O O3 0.581138 0.728235 0.340059
O O4 0.440074 0.771489 0.994542
O O5 0.763424 0.777079 0.367343
O O6 0.644095 0.000000 0.223837
O O7 0.293761 0.719470 0.163945
O O8 0.262026 0.000000 0.057349
O O9 0.237067 0.758032 0.919746
O O10 0.103325 0.806834 0.808824
O O11 0.390040 0.230089 0.455238
O O12 0.445795 0.000000 0.640871
O O13 0.574906 0.223763 0.816964
O O14 0.500000 0.736885 0.500000
O O15 0.406126 0.500000 0.413641
O O16 0.654377 0.500000 0.925487
O O17 0.716462 0.673926 0.149362
O O18 0.174972 0.500000 0.572766
O O19 0.086657 0.733230 0.495385
O O20 0.000000 0.247097 0.500000
O O21 0.042313 0.000000 0.484884
#
# Coordination Sequence:
#
# PCOD8065963 Si02
#       8
#     4   4   4   4   4   4   4   4
#     4  11  21  35  53  76 109 141 175 217 266 318
#     4  11  21  34  53  77 107 141 179 219 264 314
#     4  11  22  36  54  75 104 141 183 226 267 312
#     4  12  23  35  54  78 105 141 183 219 263 318
#     4  11  23  37  54  76 106 140 179 223 268 317
#     4  11  21  32  49  74 107 142 179 221 264 311
#     4  11  22  34  52  77 107 144 183 219 264 317
#     4  10  21  36  53  76 106 140 180 223 266 314
#
# _framework density 17.423812999999999
#
# number of rings (size 3 to 8) (size 9 to 14) (size 15 to 20)
#    0.000    1.000    3.750    5.625    0.000    2.750 
#    0.000    0.000    0.000    0.000    0.000    0.875 
#    0.000    7.000    0.000    0.000    0.000    0.000 
#
# Total GULP energy -396895.788487 kJ/mol
# GULP energy per Si atom -12402.993390 kJ/mol
# Density = 1.738416 g / cm^3
# Si number density = 17.423813 Si / 1000 Ang^3
#
#
#
# Elastic Constant Matrix: (Units=GPa)
#
#
# Indices 1 2 3 4 5 6 
#
# 1 105.3922 26.7142 23.7445 0.0000 5.4009 0.0000
# 2 26.7142 86.7103 15.4819 0.0000 3.7317 0.0000
# 3 23.7445 15.4819 57.2850 0.0000 3.2276 0.0000
# 4 0.0000 0.0000 0.0000 23.3380 0.0000 -0.5921
# 5 5.4009 3.7317 3.2276 0.0000 24.0580 0.0000
# 6 0.0000 0.0000 0.0000 -0.5921 0.0000 31.8330
#
#
#
# Elastic Compliance Matrix: (Units=1/GPa)
#
#
# Indices 1 2 3 4 5 6 
#
# 1 0.011101 -0.002676 -0.003790 0.000000 -0.001569 0.000000
# 2 -0.002676 0.012813 -0.002293 0.000000 -0.001079 0.000000
# 3 -0.003790 -0.002293 0.019728 0.000000 -0.001440 0.000000
# 4 0.000000 0.000000 0.000000 0.042869 0.000000 0.000797
# 5 -0.001569 -0.001079 -0.001440 0.000000 0.042279 0.000000
# 6 0.000000 0.000000 0.000000 0.000797 0.000000 0.031429
#
#
# Mechanical properties :
#
#
# Convention : Reuss Voigt Hill
#
# Bulk Modulus (GPa) = 38.27746 42.36319 40.32032
# Shear Modulus (GPa) = 26.81775 28.07559 27.44667
#
# Velocity S-wave (km/s) = 3.92745 4.01850 3.97323
# Velocity P-wave (km/s) = 6.52554 6.77475 6.65131
#
# Compressibility (1/GPa) = 0.02612504
#
# Stress axis : x y z
#
# Youngs Moduli (GPa) = 90.08341 78.04646 50.68882
#
# Poissons Ratio (x) = 0.20884 0.19210
# Poissons Ratio (y) = 0.24105 0.11622
# Poissons Ratio (z) = 0.34139 0.17895
#
# Static dielectric constant tensor:
#      x y z
#    x 3.302290 0.000000 -0.040940 
#    y 0.000000 3.366180 0.000000 
#    z -0.040940 0.000000 2.969710 
# 
# 
# High freq. dielectric constant tensor:
#      x y z
#    x 1.669150 0.000000 0.000620 
#    y 0.000000 1.690540 0.000000 
#    z 0.000620 0.000000 1.638250 
# 
# From -- ./inp_files/72237.got.cif
#   From: 2010.06.25/outbox.cif.g09.slc.cpg/sg10_37_cif.got.tgz:72237.got - 2010.06.27 22:07:45.
