data_PCOD8065834
_publ_section_title
;
Structure prediction by ZEFSAII (Michael W. Deem and Ramdas Pophale) SiO2 
 PCOD8065834
Probable space group: P 2/M
;
_chemical_formula_sum "Si O2"
_cell_formula_units_Z 32
_cell_length_a 21.214601
_cell_length_b 8.925334
_cell_length_c 14.865255
_cell_angle_alpha 90.000000
_cell_angle_beta 37.474121
_cell_angle_gamma 90.000000
_cell_volume 1712.470414
_symmetry_space_group_name_H-M "P 2/M"
_symmetry_group_IT_number 10
_symmetry_cell_setting 'monoclinic'
loop_
_space_group_symop_operation_xyz
x,y,z
-x,y,-z
-x,-y,-z
x,-y,z
loop_
_atom_site_type_symbol
_atom_site_label
_atom_site_fract_x
_atom_site_fract_y
_atom_site_fract_z
Si Si1 0.876674 0.165559 0.780777
Si Si2 0.497432 0.821253 0.218093
Si Si3 0.785983 0.832904 0.076384
Si Si4 0.553962 0.178181 0.349808
Si Si5 0.690494 0.179419 0.882490
Si Si6 0.921768 0.179196 0.355717
Si Si7 0.301893 0.178081 0.328754
Si Si8 0.019824 0.674643 0.078772
O O1 0.802427 0.244822 0.790500
O O2 0.987349 0.243657 0.679973
O O3 0.903968 0.000000 0.714171
O O4 0.804722 0.156932 0.949503
O O5 0.502126 0.761964 0.315772
O O6 0.391225 0.759954 0.293691
O O7 0.498883 0.000000 0.213515
O O8 0.595381 0.759149 0.050264
O O9 0.671957 0.768748 0.221269
O O10 0.799600 0.000000 0.102878
O O11 0.861678 0.715320 0.036653
O O12 0.500000 0.245723 0.500000
O O13 0.546923 0.000000 0.357313
O O14 0.673993 0.234583 0.799257
O O15 0.694047 0.000000 0.884752
O O16 0.810385 0.239297 0.513521
O O17 0.941942 0.236527 0.232182
O O18 0.929024 0.000000 0.345240
O O19 0.299889 0.000000 0.333618
O O20 0.001036 0.500000 0.115009
O O21 0.000000 0.725606 0.000000
#
# Coordination Sequence:
#
# PCOD8065834 Si02
#       8
#     4   4   4   4   4   4   4   4
#     4   8  13  23  40  60  86 121 157 193 230 273
#     4   9  15  24  36  56  94 132 162 194 233 285
#     4   9  16  29  48  70  95 123 158 197 236 279
#     4   9  16  25  40  65  94 126 160 196 241 286
#     4   9  14  22  38  59  90 132 164 190 235 287
#     4   9  18  31  46  69 100 125 154 196 241 283
#     4   9  17  25  37  63  98 131 158 191 239 290
#     4  10  21  35  51  70  91 121 161 197 236 288
#
# _framework density 18.686453
#
# number of rings (size 3 to 8) (size 9 to 14) (size 15 to 20)
#    0.000    3.000    1.250    1.500    0.000    4.000 
#    0.000    5.000    0.000    0.375    0.000    7.875 
#    0.000    1.000    0.000    0.000    0.000    0.000 
#
# Total GULP energy -396529.429238 kJ/mol
# GULP energy per Si atom -12391.544664 kJ/mol
# Density = 1.864392 g / cm^3
# Si number density = 18.686453 Si / 1000 Ang^3
#
#
#
# Elastic Constant Matrix: (Units=GPa)
#
#
# Indices 1 2 3 4 5 6 
#
# 1 150.8585 9.0169 90.9843 0.0000 5.5135 0.0000
# 2 9.0169 8.0044 6.3932 0.0000 2.0735 0.0000
# 3 90.9843 6.3932 142.1012 0.0000 -8.9555 0.0000
# 4 0.0000 0.0000 0.0000 3.3567 0.0000 2.1850
# 5 5.5135 2.0735 -8.9555 0.0000 29.8396 0.0000
# 6 0.0000 0.0000 0.0000 2.1850 0.0000 4.7229
#
#
#
# Elastic Compliance Matrix: (Units=1/GPa)
#
#
# Indices 1 2 3 4 5 6 
#
# 1 0.011604 -0.006139 -0.007402 0.000000 -0.003939 0.000000
# 2 -0.006139 0.136451 -0.002787 0.000000 -0.009184 0.000000
# 3 -0.007402 -0.002787 0.012231 0.000000 0.005232 0.000000
# 4 0.000000 0.000000 0.000000 0.426294 0.000000 -0.197219
# 5 -0.003939 -0.009184 0.005232 0.000000 0.036449 0.000000
# 6 0.000000 0.000000 0.000000 -0.197219 0.000000 0.302976
#
#
# Mechanical properties :
#
#
# Convention : Reuss Voigt Hill
#
# Bulk Modulus (GPa) = 7.83510 57.08368 32.45939
# Shear Modulus (GPa) = 4.99399 20.55514 12.77456
#
# Velocity S-wave (km/s) = 1.63656 3.32023 2.61746
# Velocity P-wave (km/s) = 2.78803 6.73149 5.15200
#
# Compressibility (1/GPa) = 0.12763083
#
# Stress axis : x y z
#
# Youngs Moduli (GPa) = 86.18029 7.32861 81.75666
#
# Poissons Ratio (x) = 0.04499 0.60513
# Poissons Ratio (y) = 0.52909 0.22785
# Poissons Ratio (z) = 0.63787 0.02042
#
# Static dielectric constant tensor:
#      x y z
#    x 3.729610 0.000000 -0.077100 
#    y 0.000000 2.654140 0.000000 
#    z -0.077100 0.000000 3.538620 
# 
# 
# High freq. dielectric constant tensor:
#      x y z
#    x 1.740310 0.000000 -0.006690 
#    y 0.000000 1.640220 0.000000 
#    z -0.006690 0.000000 1.727630 
# 
# From -- ./inp_files/69952.got.cif
#   From: 2010.06.25/outbox.cif.g09.slc.cpg/sg10_35_cif.got.tgz:69952.got - 2010.06.27 22:07:45.
