data_PCOD8065689
_publ_section_title
;
Structure prediction by ZEFSAII (Michael W. Deem and Ramdas Pophale) SiO2 
 PCOD8065689
Probable space group: P 2/M
;
_chemical_formula_sum "Si O2"
_cell_formula_units_Z 18
_cell_length_a 8.596788
_cell_length_b 13.402632
_cell_length_c 7.914383
_cell_angle_alpha 90.000000
_cell_angle_beta 109.622251
_cell_angle_gamma 90.000000
_cell_volume 858.935731
_symmetry_space_group_name_H-M "P 2/M"
_symmetry_group_IT_number 10
_symmetry_cell_setting 'monoclinic'
loop_
_space_group_symop_operation_xyz
x,y,z
-x,y,-z
-x,-y,-z
x,-y,z
loop_
_atom_site_type_symbol
_atom_site_label
_atom_site_fract_x
_atom_site_fract_y
_atom_site_fract_z
Si Si1 0.327116 0.284758 0.146822
Si Si2 0.000000 0.169631 0.500000
Si Si3 0.292848 0.708892 0.749867
Si Si4 0.303898 0.500000 0.633440
Si Si5 0.123816 0.890487 0.197832
Si Si6 0.693885 0.500000 0.742036
O O1 0.522189 0.279774 0.254672
O O2 0.252918 0.200666 0.243362
O O3 0.249633 0.395361 0.151246
O O4 0.284052 0.254937 0.939434
O O5 0.165941 0.232865 0.586628
O O6 0.028761 0.105075 0.342309
O O7 0.242580 0.593196 0.720162
O O8 0.498523 0.500000 0.680403
O O9 0.229061 0.500000 0.417583
O O10 0.208304 0.000000 0.204832
O O11 0.000000 0.870311 0.000000
#
# Coordination Sequence:
#
# PCOD8065689 Si02
#       6
#     4   2   4   2   4   2
#     4  10  20  41  62  92 122 168 205 251 303 372
#     4  12  23  41  64  94 122 161 204 262 305 366
#     4  10  21  36  63  90 129 161 209 250 304 364
#     4   9  17  32  52  92 122 166 203 248 295 365
#     4  11  24  44  66  90 124 162 204 259 314 365
#     4   9  17  31  61  85 125 161 204 248 305 353
#
# _framework density 20.956166
#
# number of rings (size 3 to 8) (size 9 to 14) (size 15 to 20)
#    0.000    1.778    2.222    2.333    0.000    5.778 
#    0.000    7.222    0.000    0.000    0.000    0.000 
#    0.000    0.000    0.000    0.000    0.000    0.000 
#
# Total GULP energy -223095.060466 kJ/mol
# GULP energy per Si atom -12394.170026 kJ/mol
# Density = 2.090847 g / cm^3
# Si number density = 20.956166 Si / 1000 Ang^3
#
#
#
# Elastic Constant Matrix: (Units=GPa)
#
#
# Indices 1 2 3 4 5 6 
#
# 1 60.8098 52.5892 37.3140 0.0000 -4.1658 0.0000
# 2 52.5892 153.4243 26.3849 0.0000 -2.6773 0.0000
# 3 37.3140 26.3849 101.8422 0.0000 -2.8011 0.0000
# 4 0.0000 0.0000 0.0000 -12.2359 0.0000 -7.4983
# 5 -4.1658 -2.6773 -2.8011 0.0000 34.2641 0.0000
# 6 0.0000 0.0000 0.0000 -7.4983 0.0000 27.9514
#
#
#
# Elastic Compliance Matrix: (Units=1/GPa)
#
#
# Indices 1 2 3 4 5 6 
#
# 1 0.029089 -0.008488 -0.008399 0.000000 0.002187 0.000000
# 2 -0.008488 0.009304 0.000693 0.000000 -0.000248 0.000000
# 3 -0.008399 0.000693 0.012719 0.000000 0.000073 0.000000
# 4 0.000000 0.000000 0.000000 -0.070188 0.000000 -0.018829
# 5 0.002187 -0.000248 0.000073 0.000000 0.029437 0.000000
# 6 0.000000 0.000000 0.000000 -0.018829 0.000000 0.030725
#
#
# Mechanical properties :
#
#
# Convention : Reuss Voigt Hill
#
# Bulk Modulus (GPa) = 53.40929 60.96138 57.18534
# Shear Modulus (GPa) = 62.72276 23.31513 43.01895
#
# Velocity S-wave (km/s) = 5.47681 3.33913 4.53571
# Velocity P-wave (km/s) = 8.09540 6.63472 7.40118
#
# Compressibility (1/GPa) = 0.01872334
#
# Stress axis : x y z
#
# Youngs Moduli (GPa) = 34.37737 107.48144 78.62371
#
# Poissons Ratio (x) = 0.91233 0.66033
# Poissons Ratio (y) = 0.29181 -0.05447
# Poissons Ratio (z) = 0.28872 -0.07446
#
# Static dielectric constant tensor:
#      x y z
#    x 3.464250 0.000000 -0.093910 
#    y 0.000000 3.915150 0.000000 
#    z -0.093910 0.000000 3.807190 
# 
# 
# High freq. dielectric constant tensor:
#      x y z
#    x 1.790960 0.000000 -0.011530 
#    y 0.000000 1.822270 0.000000 
#    z -0.011530 0.000000 1.830780 
# 
# From -- ./inp_files/17960.got.cif
#   From: 2010.06.25/outbox.cif.g09.slc.cpg/sg10_9_cif.got.tgz:17960.got - 2010.06.27 22:07:45.
