data_PCOD8065017
_publ_section_title
;
Structure prediction by ZEFSAII (Michael W. Deem and Ramdas Pophale) SiO2 
 PCOD8065017
Probable space group: P 2/M
;
_chemical_formula_sum "Si O2"
_cell_formula_units_Z 32
_cell_length_a 22.619796
_cell_length_b 14.036413
_cell_length_c 8.996091
_cell_angle_alpha 90.000000
_cell_angle_beta 148.336233
_cell_angle_gamma 90.000000
_cell_volume 1499.349765
_symmetry_space_group_name_H-M "P 2/M"
_symmetry_group_IT_number 10
_symmetry_cell_setting 'monoclinic'
loop_
_space_group_symop_operation_xyz
x,y,z
-x,y,-z
-x,-y,-z
x,-y,z
loop_
_atom_site_type_symbol
_atom_site_label
_atom_site_fract_x
_atom_site_fract_y
_atom_site_fract_z
Si Si1 0.607032 0.391563 0.980420
Si Si2 0.235135 0.331538 0.926565
Si Si3 0.870604 0.606841 0.013246
Si Si4 0.933542 0.732878 0.659091
Si Si5 0.944890 0.107162 0.227410
Si Si6 0.299486 0.109376 0.409175
Si Si7 0.434450 0.236620 0.503425
Si Si8 0.760795 0.720637 0.535516
O O1 0.571074 0.500000 0.946598
O O2 0.687486 0.400958 0.008200
O O3 0.670273 0.339919 0.250703
O O4 0.498470 0.327014 0.712585
O O5 0.170456 0.260356 0.677569
O O6 0.149730 0.387954 0.852426
O O7 0.310894 0.268040 0.194038
O O8 0.858622 0.500000 0.931084
O O9 0.776931 0.669229 0.727867
O O10 0.995528 0.640447 0.236824
O O11 0.883297 0.723662 0.717483
O O12 0.008247 0.827900 0.805731
O O13 0.000000 0.144194 0.500000
O O14 0.985635 0.000000 0.284770
O O15 0.809457 0.115322 0.933964
O O16 0.412271 0.149672 0.569877
O O17 0.281081 0.171835 0.520081
O O18 0.321160 0.000000 0.502807
O O19 0.500000 0.196718 0.500000
#
# Coordination Sequence:
#
# PCOD8065017 Si02
#       8
#     4   4   4   4   4   4   4   4
#     4  10  23  42  65  90 122 166 212 259 309 369
#     4  10  21  39  63  90 129 159 204 259 307 360
#     4  12  23  36  59  88 124 167 206 245 300 368
#     4  11  22  37  60  87 128 165 202 249 296 366
#     4  10  20  36  63  94 123 160 205 254 304 360
#     4  11  23  42  65  90 125 163 206 258 318 376
#     4  10  21  41  66  94 121 155 204 263 320 368
#     4  11  24  42  58  87 128 165 204 254 306 357
#
# _framework density 21.342587000000002
#
# number of rings (size 3 to 8) (size 9 to 14) (size 15 to 20)
#    0.000    1.375    2.500    3.000    0.000    8.000 
#    0.000    3.125    0.000    4.500    0.000    0.000 
#    0.000    0.000    0.000    0.000    0.000    0.000 
#
# Total GULP energy -396742.029128 kJ/mol
# GULP energy per Si atom -12398.188410 kJ/mol
# Density = 2.129401 g / cm^3
# Si number density = 21.342587 Si / 1000 Ang^3
#
#
#
# Elastic Constant Matrix: (Units=GPa)
#
#
# Indices 1 2 3 4 5 6 
#
# 1 110.5456 55.4486 22.2479 0.0000 1.5684 0.0000
# 2 55.4486 156.8592 26.4825 0.0000 4.3876 0.0000
# 3 22.2479 26.4825 48.9669 0.0000 -0.1698 0.0000
# 4 0.0000 0.0000 0.0000 23.1082 0.0000 1.1910
# 5 1.5684 4.3876 -0.1698 0.0000 29.4295 0.0000
# 6 0.0000 0.0000 0.0000 1.1910 0.0000 24.1084
#
#
#
# Elastic Compliance Matrix: (Units=1/GPa)
#
#
# Indices 1 2 3 4 5 6 
#
# 1 0.011467 -0.003489 -0.003323 0.000000 -0.000110 0.000000
# 2 -0.003489 0.008111 -0.002805 0.000000 -0.001040 0.000000
# 3 -0.003323 -0.002805 0.023451 0.000000 0.000731 0.000000
# 4 0.000000 0.000000 0.000000 0.043385 0.000000 -0.002143
# 5 -0.000110 -0.001040 0.000731 0.000000 0.034145 0.000000
# 6 0.000000 0.000000 0.000000 -0.002143 0.000000 0.041585
#
#
# Mechanical properties :
#
#
# Convention : Reuss Voigt Hill
#
# Bulk Modulus (GPa) = 42.02665 58.30329 50.16497
# Shear Modulus (GPa) = 26.41166 29.47540 27.94353
#
# Velocity S-wave (km/s) = 3.52164 3.72029 3.62233
# Velocity P-wave (km/s) = 6.02247 6.76988 6.40708
#
# Compressibility (1/GPa) = 0.02379442
#
# Stress axis : x y z
#
# Youngs Moduli (GPa) = 87.21013 123.28615 42.64141
#
# Poissons Ratio (x) = 0.43017 0.14170
# Poissons Ratio (y) = 0.30430 0.11961
# Poissons Ratio (z) = 0.28981 0.34582
#
# Static dielectric constant tensor:
#      x y z
#    x 3.903070 0.000000 -0.007570 
#    y 0.000000 3.717130 0.000000 
#    z -0.007570 0.000000 3.862110 
# 
# 
# High freq. dielectric constant tensor:
#      x y z
#    x 1.838180 0.000000 -0.000090 
#    y 0.000000 1.824900 0.000000 
#    z -0.000090 0.000000 1.839240 
# 
# From -- ./inp_files/36376.got.cif
#   From: 2010.06.25/outbox.cif.g09.slc.cpg/sg10_19_cif.got.tgz:36376.got - 2010.06.27 22:07:45.
