data_PCOD8065353
_publ_section_title
;
Structure prediction by ZEFSAII (Michael W. Deem and Ramdas Pophale) SiO2 
 PCOD8065353
Probable space group: P 2/M
;
_chemical_formula_sum "Si O2"
_cell_formula_units_Z 22
_cell_length_a 15.219643
_cell_length_b 15.686498
_cell_length_c 5.228012
_cell_angle_alpha 90.000000
_cell_angle_beta 65.102118
_cell_angle_gamma 90.000000
_cell_volume 1132.147086
_symmetry_space_group_name_H-M "P 2/M"
_symmetry_group_IT_number 10
_symmetry_cell_setting 'monoclinic'
loop_
_space_group_symop_operation_xyz
x,y,z
-x,y,-z
-x,-y,-z
x,-y,z
loop_
_atom_site_type_symbol
_atom_site_label
_atom_site_fract_x
_atom_site_fract_y
_atom_site_fract_z
Si Si1 0.437355 0.178635 0.329388
Si Si2 0.894327 0.597741 0.255752
Si Si3 0.330135 0.000000 0.484486
Si Si4 0.000000 0.303086 0.500000
Si Si5 0.149083 0.817205 0.196215
Si Si6 0.198430 0.000000 0.145544
Si Si7 0.761464 0.252512 0.391080
O O1 0.500000 0.200645 0.500000
O O2 0.352731 0.250424 0.412057
O O3 0.396964 0.083214 0.397906
O O4 0.500000 0.188616 0.000000
O O5 0.861456 0.500000 0.292665
O O6 0.804377 0.653714 0.261226
O O7 0.914428 0.633923 0.513116
O O8 0.000000 0.612017 0.000000
O O9 0.264413 0.000000 0.315023
O O10 0.267003 0.000000 0.816180
O O11 0.947053 0.237601 0.763191
O O12 0.182934 0.786844 0.435105
O O13 0.128220 0.917921 0.234777
O O14 0.227305 0.805081 0.876385
#
# Coordination Sequence:
#
# PCOD8065353 Si02
#       7
#     4   4   2   2   4   2   4
#     4  12  23  38  59  84 115 157 200 247 295 342
#     4  10  20  37  64  93 119 147 189 242 299 357
#     4  12  22  37  56  85 113 146 206 258 294 329
#     4  10  21  35  58  86 126 152 200 235 287 352
#     4  11  21  36  57  80 120 164 196 238 287 340
#     4  12  20  36  56  80 119 162 201 240 287 339
#     4  11  22  40  58  86 121 155 191 243 300 350
#
# _framework density 19.432103000000001
#
# number of rings (size 3 to 8) (size 9 to 14) (size 15 to 20)
#    0.000    0.909    5.455    3.000    0.000    0.364 
#    0.000    0.000    0.000    5.455    0.000    0.000 
#    0.000    0.000    0.000    0.000    0.000    0.000 
#
# Total GULP energy -272552.573474 kJ/mol
# GULP energy per Si atom -12388.753340 kJ/mol
# Density = 1.938787 g / cm^3
# Si number density = 19.432103 Si / 1000 Ang^3
#
#
#
# Elastic Constant Matrix: (Units=GPa)
#
#
# Indices 1 2 3 4 5 6 
#
# 1 72.6009 55.8696 23.0129 0.0000 -3.7932 0.0000
# 2 55.8696 164.1799 41.7685 0.0000 -14.2607 0.0000
# 3 23.0129 41.7685 114.3798 0.0000 2.9103 0.0000
# 4 0.0000 0.0000 0.0000 22.3146 0.0000 -7.9037
# 5 -3.7932 -14.2607 2.9103 0.0000 35.3346 0.0000
# 6 0.0000 0.0000 0.0000 -7.9037 0.0000 31.1852
#
#
#
# Elastic Compliance Matrix: (Units=1/GPa)
#
#
# Indices 1 2 3 4 5 6 
#
# 1 0.018927 -0.006062 -0.001587 0.000000 -0.000284 0.000000
# 2 -0.006062 0.008970 -0.002136 0.000000 0.003146 0.000000
# 3 -0.001587 -0.002136 0.009889 0.000000 -0.001847 0.000000
# 4 0.000000 0.000000 0.000000 0.049233 0.000000 0.012478
# 5 -0.000284 0.003146 -0.001847 0.000000 0.029692 0.000000
# 6 0.000000 0.000000 0.000000 0.012478 0.000000 0.035229
#
#
# Mechanical properties :
#
#
# Convention : Reuss Voigt Hill
#
# Bulk Modulus (GPa) = 54.89581 65.82920 60.36250
# Shear Modulus (GPa) = 28.15591 33.13419 30.64505
#
# Velocity S-wave (km/s) = 3.81062 4.13380 3.97549
# Velocity P-wave (km/s) = 6.90453 7.53223 7.22520
#
# Compressibility (1/GPa) = 0.01821633
#
# Stress axis : x y z
#
# Youngs Moduli (GPa) = 52.83488 111.47924 101.12007
#
# Poissons Ratio (x) = 0.67574 0.16051
# Poissons Ratio (y) = 0.32026 0.21601
# Poissons Ratio (z) = 0.08386 0.23814
#
# Static dielectric constant tensor:
#      x y z
#    x 3.551580 0.000000 -0.023600 
#    y 0.000000 3.673760 0.000000 
#    z -0.023600 0.000000 3.706850 
# 
# 
# High freq. dielectric constant tensor:
#      x y z
#    x 1.738710 0.000000 0.008750 
#    y 0.000000 1.749990 0.000000 
#    z 0.008750 0.000000 1.769770 
# 
# From -- ./inp_files/9130.got.cif
#   From: 2010.06.25/outbox.cif.g09.slc.cpg/sg10_5_cif.got.tgz:9130.got - 2010.06.27 22:07:45.
