data_PCOD8065004
_publ_section_title
;
Structure prediction by ZEFSAII (Michael W. Deem and Ramdas Pophale) SiO2 
 PCOD8065004
Probable space group: P 2/M
;
_chemical_formula_sum "Si O2"
_cell_formula_units_Z 28
_cell_length_a 9.528060
_cell_length_b 7.691811
_cell_length_c 28.566101
_cell_angle_alpha 90.000000
_cell_angle_beta 41.452521
_cell_angle_gamma 90.000000
_cell_volume 1385.930689
_symmetry_space_group_name_H-M "P 2/M"
_symmetry_group_IT_number 10
_symmetry_cell_setting 'monoclinic'
loop_
_space_group_symop_operation_xyz
x,y,z
-x,y,-z
-x,-y,-z
x,-y,z
loop_
_atom_site_type_symbol
_atom_site_label
_atom_site_fract_x
_atom_site_fract_y
_atom_site_fract_z
Si Si1 0.852471 0.705025 0.302854
Si Si2 0.057532 0.292944 0.434176
Si Si3 0.796055 0.195680 0.851918
Si Si4 0.119862 0.804035 0.852454
Si Si5 0.503825 0.500000 0.053669
Si Si6 0.533946 0.705026 0.302575
Si Si7 0.738160 0.292973 0.434323
Si Si8 0.008231 0.500000 0.052233
O O1 0.887561 0.500000 0.292626
O O2 0.647130 0.756923 0.323201
O O3 0.821810 0.773325 0.363243
O O4 0.063158 0.794881 0.230122
O O5 0.051320 0.500000 0.436133
O O6 0.293177 0.226322 0.362985
O O7 0.000000 0.220703 0.500000
O O8 0.890768 0.220686 0.437394
O O9 0.601201 0.327896 0.897870
O O10 0.941027 0.250220 0.859664
O O11 0.707408 0.000000 0.879583
O O12 0.348557 0.793863 0.770476
O O13 0.105686 0.671356 0.898899
O O14 0.085030 0.000000 0.879670
O O15 0.500000 0.500000 0.000000
O O16 0.746154 0.500000 0.002593
O O17 0.543834 0.500000 0.292744
O O18 0.500000 0.220439 0.500000
O O19 0.735336 0.500000 0.436461
O O20 0.000000 0.500000 0.000000
#
# Coordination Sequence:
#
# PCOD8065004 Si02
#       8
#     4   4   4   4   2   4   4   2
#     4   9  16  29  50  75 110 148 186 233 287 339
#     4   9  16  26  43  73 108 146 194 238 280 335
#     4  10  20  36  62  93 118 150 196 243 289 344
#     4  10  20  38  63  88 118 155 197 238 288 350
#     4  12  22  40  68  90 119 150 195 238 287 350
#     4   9  16  29  52  76 105 148 191 233 281 338
#     4   9  16  26  43  73 110 147 187 237 290 335
#     4  12  26  44  62  90 121 156 189 238 295 350
#
# _framework density 20.203030999999999
#
# number of rings (size 3 to 8) (size 9 to 14) (size 15 to 20)
#    0.000    2.286    2.857    0.857    0.000    4.571 
#    2.571    0.000    0.000    0.857    0.000    0.000 
#    0.000    0.000    0.000    0.000    0.000    0.000 
#
# Total GULP energy -347160.959476 kJ/mol
# GULP energy per Si atom -12398.605696 kJ/mol
# Density = 2.015705 g / cm^3
# Si number density = 20.203031 Si / 1000 Ang^3
#
#
#
# Elastic Constant Matrix: (Units=GPa)
#
#
# Indices 1 2 3 4 5 6 
#
# 1 124.5828 24.2978 70.2711 0.0000 9.1034 0.0000
# 2 24.2978 74.6889 48.6579 0.0000 4.7522 0.0000
# 3 70.2711 48.6579 131.3579 0.0000 8.2348 0.0000
# 4 0.0000 0.0000 0.0000 -0.4708 0.0000 0.6152
# 5 9.1034 4.7522 8.2348 0.0000 42.8767 0.0000
# 6 0.0000 0.0000 0.0000 0.6152 0.0000 4.0115
#
#
#
# Elastic Compliance Matrix: (Units=1/GPa)
#
#
# Indices 1 2 3 4 5 6 
#
# 1 0.011573 0.000393 -0.006255 0.000000 -0.001299 0.000000
# 2 0.000393 0.017682 -0.006713 0.000000 -0.000754 0.000000
# 3 -0.006255 -0.006713 0.013478 0.000000 -0.000516 0.000000
# 4 0.000000 0.000000 0.000000 -1.769412 0.000000 0.271360
# 5 -0.001299 -0.000754 -0.000516 0.000000 0.023781 0.000000
# 6 0.000000 0.000000 0.000000 0.271360 0.000000 0.207664
#
#
# Mechanical properties :
#
#
# Convention : Reuss Voigt Hill
#
# Bulk Modulus (GPa) = 56.87269 68.56481 62.71875
# Shear Modulus (GPa) = -3.41479 21.77701 9.18111
#
# Velocity S-wave (km/s) = -1.30150 3.28671 2.13408
# Velocity P-wave (km/s) = 5.09442 6.95808 6.09787
#
# Compressibility (1/GPa) = 0.01758313
#
# Stress axis : x y z
#
# Youngs Moduli (GPa) = 86.40448 56.55392 74.19451
#
# Poissons Ratio (x) = -0.02221 0.46411
# Poissons Ratio (y) = -0.03394 0.49805
# Poissons Ratio (z) = 0.54049 0.37963
#
# Static dielectric constant tensor:
#      x y z
#    x 3.541670 0.000000 -0.014450 
#    y 0.000000 3.473810 0.000000 
#    z -0.014450 0.000000 3.827910 
# 
# 
# High freq. dielectric constant tensor:
#      x y z
#    x 1.765300 0.000000 -0.001340 
#    y 0.000000 1.770920 0.000000 
#    z -0.001340 0.000000 1.798550 
# 
# From -- ./inp_files/92034.got.cif
#   From: 2010.06.25/outbox.cif.g09.slc.cpg/sg10_47_cif.got.tgz:92034.got - 2010.06.27 22:07:45.
