data_PCOD8065014
_publ_section_title
;
Structure prediction by ZEFSAII (Michael W. Deem and Ramdas Pophale) SiO2 
 PCOD8065014
Probable space group: P 2/M
;
_chemical_formula_sum "Si O2"
_cell_formula_units_Z 20
_cell_length_a 9.785380
_cell_length_b 11.928860
_cell_length_c 19.015437
_cell_angle_alpha 90.000000
_cell_angle_beta 155.349399
_cell_angle_gamma 90.000000
_cell_volume 925.776362
_symmetry_space_group_name_H-M "P 2/M"
_symmetry_group_IT_number 10
_symmetry_cell_setting 'monoclinic'
loop_
_space_group_symop_operation_xyz
x,y,z
-x,y,-z
-x,-y,-z
x,-y,z
loop_
_atom_site_type_symbol
_atom_site_label
_atom_site_fract_x
_atom_site_fract_y
_atom_site_fract_z
Si Si1 0.597564 0.242828 0.390936
Si Si2 0.854179 0.000000 0.200981
Si Si3 0.851079 0.370913 0.266668
Si Si4 0.845111 0.769104 0.699208
Si Si5 0.123483 0.000000 0.478018
Si Si6 0.625149 0.628089 0.838898
O O1 0.237412 0.261821 0.258356
O O2 0.583569 0.283841 0.304347
O O3 0.882340 0.314615 0.558938
O O4 0.660917 0.110941 0.429024
O O5 0.048529 0.895562 0.261545
O O6 0.853536 0.000000 0.287315
O O7 0.500000 0.000000 0.000000
O O8 0.937949 0.500000 0.296659
O O9 0.492589 0.354672 0.135221
O O10 0.869981 0.311663 0.199061
O O11 0.500000 0.747785 0.500000
O O12 0.000000 0.000000 0.500000
O O13 0.548689 0.500000 0.779876
O O14 0.000000 0.656515 0.000000
#
# Coordination Sequence:
#
# PCOD8065014 Si02
#       6
#     4   2   4   4   2   4
#     4  11  22  38  65  89 126 166 217 265 317 385
#     4  12  24  42  67  93 130 174 215 261 330 389
#     4  10  20  36  63  91 119 163 218 261 315 390
#     4  10  21  39  63  89 126 166 215 263 316 383
#     4  12  23  41  67  99 127 169 221 271 313 382
#     4  10  22  40  60  89 130 168 206 264 332 385
#
# _framework density 21.603490000000001
#
# number of rings (size 3 to 8) (size 9 to 14) (size 15 to 20)
#    0.000    1.400    4.000    3.300    0.000    7.600 
#    0.000    0.500    0.000    4.200    0.000    0.000 
#    0.000    0.000    0.000    0.000    0.000    0.000 
#
# Total GULP energy -247816.699535 kJ/mol
# GULP energy per Si atom -12390.834977 kJ/mol
# Density = 2.155432 g / cm^3
# Si number density = 21.603490 Si / 1000 Ang^3
#
#
#
# Elastic Constant Matrix: (Units=GPa)
#
#
# Indices 1 2 3 4 5 6 
#
# 1 153.9967 38.5891 34.4611 0.0000 23.9824 0.0000
# 2 38.5891 129.3374 17.5493 0.0000 15.9240 0.0000
# 3 34.4611 17.5493 45.3538 0.0000 10.0546 0.0000
# 4 0.0000 0.0000 0.0000 3.9533 0.0000 10.5122
# 5 23.9824 15.9240 10.0546 0.0000 31.8646 0.0000
# 6 0.0000 0.0000 0.0000 10.5122 0.0000 20.9121
#
#
#
# Elastic Compliance Matrix: (Units=1/GPa)
#
#
# Indices 1 2 3 4 5 6 
#
# 1 0.008632 -0.001366 -0.005098 0.000000 -0.004205 0.000000
# 2 -0.001366 0.008715 -0.001717 0.000000 -0.002786 0.000000
# 3 -0.005098 -0.001717 0.027467 0.000000 -0.003972 0.000000
# 4 0.000000 0.000000 0.000000 -0.751300 0.000000 0.377667
# 5 -0.004205 -0.002786 -0.003972 0.000000 0.037193 0.000000
# 6 0.000000 0.000000 0.000000 0.377667 0.000000 -0.142028
#
#
# Mechanical properties :
#
#
# Convention : Reuss Voigt Hill
#
# Bulk Modulus (GPa) = 35.14570 56.65410 45.89990
# Shear Modulus (GPa) = -6.36558 27.21855 10.42649
#
# Velocity S-wave (km/s) = -1.71841 3.55338 2.19927
# Velocity P-wave (km/s) = 3.51662 6.56634 5.26704
#
# Compressibility (1/GPa) = 0.02845298
#
# Stress axis : x y z
#
# Youngs Moduli (GPa) = 115.85374 114.74268 36.40706
#
# Poissons Ratio (x) = 0.15672 0.18559
# Poissons Ratio (y) = 0.15824 0.06251
# Poissons Ratio (z) = 0.59059 0.19700
#
# Static dielectric constant tensor:
#      x y z
#    x 4.880280 0.000000 0.185770 
#    y 0.000000 4.120780 0.000000 
#    z 0.185770 0.000000 3.563390 
# 
# 
# High freq. dielectric constant tensor:
#      x y z
#    x 1.873750 0.000000 0.014110 
#    y 0.000000 1.858600 0.000000 
#    z 0.014110 0.000000 1.811280 
# 
# From -- ./inp_files/75032.got.cif
#   From: 2010.06.25/outbox.cif.g09.slc.cpg/sg10_38_cif.got.tgz:75032.got - 2010.06.27 22:07:45.
