data_PCOD8065980
_publ_section_title
;
Structure prediction by ZEFSAII (Michael W. Deem and Ramdas Pophale) SiO2 
 PCOD8065980
Probable space group: P 2/M
;
_chemical_formula_sum "Si O2"
_cell_formula_units_Z 28
_cell_length_a 9.124850
_cell_length_b 7.764669
_cell_length_c 30.212173
_cell_angle_alpha 90.000000
_cell_angle_beta 40.969047
_cell_angle_gamma 90.000000
_cell_volume 1403.471230
_symmetry_space_group_name_H-M "P 2/M"
_symmetry_group_IT_number 10
_symmetry_cell_setting 'monoclinic'
loop_
_space_group_symop_operation_xyz
x,y,z
-x,y,-z
-x,-y,-z
x,-y,z
loop_
_atom_site_type_symbol
_atom_site_label
_atom_site_fract_x
_atom_site_fract_y
_atom_site_fract_z
Si Si1 0.485819 0.500000 0.575088
Si Si2 0.756548 0.302126 0.061834
Si Si3 0.937416 0.798024 0.191611
Si Si4 0.138741 0.500000 0.575088
Si Si5 0.242344 0.802988 0.671769
Si Si6 0.565718 0.697874 0.938166
Si Si7 0.101187 0.197012 0.328231
Si Si8 0.395472 0.201976 0.808389
O O1 0.324737 0.500000 0.570105
O O2 0.742749 0.500000 0.500000
O O3 0.442741 0.674005 0.612978
O O4 0.779616 0.500000 0.043499
O O5 0.578629 0.214324 0.068548
O O6 0.670681 0.291190 0.131184
O O7 0.000000 0.212706 0.000000
O O8 0.839713 0.746550 0.261344
O O9 0.767066 0.730340 0.193174
O O10 0.173402 0.708810 0.131184
O O11 0.973696 0.000000 0.179812
O O12 0.992369 0.325995 0.612978
O O13 0.033623 0.781788 0.686551
O O14 0.332587 0.000000 0.650553
O O15 0.497111 0.500000 0.956501
O O16 0.500000 0.787293 0.000000
O O17 0.353569 0.253451 0.261344
O O18 0.085353 0.000000 0.349447
O O19 0.372760 0.000000 0.820187
#
# Coordination Sequence:
#
# PCOD8065980 Si02
#       8
#     2   4   4   2   4   4   4   4
#     4   9  18  32  53  83 112 139 178 223 269 327
#     4  10  21  36  54  77 106 140 179 223 271 322
#     4  10  21  36  54  77 105 139 180 224 271 322
#     4   9  18  32  53  83 112 139 178 223 269 327
#     4   9  18  33  53  78 109 143 180 225 274 323
#     4  10  21  36  54  77 106 140 179 223 271 322
#     4   9  18  33  53  78 109 143 180 225 274 323
#     4  10  21  36  54  77 105 139 180 224 271 322
#
# _framework density 19.950533
#
# number of rings (size 3 to 8) (size 9 to 14) (size 15 to 20)
#    0.000    2.429    0.000    1.714    2.000    4.571 
#    0.000    2.857    0.000    1.714    0.000    4.000 
#    0.000    0.000    0.000    0.000    0.000    0.000 
#
# Total GULP energy -347164.482578 kJ/mol
# GULP energy per Si atom -12398.731521 kJ/mol
# Density = 1.990512 g / cm^3
# Si number density = 19.950533 Si / 1000 Ang^3
#
#
#
# Elastic Constant Matrix: (Units=GPa)
#
#
# Indices 1 2 3 4 5 6 
#
# 1 119.7820 30.7102 75.1037 0.0000 0.0923 0.0000
# 2 30.7102 71.0583 60.9602 0.0000 0.3751 0.0000
# 3 75.1037 60.9602 178.9908 0.0000 0.6417 0.0000
# 4 0.0000 0.0000 0.0000 -49.4712 0.0000 -0.7856
# 5 0.0923 0.3751 0.6417 0.0000 26.0699 0.0000
# 6 0.0000 0.0000 0.0000 -0.7856 0.0000 14.0152
#
#
#
# Elastic Compliance Matrix: (Units=1/GPa)
#
#
# Indices 1 2 3 4 5 6 
#
# 1 0.011397 -0.001163 -0.004386 0.000000 0.000084 0.000000
# 2 -0.001163 0.020001 -0.006323 0.000000 -0.000128 0.000000
# 3 -0.004386 -0.006323 0.009581 0.000000 -0.000129 0.000000
# 4 0.000000 0.000000 0.000000 -0.020196 0.000000 -0.001132
# 5 0.000084 -0.000128 -0.000129 0.000000 0.038363 0.000000
# 6 0.000000 0.000000 0.000000 -0.001132 0.000000 0.071288
#
#
# Mechanical properties :
#
#
# Convention : Reuss Voigt Hill
#
# Bulk Modulus (GPa) = 58.02538 78.15328 68.08933
# Shear Modulus (GPa) = 31.26479 11.65991 21.46235
#
# Velocity S-wave (km/s) = 3.96298 2.42014 3.28346
# Velocity P-wave (km/s) = 7.07729 6.86062 6.96979
#
# Compressibility (1/GPa) = 0.01723384
#
# Stress axis : x y z
#
# Youngs Moduli (GPa) = 87.74385 49.99726 104.36866
#
# Poissons Ratio (x) = 0.05815 0.45779
# Poissons Ratio (y) = 0.10205 0.65997
# Poissons Ratio (z) = 0.38487 0.31616
#
# Static dielectric constant tensor:
#      x y z
#    x 3.780100 0.000000 -0.001070 
#    y 0.000000 3.553920 0.000000 
#    z -0.001070 0.000000 3.693630 
# 
# 
# High freq. dielectric constant tensor:
#      x y z
#    x 1.769790 0.000000 0.000080 
#    y 0.000000 1.772110 0.000000 
#    z 0.000080 0.000000 1.776460 
# 
# From -- ./inp_files/94517.got.cif
#   From: 2010.06.25/outbox.cif.g09.slc.cpg/sg10_48_cif.got.tgz:94517.got - 2010.06.27 22:07:45.
