data_PCOD8065934
_publ_section_title
;
Structure prediction by ZEFSAII (Michael W. Deem and Ramdas Pophale) SiO2 
 PCOD8065934
Probable space group: P 2/M
;
_chemical_formula_sum "Si O2"
_cell_formula_units_Z 32
_cell_length_a 26.645331
_cell_length_b 14.441734
_cell_length_c 9.156519
_cell_angle_alpha 90.000000
_cell_angle_beta 148.979526
_cell_angle_gamma 90.000000
_cell_volume 1815.801513
_symmetry_space_group_name_H-M "P 2/M"
_symmetry_group_IT_number 10
_symmetry_cell_setting 'monoclinic'
loop_
_space_group_symop_operation_xyz
x,y,z
-x,y,-z
-x,-y,-z
x,-y,z
loop_
_atom_site_type_symbol
_atom_site_label
_atom_site_fract_x
_atom_site_fract_y
_atom_site_fract_z
Si Si1 0.641953 0.606247 0.741599
Si Si2 0.576253 0.605688 0.896988
Si Si3 0.393880 0.242830 0.801339
Si Si4 0.715343 0.772330 0.763387
Si Si5 0.398401 0.894089 0.310087
Si Si6 0.296749 0.893931 0.761467
Si Si7 0.100805 0.107643 0.831292
Si Si8 0.907958 0.109137 0.854014
O O1 0.677614 0.500000 0.817466
O O2 0.629058 0.635424 0.878302
O O3 0.539542 0.619341 0.403760
O O4 0.720689 0.673784 0.861470
O O5 0.601076 0.500000 0.993425
O O6 0.618093 0.663611 0.135609
O O7 0.311007 0.243692 0.470905
O O8 0.378942 0.156774 0.872171
O O9 0.500000 0.233723 0.000000
O O10 0.629517 0.833459 0.620367
O O11 0.816857 0.826816 0.032858
O O12 0.500000 0.856059 0.500000
O O13 0.410673 0.000000 0.391883
O O14 0.315567 0.883642 0.980414
O O15 0.190852 0.850512 0.463009
O O16 0.301956 0.000000 0.724189
O O17 0.000000 0.127755 0.500000
O O18 0.132358 0.000000 0.891621
O O19 0.086012 0.134949 0.961886
O O20 0.909344 0.000000 0.832971
O O21 0.000000 0.154269 0.000000
#
# Coordination Sequence:
#
# PCOD8065934 Si02
#       8
#     4   4   4   4   4   4   4   4
#     4   9  19  36  58  80 107 146 186 225 266 322
#     4   9  19  36  55  77 109 147 186 224 266 317
#     4  12  22  32  50  79 114 149 177 218 274 322
#     4  12  22  33  56  82 114 142 183 229 276 334
#     4  10  22  36  50  72 107 154 195 221 257 320
#     4  10  21  36  51  72 106 145 189 226 264 320
#     4  10  22  39  57  80 111 144 184 234 284 326
#     4   9  18  34  55  75  98 133 180 230 275 318
#
# _framework density 17.623070999999999
#
# number of rings (size 3 to 8) (size 9 to 14) (size 15 to 20)
#    0.000    1.875    2.500    2.625    3.500    1.500 
#    0.000    0.000    0.000    0.375    0.000    0.000 
#    0.000    3.000    0.000    0.000    0.000    0.000 
#
# Total GULP energy -396861.447082 kJ/mol
# GULP energy per Si atom -12401.920221 kJ/mol
# Density = 1.758296 g / cm^3
# Si number density = 17.623071 Si / 1000 Ang^3
#
#
#
# Elastic Constant Matrix: (Units=GPa)
#
#
# Indices 1 2 3 4 5 6 
#
# 1 86.8878 52.0294 31.3180 0.0000 0.1501 0.0000
# 2 52.0294 84.0750 30.8517 0.0000 3.4930 0.0000
# 3 31.3180 30.8517 89.1669 0.0000 -4.2125 0.0000
# 4 0.0000 0.0000 0.0000 16.5850 0.0000 -0.3332
# 5 0.1501 3.4930 -4.2125 0.0000 24.5726 0.0000
# 6 0.0000 0.0000 0.0000 -0.3332 0.0000 30.1923
#
#
#
# Elastic Compliance Matrix: (Units=1/GPa)
#
#
# Indices 1 2 3 4 5 6 
#
# 1 0.018970 -0.010707 -0.002915 0.000000 0.000906 0.000000
# 2 -0.010707 0.019857 -0.003266 0.000000 -0.003317 0.000000
# 3 -0.002915 -0.003266 0.013501 0.000000 0.002797 0.000000
# 4 0.000000 0.000000 0.000000 0.060309 0.000000 0.000666
# 5 0.000906 -0.003317 0.002797 0.000000 0.041641 0.000000
# 6 0.000000 0.000000 0.000000 0.000666 0.000000 0.033128
#
#
# Mechanical properties :
#
#
# Convention : Reuss Voigt Hill
#
# Bulk Modulus (GPa) = 53.90877 54.28088 54.09482
# Shear Modulus (GPa) = 21.99080 23.99869 22.99474
#
# Velocity S-wave (km/s) = 3.53631 3.69423 3.61613
# Velocity P-wave (km/s) = 6.87970 7.00459 6.94243
#
# Compressibility (1/GPa) = 0.01854986
#
# Stress axis : x y z
#
# Youngs Moduli (GPa) = 52.71475 50.36054 74.06780
#
# Poissons Ratio (x) = 0.53923 0.21593
# Poissons Ratio (y) = 0.56444 0.24194
# Poissons Ratio (z) = 0.15368 0.16450
#
# Static dielectric constant tensor:
#      x y z
#    x 3.315500 0.000000 -0.080860 
#    y 0.000000 3.191230 0.000000 
#    z -0.080860 0.000000 3.230110 
# 
# 
# High freq. dielectric constant tensor:
#      x y z
#    x 1.683590 0.000000 -0.016790 
#    y 0.000000 1.664110 0.000000 
#    z -0.016790 0.000000 1.667360 
# 
# From -- ./inp_files/29536.got.cif
#   From: 2010.06.25/outbox.cif.g09.slc.cpg/sg10_15_cif.got.tgz:29536.got - 2010.06.27 22:07:45.
