data_PCOD8065872
_publ_section_title
;
Structure prediction by ZEFSAII (Michael W. Deem and Ramdas Pophale) SiO2 
 PCOD8065872
Probable space group: P 2/M
;
_chemical_formula_sum "Si O2"
_cell_formula_units_Z 28
_cell_length_a 28.918463
_cell_length_b 9.036790
_cell_length_c 9.171841
_cell_angle_alpha 90.000000
_cell_angle_beta 37.965071
_cell_angle_gamma 90.000000
_cell_volume 1474.513680
_symmetry_space_group_name_H-M "P 2/M"
_symmetry_group_IT_number 10
_symmetry_cell_setting 'monoclinic'
loop_
_space_group_symop_operation_xyz
x,y,z
-x,y,-z
-x,-y,-z
x,-y,z
loop_
_atom_site_type_symbol
_atom_site_label
_atom_site_fract_x
_atom_site_fract_y
_atom_site_fract_z
Si Si1 0.489366 0.828716 0.194332
Si Si2 0.776659 0.174197 0.474843
Si Si3 0.358865 0.325172 0.689079
Si Si4 0.936597 0.168529 0.770362
Si Si5 0.928315 0.673854 0.088227
Si Si6 0.635877 0.172569 0.016612
Si Si7 0.767612 0.168408 0.164279
O O1 0.423119 0.729242 0.420856
O O2 0.565607 0.792034 0.089037
O O3 0.466685 0.000000 0.268470
O O4 0.500000 0.786653 0.000000
O O5 0.853080 0.251092 0.338828
O O6 0.756941 0.221189 0.358189
O O7 0.790171 0.000000 0.446295
O O8 0.710156 0.224993 0.746555
O O9 0.360051 0.500000 0.694162
O O10 0.373510 0.263133 0.812994
O O11 0.278591 0.272680 0.828557
O O12 0.000000 0.216917 0.500000
O O13 0.948859 0.000000 0.794906
O O14 0.942911 0.281051 0.886631
O O15 0.854600 0.182026 0.900490
O O16 0.917387 0.500000 0.127235
O O17 0.000000 0.729633 0.000000
O O18 0.640281 0.000000 0.044926
O O19 0.738795 0.000000 0.218429
#
# Coordination Sequence:
#
# PCOD8065872 Si02
#       7
#     4   4   4   4   4   4   4
#     4  10  21  40  65  86 106 139 183 227 271 321
#     4   9  19  37  61  84 104 136 186 235 274 318
#     4  12  25  37  53  82 118 150 180 218 266 322
#     4   9  19  36  58  82 106 138 185 236 277 317
#     4  10  21  35  52  79 115 150 181 218 271 333
#     4  10  21  38  60  84 110 142 180 225 275 321
#     4   9  18  36  59  81 107 140 183 230 274 324
#
# _framework density 18.989311000000001
#
# number of rings (size 3 to 8) (size 9 to 14) (size 15 to 20)
#    0.000    2.143    0.000    3.857    0.000   10.286 
#    0.000    5.714    0.000    0.000    0.000    0.000 
#    0.000    0.000    0.000    0.000    0.000    0.000 
#
# Total GULP energy -347291.538185 kJ/mol
# GULP energy per Si atom -12403.269221 kJ/mol
# Density = 1.894609 g / cm^3
# Si number density = 18.989311 Si / 1000 Ang^3
#
#
#
# Elastic Constant Matrix: (Units=GPa)
#
#
# Indices 1 2 3 4 5 6 
#
# 1 132.3365 55.5118 55.8921 0.0000 -6.1462 0.0000
# 2 55.5118 67.7026 39.5546 0.0000 -3.3979 0.0000
# 3 55.8921 39.5546 127.3113 0.0000 -4.4583 0.0000
# 4 0.0000 0.0000 0.0000 17.5213 0.0000 -3.7841
# 5 -6.1462 -3.3979 -4.4583 0.0000 27.4657 0.0000
# 6 0.0000 0.0000 0.0000 -3.7841 0.0000 21.2383
#
#
#
# Elastic Compliance Matrix: (Units=1/GPa)
#
#
# Indices 1 2 3 4 5 6 
#
# 1 0.012308 -0.008427 -0.002741 0.000000 0.001267 0.000000
# 2 -0.008427 0.023864 -0.003699 0.000000 0.000466 0.000000
# 3 -0.002741 -0.003699 0.010228 0.000000 0.000589 0.000000
# 4 0.000000 0.000000 0.000000 0.059357 0.000000 0.010576
# 5 0.001267 0.000466 0.000589 0.000000 0.036846 0.000000
# 6 0.000000 0.000000 0.000000 0.010576 0.000000 0.048969
#
#
# Mechanical properties :
#
#
# Convention : Reuss Voigt Hill
#
# Bulk Modulus (GPa) = 59.99738 69.91858 64.95798
# Shear Modulus (GPa) = 22.04004 25.00452 23.52228
#
# Velocity S-wave (km/s) = 3.41053 3.63267 3.52335
# Velocity P-wave (km/s) = 6.86826 7.38207 7.12979
#
# Compressibility (1/GPa) = 0.01666739
#
# Stress axis : x y z
#
# Youngs Moduli (GPa) = 81.25007 41.90409 97.77265
#
# Poissons Ratio (x) = 0.35311 0.26798
# Poissons Ratio (y) = 0.68466 0.36162
# Poissons Ratio (z) = 0.22270 0.15499
#
# Static dielectric constant tensor:
#      x y z
#    x 3.508060 0.000000 -0.108030 
#    y 0.000000 3.334490 0.000000 
#    z -0.108030 0.000000 3.656380 
# 
# 
# High freq. dielectric constant tensor:
#      x y z
#    x 1.741790 0.000000 -0.008850 
#    y 0.000000 1.725470 0.000000 
#    z -0.008850 0.000000 1.749000 
# 
# From -- ./inp_files/36925.got.cif
#   From: 2010.06.25/outbox.cif.g09.slc.cpg/sg10_19_cif.got.tgz:36925.got - 2010.06.27 22:07:45.
