data_PCOD8065828
_publ_section_title
;
Structure prediction by ZEFSAII (Michael W. Deem and Ramdas Pophale) SiO2 
 PCOD8065828
Probable space group: P 2/M
;
_chemical_formula_sum "Si O2"
_cell_formula_units_Z 16
_cell_length_a 22.580084
_cell_length_b 8.883569
_cell_length_c 10.076983
_cell_angle_alpha 90.000000
_cell_angle_beta 26.503628
_cell_angle_gamma 90.000000
_cell_volume 902.040731
_symmetry_space_group_name_H-M "P 2/M"
_symmetry_group_IT_number 10
_symmetry_cell_setting 'monoclinic'
loop_
_space_group_symop_operation_xyz
x,y,z
-x,y,-z
-x,-y,-z
x,-y,z
loop_
_atom_site_type_symbol
_atom_site_label
_atom_site_fract_x
_atom_site_fract_y
_atom_site_fract_z
Si Si1 0.886616 0.678190 0.127841
Si Si2 0.103642 0.322518 0.189083
Si Si3 0.390965 0.823203 0.327133
Si Si4 0.401074 0.678201 0.584470
O O1 0.865635 0.500000 0.179219
O O2 0.748002 0.754633 0.443592
O O3 0.931100 0.727810 0.890922
O O4 0.000000 0.735395 0.000000
O O5 0.092006 0.500000 0.224129
O O6 0.000000 0.246343 0.500000
O O7 0.253125 0.272066 0.924781
O O8 0.439658 0.754564 0.368673
O O9 0.373915 0.000000 0.378333
O O10 0.500000 0.780212 0.000000
O O11 0.500000 0.735405 0.500000
O O12 0.410422 0.500000 0.544852
#
# Coordination Sequence:
#
# PCOD8065828 Si02
#       4
#     4   4   4   4
#     4   9  18  32  51  74  97 125 164 208 252 294
#     4   8  14  26  44  67  94 119 147 190 242 292
#     4  10  21  35  50  71 102 139 173 204 244 296
#     4   9  18  32  51  74  97 125 164 208 252 294
#
# _framework density 17.737556999999999
#
# number of rings (size 3 to 8) (size 9 to 14) (size 15 to 20)
#    0.000    3.000    0.000    2.250    0.000    5.000 
#    0.000    5.000    0.000   12.000    0.000    0.000 
#    0.000    0.000    0.000    0.000    0.000    0.000 
#
# Total GULP energy -198363.038282 kJ/mol
# GULP energy per Si atom -12397.689893 kJ/mol
# Density = 1.769719 g / cm^3
# Si number density = 17.737557 Si / 1000 Ang^3
#
#
#
# Elastic Constant Matrix: (Units=GPa)
#
#
# Indices 1 2 3 4 5 6 
#
# 1 186.2367 36.9897 104.4596 0.0000 -17.7185 0.0000
# 2 36.9897 39.0067 42.0557 0.0000 1.4231 0.0000
# 3 104.4596 42.0557 166.0761 0.0000 12.4800 0.0000
# 4 0.0000 0.0000 0.0000 21.4705 0.0000 3.3456
# 5 -17.7185 1.4231 12.4800 0.0000 16.7862 0.0000
# 6 0.0000 0.0000 0.0000 3.3456 0.0000 9.3262
#
#
#
# Elastic Compliance Matrix: (Units=1/GPa)
#
#
# Indices 1 2 3 4 5 6 
#
# 1 0.012960 -0.003559 -0.008792 0.000000 0.020519 0.000000
# 2 -0.003559 0.036481 -0.006869 0.000000 -0.001743 0.000000
# 3 -0.008792 -0.006869 0.014770 0.000000 -0.019679 0.000000
# 4 0.000000 0.000000 0.000000 0.049333 0.000000 -0.017697
# 5 0.020519 -0.001743 -0.019679 0.000000 0.096010 0.000000
# 6 0.000000 0.000000 0.000000 -0.017697 0.000000 0.113573
#
#
# Mechanical properties :
#
#
# Convention : Reuss Voigt Hill
#
# Bulk Modulus (GPa) = 38.80370 84.25883 61.53127
# Shear Modulus (GPa) = 13.50780 23.37087 18.43934
#
# Velocity S-wave (km/s) = 2.76259 3.63380 3.22773
# Velocity P-wave (km/s) = 5.66568 8.07541 6.97539
#
# Compressibility (1/GPa) = 0.02577074
#
# Stress axis : x y z
#
# Youngs Moduli (GPa) = 77.15951 27.41188 67.70550
#
# Poissons Ratio (x) = 0.09756 0.59530
# Poissons Ratio (y) = 0.27460 0.46504
# Poissons Ratio (z) = 0.67842 0.18828
#
# Static dielectric constant tensor:
#      x y z
#    x 3.496350 0.000000 0.007230 
#    y 0.000000 2.981680 0.000000 
#    z 0.007230 0.000000 3.523440 
# 
# 
# High freq. dielectric constant tensor:
#      x y z
#    x 1.691610 0.000000 -0.000190 
#    y 0.000000 1.656320 0.000000 
#    z -0.000190 0.000000 1.690880 
# 
# From -- ./inp_files/21314.got.cif
#   From: 2010.06.25/outbox.cif.g09.slc.cpg/sg10_11_cif.got.tgz:21314.got - 2010.06.27 22:07:45.
