data_PCOD8065209
_publ_section_title
;
Structure prediction by ZEFSAII (Michael W. Deem and Ramdas Pophale) SiO2 
 PCOD8065209
Probable space group: P 2/M
;
_chemical_formula_sum "Si O2"
_cell_formula_units_Z 28
_cell_length_a 20.920849
_cell_length_b 9.178474
_cell_length_c 15.312118
_cell_angle_alpha 90.000000
_cell_angle_beta 151.666220
_cell_angle_gamma 90.000000
_cell_volume 1395.466469
_symmetry_space_group_name_H-M "P 2/M"
_symmetry_group_IT_number 10
_symmetry_cell_setting 'monoclinic'
loop_
_space_group_symop_operation_xyz
x,y,z
-x,y,-z
-x,-y,-z
x,-y,z
loop_
_atom_site_type_symbol
_atom_site_label
_atom_site_fract_x
_atom_site_fract_y
_atom_site_fract_z
Si Si1 0.440175 0.171632 0.832798
Si Si2 0.897063 0.172093 0.802970
Si Si3 0.866560 0.827557 0.569674
Si Si4 0.625819 0.328822 0.755700
Si Si5 0.325869 0.671438 0.371216
Si Si6 0.924150 0.839245 0.319955
Si Si7 0.665361 0.672975 0.994937
O O1 0.285511 0.228130 0.635765
O O2 0.450597 0.000000 0.826318
O O3 0.500000 0.209124 0.000000
O O4 0.530697 0.257005 0.871797
O O5 0.920754 0.220685 0.730938
O O6 0.754129 0.237458 0.654628
O O7 0.892301 0.000000 0.804146
O O8 0.000000 0.235756 0.000000
O O9 0.975792 0.766314 0.631752
O O10 0.861810 0.000000 0.555347
O O11 0.610230 0.500000 0.737826
O O12 0.716426 0.286174 0.780070
O O13 0.475705 0.269289 0.564489
O O14 0.686046 0.274949 0.919203
O O15 0.307067 0.500000 0.366506
O O16 0.800818 0.735400 0.199613
O O17 0.000000 0.862179 0.500000
O O18 0.874245 0.000000 0.227886
O O19 0.656087 0.500000 0.995555
#
# Coordination Sequence:
#
# PCOD8065209 Si02
#       7
#     4   4   4   4   4   4   4
#     4  10  20  37  61  84 106 141 189 234 275 328
#     4  10  21  34  49  74 110 144 173 217 275 325
#     4   9  19  36  57  80 110 145 184 231 279 327
#     4   8  17  33  53  77 106 139 174 220 269 314
#     4   9  17  34  56  74 100 141 185 220 256 310
#     4  10  21  39  61  82 107 146 192 231 271 327
#     4  11  22  35  55  85 117 143 176 226 284 335
#
# _framework density 20.064975
#
# number of rings (size 3 to 8) (size 9 to 14) (size 15 to 20)
#    0.000    2.429    0.000    3.000    2.000    3.143 
#    0.000    4.286    0.000    0.000    0.000    0.000 
#    0.000    0.000    0.000    0.000    0.000    0.000 
#
# Total GULP energy -346932.336927 kJ/mol
# GULP energy per Si atom -12390.440605 kJ/mol
# Density = 2.001931 g / cm^3
# Si number density = 20.064975 Si / 1000 Ang^3
#
#
#
# Elastic Constant Matrix: (Units=GPa)
#
#
# Indices 1 2 3 4 5 6 
#
# 1 110.3177 24.9415 19.5923 0.0000 5.1432 0.0000
# 2 24.9415 26.1221 17.5687 0.0000 -1.7763 0.0000
# 3 19.5923 17.5687 77.3577 0.0000 -1.7683 0.0000
# 4 0.0000 0.0000 0.0000 15.5469 0.0000 -6.8718
# 5 5.1432 -1.7763 -1.7683 0.0000 35.1375 0.0000
# 6 0.0000 0.0000 0.0000 -6.8718 0.0000 51.6135
#
#
#
# Elastic Compliance Matrix: (Units=1/GPa)
#
#
# Indices 1 2 3 4 5 6 
#
# 1 0.011760 -0.011031 -0.000526 0.000000 -0.002305 0.000000
# 2 -0.011031 0.055642 -0.009753 0.000000 0.003937 0.000000
# 3 -0.000526 -0.009753 0.015283 0.000000 0.000353 0.000000
# 4 0.000000 0.000000 0.000000 0.068344 0.000000 0.009099
# 5 -0.002305 0.003937 0.000353 0.000000 0.029014 0.000000
# 6 0.000000 0.000000 0.000000 0.009099 0.000000 0.020586
#
#
# Mechanical properties :
#
#
# Convention : Reuss Voigt Hill
#
# Bulk Modulus (GPa) = 24.95972 37.55583 31.25777
# Shear Modulus (GPa) = 19.48537 30.57257 25.02897
#
# Velocity S-wave (km/s) = 3.11965 3.90767 3.53568
# Velocity P-wave (km/s) = 5.04408 6.25440 5.68156
#
# Compressibility (1/GPa) = 0.04006455
#
# Stress axis : x y z
#
# Youngs Moduli (GPa) = 85.03677 17.97216 65.43156
#
# Poissons Ratio (x) = 0.19826 0.03440
# Poissons Ratio (y) = 0.93807 0.63815
# Poissons Ratio (z) = 0.04471 0.17528
#
# Static dielectric constant tensor:
#      x y z
#    x 3.661700 0.000000 0.283750 
#    y 0.000000 3.242210 0.000000 
#    z 0.283750 0.000000 2.978960 
# 
# 
# High freq. dielectric constant tensor:
#      x y z
#    x 1.798730 0.000000 -0.008160 
#    y 0.000000 1.743800 0.000000 
#    z -0.008160 0.000000 1.785660 
# 
# From -- ./inp_files/70290.got.cif
#   From: 2010.06.25/outbox.cif.g09.slc.cpg/sg10_36_cif.got.tgz:70290.got - 2010.06.27 22:07:45.
