data_PCOD8065983
_publ_section_title
;
Structure prediction by ZEFSAII (Michael W. Deem and Ramdas Pophale) SiO2 
 PCOD8065983
Probable space group: P 2/M
;
_chemical_formula_sum "Si O2"
_cell_formula_units_Z 20
_cell_length_a 10.437394
_cell_length_b 9.502195
_cell_length_c 10.295847
_cell_angle_alpha 90.000000
_cell_angle_beta 99.111578
_cell_angle_gamma 90.000000
_cell_volume 1008.238382
_symmetry_space_group_name_H-M "P 2/M"
_symmetry_group_IT_number 10
_symmetry_cell_setting 'monoclinic'
loop_
_space_group_symop_operation_xyz
x,y,z
-x,y,-z
-x,-y,-z
x,-y,z
loop_
_atom_site_type_symbol
_atom_site_label
_atom_site_fract_x
_atom_site_fract_y
_atom_site_fract_z
Si Si1 0.136357 0.336363 0.457420
Si Si2 0.162626 0.836398 0.930633
Si Si3 0.111601 0.833620 0.202317
Si Si4 0.570017 0.835503 0.141090
Si Si5 0.584728 0.662621 0.389861
O O1 0.126556 0.500000 0.419313
O O2 0.167876 0.249071 0.333318
O O3 0.261154 0.307725 0.568698
O O4 0.000000 0.285478 0.500000
O O5 0.279211 0.800687 0.854391
O O6 0.033584 0.773191 0.845895
O O7 0.134476 0.000000 0.937623
O O8 0.191164 0.789670 0.084608
O O9 0.118523 0.000000 0.233756
O O10 0.526231 0.751391 0.260880
O O11 0.541163 0.000000 0.158711
O O12 0.500000 0.781420 0.000000
O O13 0.500000 0.709235 0.500000
O O14 0.560309 0.500000 0.354678
#
# Coordination Sequence:
#
# PCOD8065983 Si02
#       5
#     4   4   4   4   4
#     4  10  21  36  54  77 108 141 179 227 272 313
#     4   8  16  32  51  78 112 139 170 220 275 322
#     4   9  17  31  55  79 104 140 178 218 268 326
#     4  10  21  36  57  83 111 141 181 230 274 319
#     4  10  23  41  57  78 113 151 184 222 272 330
#
# _framework density 19.836579
#
# number of rings (size 3 to 8) (size 9 to 14) (size 15 to 20)
#    0.000    2.600    0.000    2.400    2.800    2.000 
#    0.000    3.000    0.000    0.000    0.000    0.000 
#    0.000    0.000    0.000    0.000    0.000    0.000 
#
# Total GULP energy -247892.555152 kJ/mol
# GULP energy per Si atom -12394.627758 kJ/mol
# Density = 1.979143 g / cm^3
# Si number density = 19.836579 Si / 1000 Ang^3
#
#
#
# Elastic Constant Matrix: (Units=GPa)
#
#
# Indices 1 2 3 4 5 6 
#
# 1 56.0599 18.9037 24.6764 0.0000 -2.6420 0.0000
# 2 18.9037 52.5261 62.1656 0.0000 1.2415 0.0000
# 3 24.6764 62.1656 145.1272 0.0000 0.9581 0.0000
# 4 0.0000 0.0000 0.0000 18.0731 0.0000 -0.9716
# 5 -2.6420 1.2415 0.9581 0.0000 25.7540 0.0000
# 6 0.0000 0.0000 0.0000 -0.9716 0.0000 16.9786
#
#
#
# Elastic Compliance Matrix: (Units=1/GPa)
#
#
# Indices 1 2 3 4 5 6 
#
# 1 0.020485 -0.006671 -0.000642 0.000000 0.002447 0.000000
# 2 -0.006671 0.040826 -0.016340 0.000000 -0.002044 0.000000
# 3 -0.000642 -0.016340 0.013998 0.000000 0.000201 0.000000
# 4 0.000000 0.000000 0.000000 0.055502 0.000000 0.003176
# 5 0.002447 -0.002044 0.000201 0.000000 0.039171 0.000000
# 6 0.000000 0.000000 0.000000 0.003176 0.000000 0.059079
#
#
# Mechanical properties :
#
#
# Convention : Reuss Voigt Hill
#
# Bulk Modulus (GPa) = 35.70967 51.68942 43.69955
# Shear Modulus (GPa) = 17.50078 22.02563 19.76321
#
# Velocity S-wave (km/s) = 2.97349 3.33581 3.15985
# Velocity P-wave (km/s) = 5.46167 6.39930 5.94899
#
# Compressibility (1/GPa) = 0.02800362
#
# Stress axis : x y z
#
# Youngs Moduli (GPa) = 48.81551 24.49406 71.43997
#
# Poissons Ratio (x) = 0.16339 0.04586
# Poissons Ratio (y) = 0.32562 1.16735
# Poissons Ratio (z) = 0.03134 0.40024
#
# Static dielectric constant tensor:
#      x y z
#    x 0.986220 0.000000 0.649890 
#    y 0.000000 3.232280 0.000000 
#    z 0.649890 0.000000 3.355110 
# 
# 
# High freq. dielectric constant tensor:
#      x y z
#    x 1.779630 0.000000 -0.002900 
#    y 0.000000 1.737900 0.000000 
#    z -0.002900 0.000000 1.779670 
# 
# From -- ./inp_files/22257.got.cif
#   From: 2010.06.25/outbox.cif.g09.slc.cpg/sg10_12_cif.got.tgz:22257.got - 2010.06.27 22:07:45.
