data_PCOD8065510
_publ_section_title
;
Structure prediction by ZEFSAII (Michael W. Deem and Ramdas Pophale) SiO2 
 PCOD8065510
Probable space group: P 2/M
;
_chemical_formula_sum "Si O2"
_cell_formula_units_Z 32
_cell_length_a 12.779465
_cell_length_b 9.067721
_cell_length_c 29.860250
_cell_angle_alpha 90.000000
_cell_angle_beta 152.084751
_cell_angle_gamma 90.000000
_cell_volume 1619.955972
_symmetry_space_group_name_H-M "P 2/M"
_symmetry_group_IT_number 10
_symmetry_cell_setting 'monoclinic'
loop_
_space_group_symop_operation_xyz
x,y,z
-x,y,-z
-x,-y,-z
x,-y,z
loop_
_atom_site_type_symbol
_atom_site_label
_atom_site_fract_x
_atom_site_fract_y
_atom_site_fract_z
Si Si1 0.755050 0.168735 0.597891
Si Si2 0.343201 0.168937 0.225412
Si Si3 0.070256 0.167250 0.796506
Si Si4 0.070085 0.674038 0.888940
Si Si5 0.514221 0.828505 0.909951
Si Si6 0.413966 0.830560 0.771554
Si Si7 0.037658 0.326062 0.404482
Si Si8 0.783324 0.172730 0.446034
O O1 0.500000 0.220701 0.500000
O O2 0.899257 0.274330 0.621188
O O3 0.845607 0.185035 0.682532
O O4 0.781130 0.000000 0.591142
O O5 0.387232 0.188679 0.189077
O O6 0.561663 0.218152 0.335538
O O7 0.137053 0.270481 0.160256
O O8 0.282471 0.000000 0.213663
O O9 0.049217 0.276014 0.829928
O O10 0.280860 0.208671 0.845393
O O11 0.093900 0.000000 0.823366
O O12 0.073625 0.500000 0.891812
O O13 0.298481 0.732830 0.995740
O O14 0.501606 0.781409 0.853249
O O15 0.576042 0.000000 0.937983
O O16 0.209480 0.731192 0.677697
O O17 0.330134 0.000000 0.741084
O O18 0.042632 0.500000 0.409282
O O19 0.215789 0.259938 0.506889
O O20 0.000000 0.221321 0.500000
O O21 0.788901 0.000000 0.458573
#
# Coordination Sequence:
#
# PCOD8065510 Si02
#       8
#     4   4   4   4   4   4   4   4
#     4  10  22  41  65  92 121 160 208 252 298 357
#     4  10  22  41  66  91 120 161 212 261 303 354
#     4  10  21  41  68  94 120 157 210 261 300 355
#     4  12  27  42  59  88 132 167 198 249 316 386
#     4  10  21  41  70  94 116 151 208 268 309 360
#     4  10  20  41  69  94 119 157 214 265 301 355
#     4  12  24  36  57  91 132 166 195 244 309 378
#     4  10  20  38  64  88 115 158 212 255 286 343
#
# _framework density 19.753622
#
# number of rings (size 3 to 8) (size 9 to 14) (size 15 to 20)
#    0.000    1.500    2.500    2.625    1.750    5.000 
#    0.000    2.500    0.000    0.000    0.000    0.000 
#    0.000    0.000    0.000    0.000    0.000    0.000 
#
# Total GULP energy -396978.369941 kJ/mol
# GULP energy per Si atom -12405.574061 kJ/mol
# Density = 1.970866 g / cm^3
# Si number density = 19.753622 Si / 1000 Ang^3
#
#
#
# Elastic Constant Matrix: (Units=GPa)
#
#
# Indices 1 2 3 4 5 6 
#
# 1 102.9421 37.9953 42.4803 0.0000 -4.4677 0.0000
# 2 37.9953 81.1820 42.1888 0.0000 4.7444 0.0000
# 3 42.4803 42.1888 116.5048 0.0000 5.9869 0.0000
# 4 0.0000 0.0000 0.0000 9.3043 0.0000 5.5105
# 5 -4.4677 4.7444 5.9869 0.0000 28.8178 0.0000
# 6 0.0000 0.0000 0.0000 5.5105 0.0000 16.8311
#
#
#
# Elastic Compliance Matrix: (Units=1/GPa)
#
#
# Indices 1 2 3 4 5 6 
#
# 1 0.012871 -0.004549 -0.003221 0.000000 0.003414 0.000000
# 2 -0.004549 0.016835 -0.004305 0.000000 -0.002583 0.000000
# 3 -0.003221 -0.004305 0.011428 0.000000 -0.002165 0.000000
# 4 0.000000 0.000000 0.000000 0.133331 0.000000 -0.043652
# 5 0.003414 -0.002583 -0.002165 0.000000 0.036105 0.000000
# 6 0.000000 0.000000 0.000000 -0.043652 0.000000 0.073706
#
#
# Mechanical properties :
#
#
# Convention : Reuss Voigt Hill
#
# Bulk Modulus (GPa) = 58.88089 60.66196 59.77143
# Shear Modulus (GPa) = 15.91918 22.85494 19.38706
#
# Velocity S-wave (km/s) = 2.84189 3.40516 3.13620
# Velocity P-wave (km/s) = 6.37502 6.79971 6.59079
#
# Compressibility (1/GPa) = 0.01698344
#
# Stress axis : x y z
#
# Youngs Moduli (GPa) = 77.69604 59.39877 87.50536
#
# Poissons Ratio (x) = 0.27023 0.28185
# Poissons Ratio (y) = 0.35348 0.37670
# Poissons Ratio (z) = 0.25025 0.25570
#
# Static dielectric constant tensor:
#      x y z
#    x 3.651290 0.000000 -0.063620 
#    y 0.000000 3.405380 0.000000 
#    z -0.063620 0.000000 3.648730 
# 
# 
# High freq. dielectric constant tensor:
#      x y z
#    x 1.779020 0.000000 -0.006400 
#    y 0.000000 1.750580 0.000000 
#    z -0.006400 0.000000 1.776390 
# 
# From -- ./inp_files/63842.got.cif
#   From: 2010.06.25/outbox.cif.g09.slc.cpg/sg10_32_cif.got.tgz:63842.got - 2010.06.27 22:07:45.
