data_PCOD8065653
_publ_section_title
;
Structure prediction by ZEFSAII (Michael W. Deem and Ramdas Pophale) SiO2 
 PCOD8065653
Probable space group: P 2/M
;
_chemical_formula_sum "Si O2"
_cell_formula_units_Z 24
_cell_length_a 14.848977
_cell_length_b 9.035520
_cell_length_c 9.273739
_cell_angle_alpha 90.000000
_cell_angle_beta 81.572049
_cell_angle_gamma 90.000000
_cell_volume 1230.804513
_symmetry_space_group_name_H-M "P 2/M"
_symmetry_group_IT_number 10
_symmetry_cell_setting 'monoclinic'
loop_
_space_group_symop_operation_xyz
x,y,z
-x,y,-z
-x,-y,-z
x,-y,z
loop_
_atom_site_type_symbol
_atom_site_label
_atom_site_fract_x
_atom_site_fract_y
_atom_site_fract_z
Si Si1 0.557970 0.828962 0.626389
Si Si2 0.910368 0.826962 0.104494
Si Si3 0.248121 0.325168 0.030377
Si Si4 0.744922 0.675954 0.642920
Si Si5 0.907977 0.172951 0.439845
Si Si6 0.558199 0.338119 0.125917
O O1 0.500000 0.793030 0.500000
O O2 0.649785 0.734141 0.602965
O O3 0.491717 0.785708 0.770866
O O4 0.585163 0.000000 0.632733
O O5 0.919534 0.784525 0.269883
O O6 0.894101 0.000000 0.087517
O O7 0.827060 0.743359 0.053738
O O8 0.000000 0.773803 0.000000
O O9 0.238080 0.500000 0.031685
O O10 0.240309 0.267021 0.196724
O O11 0.343664 0.274607 0.940696
O O12 0.742700 0.500000 0.636747
O O13 0.825454 0.734817 0.524389
O O14 0.000000 0.218617 0.500000
O O15 0.886908 0.000000 0.465229
O O16 0.566569 0.500000 0.202387
O O17 0.500000 0.366740 0.000000
#
# Coordination Sequence:
#
# PCOD8065653 Si02
#       6
#     4   4   4   4   4   4
#     4  11  25  41  59  88 124 159 202 250 298 354
#     4  10  22  40  63  90 119 155 197 242 297 356
#     4  10  22  39  61  89 120 156 198 247 295 349
#     4  11  23  41  63  88 120 160 203 245 299 358
#     4  10  22  41  64  90 123 158 197 246 298 354
#     4  10  20  40  63  86 120 159 202 245 293 350
#
# _framework density 19.499441999999998
#
# number of rings (size 3 to 8) (size 9 to 14) (size 15 to 20)
#    0.000    1.667    1.667    2.000    2.333    6.333 
#    0.000    0.000    0.000    0.000    0.000    0.000 
#    0.000    0.000    0.000    0.000    0.000    0.000 
#
# Total GULP energy -297652.079610 kJ/mol
# GULP energy per Si atom -12402.169984 kJ/mol
# Density = 1.945506 g / cm^3
# Si number density = 19.499442 Si / 1000 Ang^3
#
#
#
# Elastic Constant Matrix: (Units=GPa)
#
#
# Indices 1 2 3 4 5 6 
#
# 1 162.4504 52.2061 79.1854 0.0000 -12.1664 0.0000
# 2 52.2061 51.7177 49.8683 0.0000 -0.6910 0.0000
# 3 79.1854 49.8683 124.5131 0.0000 -5.4089 0.0000
# 4 0.0000 0.0000 0.0000 36.0796 0.0000 -5.0809
# 5 -12.1664 -0.6910 -5.4089 0.0000 36.0406 0.0000
# 6 0.0000 0.0000 0.0000 -5.0809 0.0000 42.0844
#
#
#
# Elastic Compliance Matrix: (Units=1/GPa)
#
#
# Indices 1 2 3 4 5 6 
#
# 1 0.010390 -0.006838 -0.003747 0.000000 0.002814 0.000000
# 2 -0.006838 0.036061 -0.010231 0.000000 -0.003152 0.000000
# 3 -0.003747 -0.010231 0.014543 0.000000 0.000722 0.000000
# 4 0.000000 0.000000 0.000000 0.028196 0.000000 0.003404
# 5 0.002814 -0.003152 0.000722 0.000000 0.028744 0.000000
# 6 0.000000 0.000000 0.000000 0.003404 0.000000 0.024173
#
#
# Mechanical properties :
#
#
# Convention : Reuss Voigt Hill
#
# Bulk Modulus (GPa) = 51.64513 77.91119 64.77816
# Shear Modulus (GPa) = 26.28891 33.33568 29.81229
#
# Velocity S-wave (km/s) = 3.67575 4.13918 3.91433
# Velocity P-wave (km/s) = 6.67516 7.93008 7.32953
#
# Compressibility (1/GPa) = 0.01936291
#
# Stress axis : x y z
#
# Youngs Moduli (GPa) = 96.24255 27.73052 68.76065
#
# Poissons Ratio (x) = 0.18962 0.25765
# Poissons Ratio (y) = 0.65810 0.70350
# Poissons Ratio (z) = 0.36062 0.28371
#
# Static dielectric constant tensor:
#      x y z
#    x 3.251310 0.000000 0.165410 
#    y 0.000000 3.468560 0.000000 
#    z 0.165410 0.000000 3.589740 
# 
# 
# High freq. dielectric constant tensor:
#      x y z
#    x 1.775290 0.000000 -0.001800 
#    y 0.000000 1.755450 0.000000 
#    z -0.001800 0.000000 1.768520 
# 
# From -- ./inp_files/27078.got.cif
#   From: 2010.06.25/outbox.cif.g09.slc.cpg/sg10_14_cif.got.tgz:27078.got - 2010.06.27 22:07:45.
