data_PCOD8065297
_publ_section_title
;
Structure prediction by ZEFSAII (Michael W. Deem and Ramdas Pophale) SiO2 
 PCOD8065297
Probable space group: P 2/M
;
_chemical_formula_sum "Si O2"
_cell_formula_units_Z 32
_cell_length_a 26.034577
_cell_length_b 14.552645
_cell_length_c 8.636259
_cell_angle_alpha 90.000000
_cell_angle_beta 29.660680
_cell_angle_gamma 90.000000
_cell_volume 1619.207896
_symmetry_space_group_name_H-M "P 2/M"
_symmetry_group_IT_number 10
_symmetry_cell_setting 'monoclinic'
loop_
_space_group_symop_operation_xyz
x,y,z
-x,y,-z
-x,-y,-z
x,-y,z
loop_
_atom_site_type_symbol
_atom_site_label
_atom_site_fract_x
_atom_site_fract_y
_atom_site_fract_z
Si Si1 0.602420 0.836175 0.309286
Si Si2 0.168714 0.604341 0.350820
Si Si3 0.195384 0.226171 0.774135
Si Si4 0.688829 0.289049 0.815140
Si Si5 0.031153 0.243416 0.589415
Si Si6 0.479514 0.299756 0.222477
Si Si7 0.725652 0.397244 0.250398
Si Si8 0.795753 0.897072 0.963117
O O1 0.500000 0.884069 0.500000
O O2 0.566550 0.780146 0.552346
O O3 0.657403 0.769902 0.044341
O O4 0.691007 0.905973 0.134483
O O5 0.129169 0.500000 0.472330
O O6 0.231464 0.631976 0.341093
O O7 0.070758 0.671188 0.586789
O O8 0.242549 0.617465 0.010145
O O9 0.259853 0.220834 0.446434
O O10 0.211803 0.327032 0.805541
O O11 0.233242 0.148802 0.796045
O O12 0.074088 0.208308 0.052979
O O13 0.587055 0.338406 0.011250
O O14 0.116102 0.162045 0.356266
O O15 0.000000 0.278221 0.500000
O O16 0.398158 0.382684 0.418529
O O17 0.500000 0.256252 0.000000
O O18 0.751541 0.500000 0.239817
O O19 0.838442 0.000000 0.877562
#
# Coordination Sequence:
#
# PCOD8065297 Si02
#       8
#     4   4   4   4   4   4   4   4
#     4  10  20  37  62  90 119 160 196 234 309 367
#     4  11  22  38  60  88 122 162 208 249 299 360
#     4  11  22  39  60  87 120 159 203 253 304 354
#     4  11  21  37  61  84 127 164 193 246 303 365
#     4  10  20  39  63  87 116 156 206 253 307 348
#     4  11  19  36  62  86 119 162 208 246 299 359
#     4  11  21  36  58  87 122 160 209 249 296 360
#     4  11  21  41  68  92 119 153 205 256 305 366
#
# _framework density 19.762748999999999
#
# number of rings (size 3 to 8) (size 9 to 14) (size 15 to 20)
#    0.000    1.250    7.500    0.000    0.000    5.000 
#    0.000    2.500    0.000    7.875    0.000    0.000 
#    0.000    0.000    0.000    0.000    0.000    0.000 
#
# Total GULP energy -396700.348568 kJ/mol
# GULP energy per Si atom -12396.885893 kJ/mol
# Density = 1.971777 g / cm^3
# Si number density = 19.762749 Si / 1000 Ang^3
#
#
#
# Elastic Constant Matrix: (Units=GPa)
#
#
# Indices 1 2 3 4 5 6 
#
# 1 103.4447 41.9956 40.3907 0.0000 -17.0453 0.0000
# 2 41.9956 97.1216 21.8718 0.0000 -8.6264 0.0000
# 3 40.3907 21.8718 87.7620 0.0000 -9.4891 0.0000
# 4 0.0000 0.0000 0.0000 11.6443 0.0000 -0.2306
# 5 -17.0453 -8.6264 -9.4891 0.0000 41.9544 0.0000
# 6 0.0000 0.0000 0.0000 -0.2306 0.0000 13.7004
#
#
#
# Elastic Compliance Matrix: (Units=1/GPa)
#
#
# Indices 1 2 3 4 5 6 
#
# 1 0.014082 -0.004655 -0.004926 0.000000 0.003650 0.000000
# 2 -0.004655 0.012563 -0.000936 0.000000 0.000480 0.000000
# 3 -0.004926 -0.000936 0.014000 0.000000 0.000973 0.000000
# 4 0.000000 0.000000 0.000000 0.085908 0.000000 0.001446
# 5 0.003650 0.000480 0.000973 0.000000 0.025637 0.000000
# 6 0.000000 0.000000 0.000000 0.001446 0.000000 0.073015
#
#
# Mechanical properties :
#
#
# Convention : Reuss Voigt Hill
#
# Bulk Modulus (GPa) = 50.99710 55.20498 53.10104
# Shear Modulus (GPa) = 19.78031 25.73115 22.75573
#
# Velocity S-wave (km/s) = 3.16711 3.61224 3.39698
# Velocity P-wave (km/s) = 6.26377 6.73737 6.50488
#
# Compressibility (1/GPa) = 0.01960896
#
# Stress axis : x y z
#
# Youngs Moduli (GPa) = 71.01375 79.59936 71.42818
#
# Poissons Ratio (x) = 0.37057 0.35186
# Poissons Ratio (y) = 0.33060 0.06689
# Poissons Ratio (z) = 0.34981 0.07454
#
# Static dielectric constant tensor:
#      x y z
#    x 3.825100 0.000000 -0.170620 
#    y 0.000000 3.224340 0.000000 
#    z -0.170620 0.000000 3.940240 
# 
# 
# High freq. dielectric constant tensor:
#      x y z
#    x 1.779690 0.000000 -0.011870 
#    y 0.000000 1.729880 0.000000 
#    z -0.011870 0.000000 1.777830 
# 
# From -- ./inp_files/37709.got.cif
#   From: 2010.06.25/outbox.cif.g09.slc.cpg/sg10_19_cif.got.tgz:37709.got - 2010.06.27 22:07:45.
