data_PCOD8065744
_publ_section_title
;
Structure prediction by ZEFSAII (Michael W. Deem and Ramdas Pophale) SiO2 
 PCOD8065744
Probable space group: P 2/M
;
_chemical_formula_sum "Si O2"
_cell_formula_units_Z 30
_cell_length_a 15.116986
_cell_length_b 13.883895
_cell_length_c 21.720528
_cell_angle_alpha 90.000000
_cell_angle_beta 159.966617
_cell_angle_gamma 90.000000
_cell_volume 1561.684080
_symmetry_space_group_name_H-M "P 2/M"
_symmetry_group_IT_number 10
_symmetry_cell_setting 'monoclinic'
loop_
_space_group_symop_operation_xyz
x,y,z
-x,y,-z
-x,-y,-z
x,-y,z
loop_
_atom_site_type_symbol
_atom_site_label
_atom_site_fract_x
_atom_site_fract_y
_atom_site_fract_z
Si Si1 0.830522 0.107935 0.784608
Si Si2 0.609599 0.387429 0.261763
Si Si3 0.637912 0.387902 0.713384
Si Si4 0.222261 0.107795 0.390798
Si Si5 0.041597 0.388859 0.871158
Si Si6 0.923875 0.386365 0.353371
Si Si7 0.923292 0.304242 0.666987
Si Si8 0.000000 0.754332 0.000000
O O1 0.527662 0.118284 0.597994
O O2 0.877099 0.129708 0.743273
O O3 0.993524 0.180346 0.934180
O O4 0.922964 0.000000 0.861096
O O5 0.658936 0.500000 0.288929
O O6 0.792057 0.351954 0.436767
O O7 0.708127 0.346771 0.259927
O O8 0.312513 0.362701 0.081697
O O9 0.668247 0.500000 0.753082
O O10 0.342719 0.363913 0.508872
O O11 0.751798 0.317431 0.840541
O O12 0.801983 0.364658 0.758798
O O13 0.104816 0.188798 0.358495
O O14 0.136093 0.000000 0.354341
O O15 0.033572 0.500000 0.846328
O O16 0.042625 0.325461 0.811012
O O17 0.906619 0.500000 0.332184
O O18 0.884221 0.337256 0.261070
#
# Coordination Sequence:
#
# PCOD8065744 Si02
#       8
#     4   4   4   4   4   4   4   2
#     4   9  18  33  53  71  92 127 176 227 266 301
#     4   8  17  35  53  73 103 139 176 219 262 291
#     4  11  24  34  44  71 115 154 177 202 249 309
#     4   9  19  36  52  70  99 134 168 214 274 317
#     4  10  21  34  50  72 104 143 180 215 248 298
#     4   9  18  33  54  77 105 137 173 217 260 305
#     4  12  21  33  53  77 102 139 180 213 257 311
#     4  12  20  32  48  72  98 140 184 214 250 298
#
# _framework density 19.210032000000002
#
# number of rings (size 3 to 8) (size 9 to 14) (size 15 to 20)
#    0.000    2.133    1.333    4.400    3.733    1.600 
#    0.000    2.000    0.000    0.000    0.000    3.733 
#    0.000    0.000    0.000    0.000    0.000    0.000 
#
# Total GULP energy -371819.133546 kJ/mol
# GULP energy per Si atom -12393.971118 kJ/mol
# Density = 1.916631 g / cm^3
# Si number density = 19.210032 Si / 1000 Ang^3
#
#
#
# Elastic Constant Matrix: (Units=GPa)
#
#
# Indices 1 2 3 4 5 6 
#
# 1 70.0940 33.2934 2.9204 0.0000 -7.8225 0.0000
# 2 33.2934 102.1761 14.3721 0.0000 -15.4794 0.0000
# 3 2.9204 14.3721 38.9252 0.0000 -8.9577 0.0000
# 4 0.0000 0.0000 0.0000 26.5643 0.0000 -11.1463
# 5 -7.8225 -15.4794 -8.9577 0.0000 22.9641 0.0000
# 6 0.0000 0.0000 0.0000 -11.1463 0.0000 22.6472
#
#
#
# Elastic Compliance Matrix: (Units=1/GPa)
#
#
# Indices 1 2 3 4 5 6 
#
# 1 0.017046 -0.005326 0.001316 0.000000 0.002730 0.000000
# 2 -0.005326 0.012802 -0.003031 0.000000 0.005633 0.000000
# 3 0.001316 -0.003031 0.028942 0.000000 0.009695 0.000000
# 4 0.000000 0.000000 0.000000 0.047442 0.000000 0.023350
# 5 0.002730 0.005633 0.009695 0.000000 0.052055 0.000000
# 6 0.000000 0.000000 0.000000 0.023350 0.000000 0.055648
#
#
# Mechanical properties :
#
#
# Convention : Reuss Voigt Hill
#
# Bulk Modulus (GPa) = 22.36751 34.70745 28.53748
# Shear Modulus (GPa) = 20.58300 25.14241 22.86271
#
# Velocity S-wave (km/s) = 3.27688 3.62168 3.45359
# Velocity P-wave (km/s) = 5.09767 5.96618 5.54895
#
# Compressibility (1/GPa) = 0.04470770
#
# Stress axis : x y z
#
# Youngs Moduli (GPa) = 58.66453 78.11191 34.55228
#
# Poissons Ratio (x) = 0.41601 -0.04546
# Poissons Ratio (y) = 0.31244 0.10473
# Poissons Ratio (z) = -0.07719 0.23675
#
# Static dielectric constant tensor:
#      x y z
#    x 3.402220 0.000000 -0.190670 
#    y 0.000000 3.563760 0.000000 
#    z -0.190670 0.000000 3.523270 
# 
# 
# High freq. dielectric constant tensor:
#      x y z
#    x 1.731100 0.000000 -0.020770 
#    y 0.000000 1.730130 0.000000 
#    z -0.020770 0.000000 1.735640 
# 
# From -- ./inp_files/85360.got.cif
#   From: 2010.06.25/outbox.cif.g09.slc.cpg/sg10_43_cif.got.tgz:85360.got - 2010.06.27 22:07:45.
