data_PCOD8065369
_publ_section_title
;
Structure prediction by ZEFSAII (Michael W. Deem and Ramdas Pophale) SiO2 
 PCOD8065369
Probable space group: P 2/M
;
_chemical_formula_sum "Si O2"
_cell_formula_units_Z 26
_cell_length_a 13.840169
_cell_length_b 11.639788
_cell_length_c 9.530079
_cell_angle_alpha 90.000000
_cell_angle_beta 57.365018
_cell_angle_gamma 90.000000
_cell_volume 1292.881272
_symmetry_space_group_name_H-M "P 2/M"
_symmetry_group_IT_number 10
_symmetry_cell_setting 'monoclinic'
loop_
_space_group_symop_operation_xyz
x,y,z
-x,y,-z
-x,-y,-z
x,-y,z
loop_
_atom_site_type_symbol
_atom_site_label
_atom_site_fract_x
_atom_site_fract_y
_atom_site_fract_z
Si Si1 0.009745 0.366222 0.835427
Si Si2 0.197350 0.249954 0.527851
Si Si3 0.120030 0.000000 0.318526
Si Si4 0.598771 0.631858 0.033867
Si Si5 0.465756 0.000000 0.370029
Si Si6 0.209884 0.000000 0.529450
Si Si7 0.467704 0.752627 0.363082
Si Si8 0.828873 0.246814 0.778958
O O1 0.989134 0.500000 0.862140
O O2 0.136028 0.341148 0.675869
O O3 0.916619 0.320387 0.799858
O O4 0.000000 0.312535 0.000000
O O5 0.150724 0.122480 0.614421
O O6 0.332985 0.267570 0.441308
O O7 0.159447 0.271258 0.396513
O O8 0.138604 0.885887 0.211051
O O9 0.000000 0.000000 0.500000
O O10 0.223876 0.000000 0.349410
O O11 0.642066 0.500000 0.993840
O O12 0.543366 0.656131 0.228755
O O13 0.500000 0.656407 0.000000
O O14 0.701556 0.720030 0.926844
O O15 0.500000 0.000000 0.500000
O O16 0.502928 0.879122 0.269799
O O17 0.331628 0.000000 0.502186
O O18 0.500000 0.745368 0.500000
#
# Coordination Sequence:
#
# PCOD8065369 Si02
#       8
#     4   4   2   4   2   2   4   4
#     4  11  26  43  61  87 121 159 205 262 311 363
#     4  10  20  39  64  90 118 161 209 250 311 377
#     4  10  20  37  66  98 122 153 203 260 311 374
#     4  11  24  41  60  90 131 167 212 263 301 359
#     4   8  16  33  56  86 120 155 196 251 299 360
#     4   8  16  32  58  87 118 149 190 251 302 351
#     4  10  21  38  63  91 124 167 209 253 312 372
#     4  11  22  42  66  92 123 163 202 253 317 373
#
# _framework density 20.110122
#
# number of rings (size 3 to 8) (size 9 to 14) (size 15 to 20)
#    0.000    1.846    1.538    2.769    2.154    3.385 
#    0.000    2.308    0.000    0.000    0.000    0.000 
#    0.000    0.000    0.000    0.000    0.000    0.000 
#
# Total GULP energy -322108.197062 kJ/mol
# GULP energy per Si atom -12388.776810 kJ/mol
# Density = 2.006435 g / cm^3
# Si number density = 20.110122 Si / 1000 Ang^3
#
#
#
# Elastic Constant Matrix: (Units=GPa)
#
#
# Indices 1 2 3 4 5 6 
#
# 1 110.8169 45.6157 49.7458 0.0000 6.6324 0.0000
# 2 45.6157 101.3367 50.8742 0.0000 -8.6499 0.0000
# 3 49.7458 50.8742 110.6439 0.0000 -1.2924 0.0000
# 4 0.0000 0.0000 0.0000 25.8438 0.0000 -8.4358
# 5 6.6324 -8.6499 -1.2924 0.0000 34.4648 0.0000
# 6 0.0000 0.0000 0.0000 -8.4358 0.0000 23.8535
#
#
#
# Elastic Compliance Matrix: (Units=1/GPa)
#
#
# Indices 1 2 3 4 5 6 
#
# 1 0.012643 -0.004061 -0.003859 0.000000 -0.003597 0.000000
# 2 -0.004061 0.014452 -0.004770 0.000000 0.004230 0.000000
# 3 -0.003859 -0.004770 0.012967 0.000000 0.000032 0.000000
# 4 0.000000 0.000000 0.000000 0.043744 0.000000 0.015470
# 5 -0.003597 0.004230 0.000032 0.000000 0.030770 0.000000
# 6 0.000000 0.000000 0.000000 0.015470 0.000000 0.047394
#
#
# Mechanical properties :
#
#
# Convention : Reuss Voigt Hill
#
# Bulk Modulus (GPa) = 68.11115 68.36320 68.23718
# Shear Modulus (GPa) = 26.00891 28.60322 27.30607
#
# Velocity S-wave (km/s) = 3.60018 3.77547 3.68887
# Velocity P-wave (km/s) = 7.15712 7.28518 7.22143
#
# Compressibility (1/GPa) = 0.01468188
#
# Stress axis : x y z
#
# Youngs Moduli (GPa) = 79.09443 69.19663 77.12096
#
# Poissons Ratio (x) = 0.28099 0.29763
# Poissons Ratio (y) = 0.32118 0.36785
# Poissons Ratio (z) = 0.30525 0.33005
#
# Static dielectric constant tensor:
#      x y z
#    x 3.844520 0.000000 0.071140 
#    y 0.000000 5.968220 0.000000 
#    z 0.071140 0.000000 3.460680 
# 
# 
# High freq. dielectric constant tensor:
#      x y z
#    x 1.804850 0.000000 0.006710 
#    y 0.000000 1.796350 0.000000 
#    z 0.006710 0.000000 1.750320 
# 
# From -- ./inp_files/28155.got.cif
#   From: 2010.06.25/outbox.cif.g09.slc.cpg/sg10_15_cif.got.tgz:28155.got - 2010.06.27 22:07:45.
