data_PCOD8065718
_publ_section_title
;
Structure prediction by ZEFSAII (Michael W. Deem and Ramdas Pophale) SiO2 
 PCOD8065718
Probable space group: P 2/M
;
_chemical_formula_sum "Si O2"
_cell_formula_units_Z 28
_cell_length_a 11.683357
_cell_length_b 14.650627
_cell_length_c 9.965208
_cell_angle_alpha 90.000000
_cell_angle_beta 59.100409
_cell_angle_gamma 90.000000
_cell_volume 1463.633099
_symmetry_space_group_name_H-M "P 2/M"
_symmetry_group_IT_number 10
_symmetry_cell_setting 'monoclinic'
loop_
_space_group_symop_operation_xyz
x,y,z
-x,y,-z
-x,-y,-z
x,-y,z
loop_
_atom_site_type_symbol
_atom_site_label
_atom_site_fract_x
_atom_site_fract_y
_atom_site_fract_z
Si Si1 0.210429 0.398121 0.250211
Si Si2 0.609781 0.894849 0.321638
Si Si3 0.742011 0.397421 0.487312
Si Si4 0.510748 0.398229 0.814641
Si Si5 0.835598 0.244988 0.229454
Si Si6 0.593880 0.206608 0.067592
Si Si7 0.127415 0.255232 0.095046
O O1 0.168459 0.500000 0.240990
O O2 0.172119 0.375652 0.428648
O O3 0.127161 0.339439 0.196587
O O4 0.373682 0.386526 0.138192
O O5 0.500000 0.880048 0.500000
O O6 0.743387 0.843779 0.287124
O O7 0.550076 0.855910 0.218450
O O8 0.647000 0.000000 0.279420
O O9 0.774253 0.500000 0.416279
O O10 0.585794 0.392010 0.624910
O O11 0.773359 0.325168 0.354732
O O12 0.443933 0.500000 0.866781
O O13 0.409406 0.313761 0.886783
O O14 0.980466 0.210968 0.196077
O O15 0.848165 0.286438 0.072879
O O16 0.500000 0.181036 0.000000
O O17 0.750240 0.187408 0.936752
#
# Coordination Sequence:
#
# PCOD8065718 Si02
#       7
#     4   4   4   4   4   4   4
#     4   8  16  31  50  77 111 150 193 225 259 308
#     4  10  23  42  64  85 103 134 180 228 283 335
#     4   8  16  32  52  75 105 147 190 227 263 310
#     4   8  16  30  52  81 111 145 187 225 263 311
#     4  10  21  37  54  76 115 147 181 222 272 329
#     4  11  19  34  60  85 114 143 181 230 271 317
#     4  10  21  33  48  81 112 149 182 215 268 329
#
# _framework density 19.130476999999999
#
# number of rings (size 3 to 8) (size 9 to 14) (size 15 to 20)
#    0.857    1.857    1.429    0.857    0.000    2.857 
#    0.000   10.714    0.000    7.714    0.000    4.000 
#    0.000    0.000    0.000    0.000    0.000    0.000 
#
# Total GULP energy -346866.767379 kJ/mol
# GULP energy per Si atom -12388.098835 kJ/mol
# Density = 1.908694 g / cm^3
# Si number density = 19.130477 Si / 1000 Ang^3
#
#
#
# Elastic Constant Matrix: (Units=GPa)
#
#
# Indices 1 2 3 4 5 6 
#
# 1 116.4228 49.4434 35.6851 0.0000 4.5112 0.0000
# 2 49.4434 117.1277 61.0923 0.0000 7.7398 0.0000
# 3 35.6851 61.0923 69.8161 0.0000 8.2838 0.0000
# 4 0.0000 0.0000 0.0000 13.4282 0.0000 6.2656
# 5 4.5112 7.7398 8.2838 0.0000 19.5866 0.0000
# 6 0.0000 0.0000 0.0000 6.2656 0.0000 15.0561
#
#
#
# Elastic Compliance Matrix: (Units=1/GPa)
#
#
# Indices 1 2 3 4 5 6 
#
# 1 0.010756 -0.003077 -0.002796 0.000000 -0.000079 0.000000
# 2 -0.003077 0.016590 -0.012897 0.000000 -0.000392 0.000000
# 3 -0.002796 -0.012897 0.027750 0.000000 -0.005996 0.000000
# 4 0.000000 0.000000 0.000000 0.092415 0.000000 -0.038459
# 5 -0.000079 -0.000392 -0.005996 0.000000 0.053764 0.000000
# 6 0.000000 0.000000 0.000000 -0.038459 0.000000 0.082423
#
#
# Mechanical properties :
#
#
# Convention : Reuss Voigt Hill
#
# Bulk Modulus (GPa) = 56.96443 66.20090 61.58267
# Shear Modulus (GPa) = 15.28630 20.09056 17.68843
#
# Velocity S-wave (km/s) = 2.82982 3.24417 3.04406
# Velocity P-wave (km/s) = 6.36542 6.97947 6.67951
#
# Compressibility (1/GPa) = 0.01755481
#
# Stress axis : x y z
#
# Youngs Moduli (GPa) = 92.96968 60.27863 36.03646
#
# Poissons Ratio (x) = 0.18548 0.10076
# Poissons Ratio (y) = 0.28607 0.46478
# Poissons Ratio (z) = 0.25994 0.77744
#
# Static dielectric constant tensor:
#      x y z
#    x 3.549290 0.000000 -0.040190 
#    y 0.000000 3.162290 0.000000 
#    z -0.040190 0.000000 3.564590 
# 
# 
# High freq. dielectric constant tensor:
#      x y z
#    x 1.736070 0.000000 0.001180 
#    y 0.000000 1.705890 0.000000 
#    z 0.001180 0.000000 1.752370 
# 
# From -- ./inp_files/25182.got.cif
#   From: 2010.06.25/outbox.cif.g09.slc.cpg/sg10_13_cif.got.tgz:25182.got - 2010.06.27 22:07:45.
