data_PCOD8065032
_publ_section_title
;
Structure prediction by ZEFSAII (Michael W. Deem and Ramdas Pophale) SiO2 
 PCOD8065032
Probable space group: P 2/M
;
_chemical_formula_sum "Si O2"
_cell_formula_units_Z 32
_cell_length_a 9.349773
_cell_length_b 14.280502
_cell_length_c 21.724742
_cell_angle_alpha 90.000000
_cell_angle_beta 144.148901
_cell_angle_gamma 90.000000
_cell_volume 1698.869993
_symmetry_space_group_name_H-M "P 2/M"
_symmetry_group_IT_number 10
_symmetry_cell_setting 'monoclinic'
loop_
_space_group_symop_operation_xyz
x,y,z
-x,y,-z
-x,-y,-z
x,-y,z
loop_
_atom_site_type_symbol
_atom_site_label
_atom_site_fract_x
_atom_site_fract_y
_atom_site_fract_z
Si Si1 0.055961 0.225584 0.950920
Si Si2 0.219261 0.899374 0.385731
Si Si3 0.754009 0.712211 0.560001
Si Si4 0.957452 0.107414 0.172987
Si Si5 0.728799 0.604265 0.431180
Si Si6 0.025048 0.605894 0.750497
Si Si7 0.782653 0.392267 0.796637
Si Si8 0.582052 0.748625 0.091986
O O1 0.969529 0.155330 0.866623
O O2 0.917762 0.325096 0.892426
O O3 0.348843 0.233301 0.052996
O O4 0.000000 0.187778 0.000000
O O5 0.500000 0.910823 0.500000
O O6 0.095601 0.810858 0.379327
O O7 0.182662 0.882125 0.299322
O O8 0.090849 0.000000 0.357869
O O9 0.500000 0.742736 0.500000
O O10 0.719450 0.685122 0.477966
O O11 0.851968 0.623047 0.631704
O O12 0.721813 0.155685 0.122615
O O13 0.891037 0.000000 0.136306
O O14 0.676741 0.500000 0.440218
O O15 0.512319 0.625197 0.306312
O O16 0.000000 0.607557 0.500000
O O17 0.117706 0.500000 0.782490
O O18 0.250375 0.673621 0.815687
O O19 0.884082 0.631427 0.763899
O O20 0.840266 0.500000 0.834672
O O21 0.500000 0.698820 0.000000
#
# Coordination Sequence:
#
# PCOD8065032 Si02
#       8
#     4   4   4   4   4   4   4   4
#     4  11  24  39  57  83 116 149 196 240 281 338
#     4   9  18  32  58  90 114 140 179 227 282 345
#     4  11  19  31  56  84 113 142 182 234 280 328
#     4  10  20  39  63  85 114 147 186 238 291 341
#     4  10  22  37  54  82 118 157 191 225 277 344
#     4  11  20  32  56  87 113 142 190 240 283 331
#     4  10  20  37  58  80 113 154 192 232 287 336
#     4  10  20  37  55  81 109 145 191 236 288 332
#
# _framework density 18.83605
#
# number of rings (size 3 to 8) (size 9 to 14) (size 15 to 20)
#    0.000    1.750    5.000    0.375    1.750    5.000 
#    0.000    1.250    0.000    0.375    0.000    0.000 
#    0.000    0.000    0.000    0.000    0.000    0.000 
#
# Total GULP energy -396492.417492 kJ/mol
# GULP energy per Si atom -12390.388047 kJ/mol
# Density = 1.879318 g / cm^3
# Si number density = 18.836050 Si / 1000 Ang^3
#
#
#
# Elastic Constant Matrix: (Units=GPa)
#
#
# Indices 1 2 3 4 5 6 
#
# 1 79.4095 37.9372 37.1300 0.0000 2.3808 0.0000
# 2 37.9372 132.9818 43.8633 0.0000 -9.3997 0.0000
# 3 37.1300 43.8633 95.5706 0.0000 0.3433 0.0000
# 4 0.0000 0.0000 0.0000 20.7689 0.0000 -5.9255
# 5 2.3808 -9.3997 0.3433 0.0000 24.7069 0.0000
# 6 0.0000 0.0000 0.0000 -5.9255 0.0000 21.2825
#
#
#
# Elastic Compliance Matrix: (Units=1/GPa)
#
#
# Indices 1 2 3 4 5 6 
#
# 1 0.016545 -0.003299 -0.004904 0.000000 -0.002781 0.000000
# 2 -0.003299 0.009819 -0.003240 0.000000 0.004099 0.000000
# 3 -0.004904 -0.003240 0.013859 0.000000 -0.000953 0.000000
# 4 0.000000 0.000000 0.000000 0.052304 0.000000 0.014562
# 5 -0.002781 0.004099 -0.000953 0.000000 0.042315 0.000000
# 6 0.000000 0.000000 0.000000 0.014562 0.000000 0.051041
#
#
# Mechanical properties :
#
#
# Convention : Reuss Voigt Hill
#
# Bulk Modulus (GPa) = 57.67574 60.64700 59.16137
# Shear Modulus (GPa) = 23.30472 25.95375 24.62923
#
# Velocity S-wave (km/s) = 3.52126 3.71600 3.61994
# Velocity P-wave (km/s) = 6.87159 7.11890 6.99634
#
# Compressibility (1/GPa) = 0.01733831
#
# Stress axis : x y z
#
# Youngs Moduli (GPa) = 60.43970 101.84012 72.15546
#
# Poissons Ratio (x) = 0.33599 0.35384
# Poissons Ratio (y) = 0.19940 0.23376
# Poissons Ratio (z) = 0.29639 0.32993
#
# Static dielectric constant tensor:
#      x y z
#    x 3.061210 0.000000 0.116260 
#    y 0.000000 3.793330 0.000000 
#    z 0.116260 0.000000 3.715790 
# 
# 
# High freq. dielectric constant tensor:
#      x y z
#    x 1.679910 0.000000 0.001900 
#    y 0.000000 1.742780 0.000000 
#    z 0.001900 0.000000 1.746260 
# 
# From -- ./inp_files/51641.got.cif
#   From: 2010.06.25/outbox.cif.g09.slc.cpg/sg10_26_cif.got.tgz:51641.got - 2010.06.27 22:07:45.
