data_PCOD8065469
_publ_section_title
;
Structure prediction by ZEFSAII (Michael W. Deem and Ramdas Pophale) SiO2 
 PCOD8065469
Probable space group: P 2/M
;
_chemical_formula_sum "Si O2"
_cell_formula_units_Z 32
_cell_length_a 9.760336
_cell_length_b 12.556549
_cell_length_c 25.350201
_cell_angle_alpha 90.000000
_cell_angle_beta 29.573906
_cell_angle_gamma 90.000000
_cell_volume 1533.359378
_symmetry_space_group_name_H-M "P 2/M"
_symmetry_group_IT_number 10
_symmetry_cell_setting 'monoclinic'
loop_
_space_group_symop_operation_xyz
x,y,z
-x,y,-z
-x,-y,-z
x,-y,z
loop_
_atom_site_type_symbol
_atom_site_label
_atom_site_fract_x
_atom_site_fract_y
_atom_site_fract_z
Si Si1 0.037292 0.699432 0.567364
Si Si2 0.579929 0.622569 0.642441
Si Si3 0.071058 0.761043 0.841532
Si Si4 0.014342 0.878316 0.230000
Si Si5 0.715389 0.268853 0.772854
Si Si6 0.801364 0.621417 0.017564
Si Si7 0.415961 0.119464 0.470946
Si Si8 0.737790 0.877607 0.124756
O O1 0.285008 0.624238 0.461764
O O2 0.163741 0.818422 0.527645
O O3 0.775665 0.689748 0.616119
O O4 0.936457 0.671441 0.660469
O O5 0.551887 0.500000 0.670515
O O6 0.284222 0.679689 0.742148
O O7 0.206949 0.850459 0.832934
O O8 0.900957 0.825820 0.854150
O O9 0.861692 0.691850 0.946362
O O10 0.134362 0.803057 0.234671
O O11 0.680964 0.878457 0.344004
O O12 0.128920 0.000000 0.196292
O O13 0.522384 0.361513 0.861109
O O14 0.527693 0.189716 0.802113
O O15 0.854931 0.500000 0.984546
O O16 0.000000 0.654357 0.000000
O O17 0.500000 0.168255 0.500000
O O18 0.304991 0.000000 0.517069
O O19 0.659024 0.000000 0.145547
O O20 0.000000 0.848890 0.000000
#
# Coordination Sequence:
#
# PCOD8065469 Si02
#       8
#     4   4   4   4   4   4   4   4
#     4  11  21  38  63  92 125 162 211 266 311 375
#     4  11  24  41  64  94 126 164 211 268 331 371
#     4  12  21  44  65  95 126 167 214 261 312 384
#     4  11  25  41  63  94 134 175 205 251 322 387
#     4  12  22  41  65  96 130 164 216 258 313 380
#     4  11  23  43  71  96 121 165 218 269 321 367
#     4  10  20  38  62  87 123 171 212 248 303 376
#     4  11  22  40  64  92 128 164 210 266 316 374
#
# _framework density 20.869212000000001
#
# number of rings (size 3 to 8) (size 9 to 14) (size 15 to 20)
#    0.000    0.875    6.250    1.875    0.000    3.000 
#    0.000    3.750    0.000    2.250    0.000    0.000 
#    0.000    0.000    0.000    0.000    0.000    0.000 
#
# Total GULP energy -396704.775286 kJ/mol
# GULP energy per Si atom -12397.024228 kJ/mol
# Density = 2.082171 g / cm^3
# Si number density = 20.869212 Si / 1000 Ang^3
#
#
#
# Elastic Constant Matrix: (Units=GPa)
#
#
# Indices 1 2 3 4 5 6 
#
# 1 95.6970 34.8268 22.7703 0.0000 20.4702 0.0000
# 2 34.8268 88.7663 16.9247 0.0000 6.0915 0.0000
# 3 22.7703 16.9247 95.1125 0.0000 20.5411 0.0000
# 4 0.0000 0.0000 0.0000 21.5184 0.0000 6.2298
# 5 20.4702 6.0915 20.5411 0.0000 33.7955 0.0000
# 6 0.0000 0.0000 0.0000 6.2298 0.0000 2.1948
#
#
#
# Elastic Compliance Matrix: (Units=1/GPa)
#
#
# Indices 1 2 3 4 5 6 
#
# 1 0.013919 -0.004797 -0.000972 0.000000 -0.006975 0.000000
# 2 -0.004797 0.013342 -0.001535 0.000000 0.001434 0.000000
# 3 -0.000972 -0.001535 0.012470 0.000000 -0.006714 0.000000
# 4 0.000000 0.000000 0.000000 0.260731 0.000000 -0.740075
# 5 -0.006975 0.001434 -0.006714 0.000000 0.037637 0.000000
# 6 0.000000 0.000000 0.000000 -0.740075 0.000000 2.556303
#
#
# Mechanical properties :
#
#
# Convention : Reuss Voigt Hill
#
# Bulk Modulus (GPa) = 39.80678 47.62439 43.71559
# Shear Modulus (GPa) = 1.71386 25.17201 13.44294
#
# Velocity S-wave (km/s) = 0.90721 3.47678 2.54077
# Velocity P-wave (km/s) = 4.49591 6.24398 5.44061
#
# Compressibility (1/GPa) = 0.02512135
#
# Stress axis : x y z
#
# Youngs Moduli (GPa) = 71.84567 74.95186 80.19416
#
# Poissons Ratio (x) = 0.35953 0.07797
# Poissons Ratio (y) = 0.34463 0.12313
# Poissons Ratio (z) = 0.06985 0.11508
#
# Static dielectric constant tensor:
#      x y z
#    x 3.637670 0.000000 0.220290 
#    y 0.000000 3.732100 0.000000 
#    z 0.220290 0.000000 4.019380 
# 
# 
# High freq. dielectric constant tensor:
#      x y z
#    x 1.797160 0.000000 0.015510 
#    y 0.000000 1.815920 0.000000 
#    z 0.015510 0.000000 1.826160 
# 
# From -- ./inp_files/88249.got.cif
#   From: 2010.06.25/outbox.cif.g09.slc.cpg/sg10_45_cif.got.tgz:88249.got - 2010.06.27 22:07:45.
