data_PCOD8065144
_publ_section_title
;
Structure prediction by ZEFSAII (Michael W. Deem and Ramdas Pophale) SiO2 
 PCOD8065144
Probable space group: P 2/M
;
_chemical_formula_sum "Si O2"
_cell_formula_units_Z 24
_cell_length_a 12.055781
_cell_length_b 8.982687
_cell_length_c 24.465102
_cell_angle_alpha 90.000000
_cell_angle_beta 151.660920
_cell_angle_gamma 90.000000
_cell_volume 1257.643341
_symmetry_space_group_name_H-M "P 2/M"
_symmetry_group_IT_number 10
_symmetry_cell_setting 'monoclinic'
loop_
_space_group_symop_operation_xyz
x,y,z
-x,y,-z
-x,-y,-z
x,-y,z
loop_
_atom_site_type_symbol
_atom_site_label
_atom_site_fract_x
_atom_site_fract_y
_atom_site_fract_z
Si Si1 0.006909 0.827391 0.176198
Si Si2 0.400006 0.327084 0.733920
Si Si3 0.382343 0.670060 0.057080
Si Si4 0.039910 0.174824 0.409990
Si Si5 0.485506 0.171729 0.324183
Si Si6 0.890885 0.326507 0.237655
O O1 0.262794 0.793647 0.264554
O O2 0.977215 0.730907 0.217282
O O3 0.972147 0.000000 0.175330
O O4 0.819081 0.780704 0.049329
O O5 0.337794 0.500000 0.702203
O O6 0.570890 0.297940 0.859009
O O7 0.532443 0.271088 0.737748
O O8 0.157685 0.239958 0.635969
O O9 0.302286 0.500000 0.012888
O O10 0.614974 0.704029 0.123227
O O11 0.288548 0.216855 0.543143
O O12 0.031872 0.243720 0.346275
O O13 0.001701 0.000000 0.388616
O O14 0.494654 0.000000 0.310228
O O15 0.945410 0.500000 0.267121
#
# Coordination Sequence:
#
# PCOD8065144 Si02
#       6
#     4   4   4   4   4   4
#     4  11  23  37  55  81 112 147 186 225 269 325
#     4  10  21  37  59  85 111 141 182 230 274 321
#     4   9  20  38  57  80 110 142 178 226 279 325
#     4  10  20  37  60  82 109 145 183 225 273 324
#     4  10  23  39  54  79 115 150 182 222 273 325
#     4  10  21  38  59  83 111 142 181 229 276 324
#
# _framework density 19.083310999999998
#
# number of rings (size 3 to 8) (size 9 to 14) (size 15 to 20)
#    0.000    2.000    0.000    4.000    0.000   12.000 
#    0.000    6.667    0.000    0.000    0.000    0.000 
#    0.000    0.000    0.000    0.000    0.000    0.000 
#
# Total GULP energy -297736.120744 kJ/mol
# GULP energy per Si atom -12405.671698 kJ/mol
# Density = 1.903988 g / cm^3
# Si number density = 19.083311 Si / 1000 Ang^3
#
#
#
# Elastic Constant Matrix: (Units=GPa)
#
#
# Indices 1 2 3 4 5 6 
#
# 1 -9.3331 17.2084 40.5799 0.0000 -10.3321 0.0000
# 2 17.2084 70.9104 29.1853 0.0000 -7.3232 0.0000
# 3 40.5799 29.1853 61.9534 0.0000 -7.7072 0.0000
# 4 0.0000 0.0000 0.0000 16.7158 0.0000 -12.7264
# 5 -10.3321 -7.3232 -7.7072 0.0000 19.5398 0.0000
# 6 0.0000 0.0000 0.0000 -12.7264 0.0000 33.5031
#
#
#
# Elastic Compliance Matrix: (Units=1/GPa)
#
#
# Indices 1 2 3 4 5 6 
#
# 1 -0.026616 -0.001395 0.017115 0.000000 -0.007846 0.000000
# 2 -0.001395 0.017649 -0.007013 0.000000 0.003110 0.000000
# 3 0.017115 -0.007013 0.009499 0.000000 0.010169 0.000000
# 4 0.000000 0.000000 0.000000 0.084164 0.000000 0.031970
# 5 -0.007846 0.003110 0.010169 0.000000 0.052205 0.000000
# 6 0.000000 0.000000 0.000000 0.031970 0.000000 0.041992
#
#
# Mechanical properties :
#
#
# Convention : Reuss Voigt Hill
#
# Bulk Modulus (GPa) = 55.72580 33.05310 44.38945
# Shear Modulus (GPa) = 29.85768 16.38889 23.12328
#
# Velocity S-wave (km/s) = 3.95979 2.93372 3.48473
# Velocity P-wave (km/s) = 7.08317 5.36970 6.28510
#
# Compressibility (1/GPa) = 0.01794501
#
# Stress axis : x y z
#
# Youngs Moduli (GPa) = -37.57081 56.66176 105.26996
#
# Poissons Ratio (x) = 0.07906 -1.80171
# Poissons Ratio (y) = -0.05242 0.73827
# Poissons Ratio (z) = 0.64303 0.39737
#
# Static dielectric constant tensor:
#      x y z
#    x 3.498080 0.000000 -0.040840 
#    y 0.000000 3.567910 0.000000 
#    z -0.040840 0.000000 3.486560 
# 
# 
# High freq. dielectric constant tensor:
#      x y z
#    x 1.745760 0.000000 -0.008450 
#    y 0.000000 1.752430 0.000000 
#    z -0.008450 0.000000 1.743690 
# 
# From -- ./inp_files/45260.got.cif
#   From: 2010.06.25/outbox.cif.g09.slc.cpg/sg10_23_cif.got.tgz:45260.got - 2010.06.27 22:07:45.
