data_PCOD8065788
_publ_section_title
;
Structure prediction by ZEFSAII (Michael W. Deem and Ramdas Pophale) SiO2 
 PCOD8065788
Probable space group: P 2/M
;
_chemical_formula_sum "Si O2"
_cell_formula_units_Z 28
_cell_length_a 16.168429
_cell_length_b 7.867312
_cell_length_c 10.873133
_cell_angle_alpha 90.000000
_cell_angle_beta 68.246073
_cell_angle_gamma 90.000000
_cell_volume 1284.587509
_symmetry_space_group_name_H-M "P 2/M"
_symmetry_group_IT_number 10
_symmetry_cell_setting 'monoclinic'
loop_
_space_group_symop_operation_xyz
x,y,z
-x,y,-z
-x,-y,-z
x,-y,z
loop_
_atom_site_type_symbol
_atom_site_label
_atom_site_fract_x
_atom_site_fract_y
_atom_site_fract_z
Si Si1 0.234037 0.697682 0.747336
Si Si2 0.159752 0.689114 0.421722
Si Si3 0.126541 0.810290 0.186624
Si Si4 0.471125 0.000000 0.372274
Si Si5 0.575126 0.000000 0.063666
Si Si6 0.340226 0.303629 0.449574
Si Si7 0.700475 0.693019 0.025054
Si Si8 0.068352 0.193837 0.712225
O O1 0.212839 0.500000 0.753775
O O2 0.302134 0.750261 0.603084
O O3 0.280748 0.752886 0.846566
O O4 0.138368 0.789741 0.785648
O O5 0.147337 0.500000 0.376973
O O6 0.125697 0.816029 0.335951
O O7 0.263732 0.723469 0.390852
O O8 0.103362 0.700861 0.577179
O O9 0.030044 0.741673 0.193477
O O10 0.143734 0.000000 0.127105
O O11 0.205439 0.689681 0.097425
O O12 0.500000 0.000000 0.500000
O O13 0.545052 0.000000 0.223682
O O14 0.418652 0.825567 0.374683
O O15 0.632168 0.828856 0.005872
O O16 0.500000 0.000000 0.000000
O O17 0.374508 0.500000 0.430775
O O18 0.661514 0.500000 0.040514
O O19 0.059583 0.000000 0.674984
#
# Coordination Sequence:
#
# PCOD8065788 Si02
#       8
#     4   4   4   2   2   4   4   4
#     4   9  20  39  63  93 132 171 214 265 316 376
#     4  10  21  36  58  88 126 171 216 263 315 373
#     4  11  23  38  59  90 132 173 222 267 309 381
#     4  12  26  42  72 101 120 165 212 262 342 406
#     4  12  30  50  70 100 134 167 208 283 346 410
#     4   9  21  39  63  96 126 157 206 267 319 383
#     4  11  25  46  70  92 125 176 217 262 328 396
#     4  10  21  34  57  95 131 173 215 265 319 364
#
# _framework density 21.796879000000001
#
# number of rings (size 3 to 8) (size 9 to 14) (size 15 to 20)
#    0.000    1.714    0.714    3.429    8.000    5.714 
#    0.000    2.857    0.000    0.000    0.000    0.000 
#    0.000    0.000    0.000    0.000    0.000    0.000 
#
# Total GULP energy -347159.137295 kJ/mol
# GULP energy per Si atom -12398.540618 kJ/mol
# Density = 2.174727 g / cm^3
# Si number density = 21.796879 Si / 1000 Ang^3
#
#
#
# Elastic Constant Matrix: (Units=GPa)
#
#
# Indices 1 2 3 4 5 6 
#
# 1 85.1175 50.4336 18.9872 0.0000 -13.3787 0.0000
# 2 50.4336 100.0098 20.4917 0.0000 -13.6316 0.0000
# 3 18.9872 20.4917 50.1485 0.0000 -11.1239 0.0000
# 4 0.0000 0.0000 0.0000 24.4472 0.0000 2.9455
# 5 -13.3787 -13.6316 -11.1239 0.0000 33.2238 0.0000
# 6 0.0000 0.0000 0.0000 2.9455 0.0000 27.8734
#
#
#
# Elastic Compliance Matrix: (Units=1/GPa)
#
#
# Indices 1 2 3 4 5 6 
#
# 1 0.017471 -0.007850 -0.002767 0.000000 0.002888 0.000000
# 2 -0.007850 0.014769 -0.002614 0.000000 0.002024 0.000000
# 3 -0.002767 -0.002614 0.023302 0.000000 0.005615 0.000000
# 4 0.000000 0.000000 0.000000 0.041432 0.000000 -0.004378
# 5 0.002888 0.002024 0.005615 0.000000 0.033972 0.000000
# 6 0.000000 0.000000 0.000000 -0.004378 0.000000 0.036339
#
#
# Mechanical properties :
#
#
# Convention : Reuss Voigt Hill
#
# Bulk Modulus (GPa) = 34.38661 46.12232 40.25446
# Shear Modulus (GPa) = 24.57738 26.79976 25.68857
#
# Velocity S-wave (km/s) = 3.36157 3.51026 3.43672
# Velocity P-wave (km/s) = 5.55671 6.13476 5.85287
#
# Compressibility (1/GPa) = 0.02908109
#
# Stress axis : x y z
#
# Youngs Moduli (GPa) = 57.23890 67.70973 42.91488
#
# Poissons Ratio (x) = 0.53150 0.11873
# Poissons Ratio (y) = 0.44931 0.11218
# Poissons Ratio (z) = 0.15835 0.17699
#
# Static dielectric constant tensor:
#      x y z
#    x 4.004600 0.000000 0.062720 
#    y 0.000000 3.851990 0.000000 
#    z 0.062720 0.000000 3.822790 
# 
# 
# High freq. dielectric constant tensor:
#      x y z
#    x 1.855300 0.000000 0.001610 
#    y 0.000000 1.863070 0.000000 
#    z 0.001610 0.000000 1.842340 
# 
# From -- ./inp_files/49674.got.cif
#   From: 2010.06.25/outbox.cif.g09.slc.cpg/sg10_25_cif.got.tgz:49674.got - 2010.06.27 22:07:45.
