data_PCOD8065822
_publ_section_title
;
Structure prediction by ZEFSAII (Michael W. Deem and Ramdas Pophale) SiO2 
 PCOD8065822
Probable space group: P 2/M
;
_chemical_formula_sum "Si O2"
_cell_formula_units_Z 32
_cell_length_a 20.688572
_cell_length_b 9.350001
_cell_length_c 26.900889
_cell_angle_alpha 90.000000
_cell_angle_beta 19.682315
_cell_angle_gamma 90.000000
_cell_volume 1752.616433
_symmetry_space_group_name_H-M "P 2/M"
_symmetry_group_IT_number 10
_symmetry_cell_setting 'monoclinic'
loop_
_space_group_symop_operation_xyz
x,y,z
-x,y,-z
-x,-y,-z
x,-y,z
loop_
_atom_site_type_symbol
_atom_site_label
_atom_site_fract_x
_atom_site_fract_y
_atom_site_fract_z
Si Si1 0.383674 0.665364 0.793163
Si Si2 0.616353 0.165363 0.706807
Si Si3 0.689469 0.167979 0.390767
Si Si4 0.376301 0.167178 0.448791
Si Si5 0.376310 0.332817 0.948775
Si Si6 0.689449 0.667982 0.890793
Si Si7 0.056217 0.337850 0.100415
Si Si8 0.056198 0.837853 0.600439
O O1 0.448534 0.500000 0.744571
O O2 0.500016 0.750030 0.749976
O O3 0.433810 0.742022 0.704518
O O4 0.160477 0.676562 0.971014
O O5 0.566221 0.242056 0.795443
O O6 0.839551 0.176567 0.528956
O O7 0.551504 0.000000 0.755410
O O8 0.500000 0.223053 0.500000
O O9 0.679079 0.213266 0.455727
O O10 0.872042 0.238263 0.232664
O O11 0.713634 0.000000 0.367031
O O12 0.199061 0.208201 0.541513
O O13 0.427711 0.000000 0.407631
O O14 0.427669 0.500000 0.907652
O O15 0.320978 0.286704 0.044223
O O16 0.199077 0.291774 0.041491
O O17 0.713620 0.500000 0.867068
O O18 0.872039 0.738248 0.732680
O O19 0.500000 0.723042 0.000000
O O20 0.989160 0.500000 0.157979
O O21 0.989119 0.000000 0.658013
#
# Coordination Sequence:
#
# PCOD8065822 Si02
#       8
#     4   4   4   4   4   4   4   4
#     4   9  17  30  50  77 103 126 159 202 247 293
#     4   9  17  30  50  77 103 126 159 202 247 293
#     4  10  21  35  50  71 100 133 168 205 245 290
#     4   9  18  33  52  75 101 128 164 205 243 291
#     4   9  18  33  52  75 101 128 164 205 243 291
#     4  10  21  35  50  71 100 133 168 205 245 290
#     4   9  18  32  51  75  99 125 161 204 247 293
#     4   9  18  32  51  75  99 125 161 204 247 293
#
# _framework density 18.258416
#
# number of rings (size 3 to 8) (size 9 to 14) (size 15 to 20)
#    0.000    2.750    0.000    3.000    0.000    6.500 
#    0.000    1.250    0.000    7.500    0.000    0.000 
#    0.000    0.000    0.000    0.000    0.000    0.000 
#
# Total GULP energy -396678.035625 kJ/mol
# GULP energy per Si atom -12396.188613 kJ/mol
# Density = 1.821686 g / cm^3
# Si number density = 18.258416 Si / 1000 Ang^3
#
#
#
# Elastic Constant Matrix: (Units=GPa)
#
#
# Indices 1 2 3 4 5 6 
#
# 1 31.3218 22.3226 41.5443 0.0000 -9.8495 0.0000
# 2 22.3226 74.9592 63.7375 0.0000 5.4670 0.0000
# 3 41.5443 63.7375 135.7387 0.0000 4.5921 0.0000
# 4 0.0000 0.0000 0.0000 41.9957 0.0000 4.7974
# 5 -9.8495 5.4670 4.5921 0.0000 17.1070 0.0000
# 6 0.0000 0.0000 0.0000 4.7974 0.0000 19.0436
#
#
#
# Elastic Compliance Matrix: (Units=1/GPa)
#
#
# Indices 1 2 3 4 5 6 
#
# 1 0.094626 -0.010688 -0.026139 0.000000 0.064914 0.000000
# 2 -0.010688 0.023738 -0.007478 0.000000 -0.011732 0.000000
# 3 -0.026139 -0.007478 0.019484 0.000000 -0.017890 0.000000
# 4 0.000000 0.000000 0.000000 0.024518 0.000000 -0.006176
# 5 0.064914 -0.011732 -0.017890 0.000000 0.104381 0.000000
# 6 0.000000 0.000000 0.000000 -0.006176 0.000000 0.054067
#
#
# Mechanical properties :
#
#
# Convention : Reuss Voigt Hill
#
# Bulk Modulus (GPa) = 20.30955 55.24760 37.77858
# Shear Modulus (GPa) = 11.74159 23.25695 17.49927
#
# Velocity S-wave (km/s) = 2.53865 3.57286 3.09920
# Velocity P-wave (km/s) = 4.44303 6.88076 5.79160
#
# Compressibility (1/GPa) = 0.04923791
#
# Stress axis : x y z
#
# Youngs Moduli (GPa) = 10.56789 42.12675 51.32455
#
# Poissons Ratio (x) = 0.45025 1.34156
# Poissons Ratio (y) = 0.11295 0.38382
# Poissons Ratio (z) = 0.27623 0.31504
#
# Static dielectric constant tensor:
#      x y z
#    x 3.294270 0.000000 0.396740 
#    y 0.000000 3.430740 0.000000 
#    z 0.396740 0.000000 3.667340 
# 
# 
# High freq. dielectric constant tensor:
#      x y z
#    x 1.676690 0.000000 0.023660 
#    y 0.000000 1.709290 0.000000 
#    z 0.023660 0.000000 1.712010 
# 
# From -- ./inp_files/86998.got.cif
#   From: 2010.06.25/outbox.cif.g09.slc.cpg/sg10_44_cif.got.tgz:86998.got - 2010.06.27 22:07:45.
