data_PCOD8065549
_publ_section_title
;
Structure prediction by ZEFSAII (Michael W. Deem and Ramdas Pophale) SiO2 
 PCOD8065549
Probable space group: P 2/M
;
_chemical_formula_sum "Si O2"
_cell_formula_units_Z 22
_cell_length_a 12.068632
_cell_length_b 15.219362
_cell_length_c 6.389869
_cell_angle_alpha 90.000000
_cell_angle_beta 118.428230
_cell_angle_gamma 90.000000
_cell_volume 1032.143026
_symmetry_space_group_name_H-M "P 2/M"
_symmetry_group_IT_number 10
_symmetry_cell_setting 'monoclinic'
loop_
_space_group_symop_operation_xyz
x,y,z
-x,y,-z
-x,-y,-z
x,-y,z
loop_
_atom_site_type_symbol
_atom_site_label
_atom_site_fract_x
_atom_site_fract_y
_atom_site_fract_z
Si Si1 0.308300 0.811907 0.517523
Si Si2 0.141979 0.099047 0.061731
Si Si3 0.500000 0.235699 0.000000
Si Si4 0.383028 0.667439 0.273170
Si Si5 0.115551 0.598770 0.947264
Si Si6 0.872485 0.233365 0.304754
O O1 0.234584 0.894236 0.347940
O O2 0.422609 0.831943 0.781356
O O3 0.361690 0.756850 0.376728
O O4 0.214341 0.754150 0.572492
O O5 0.150476 0.000000 0.981665
O O6 0.186066 0.168678 0.924667
O O7 0.000000 0.123007 0.000000
O O8 0.414507 0.302963 0.062810
O O9 0.500000 0.618700 0.500000
O O10 0.256140 0.609163 0.172433
O O11 0.104753 0.500000 0.848156
O O12 0.100155 0.669005 0.750879
O O13 0.000000 0.617140 0.000000
O O14 0.000000 0.188135 0.500000
#
# Coordination Sequence:
#
# PCOD8065549 Si02
#       6
#     4   4   2   4   4   4
#     4  11  20  38  64  93 124 166 213 265 319 382
#     4  11  23  38  60  96 132 167 216 268 321 388
#     4  10  20  38  68  92 120 172 222 264 316 390
#     4  10  21  39  67  94 125 168 220 270 321 378
#     4  11  23  41  64  96 134 172 217 263 319 388
#     4  12  22  38  66  90 128 173 209 260 328 382
#
# _framework density 21.314875000000001
#
# number of rings (size 3 to 8) (size 9 to 14) (size 15 to 20)
#    0.000    1.091    5.455    1.636    0.000    1.818 
#    0.000    1.818    0.000   10.364    0.000    0.000 
#    0.000    0.000    0.000    0.000    0.000    0.000 
#
# Total GULP energy -272551.921403 kJ/mol
# GULP energy per Si atom -12388.723700 kJ/mol
# Density = 2.126636 g / cm^3
# Si number density = 21.314875 Si / 1000 Ang^3
#
#
#
# Elastic Constant Matrix: (Units=GPa)
#
#
# Indices 1 2 3 4 5 6 
#
# 1 127.1132 25.6945 42.0146 0.0000 -1.0276 0.0000
# 2 25.6945 89.7648 38.2213 0.0000 -6.3305 0.0000
# 3 42.0146 38.2213 120.4715 0.0000 13.1341 0.0000
# 4 0.0000 0.0000 0.0000 -4.1885 0.0000 3.9535
# 5 -1.0276 -6.3305 13.1341 0.0000 48.6021 0.0000
# 6 0.0000 0.0000 0.0000 3.9535 0.0000 10.7292
#
#
#
# Elastic Compliance Matrix: (Units=1/GPa)
#
#
# Indices 1 2 3 4 5 6 
#
# 1 0.009078 -0.001340 -0.002826 0.000000 0.000781 0.000000
# 2 -0.001340 0.013478 -0.004118 0.000000 0.002840 0.000000
# 3 -0.002826 -0.004118 0.010981 0.000000 -0.003564 0.000000
# 4 0.000000 0.000000 0.000000 -0.177139 0.000000 0.065273
# 5 0.000781 0.002840 -0.003564 0.000000 0.021925 0.000000
# 6 0.000000 0.000000 0.000000 0.065273 0.000000 0.069152
#
#
# Mechanical properties :
#
#
# Convention : Reuss Voigt Hill
#
# Bulk Modulus (GPa) = 58.93285 61.02335 59.97810
# Shear Modulus (GPa) = -165.01662 26.45651 -69.28005
#
# Velocity S-wave (km/s) = -8.80833 3.52692 -5.70734
# Velocity P-wave (km/s) = 8.70288 6.72883 3.90275
#
# Compressibility (1/GPa) = 0.01696846
#
# Stress axis : x y z
#
# Youngs Moduli (GPa) = 110.15272 74.19691 91.06319
#
# Poissons Ratio (x) = 0.09944 0.25735
# Poissons Ratio (y) = 0.14763 0.37502
# Poissons Ratio (z) = 0.31129 0.30556
#
# Static dielectric constant tensor:
#      x y z
#    x 4.324970 0.000000 0.434560 
#    y 0.000000 3.351840 0.000000 
#    z 0.434560 0.000000 4.401540 
# 
# 
# High freq. dielectric constant tensor:
#      x y z
#    x 1.859440 0.000000 0.010990 
#    y 0.000000 1.785350 0.000000 
#    z 0.010990 0.000000 1.850390 
# 
# From -- ./inp_files/7275.got.cif
#   From: 2010.06.25/outbox.cif.g09.slc.cpg/sg10_4_cif.got.tgz:7275.got - 2010.06.27 22:07:45.
