data_PCOD8065968
_publ_section_title
;
Structure prediction by ZEFSAII (Michael W. Deem and Ramdas Pophale) SiO2 
 PCOD8065968
Probable space group: P 2/M
;
_chemical_formula_sum "Si O2"
_cell_formula_units_Z 32
_cell_length_a 29.338664
_cell_length_b 13.581706
_cell_length_c 9.452174
_cell_angle_alpha 90.000000
_cell_angle_beta 26.823791
_cell_angle_gamma 90.000000
_cell_volume 1699.580669
_symmetry_space_group_name_H-M "P 2/M"
_symmetry_group_IT_number 10
_symmetry_cell_setting 'monoclinic'
loop_
_space_group_symop_operation_xyz
x,y,z
-x,y,-z
-x,-y,-z
x,-y,z
loop_
_atom_site_type_symbol
_atom_site_label
_atom_site_fract_x
_atom_site_fract_y
_atom_site_fract_z
Si Si1 0.081817 0.385550 0.151971
Si Si2 0.736660 0.113783 0.587791
Si Si3 0.245093 0.388050 0.904727
Si Si4 0.586115 0.247803 0.156671
Si Si5 0.553741 0.701944 0.703754
Si Si6 0.242487 0.617034 0.222915
Si Si7 0.616480 0.106154 0.634111
Si Si8 0.905005 0.730200 0.167324
O O1 0.087533 0.500000 0.089916
O O2 0.000000 0.368355 0.500000
O O3 0.185778 0.342811 0.934207
O O4 0.057405 0.321788 0.080617
O O5 0.688352 0.126967 0.567446
O O6 0.842305 0.171718 0.303472
O O7 0.757141 0.000000 0.566853
O O8 0.658392 0.156321 0.919682
O O9 0.210213 0.500000 0.001670
O O10 0.365962 0.382856 0.551700
O O11 0.210090 0.346605 0.155090
O O12 0.500000 0.207777 0.500000
O O13 0.536109 0.294651 0.157407
O O14 0.647678 0.336725 0.055326
O O15 0.622810 0.802640 0.508332
O O16 0.500000 0.681071 0.000000
O O17 0.252930 0.500000 0.203273
O O18 0.162941 0.652632 0.559046
O O19 0.645769 0.000000 0.483817
O O20 0.500000 0.102282 0.000000
O O21 0.000000 0.761327 0.000000
#
# Coordination Sequence:
#
# PCOD8065968 Si02
#       8
#     4   4   4   4   4   4   4   4
#     4  10  21  37  60  89 115 142 186 239 286 334
#     4  10  21  38  59  85 115 147 191 240 286 338
#     4  10  21  36  53  77 112 151 189 232 278 326
#     4  11  21  35  54  84 117 153 195 233 281 338
#     4  11  20  33  53  78 112 151 190 232 270 333
#     4  10  22  38  56  80 117 157 193 233 282 341
#     4   9  16  30  54  78 102 139 179 220 274 331
#     4  11  23  39  62  87 112 151 191 233 291 349
#
# _framework density 18.828173
#
# number of rings (size 3 to 8) (size 9 to 14) (size 15 to 20)
#    0.000    1.750    3.750    1.875    1.750    3.500 
#    0.000    0.000    0.000    0.375    0.000    0.000 
#    0.000    0.000    0.000    0.000    0.000    0.000 
#
# Total GULP energy -396626.234842 kJ/mol
# GULP energy per Si atom -12394.569839 kJ/mol
# Density = 1.878532 g / cm^3
# Si number density = 18.828173 Si / 1000 Ang^3
#
#
#
# Elastic Constant Matrix: (Units=GPa)
#
#
# Indices 1 2 3 4 5 6 
#
# 1 128.6968 36.1670 33.4792 0.0000 -14.7778 0.0000
# 2 36.1670 67.5113 24.8459 0.0000 -15.3612 0.0000
# 3 33.4792 24.8459 79.6767 0.0000 -4.6627 0.0000
# 4 0.0000 0.0000 0.0000 16.0862 0.0000 -6.2243
# 5 -14.7778 -15.3612 -4.6627 0.0000 32.5843 0.0000
# 6 0.0000 0.0000 0.0000 -6.2243 0.0000 30.5319
#
#
#
# Elastic Compliance Matrix: (Units=1/GPa)
#
#
# Indices 1 2 3 4 5 6 
#
# 1 0.009809 -0.003686 -0.002837 0.000000 0.002305 0.000000
# 2 -0.003686 0.019980 -0.004264 0.000000 0.007137 0.000000
# 3 -0.002837 -0.004264 0.015005 0.000000 -0.001150 0.000000
# 4 0.000000 0.000000 0.000000 0.067489 0.000000 0.013758
# 5 0.002305 0.007137 -0.001150 0.000000 0.034935 0.000000
# 6 0.000000 0.000000 0.000000 0.013758 0.000000 0.035557
#
#
# Mechanical properties :
#
#
# Convention : Reuss Voigt Hill
#
# Bulk Modulus (GPa) = 43.06688 51.65212 47.35950
# Shear Modulus (GPa) = 23.57485 27.93331 25.75408
#
# Velocity S-wave (km/s) = 3.54235 3.85592 3.70246
# Velocity P-wave (km/s) = 6.29716 6.87875 6.59437
#
# Compressibility (1/GPa) = 0.02321970
#
# Stress axis : x y z
#
# Youngs Moduli (GPa) = 101.94894 50.04924 66.64333
#
# Poissons Ratio (x) = 0.18449 0.18908
# Poissons Ratio (y) = 0.37580 0.28417
# Poissons Ratio (z) = 0.28925 0.21341
#
# Static dielectric constant tensor:
#      x y z
#    x 3.770350 0.000000 -0.067480 
#    y 0.000000 3.670170 0.000000 
#    z -0.067480 0.000000 3.311360 
# 
# 
# High freq. dielectric constant tensor:
#      x y z
#    x 1.747840 0.000000 -0.008150 
#    y 0.000000 1.715710 0.000000 
#    z -0.008150 0.000000 1.718440 
# 
# From -- ./inp_files/37693.got.cif
#   From: 2010.06.25/outbox.cif.g09.slc.cpg/sg10_19_cif.got.tgz:37693.got - 2010.06.27 22:07:45.
