data_PCOD8065024
_publ_section_title
;
Structure prediction by ZEFSAII (Michael W. Deem and Ramdas Pophale) SiO2 
 PCOD8065024
Probable space group: P 2/M
;
_chemical_formula_sum "Si O2"
_cell_formula_units_Z 20
_cell_length_a 16.728857
_cell_length_b 7.392397
_cell_length_c 24.330729
_cell_angle_alpha 90.000000
_cell_angle_beta 160.677666
_cell_angle_gamma 90.000000
_cell_volume 995.589161
_symmetry_space_group_name_H-M "P 2/M"
_symmetry_group_IT_number 10
_symmetry_cell_setting 'monoclinic'
loop_
_space_group_symop_operation_xyz
x,y,z
-x,y,-z
-x,-y,-z
x,-y,z
loop_
_atom_site_type_symbol
_atom_site_label
_atom_site_fract_x
_atom_site_fract_y
_atom_site_fract_z
Si Si1 0.764306 0.786621 0.989683
Si Si2 0.233702 0.214864 0.682708
Si Si3 0.470942 0.500000 0.544692
Si Si4 0.000051 0.500000 0.934244
Si Si5 0.917105 0.210116 0.697040
Si Si6 0.744627 0.786319 0.181648
O O1 0.869152 0.678151 0.005546
O O2 0.917992 0.735686 0.143768
O O3 0.781785 0.000000 0.988318
O O4 0.486758 0.724776 0.819265
O O5 0.209181 0.294717 0.728134
O O6 0.000000 0.294527 0.500000
O O7 0.226035 0.000000 0.678451
O O8 0.500000 0.500000 0.500000
O O9 0.721084 0.500000 0.738108
O O10 0.330839 0.316947 0.467803
O O11 0.000000 0.500000 0.000000
O O12 0.045566 0.265599 0.723970
O O13 0.853136 0.000000 0.658065
O O14 0.713893 0.000000 0.166423
O O15 0.500000 0.699357 0.000000
#
# Coordination Sequence:
#
# PCOD8065024 Si02
#       6
#     4   4   2   2   4   4
#     4  10  20  39  65  90 119 160 201 241 301 363
#     4   9  17  30  54  88 125 159 191 231 284 355
#     4  12  24  42  62  87 114 151 209 261 299 345
#     4  12  28  46  62  84 120 157 198 263 314 348
#     4  10  20  36  64  94 121 155 200 249 295 352
#     4   9  15  28  52  84 118 152 188 229 282 344
#
# _framework density 20.088607
#
# number of rings (size 3 to 8) (size 9 to 14) (size 15 to 20)
#    0.000    2.000    4.000    0.000    0.000    3.200 
#    0.000    4.000    0.000    0.000    0.000    0.000 
#    0.000    0.000    0.000    0.000    0.000    0.000 
#
# Total GULP energy -247922.067444 kJ/mol
# GULP energy per Si atom -12396.103372 kJ/mol
# Density = 2.004288 g / cm^3
# Si number density = 20.088607 Si / 1000 Ang^3
#
#
#
# Elastic Constant Matrix: (Units=GPa)
#
#
# Indices 1 2 3 4 5 6 
#
# 1 191.6474 48.3594 95.7548 0.0000 -3.1280 0.0000
# 2 48.3594 75.8644 42.7498 0.0000 12.9689 0.0000
# 3 95.7548 42.7498 176.4938 0.0000 4.4723 0.0000
# 4 0.0000 0.0000 0.0000 23.3727 0.0000 20.8719
# 5 -3.1280 12.9689 4.4723 0.0000 32.3467 0.0000
# 6 0.0000 0.0000 0.0000 20.8719 0.0000 47.8086
#
#
#
# Elastic Compliance Matrix: (Units=1/GPa)
#
#
# Indices 1 2 3 4 5 6 
#
# 1 0.007897 -0.003516 -0.003500 0.000000 0.002657 0.000000
# 2 -0.003516 0.017925 -0.002251 0.000000 -0.007215 0.000000
# 3 -0.003500 -0.002251 0.008124 0.000000 -0.000559 0.000000
# 4 0.000000 0.000000 0.000000 0.070124 0.000000 -0.030614
# 5 0.002657 -0.007215 -0.000559 0.000000 0.034142 0.000000
# 6 0.000000 0.000000 0.000000 -0.030614 0.000000 0.034282
#
#
# Mechanical properties :
#
#
# Convention : Reuss Voigt Hill
#
# Bulk Modulus (GPa) = 64.88718 90.85929 77.87323
# Shear Modulus (GPa) = 25.48852 37.84836 31.66844
#
# Velocity S-wave (km/s) = 3.56589 4.34530 3.97475
# Velocity P-wave (km/s) = 7.02316 8.39660 7.74040
#
# Compressibility (1/GPa) = 0.01541137
#
# Stress axis : x y z
#
# Youngs Moduli (GPa) = 126.62363 55.78888 123.08489
#
# Poissons Ratio (x) = 0.19615 0.43084
# Poissons Ratio (y) = 0.44521 0.27710
# Poissons Ratio (z) = 0.44323 0.12560
#
# Static dielectric constant tensor:
#      x y z
#    x 3.831740 0.000000 -0.022760 
#    y 0.000000 3.441500 0.000000 
#    z -0.022760 0.000000 3.737110 
# 
# 
# High freq. dielectric constant tensor:
#      x y z
#    x 1.784710 0.000000 0.007780 
#    y 0.000000 1.777850 0.000000 
#    z 0.007780 0.000000 1.784460 
# 
# From -- ./inp_files/89437.got.cif
#   From: 2010.06.25/outbox.cif.g09.slc.cpg/sg10_45_cif.got.tgz:89437.got - 2010.06.27 22:07:45.
