data_PCOD8065796
_publ_section_title
;
Structure prediction by ZEFSAII (Michael W. Deem and Ramdas Pophale) SiO2 
 PCOD8065796
Probable space group: P 2/M
;
_chemical_formula_sum "Si O2"
_cell_formula_units_Z 32
_cell_length_a 9.601149
_cell_length_b 14.370328
_cell_length_c 23.907141
_cell_angle_alpha 90.000000
_cell_angle_beta 35.293170
_cell_angle_gamma 90.000000
_cell_volume 1905.747040
_symmetry_space_group_name_H-M "P 2/M"
_symmetry_group_IT_number 10
_symmetry_cell_setting 'monoclinic'
loop_
_space_group_symop_operation_xyz
x,y,z
-x,y,-z
-x,-y,-z
x,-y,z
loop_
_atom_site_type_symbol
_atom_site_label
_atom_site_fract_x
_atom_site_fract_y
_atom_site_fract_z
Si Si1 0.230643 0.610412 0.085848
Si Si2 0.903547 0.389960 0.092066
Si Si3 0.920193 0.710538 0.395682
Si Si4 0.832849 0.101760 0.471968
Si Si5 0.643835 0.606229 0.582981
Si Si6 0.364427 0.898209 0.346899
Si Si7 0.421022 0.709064 0.283817
Si Si8 0.874695 0.394083 0.297632
O O1 0.241153 0.500000 0.077955
O O2 0.089485 0.648532 0.077666
O O3 0.095100 0.640498 0.186875
O O4 0.500000 0.652782 0.000000
O O5 0.870875 0.500000 0.107962
O O6 0.642106 0.346268 0.185796
O O7 0.000000 0.360150 0.000000
O O8 0.810133 0.815132 0.434646
O O9 0.802721 0.647023 0.481420
O O10 0.848626 0.672102 0.359024
O O11 0.209388 0.710499 0.307114
O O12 0.635942 0.115073 0.585772
O O13 0.093031 0.107431 0.414522
O O14 0.796025 0.000000 0.455299
O O15 0.722479 0.500000 0.566373
O O16 0.692473 0.661874 0.623872
O O17 0.361996 0.613108 0.662193
O O18 0.510343 0.814074 0.269936
O O19 0.476640 0.000000 0.295052
O O20 0.915479 0.500000 0.304931
#
# Coordination Sequence:
#
# PCOD8065796 Si02
#       8
#     4   4   4   4   4   4   4   4
#     4   9  18  34  53  68  88 126 173 207 239 289
#     4  10  21  35  51  73 101 128 157 207 260 288
#     4  11  21  30  48  76 100 132 172 201 237 289
#     4   8  14  27  46  69  98 128 163 205 243 283
#     4  11  21  34  46  64 102 144 170 194 235 288
#     4   8  14  27  48  71  96 128 162 200 247 294
#     4  11  20  32  51  76 101 125 166 210 249 293
#     4  10  21  35  48  66  98 139 173 201 237 288
#
# _framework density 16.791315000000001
#
# number of rings (size 3 to 8) (size 9 to 14) (size 15 to 20)
#    0.000    2.250    2.500    2.250    1.750    3.500 
#    0.000    0.000    0.000    2.625    0.000    0.000 
#    0.000    1.000    0.000    0.000    0.000    0.000 
#
# Total GULP energy -396714.191167 kJ/mol
# GULP energy per Si atom -12397.318474 kJ/mol
# Density = 1.675310 g / cm^3
# Si number density = 16.791315 Si / 1000 Ang^3
#
#
#
# Elastic Constant Matrix: (Units=GPa)
#
#
# Indices 1 2 3 4 5 6 
#
# 1 30.6321 13.7681 4.6499 0.0000 4.4538 0.0000
# 2 13.7681 81.7429 14.1168 0.0000 10.9877 0.0000
# 3 4.6499 14.1168 65.8162 0.0000 0.9835 0.0000
# 4 0.0000 0.0000 0.0000 14.3862 0.0000 4.8178
# 5 4.4538 10.9877 0.9835 0.0000 27.0165 0.0000
# 6 0.0000 0.0000 0.0000 4.8178 0.0000 13.0543
#
#
#
# Elastic Compliance Matrix: (Units=1/GPa)
#
#
# Indices 1 2 3 4 5 6 
#
# 1 0.035766 -0.005297 -0.001336 0.000000 -0.003693 0.000000
# 2 -0.005297 0.014223 -0.002604 0.000000 -0.004816 0.000000
# 3 -0.001336 -0.002604 0.015836 0.000000 0.000703 0.000000
# 4 0.000000 0.000000 0.000000 0.079314 0.000000 -0.029272
# 5 -0.003693 -0.004816 0.000703 0.000000 0.039557 0.000000
# 6 0.000000 0.000000 0.000000 -0.029272 0.000000 0.087406
#
#
# Mechanical properties :
#
#
# Convention : Reuss Voigt Hill
#
# Bulk Modulus (GPa) = 21.11878 27.02896 24.07387
# Shear Modulus (GPa) = 16.32070 20.60182 18.46126
#
# Velocity S-wave (km/s) = 3.12103 3.50656 3.31940
# Velocity P-wave (km/s) = 5.05888 5.70321 5.39068
#
# Compressibility (1/GPa) = 0.04735121
#
# Stress axis : x y z
#
# Youngs Moduli (GPa) = 27.95947 70.30936 63.14605
#
# Poissons Ratio (x) = 0.37243 0.08433
# Poissons Ratio (y) = 0.14810 0.16446
# Poissons Ratio (z) = 0.03734 0.18312
#
# Static dielectric constant tensor:
#      x y z
#    x 3.071420 0.000000 0.007610 
#    y 0.000000 3.370750 0.000000 
#    z 0.007610 0.000000 3.035790 
# 
# 
# High freq. dielectric constant tensor:
#      x y z
#    x 1.636940 0.000000 0.002680 
#    y 0.000000 1.634050 0.000000 
#    z 0.002680 0.000000 1.627960 
# 
# From -- ./inp_files/29497.got.cif
#   From: 2010.06.25/outbox.cif.g09.slc.cpg/sg10_15_cif.got.tgz:29497.got - 2010.06.27 22:07:45.
