data_PCOD8065486
_publ_section_title
;
Structure prediction by ZEFSAII (Michael W. Deem and Ramdas Pophale) SiO2 
 PCOD8065486
Probable space group: P 2/M
;
_chemical_formula_sum "Si O2"
_cell_formula_units_Z 28
_cell_length_a 10.490602
_cell_length_b 7.645721
_cell_length_c 27.882741
_cell_angle_alpha 90.000000
_cell_angle_beta 37.294909
_cell_angle_gamma 90.000000
_cell_volume 1355.089476
_symmetry_space_group_name_H-M "P 2/M"
_symmetry_group_IT_number 10
_symmetry_cell_setting 'monoclinic'
loop_
_space_group_symop_operation_xyz
x,y,z
-x,y,-z
-x,-y,-z
x,-y,z
loop_
_atom_site_type_symbol
_atom_site_label
_atom_site_fract_x
_atom_site_fract_y
_atom_site_fract_z
Si Si1 0.379999 0.697765 0.670665
Si Si2 0.948806 0.707038 0.759916
Si Si3 0.772297 0.000000 0.129122
Si Si4 0.476580 0.700713 0.063227
Si Si5 0.509788 0.292307 0.257603
Si Si6 0.245830 0.000000 0.978405
Si Si7 0.930234 0.705339 0.657547
Si Si8 0.376645 0.801609 0.491398
O O1 0.322287 0.500000 0.699563
O O2 0.467496 0.775211 0.694327
O O3 0.558789 0.704055 0.576551
O O4 0.163689 0.790207 0.717421
O O5 0.969939 0.500000 0.750722
O O6 0.755762 0.762819 0.851451
O O7 0.911977 0.779970 0.717168
O O8 0.672142 0.179755 0.178152
O O9 0.752793 0.000000 0.078522
O O10 0.015993 0.000000 0.070821
O O11 0.517586 0.500000 0.066702
O O12 0.644560 0.822108 0.038231
O O13 0.500000 0.724544 0.000000
O O14 0.553942 0.500000 0.237172
O O15 0.276157 0.243423 0.310288
O O16 0.968043 0.500000 0.646793
O O17 0.127259 0.792326 0.572210
O O18 0.500000 0.716888 0.500000
O O19 0.451328 0.000000 0.463205
#
# Coordination Sequence:
#
# PCOD8065486 Si02
#       8
#     4   4   2   4   4   2   4   4
#     4  10  21  39  62  88 121 161 210 261 311 376
#     4   9  18  35  62  90 116 160 211 255 315 377
#     4  11  26  44  68  89 133 173 212 267 321 380
#     4  10  22  41  66  97 134 167 209 272 328 380
#     4  10  24  43  65  94 124 167 216 261 321 384
#     4  11  25  44  62 100 126 171 221 256 324 395
#     4  10  20  38  63  86 118 163 212 260 307 371
#     4  11  23  37  55  91 130 160 203 256 317 374
#
# _framework density 20.662842000000001
#
# number of rings (size 3 to 8) (size 9 to 14) (size 15 to 20)
#    0.000    1.857    1.429    1.500    4.000    3.429 
#    2.571    4.286    0.000    0.000    0.000    0.000 
#    0.000    0.000    0.000    0.000    0.000    0.000 
#
# Total GULP energy -347206.994172 kJ/mol
# GULP energy per Si atom -12400.249792 kJ/mol
# Density = 2.061581 g / cm^3
# Si number density = 20.662842 Si / 1000 Ang^3
#
#
#
# Elastic Constant Matrix: (Units=GPa)
#
#
# Indices 1 2 3 4 5 6 
#
# 1 165.1790 34.1765 81.0742 0.0000 -13.8114 0.0000
# 2 34.1765 53.4410 40.0180 0.0000 -0.4563 0.0000
# 3 81.0742 40.0180 172.2424 0.0000 -17.8361 0.0000
# 4 0.0000 0.0000 0.0000 42.9505 0.0000 -1.3150
# 5 -13.8114 -0.4563 -17.8361 0.0000 25.5587 0.0000
# 6 0.0000 0.0000 0.0000 -1.3150 0.0000 11.2410
#
#
#
# Elastic Compliance Matrix: (Units=1/GPa)
#
#
# Indices 1 2 3 4 5 6 
#
# 1 0.008349 -0.003101 -0.002962 0.000000 0.002389 0.000000
# 2 -0.003101 0.024103 -0.004602 0.000000 -0.004457 0.000000
# 3 -0.002962 -0.004602 0.008726 0.000000 0.004406 0.000000
# 4 0.000000 0.000000 0.000000 0.023366 0.000000 0.002733
# 5 0.002389 -0.004457 0.004406 0.000000 0.043412 0.000000
# 6 0.000000 0.000000 0.000000 0.002733 0.000000 0.089280
#
#
# Mechanical properties :
#
#
# Convention : Reuss Voigt Hill
#
# Bulk Modulus (GPa) = 50.38283 77.93332 64.15807
# Shear Modulus (GPa) = 22.20419 31.65629 26.93024
#
# Velocity S-wave (km/s) = 3.28166 3.91837 3.61407
# Velocity P-wave (km/s) = 6.22859 7.63348 6.96654
#
# Compressibility (1/GPa) = 0.01984803
#
# Stress axis : x y z
#
# Youngs Moduli (GPa) = 119.77009 41.48797 114.60658
#
# Poissons Ratio (x) = 0.12866 0.33948
# Poissons Ratio (y) = 0.37141 0.52741
# Poissons Ratio (z) = 0.35477 0.19092
#
# Static dielectric constant tensor:
#      x y z
#    x 4.007430 0.000000 -0.024340 
#    y 0.000000 3.565250 0.000000 
#    z -0.024340 0.000000 3.765460 
# 
# 
# High freq. dielectric constant tensor:
#      x y z
#    x 1.814510 0.000000 0.001770 
#    y 0.000000 1.799920 0.000000 
#    z 0.001770 0.000000 1.815120 
# 
# From -- ./inp_files/92008.got.cif
#   From: 2010.06.25/outbox.cif.g09.slc.cpg/sg10_47_cif.got.tgz:92008.got - 2010.06.27 22:07:45.
