data_PCOD8065578
_publ_section_title
;
Structure prediction by ZEFSAII (Michael W. Deem and Ramdas Pophale) SiO2 
 PCOD8065578
Probable space group: P 2/M
;
_chemical_formula_sum "Si O2"
_cell_formula_units_Z 24
_cell_length_a 8.857275
_cell_length_b 20.423229
_cell_length_c 8.296047
_cell_angle_alpha 90.000000
_cell_angle_beta 50.061386
_cell_angle_gamma 90.000000
_cell_volume 1150.640650
_symmetry_space_group_name_H-M "P 2/M"
_symmetry_group_IT_number 10
_symmetry_cell_setting 'monoclinic'
loop_
_space_group_symop_operation_xyz
x,y,z
-x,y,-z
-x,-y,-z
x,-y,z
loop_
_atom_site_type_symbol
_atom_site_label
_atom_site_fract_x
_atom_site_fract_y
_atom_site_fract_z
Si Si1 0.631817 0.160295 0.042619
Si Si2 0.000000 0.651473 0.500000
Si Si3 0.655644 0.729178 0.624540
Si Si4 0.500000 0.371980 0.500000
Si Si5 0.284349 0.926804 0.716975
Si Si6 0.918890 0.424892 0.225467
Si Si7 0.953976 0.189872 0.214926
O O1 0.486879 0.216667 0.205094
O O2 0.703061 0.106398 0.118332
O O3 0.500000 0.123186 0.000000
O O4 0.836885 0.190725 0.831897
O O5 0.802490 0.695662 0.652819
O O6 0.994926 0.610831 0.335955
O O7 0.513585 0.674520 0.647028
O O8 0.797847 0.758577 0.388554
O O9 0.685377 0.419581 0.368202
O O10 0.500000 0.928329 0.500000
O O11 0.139844 0.883123 0.706654
O O12 0.197097 0.000000 0.790150
O O13 0.983946 0.500000 0.198888
O O14 0.000000 0.395456 0.000000
O O15 0.000000 0.210299 0.000000
#
# Coordination Sequence:
#
# PCOD8065578 Si02
#       7
#     4   2   4   2   4   4   4
#     4  11  23  36  57  85 118 156 189 243 303 354
#     4  10  23  38  64  90 123 164 194 248 298 358
#     4  11  21  38  55  88 127 151 196 247 294 356
#     4  10  21  34  62  90 119 156 200 248 292 354
#     4  10  20  39  62  81 109 152 200 247 293 353
#     4  10  22  42  64  89 122 160 203 247 294 348
#     4  10  21  36  61  86 114 158 195 240 301 357
#
# _framework density 20.857946999999999
#
# number of rings (size 3 to 8) (size 9 to 14) (size 15 to 20)
#    0.000    1.667    1.667    3.500    0.000   10.000 
#    0.000    2.500    0.000   11.000    0.000    0.000 
#    0.000    0.000    0.000    0.000    0.000    0.000 
#
# Total GULP energy -297400.723772 kJ/mol
# GULP energy per Si atom -12391.696824 kJ/mol
# Density = 2.081047 g / cm^3
# Si number density = 20.857947 Si / 1000 Ang^3
#
#
#
# Elastic Constant Matrix: (Units=GPa)
#
#
# Indices 1 2 3 4 5 6 
#
# 1 126.0693 30.5466 31.6606 0.0000 -8.9278 0.0000
# 2 30.5466 87.0214 34.5321 0.0000 4.1318 0.0000
# 3 31.6606 34.5321 87.9275 0.0000 -6.1044 0.0000
# 4 0.0000 0.0000 0.0000 12.4620 0.0000 4.6351
# 5 -8.9278 4.1318 -6.1044 0.0000 31.1908 0.0000
# 6 0.0000 0.0000 0.0000 4.6351 0.0000 26.6007
#
#
#
# Elastic Compliance Matrix: (Units=1/GPa)
#
#
# Indices 1 2 3 4 5 6 
#
# 1 0.009268 -0.002513 -0.002173 0.000000 0.002560 0.000000
# 2 -0.002513 0.014556 -0.005064 0.000000 -0.003639 0.000000
# 3 -0.002173 -0.005064 0.014343 0.000000 0.002856 0.000000
# 4 0.000000 0.000000 0.000000 0.085805 0.000000 -0.014951
# 5 0.002560 -0.003639 0.002856 0.000000 0.033835 0.000000
# 6 0.000000 0.000000 0.000000 -0.014951 0.000000 0.040198
#
#
# Mechanical properties :
#
#
# Convention : Reuss Voigt Hill
#
# Bulk Modulus (GPa) = 53.57066 54.94408 54.25737
# Shear Modulus (GPa) = 22.34877 27.66929 25.00903
#
# Velocity S-wave (km/s) = 3.27689 3.64615 3.46644
# Velocity P-wave (km/s) = 6.32903 6.64267 6.48775
#
# Compressibility (1/GPa) = 0.01866694
#
# Stress axis : x y z
#
# Youngs Moduli (GPa) = 107.89930 68.70069 69.72254
#
# Poissons Ratio (x) = 0.17262 0.15148
# Poissons Ratio (y) = 0.27112 0.35311
# Poissons Ratio (z) = 0.23442 0.34793
#
# Static dielectric constant tensor:
#      x y z
#    x 5.185690 0.000000 -0.407910 
#    y 0.000000 3.861570 0.000000 
#    z -0.407910 0.000000 3.910840 
# 
# 
# High freq. dielectric constant tensor:
#      x y z
#    x 1.830920 0.000000 -0.017290 
#    y 0.000000 1.811920 0.000000 
#    z -0.017290 0.000000 1.813340 
# 
# From -- ./inp_files/20154.got.cif
#   From: 2010.06.25/outbox.cif.g09.slc.cpg/sg10_11_cif.got.tgz:20154.got - 2010.06.27 22:07:45.
