data_PCOD8065944
_publ_section_title
;
Structure prediction by ZEFSAII (Michael W. Deem and Ramdas Pophale) SiO2 
 PCOD8065944
Probable space group: P 2/M
;
_chemical_formula_sum "Si O2"
_cell_formula_units_Z 32
_cell_length_a 21.175766
_cell_length_b 9.134962
_cell_length_c 21.175766
_cell_angle_alpha 90.000000
_cell_angle_beta 26.039213
_cell_angle_gamma 90.000000
_cell_volume 1798.191112
_symmetry_space_group_name_H-M "P 2/M"
_symmetry_group_IT_number 10
_symmetry_cell_setting 'monoclinic'
loop_
_space_group_symop_operation_xyz
x,y,z
-x,y,-z
-x,-y,-z
x,-y,z
loop_
_atom_site_type_symbol
_atom_site_label
_atom_site_fract_x
_atom_site_fract_y
_atom_site_fract_z
Si Si1 0.307731 0.174026 0.621099
Si Si2 0.557578 0.326898 0.880602
Si Si3 0.327048 0.828336 0.003374
Si Si4 0.937936 0.173680 0.246956
Si Si5 0.621099 0.825974 0.307731
Si Si6 0.003374 0.828336 0.327048
Si Si7 0.119398 0.673102 0.442422
Si Si8 0.246955 0.173680 0.937936
O O1 0.187830 0.243659 0.682854
O O2 0.283819 0.219156 0.716181
O O3 0.460528 0.235295 0.460528
O O4 0.305834 0.000000 0.617199
O O5 0.545569 0.500000 0.885783
O O6 0.456537 0.258044 0.918563
O O7 0.722548 0.274972 0.722548
O O8 0.500000 0.271911 0.000000
O O9 0.334246 0.785468 0.922837
O O10 0.351919 0.000000 0.990798
O O11 0.171915 0.783120 0.171915
O O12 0.922837 0.214532 0.334246
O O13 0.938969 0.000000 0.239419
O O14 0.086749 0.238338 0.086749
O O15 0.682854 0.756341 0.187830
O O16 0.617199 0.000000 0.305834
O O17 0.918563 0.741955 0.456537
O O18 0.990798 0.000000 0.351920
O O19 0.114217 0.500000 0.454431
O O20 0.000000 0.728089 0.500000
O O21 0.239419 0.000000 0.938969
#
# Coordination Sequence:
#
# PCOD8065944 Si02
#       8
#     4   4   4   4   4   4   4   4
#     4   8  13  20  30  47  74 109 147 183 218 258
#     4  10  21  36  53  72  93 119 152 188 227 272
#     4   9  18  32  49  70  96 124 154 189 229 273
#     4   8  14  24  37  55  81 112 145 181 220 261
#     4   8  13  20  30  47  74 109 147 183 218 258
#     4   9  18  32  49  70  96 124 154 189 229 273
#     4  10  21  36  53  72  93 119 152 188 227 272
#     4   8  14  24  37  55  81 112 145 181 220 261
#
# _framework density 17.795660999999999
#
# number of rings (size 3 to 8) (size 9 to 14) (size 15 to 20)
#    0.000    3.250    0.000    3.000    0.000    4.000 
#    0.000    5.000    0.000    0.000    0.000    0.000 
#    0.000    1.000    0.000   11.000    0.000   18.000 
#
# Total GULP energy -396566.687834 kJ/mol
# GULP energy per Si atom -12392.708995 kJ/mol
# Density = 1.775516 g / cm^3
# Si number density = 17.795661 Si / 1000 Ang^3
#
#
#
# Elastic Constant Matrix: (Units=GPa)
#
#
# Indices 1 2 3 4 5 6 
#
# 1 170.6809 20.6895 97.2540 0.0000 -2.2644 0.0000
# 2 20.6895 8.2821 19.8183 0.0000 0.1585 0.0000
# 3 97.2540 19.8183 128.9966 0.0000 9.8502 0.0000
# 4 0.0000 0.0000 0.0000 18.0401 0.0000 -3.9855
# 5 -2.2644 0.1585 9.8502 0.0000 40.7300 0.0000
# 6 0.0000 0.0000 0.0000 -3.9855 0.0000 -3.8677
#
#
#
# Elastic Compliance Matrix: (Units=1/GPa)
#
#
# Indices 1 2 3 4 5 6 
#
# 1 0.011192 -0.011683 -0.006820 0.000000 0.002317 0.000000
# 2 -0.011683 0.204823 -0.022973 0.000000 0.004109 0.000000
# 3 -0.006820 -0.022973 0.016755 0.000000 -0.004342 0.000000
# 4 0.000000 0.000000 0.000000 0.045153 0.000000 -0.046529
# 5 0.002317 0.004109 -0.004342 0.000000 0.025715 0.000000
# 6 0.000000 0.000000 0.000000 -0.046529 0.000000 -0.210607
#
#
# Mechanical properties :
#
#
# Convention : Reuss Voigt Hill
#
# Bulk Modulus (GPa) = 6.67482 64.83148 35.75315
# Shear Modulus (GPa) = 22.13157 22.32701 22.22929
#
# Velocity S-wave (km/s) = 3.53037 3.54592 3.53815
# Velocity P-wave (km/s) = 4.51408 7.29897 6.06844
#
# Compressibility (1/GPa) = 0.14981666
#
# Stress axis : x y z
#
# Youngs Moduli (GPa) = 89.35176 4.88227 59.68481
#
# Poissons Ratio (x) = 0.05704 0.40703
# Poissons Ratio (y) = 1.04394 1.37115
# Poissons Ratio (z) = 0.60935 0.11216
#
# Static dielectric constant tensor:
#      x y z
#    x 3.598840 0.000000 0.001020 
#    y 0.000000 2.677940 0.000000 
#    z 0.001020 0.000000 3.593230 
# 
# 
# High freq. dielectric constant tensor:
#      x y z
#    x 1.705460 0.000000 0.002620 
#    y 0.000000 1.623040 0.000000 
#    z 0.002620 0.000000 1.691070 
# 
# From -- ./inp_files/34426.got.cif
#   From: 2010.06.25/outbox.cif.g09.slc.cpg/sg10_18_cif.got.tgz:34426.got - 2010.06.27 22:07:45.
