data_PCOD8065617
_publ_section_title
;
Structure prediction by ZEFSAII (Michael W. Deem and Ramdas Pophale) SiO2 
 PCOD8065617
Probable space group: P 2/M
;
_chemical_formula_sum "Si O2"
_cell_formula_units_Z 28
_cell_length_a 9.217542
_cell_length_b 9.080054
_cell_length_c 27.041578
_cell_angle_alpha 90.000000
_cell_angle_beta 141.090512
_cell_angle_gamma 90.000000
_cell_volume 1421.539057
_symmetry_space_group_name_H-M "P 2/M"
_symmetry_group_IT_number 10
_symmetry_cell_setting 'monoclinic'
loop_
_space_group_symop_operation_xyz
x,y,z
-x,y,-z
-x,-y,-z
x,-y,z
loop_
_atom_site_type_symbol
_atom_site_label
_atom_site_fract_x
_atom_site_fract_y
_atom_site_fract_z
Si Si1 0.835668 0.327335 0.296123
Si Si2 0.264948 0.338937 0.558534
Si Si3 0.701941 0.330551 0.151787
Si Si4 0.739401 0.170782 0.539705
Si Si5 0.548669 0.672079 0.730153
Si Si6 0.167267 0.330501 0.999984
Si Si7 0.033714 0.825230 0.864985
O O1 0.870133 0.500000 0.312120
O O2 0.820393 0.282216 0.234650
O O3 0.600269 0.280277 0.261510
O O4 0.055633 0.253031 0.378622
O O5 0.356942 0.500000 0.564989
O O6 0.292420 0.213844 0.525422
O O7 0.401593 0.287501 0.643016
O O8 0.000000 0.356324 0.500000
O O9 0.760025 0.500000 0.154621
O O10 0.796847 0.230380 0.133114
O O11 0.429314 0.309024 0.086705
O O12 0.500000 0.216921 0.500000
O O13 0.793880 0.000000 0.558306
O O14 0.614224 0.500000 0.749826
O O15 0.777472 0.767686 0.788176
O O16 0.114921 0.500000 0.971936
O O17 0.126087 0.229691 0.941844
O O18 0.000000 0.279433 0.000000
O O19 0.034690 0.000000 0.864587
#
# Coordination Sequence:
#
# PCOD8065617 Si02
#       7
#     4   4   4   4   4   4   4
#     4  10  21  41  66  90 115 152 206 258 302 352
#     4  10  20  39  65  90 114 151 206 262 304 349
#     4  10  22  40  65  93 121 158 202 250 299 349
#     4  11  25  40  56  85 127 165 198 243 304 370
#     4  10  21  40  65  90 118 153 204 259 304 354
#     4  10  21  42  71  96 120 154 202 253 298 349
#     4  12  26  40  59  91 131 166 197 239 296 363
#
# _framework density 19.696963
#
# number of rings (size 3 to 8) (size 9 to 14) (size 15 to 20)
#    0.000    1.571    1.429    3.000    2.000    8.000 
#    0.000    1.429    0.000    0.000    0.000    0.000 
#    0.000    0.000    0.000    0.000    0.000    0.000 
#
# Total GULP energy -347275.185062 kJ/mol
# GULP energy per Si atom -12402.685181 kJ/mol
# Density = 1.965213 g / cm^3
# Si number density = 19.696963 Si / 1000 Ang^3
#
#
#
# Elastic Constant Matrix: (Units=GPa)
#
#
# Indices 1 2 3 4 5 6 
#
# 1 -451.9812-2891.2496-3489.0136 0.0000 2257.0450 0.0000
# 2 -2891.2496******************** 0.000011291.6517 0.0000
# 3 -3489.0136******************** 0.000013499.7274 0.0000
# 4 0.0000 0.0000 0.0000 -60.1458 0.0000 17.8608
# 5 2257.045011291.651713499.7274 0.0000-8628.3303 0.0000
# 6 0.0000 0.0000 0.0000 17.8608 0.0000 5.1354
#
#
#
# Elastic Compliance Matrix: (Units=1/GPa)
#
#
# Indices 1 2 3 4 5 6 
#
# 1 0.009290 -0.005020 0.000654 0.000000 -0.003116 0.000000
# 2 -0.005020 0.021763 -0.015712 0.000000 0.002585 0.000000
# 3 0.000654 -0.015712 0.021058 0.000000 0.012557 0.000000
# 4 0.000000 0.000000 0.000000 -0.008179 0.000000 0.028446
# 5 -0.003116 0.002585 0.012557 0.000000 0.022099 0.000000
# 6 0.000000 0.000000 0.000000 0.028446 0.000000 0.095792
#
#
# Mechanical properties :
#
#
# Convention : Reuss Voigt Hill
#
# Bulk Modulus (GPa) = 83.63960 -9334.88112 -4625.62076
# Shear Modulus (GPa) = 24.27622 -2546.88424 -1261.30401
#
# Velocity S-wave (km/s) = 3.51449 -35.99779 -25.33268
# Velocity P-wave (km/s) = 7.68272 80.48183 56.64937
#
# Compressibility (1/GPa) = 0.01195606
#
# Stress axis : x y z
#
# Youngs Moduli (GPa) = 107.64570 45.94960 47.48717
#
# Poissons Ratio (x) = 0.23066 -0.03106
# Poissons Ratio (y) = 0.54037 0.74611
# Poissons Ratio (z) = -0.07042 0.72195
#
# Static dielectric constant tensor:
#      x y z
#    x 3.860400 0.000000 -0.278490 
#    y 0.000000 3.499390 0.000000 
#    z -0.278490 0.000000 4.189610 
# 
# 
# High freq. dielectric constant tensor:
#      x y z
#    x 1.779060 0.000000 -0.000650 
#    y 0.000000 1.754130 0.000000 
#    z -0.000650 0.000000 1.784430 
# 
# From -- ./inp_files/34193.got.cif
#   From: 2010.06.25/outbox.cif.g09.slc.cpg/sg10_18_cif.got.tgz:34193.got - 2010.06.27 22:07:45.
