data_PCOD8065169
_publ_section_title
;
Structure prediction by ZEFSAII (Michael W. Deem and Ramdas Pophale) SiO2 
 PCOD8065169
Probable space group: P 2/M
;
_chemical_formula_sum "Si O2"
_cell_formula_units_Z 28
_cell_length_a 24.036697
_cell_length_b 8.858787
_cell_length_c 21.659323
_cell_angle_alpha 90.000000
_cell_angle_beta 161.615938
_cell_angle_gamma 90.000000
_cell_volume 1454.571467
_symmetry_space_group_name_H-M "P 2/M"
_symmetry_group_IT_number 10
_symmetry_cell_setting 'monoclinic'
loop_
_space_group_symop_operation_xyz
x,y,z
-x,y,-z
-x,-y,-z
x,-y,z
loop_
_atom_site_type_symbol
_atom_site_label
_atom_site_fract_x
_atom_site_fract_y
_atom_site_fract_z
Si Si1 0.815457 0.179574 0.470255
Si Si2 0.630606 0.178046 0.508741
Si Si3 0.915588 0.820247 0.347877
Si Si4 0.920655 0.178731 0.715801
Si Si5 0.526876 0.820199 0.959035
Si Si6 0.200495 0.676380 0.199118
Si Si7 0.731246 0.322253 0.869407
O O1 0.844795 0.236481 0.570658
O O2 0.972842 0.241880 0.592582
O O3 0.813876 0.000000 0.466436
O O4 0.628408 0.242642 0.248460
O O5 0.785966 0.232525 0.626914
O O6 0.673038 0.231321 0.622542
O O7 0.449424 0.252830 0.294803
O O8 0.607377 0.000000 0.482507
O O9 0.714268 0.762401 0.130030
O O10 0.000000 0.757431 0.500000
O O11 0.920761 0.000000 0.354524
O O12 0.946379 0.000000 0.744009
O O13 0.108787 0.254949 0.923352
O O14 0.521782 0.000000 0.955124
O O15 0.500000 0.757949 0.000000
O O16 0.231516 0.500000 0.244354
O O17 0.249627 0.723505 0.181896
O O18 0.000000 0.723823 0.000000
O O19 0.729766 0.500000 0.876661
#
# Coordination Sequence:
#
# PCOD8065169 Si02
#       7
#     4   4   4   4   4   4   4
#     4   9  17  28  42  64  98 138 176 214 261 319
#     4  11  23  37  57  84 116 149 183 225 278 335
#     4   9  14  21  37  61  89 128 173 213 254 307
#     4  10  22  38  54  77 113 153 186 222 274 334
#     4   9  14  21  36  59  89 126 169 210 253 309
#     4  10  20  37  60  85 110 141 185 233 280 324
#     4  11  23  39  61  83 108 144 187 234 278 324
#
# _framework density 19.249656000000002
#
# number of rings (size 3 to 8) (size 9 to 14) (size 15 to 20)
#    0.000    2.143    2.857    1.286    0.000    4.857 
#    0.000    4.286    0.000    0.000    0.000    0.000 
#    0.000    1.143    0.000    0.143    0.000    0.000 
#
# Total GULP energy -347237.205688 kJ/mol
# GULP energy per Si atom -12401.328775 kJ/mol
# Density = 1.920584 g / cm^3
# Si number density = 19.249656 Si / 1000 Ang^3
#
#
#
# Elastic Constant Matrix: (Units=GPa)
#
#
# Indices 1 2 3 4 5 6 
#
# 1 77.4573 16.2140 61.0598 0.0000 -10.7393 0.0000
# 2 16.2140 25.8910 27.6582 0.0000 -3.2877 0.0000
# 3 61.0598 27.6582 181.1872 0.0000 0.3753 0.0000
# 4 0.0000 0.0000 0.0000 9.1765 0.0000 10.5713
# 5 -10.7393 -3.2877 0.3753 0.0000 38.6244 0.0000
# 6 0.0000 0.0000 0.0000 10.5713 0.0000 6.3501
#
#
#
# Elastic Compliance Matrix: (Units=1/GPa)
#
#
# Indices 1 2 3 4 5 6 
#
# 1 0.019170 -0.005337 -0.005656 0.000000 0.004931 0.000000
# 2 -0.005337 0.048260 -0.005574 0.000000 0.002678 0.000000
# 3 -0.005656 -0.005574 0.008280 0.000000 -0.002127 0.000000
# 4 0.000000 0.000000 0.000000 -0.118734 0.000000 0.197663
# 5 0.004931 0.002678 -0.002127 0.000000 0.027510 0.000000
# 6 0.000000 0.000000 0.000000 0.197663 0.000000 -0.171582
#
#
# Mechanical properties :
#
#
# Convention : Reuss Voigt Hill
#
# Bulk Modulus (GPa) = 23.48690 54.93329 39.21010
# Shear Modulus (GPa) = -35.77279 22.80375 -6.48452
#
# Velocity S-wave (km/s) = -4.31555 3.44558 -1.83738
# Velocity P-wave (km/s) = 3.55024 6.66548 3.98901
#
# Compressibility (1/GPa) = 0.04257692
#
# Stress axis : x y z
#
# Youngs Moduli (GPa) = 52.16618 20.72109 120.76778
#
# Poissons Ratio (x) = 0.11059 0.68302
# Poissons Ratio (y) = 0.27841 0.67315
# Poissons Ratio (z) = 0.29503 0.11550
#
# Static dielectric constant tensor:
#      x y z
#    x 3.659530 0.000000 0.091380 
#    y 0.000000 2.969180 0.000000 
#    z 0.091380 0.000000 3.752130 
# 
# 
# High freq. dielectric constant tensor:
#      x y z
#    x 1.750170 0.000000 0.008180 
#    y 0.000000 1.694580 0.000000 
#    z 0.008180 0.000000 1.766780 
# 
# From -- ./inp_files/86524.got.cif
#   From: 2010.06.25/outbox.cif.g09.slc.cpg/sg10_44_cif.got.tgz:86524.got - 2010.06.27 22:07:45.
