data_PCOD8065177
_publ_section_title
;
Structure prediction by ZEFSAII (Michael W. Deem and Ramdas Pophale) SiO2 
 PCOD8065177
Probable space group: P 2/M
;
_chemical_formula_sum "Si O2"
_cell_formula_units_Z 32
_cell_length_a 14.556540
_cell_length_b 9.052445
_cell_length_c 14.697190
_cell_angle_alpha 90.000000
_cell_angle_beta 118.878557
_cell_angle_gamma 90.000000
_cell_volume 1695.846735
_symmetry_space_group_name_H-M "P 2/M"
_symmetry_group_IT_number 10
_symmetry_cell_setting 'monoclinic'
loop_
_space_group_symop_operation_xyz
x,y,z
-x,y,-z
-x,-y,-z
x,-y,z
loop_
_atom_site_type_symbol
_atom_site_label
_atom_site_fract_x
_atom_site_fract_y
_atom_site_fract_z
Si Si1 0.880169 0.673792 0.442438
Si Si2 0.984207 0.173066 0.092738
Si Si3 0.731845 0.171277 0.237703
Si Si4 0.343504 0.325401 0.170122
Si Si5 0.740749 0.829831 0.516874
Si Si6 0.790164 0.828147 0.742242
Si Si7 0.240837 0.174423 0.954936
Si Si8 0.556668 0.830927 0.295841
O O1 0.867594 0.500000 0.433973
O O2 0.826520 0.738466 0.326899
O O3 0.827743 0.732387 0.509319
O O4 0.000000 0.724800 0.500000
O O5 0.878189 0.234923 0.088323
O O6 0.085556 0.208957 0.203144
O O7 0.968625 0.000000 0.073971
O O8 0.000000 0.243851 0.000000
O O9 0.720643 0.216499 0.127434
O O10 0.623109 0.206231 0.237022
O O11 0.761005 0.000000 0.262736
O O12 0.337267 0.500000 0.160770
O O13 0.260182 0.269547 0.203560
O O14 0.459267 0.278041 0.255885
O O15 0.318949 0.256063 0.060512
O O16 0.737191 0.786387 0.621126
O O17 0.626716 0.801748 0.418965
O O18 0.773916 0.000000 0.520263
O O19 0.772549 0.000000 0.758300
O O20 0.248989 0.000000 0.976315
O O21 0.516971 0.000000 0.274712
#
# Coordination Sequence:
#
# PCOD8065177 Si02
#       8
#     4   4   4   4   4   4   4   4
#     4  10  21  35  52  79 120 161 188 220 277 339
#     4   9  16  30  56  85 112 143 179 222 280 334
#     4   9  20  37  61  87 109 142 192 242 285 326
#     4  12  25  38  55  82 112 152 193 229 281 345
#     4   9  20  37  61  87 109 142 192 242 285 326
#     4  10  20  37  60  86 114 146 186 236 284 333
#     4  10  20  37  60  86 114 146 186 236 284 333
#     4   9  19  39  59  81 111 143 185 240 293 334
#
# _framework density 18.869630000000001
#
# number of rings (size 3 to 8) (size 9 to 14) (size 15 to 20)
#    0.000    2.250    1.250    2.250    1.750    5.000 
#    0.000    6.250    0.000    0.000    0.000    0.000 
#    0.000    0.000    0.000    0.000    0.000    0.000 
#
# Total GULP energy -396851.507394 kJ/mol
# GULP energy per Si atom -12401.609606 kJ/mol
# Density = 1.882668 g / cm^3
# Si number density = 18.869630 Si / 1000 Ang^3
#
#
#
# Elastic Constant Matrix: (Units=GPa)
#
#
# Indices 1 2 3 4 5 6 
#
# 1 46.4883 19.1025 28.2037 0.0000 10.5324 0.0000
# 2 19.1025 61.5356 31.8049 0.0000 6.3563 0.0000
# 3 28.2037 31.8049 115.7793 0.0000 -5.4549 0.0000
# 4 0.0000 0.0000 0.0000 10.6998 0.0000 8.4450
# 5 10.5324 6.3563 -5.4549 0.0000 30.8580 0.0000
# 6 0.0000 0.0000 0.0000 8.4450 0.0000 19.4966
#
#
#
# Elastic Compliance Matrix: (Units=1/GPa)
#
#
# Indices 1 2 3 4 5 6 
#
# 1 0.029708 -0.004862 -0.006385 0.000000 -0.010267 0.000000
# 2 -0.004862 0.020487 -0.004603 0.000000 -0.003374 0.000000
# 3 -0.006385 -0.004603 0.011702 0.000000 0.005196 0.000000
# 4 0.000000 0.000000 0.000000 0.142010 0.000000 -0.061512
# 5 -0.010267 -0.003374 0.005196 0.000000 0.037525 0.000000
# 6 0.000000 0.000000 0.000000 -0.061512 0.000000 0.077935
#
#
# Mechanical properties :
#
#
# Convention : Reuss Voigt Hill
#
# Bulk Modulus (GPa) = 33.11409 42.44726 37.78068
# Shear Modulus (GPa) = 13.84535 21.85703 17.85119
#
# Velocity S-wave (km/s) = 2.71170 3.40710 3.07909
# Velocity P-wave (km/s) = 5.23368 6.16617 5.71896
#
# Compressibility (1/GPa) = 0.03019862
#
# Stress axis : x y z
#
# Youngs Moduli (GPa) = 33.66052 48.81043 85.45768
#
# Poissons Ratio (x) = 0.23730 0.54566
# Poissons Ratio (y) = 0.16365 0.39333
# Poissons Ratio (z) = 0.21493 0.22466
#
# Static dielectric constant tensor:
#      x y z
#    x 3.491390 0.000000 -0.039590 
#    y 0.000000 3.212410 0.000000 
#    z -0.039590 0.000000 3.613060 
# 
# 
# High freq. dielectric constant tensor:
#      x y z
#    x 1.733940 0.000000 0.001190 
#    y 0.000000 1.707430 0.000000 
#    z 0.001190 0.000000 1.742560 
# 
# From -- ./inp_files/66564.got.cif
#   From: 2010.06.25/outbox.cif.g09.slc.cpg/sg10_34_cif.got.tgz:66564.got - 2010.06.27 22:07:45.
