data_PCOD8065115
_publ_section_title
;
Structure prediction by ZEFSAII (Michael W. Deem and Ramdas Pophale) SiO2 
 PCOD8065115
Probable space group: P 2/M
;
_chemical_formula_sum "Si O2"
_cell_formula_units_Z 24
_cell_length_a 15.097512
_cell_length_b 9.023013
_cell_length_c 14.539851
_cell_angle_alpha 90.000000
_cell_angle_beta 39.315158
_cell_angle_gamma 90.000000
_cell_volume 1254.937808
_symmetry_space_group_name_H-M "P 2/M"
_symmetry_group_IT_number 10
_symmetry_cell_setting 'monoclinic'
loop_
_space_group_symop_operation_xyz
x,y,z
-x,y,-z
-x,-y,-z
x,-y,z
loop_
_atom_site_type_symbol
_atom_site_label
_atom_site_fract_x
_atom_site_fract_y
_atom_site_fract_z
Si Si1 0.570934 0.827681 0.655955
Si Si2 0.690992 0.328707 0.203655
Si Si3 0.942901 0.328493 0.867128
Si Si4 0.233163 0.827528 0.675032
Si Si5 0.798128 0.825187 0.611407
Si Si6 0.915182 0.175371 0.705679
O O1 0.431584 0.731121 0.763287
O O2 0.667802 0.798341 0.490575
O O3 0.654878 0.771029 0.679139
O O4 0.530187 0.000000 0.696585
O O5 0.664280 0.500000 0.247314
O O6 0.688458 0.237814 0.299844
O O7 0.838277 0.304935 0.035547
O O8 0.973178 0.500000 0.824975
O O9 0.872467 0.258381 0.832984
O O10 0.085970 0.249790 0.777841
O O11 0.205330 0.000000 0.713036
O O12 0.805115 0.780099 0.713412
O O13 0.932283 0.765205 0.447707
O O14 0.809263 0.000000 0.593957
O O15 0.914360 0.000000 0.724603
#
# Coordination Sequence:
#
# PCOD8065115 Si02
#       6
#     4   4   4   4   4   4
#     4  10  20  37  59  85 112 141 182 230 277 328
#     4  11  25  40  53  77 116 155 185 222 275 330
#     4  11  23  38  55  80 116 151 184 225 273 327
#     4  11  22  38  62  86 106 139 189 237 277 323
#     4   8  15  31  57  86 112 137 175 231 281 320
#     4   9  16  32  59  85 109 141 181 228 277 323
#
# _framework density 19.124454
#
# number of rings (size 3 to 8) (size 9 to 14) (size 15 to 20)
#    0.000    2.000    1.667    3.500    0.000    8.000 
#    0.000    3.333    0.000    5.000    0.000    0.000 
#    0.000    0.000    0.000    0.000    0.000    0.000 
#
# Total GULP energy -297613.332259 kJ/mol
# GULP energy per Si atom -12400.555511 kJ/mol
# Density = 1.908093 g / cm^3
# Si number density = 19.124454 Si / 1000 Ang^3
#
#
#
# Elastic Constant Matrix: (Units=GPa)
#
#
# Indices 1 2 3 4 5 6 
#
# 1 124.9943 35.7242 17.8559 0.0000 -1.1104 0.0000
# 2 35.7242 80.0183 31.5468 0.0000 -6.7142 0.0000
# 3 17.8559 31.5468 31.2052 0.0000 -11.5186 0.0000
# 4 0.0000 0.0000 0.0000 -141.4405 0.0000 68.0522
# 5 -1.1104 -6.7142 -11.5186 0.0000 23.6579 0.0000
# 6 0.0000 0.0000 0.0000 68.0522 0.0000 -25.2585
#
#
#
# Elastic Compliance Matrix: (Units=1/GPa)
#
#
# Indices 1 2 3 4 5 6 
#
# 1 0.009296 -0.003229 -0.002721 0.000000 -0.001805 0.000000
# 2 -0.003229 0.022455 -0.022623 0.000000 -0.004793 0.000000
# 3 -0.002721 -0.022623 0.065900 0.000000 0.025538 0.000000
# 4 0.000000 0.000000 0.000000 0.023862 0.000000 0.064290
# 5 -0.001805 -0.004793 0.025538 0.000000 0.053258 0.000000
# 6 0.000000 0.000000 0.000000 0.064290 0.000000 0.133621
#
#
# Mechanical properties :
#
#
# Convention : Reuss Voigt Hill
#
# Bulk Modulus (GPa) = 24.68810 45.16349 34.92579
# Shear Modulus (GPa) = 13.19117 -18.53551 -2.67217
#
# Velocity S-wave (km/s) = 2.62917 -3.11658 -1.18334
# Velocity P-wave (km/s) = 4.70679 3.27354 4.05401
#
# Compressibility (1/GPa) = 0.04050535
#
# Stress axis : x y z
#
# Youngs Moduli (GPa) = 107.57455 44.53270 15.17439
#
# Poissons Ratio (x) = 0.14378 0.04130
# Poissons Ratio (y) = 0.34733 0.34329
# Poissons Ratio (z) = 0.29276 1.00747
#
# Static dielectric constant tensor:
#      x y z
#    x 4.049620 0.000000 0.045420 
#    y 0.000000 3.367160 0.000000 
#    z 0.045420 0.000000 3.302250 
# 
# 
# High freq. dielectric constant tensor:
#      x y z
#    x 1.763960 0.000000 0.004150 
#    y 0.000000 1.728290 0.000000 
#    z 0.004150 0.000000 1.724400 
# 
# From -- ./inp_files/33742.got.cif
#   From: 2010.06.25/outbox.cif.g09.slc.cpg/sg10_17_cif.got.tgz:33742.got - 2010.06.27 22:07:45.
