data_PCOD8065761
_publ_section_title
;
Structure prediction by ZEFSAII (Michael W. Deem and Ramdas Pophale) SiO2 
 PCOD8065761
Probable space group: P 2/M
;
_chemical_formula_sum "Si O2"
_cell_formula_units_Z 32
_cell_length_a 9.401572
_cell_length_b 16.859583
_cell_length_c 23.937500
_cell_angle_alpha 90.000000
_cell_angle_beta 27.442882
_cell_angle_gamma 90.000000
_cell_volume 1748.634326
_symmetry_space_group_name_H-M "P 2/M"
_symmetry_group_IT_number 10
_symmetry_cell_setting 'monoclinic'
loop_
_space_group_symop_operation_xyz
x,y,z
-x,y,-z
-x,-y,-z
x,-y,z
loop_
_atom_site_type_symbol
_atom_site_label
_atom_site_fract_x
_atom_site_fract_y
_atom_site_fract_z
Si Si1 0.721832 0.846972 0.470328
Si Si2 0.350347 0.087414 0.282450
Si Si3 0.426988 0.909476 0.677581
Si Si4 0.095831 0.406593 0.527780
Si Si5 0.300219 0.586690 0.625136
Si Si6 0.677669 0.796417 0.091240
Si Si7 0.911263 0.305895 0.692093
Si Si8 0.246363 0.091473 0.041524
O O1 0.500000 0.881180 0.500000
O O2 0.526553 0.846931 0.595583
O O3 0.011172 0.905295 0.374935
O O4 0.839532 0.759903 0.413080
O O5 0.338243 0.103267 0.352860
O O6 0.592452 0.146165 0.171388
O O7 0.478758 0.000000 0.225810
O O8 0.081985 0.889654 0.816796
O O9 0.448816 0.000000 0.647382
O O10 0.034936 0.500000 0.554960
O O11 0.461093 0.386941 0.409281
O O12 0.000000 0.375262 0.500000
O O13 0.883028 0.364786 0.648997
O O14 0.500000 0.579275 0.500000
O O15 0.155868 0.500000 0.689687
O O16 0.030732 0.650314 0.706996
O O17 0.422228 0.727793 0.174923
O O18 0.693434 0.847230 0.029336
O O19 0.000000 0.758247 0.000000
O O20 0.261702 0.000000 0.014673
O O21 0.500000 0.107135 0.000000
#
# Coordination Sequence:
#
# PCOD8065761 Si02
#       8
#     4   4   4   4   4   4   4   4
#     4  11  23  34  49  79 113 138 169 218 282 342
#     4  10  21  36  55  73  97 136 178 227 278 335
#     4  10  21  37  54  71  99 138 180 227 276 329
#     4   9  17  32  56  88 119 143 174 212 253 311
#     4   8  14  30  54  78 109 143 174 202 245 311
#     4  11  22  38  55  77 104 139 188 231 275 322
#     4  10  21  34  52  78 112 146 173 215 264 328
#     4  10  22  39  58  76  98 136 191 243 278 317
#
# _framework density 18.299994999999999
#
# number of rings (size 3 to 8) (size 9 to 14) (size 15 to 20)
#    0.000    2.125    1.250    3.375    3.500    4.500 
#    0.000    0.000    0.000    1.500    0.000    0.000 
#    0.000    5.000    0.000    0.000    0.000    0.000 
#
# Total GULP energy -396676.596065 kJ/mol
# GULP energy per Si atom -12396.143627 kJ/mol
# Density = 1.825834 g / cm^3
# Si number density = 18.299995 Si / 1000 Ang^3
#
#
#
# Elastic Constant Matrix: (Units=GPa)
#
#
# Indices 1 2 3 4 5 6 
#
# 1 134.4897 48.2996 49.1139 0.0000 -22.6326 0.0000
# 2 48.2996 76.5303 46.2481 0.0000 -9.8341 0.0000
# 3 49.1139 46.2481 95.8098 0.0000 -14.6172 0.0000
# 4 0.0000 0.0000 0.0000 -7.3627 0.0000 20.2775
# 5 -22.6326 -9.8341 -14.6172 0.0000 28.3189 0.0000
# 6 0.0000 0.0000 0.0000 20.2775 0.0000 -8.2428
#
#
#
# Elastic Compliance Matrix: (Units=1/GPa)
#
#
# Indices 1 2 3 4 5 6 
#
# 1 0.011021 -0.004698 -0.002483 0.000000 0.005896 0.000000
# 2 -0.004698 0.020552 -0.007594 0.000000 -0.000538 0.000000
# 3 -0.002483 -0.007594 0.015925 0.000000 0.003598 0.000000
# 4 0.000000 0.000000 0.000000 0.023518 0.000000 0.057855
# 5 0.005896 -0.000538 0.003598 0.000000 0.041695 0.000000
# 6 0.000000 0.000000 0.000000 0.057855 0.000000 0.021007
#
#
# Mechanical properties :
#
#
# Convention : Reuss Voigt Hill
#
# Bulk Modulus (GPa) = 55.71535 66.01702 60.86619
# Shear Modulus (GPa) = 29.54212 13.42058 21.48135
#
# Velocity S-wave (km/s) = 4.02222 2.71101 3.42986
# Velocity P-wave (km/s) = 7.21683 6.77884 7.00126
#
# Compressibility (1/GPa) = 0.01794837
#
# Stress axis : x y z
#
# Youngs Moduli (GPa) = 90.73213 48.65722 62.79517
#
# Poissons Ratio (x) = 0.22859 0.15590
# Poissons Ratio (y) = 0.42626 0.47689
# Poissons Ratio (z) = 0.22525 0.36952
#
# Static dielectric constant tensor:
#      x y z
#    x 3.716420 0.000000 -0.218970 
#    y 0.000000 3.360740 0.000000 
#    z -0.218970 0.000000 3.271060 
# 
# 
# High freq. dielectric constant tensor:
#      x y z
#    x 1.724660 0.000000 -0.016000 
#    y 0.000000 1.695930 0.000000 
#    z -0.016000 0.000000 1.684080 
# 
# From -- ./inp_files/88319.got.cif
#   From: 2010.06.25/outbox.cif.g09.slc.cpg/sg10_45_cif.got.tgz:88319.got - 2010.06.27 22:07:45.
