data_PCOD8065960
_publ_section_title
;
Structure prediction by ZEFSAII (Michael W. Deem and Ramdas Pophale) SiO2 
 PCOD8065960
Probable space group: P 2/M
;
_chemical_formula_sum "Si O2"
_cell_formula_units_Z 24
_cell_length_a 11.031092
_cell_length_b 10.111424
_cell_length_c 21.737499
_cell_angle_alpha 90.000000
_cell_angle_beta 151.200934
_cell_angle_gamma 90.000000
_cell_volume 1168.026137
_symmetry_space_group_name_H-M "P 2/M"
_symmetry_group_IT_number 10
_symmetry_cell_setting 'monoclinic'
loop_
_space_group_symop_operation_xyz
x,y,z
-x,y,-z
-x,-y,-z
x,-y,z
loop_
_atom_site_type_symbol
_atom_site_label
_atom_site_fract_x
_atom_site_fract_y
_atom_site_fract_z
Si Si1 0.323684 0.352027 0.231336
Si Si2 0.210704 0.653135 0.968717
Si Si3 0.076181 0.147472 0.811033
Si Si4 0.365985 0.653492 0.742923
Si Si5 0.011844 0.852498 0.643458
Si Si6 0.529420 0.243365 0.580750
O O1 0.303491 0.500000 0.197862
O O2 0.499701 0.283973 0.258020
O O3 0.446864 0.350364 0.354145
O O4 0.039199 0.295458 0.106242
O O5 0.175391 0.500000 0.932277
O O6 0.238393 0.744256 0.920541
O O7 0.449881 0.670821 0.117659
O O8 0.778096 0.153582 0.692475
O O9 0.125634 0.176039 0.761423
O O10 0.167720 0.000000 0.869708
O O11 0.282663 0.500000 0.698024
O O12 0.119630 0.742298 0.644918
O O13 0.709994 0.847326 0.511303
O O14 0.087707 0.000000 0.655224
O O15 0.500000 0.312188 0.500000
#
# Coordination Sequence:
#
# PCOD8065960 Si02
#       6
#     4   4   4   4   4   4
#     4   9  18  34  56  79 103 135 175 216 259 307
#     4   9  18  34  56  79 103 134 175 219 259 303
#     4   9  18  34  57  80 102 134 175 218 262 305
#     4  10  21  36  53  75 107 144 175 208 256 312
#     4  10  21  36  53  76 108 142 174 211 258 311
#     4   9  18  34  56  79 102 132 173 218 261 306
#
# _framework density 20.547485999999999
#
# number of rings (size 3 to 8) (size 9 to 14) (size 15 to 20)
#    0.000    2.667    0.000    1.000    0.000    7.667 
#    0.000   13.333    0.000    5.000    0.000    0.000 
#    0.000    0.000    0.000    0.000    0.000    0.000 
#
# Total GULP energy -297440.055886 kJ/mol
# GULP energy per Si atom -12393.335662 kJ/mol
# Density = 2.050072 g / cm^3
# Si number density = 20.547486 Si / 1000 Ang^3
#
#
#
# Elastic Constant Matrix: (Units=GPa)
#
#
# Indices 1 2 3 4 5 6 
#
# 1 56.6954 26.6493 1.5626 0.0000 8.6253 0.0000
# 2 26.6493 71.5285 8.3500 0.0000 3.6672 0.0000
# 3 1.5626 8.3500 46.5042 0.0000 -1.7421 0.0000
# 4 0.0000 0.0000 0.0000 7.3316 0.0000 0.9094
# 5 8.6253 3.6672 -1.7421 0.0000 20.2513 0.0000
# 6 0.0000 0.0000 0.0000 0.9094 0.0000 21.1980
#
#
#
# Elastic Compliance Matrix: (Units=1/GPa)
#
#
# Indices 1 2 3 4 5 6 
#
# 1 0.022662 -0.008069 0.000382 0.000000 -0.008158 0.000000
# 2 -0.008069 0.017315 -0.002836 0.000000 0.000057 0.000000
# 3 0.000382 -0.002836 0.022084 0.000000 0.002251 0.000000
# 4 0.000000 0.000000 0.000000 0.137126 0.000000 -0.005883
# 5 -0.008158 0.000057 0.002251 0.000000 0.053037 0.000000
# 6 0.000000 0.000000 0.000000 -0.005883 0.000000 0.047427
#
#
# Mechanical properties :
#
#
# Convention : Reuss Voigt Hill
#
# Bulk Modulus (GPa) = 24.38180 27.53909 25.96044
# Shear Modulus (GPa) = 14.95356 18.96725 16.96041
#
# Velocity S-wave (km/s) = 2.70062 3.04154 2.87614
# Velocity P-wave (km/s) = 4.64933 5.07606 4.86738
#
# Compressibility (1/GPa) = 0.04101421
#
# Stress axis : x y z
#
# Youngs Moduli (GPa) = 44.12758 57.75380 45.28155
#
# Poissons Ratio (x) = 0.46603 -0.01729
# Poissons Ratio (y) = 0.35608 0.12840
# Poissons Ratio (z) = -0.01685 0.16377
#
# Static dielectric constant tensor:
#      x y z
#    x 3.866590 0.000000 -0.054610 
#    y 0.000000 3.426800 0.000000 
#    z -0.054610 0.000000 3.603560 
# 
# 
# High freq. dielectric constant tensor:
#      x y z
#    x 1.806320 0.000000 0.003820 
#    y 0.000000 1.773120 0.000000 
#    z 0.003820 0.000000 1.799630 
# 
# From -- ./inp_files/53584.got.cif
#   From: 2010.06.25/outbox.cif.g09.slc.cpg/sg10_27_cif.got.tgz:53584.got - 2010.06.27 22:07:45.
