data_PCOD8065672
_publ_section_title
;
Structure prediction by ZEFSAII (Michael W. Deem and Ramdas Pophale) SiO2 
 PCOD8065672
Probable space group: P 2/M
;
_chemical_formula_sum "Si O2"
_cell_formula_units_Z 28
_cell_length_a 14.992648
_cell_length_b 8.755227
_cell_length_c 11.661881
_cell_angle_alpha 90.000000
_cell_angle_beta 118.242664
_cell_angle_gamma 90.000000
_cell_volume 1348.547593
_symmetry_space_group_name_H-M "P 2/M"
_symmetry_group_IT_number 10
_symmetry_cell_setting 'monoclinic'
loop_
_space_group_symop_operation_xyz
x,y,z
-x,y,-z
-x,-y,-z
x,-y,z
loop_
_atom_site_type_symbol
_atom_site_label
_atom_site_fract_x
_atom_site_fract_y
_atom_site_fract_z
Si Si1 0.384021 0.178852 0.411040
Si Si2 0.821042 0.179613 0.127325
Si Si3 0.228771 0.329711 0.474645
Si Si4 0.994455 0.320315 0.627599
Si Si5 0.492915 0.829850 0.130345
Si Si6 0.307270 0.679719 0.132027
Si Si7 0.308421 0.328340 0.763388
O O1 0.500000 0.238743 0.500000
O O2 0.312888 0.215003 0.476473
O O3 0.328802 0.258292 0.271315
O O4 0.387040 0.000000 0.390539
O O5 0.730244 0.222248 0.158077
O O6 0.925823 0.239759 0.240989
O O7 0.825497 0.000000 0.115297
O O8 0.795665 0.251802 0.986820
O O9 0.252800 0.500000 0.442244
O O10 0.113274 0.282150 0.377427
O O11 0.227611 0.331563 0.612225
O O12 0.017642 0.500000 0.641286
O O13 0.000000 0.257300 0.500000
O O14 0.398456 0.727549 0.105424
O O15 0.591814 0.742403 0.234570
O O16 0.485494 0.000000 0.181487
O O17 0.500000 0.843271 0.000000
O O18 0.295959 0.500000 0.131390
O O19 0.327930 0.500000 0.822405
#
# Coordination Sequence:
#
# PCOD8065672 Si02
#       7
#     4   4   4   4   4   4   4
#     4  11  25  45  68  94 129 169 210 262 321 379
#     4  12  24  38  59  92 130 165 206 261 321 379
#     4  10  22  40  65  94 125 164 214 264 311 371
#     4  10  20  40  65  93 130 171 212 262 317 379
#     4  11  22  35  54  86 125 160 198 255 316 376
#     4  12  25  42  65  89 122 169 217 264 315 380
#     4  11  21  36  59  89 124 166 210 255 310 377
#
# _framework density 20.763079000000001
#
# number of rings (size 3 to 8) (size 9 to 14) (size 15 to 20)
#    0.000    1.000    2.857    4.714    0.000    6.000 
#    0.000    0.714    0.000    4.286    0.000    0.000 
#    0.000    0.000    0.000    0.000    0.000    0.000 
#
# Total GULP energy -347192.149553 kJ/mol
# GULP energy per Si atom -12399.719627 kJ/mol
# Density = 2.071582 g / cm^3
# Si number density = 20.763079 Si / 1000 Ang^3
#
#
#
# Elastic Constant Matrix: (Units=GPa)
#
#
# Indices 1 2 3 4 5 6 
#
# 1 74.2268 33.7190 31.2205 0.0000 12.1275 0.0000
# 2 33.7190 123.9663 54.4355 0.0000 12.2542 0.0000
# 3 31.2205 54.4355 126.9608 0.0000 17.0825 0.0000
# 4 0.0000 0.0000 0.0000 12.4811 0.0000 20.2846
# 5 12.1275 12.2542 17.0825 0.0000 33.2811 0.0000
# 6 0.0000 0.0000 0.0000 20.2846 0.0000 16.1109
#
#
#
# Elastic Compliance Matrix: (Units=1/GPa)
#
#
# Indices 1 2 3 4 5 6 
#
# 1 0.016426 -0.003138 -0.002196 0.000000 -0.003703 0.000000
# 2 -0.003138 0.010615 -0.003661 0.000000 -0.000886 0.000000
# 3 -0.002196 -0.003661 0.010416 0.000000 -0.003199 0.000000
# 4 0.000000 0.000000 0.000000 -0.076579 0.000000 0.096417
# 5 -0.003703 -0.000886 -0.003199 0.000000 0.033365 0.000000
# 6 0.000000 0.000000 0.000000 0.096417 0.000000 -0.059325
#
#
# Mechanical properties :
#
#
# Convention : Reuss Voigt Hill
#
# Bulk Modulus (GPa) = 51.36180 62.65599 57.00889
# Shear Modulus (GPa) = -123.13914 26.09322 -48.52296
#
# Velocity S-wave (km/s) = -7.70944 3.54886 -4.83948
# Velocity P-wave (km/s) = 7.37947 6.85818 1.92638
#
# Compressibility (1/GPa) = 0.01946972
#
# Stress axis : x y z
#
# Youngs Moduli (GPa) = 60.87846 94.20493 96.00412
#
# Poissons Ratio (x) = 0.29559 0.21080
# Poissons Ratio (y) = 0.19102 0.35142
# Poissons Ratio (z) = 0.13367 0.34484
#
# Static dielectric constant tensor:
#      x y z
#    x 3.698630 0.000000 0.178570 
#    y 0.000000 3.841770 0.000000 
#    z 0.178570 0.000000 3.995910 
# 
# 
# High freq. dielectric constant tensor:
#      x y z
#    x 1.797510 0.000000 0.015740 
#    y 0.000000 1.814040 0.000000 
#    z 0.015740 0.000000 1.822670 
# 
# From -- ./inp_files/50050.got.cif
#   From: 2010.06.25/outbox.cif.g09.slc.cpg/sg10_26_cif.got.tgz:50050.got - 2010.06.27 22:07:45.
