data_PCOD8065720
_publ_section_title
;
Structure prediction by ZEFSAII (Michael W. Deem and Ramdas Pophale) SiO2 
 PCOD8065720
Probable space group: P 2/M
;
_chemical_formula_sum "Si O2"
_cell_formula_units_Z 24
_cell_length_a 9.523287
_cell_length_b 18.299154
_cell_length_c 9.978227
_cell_angle_alpha 90.000000
_cell_angle_beta 134.656640
_cell_angle_gamma 90.000000
_cell_volume 1236.924966
_symmetry_space_group_name_H-M "P 2/M"
_symmetry_group_IT_number 10
_symmetry_cell_setting 'monoclinic'
loop_
_space_group_symop_operation_xyz
x,y,z
-x,y,-z
-x,-y,-z
x,-y,z
loop_
_atom_site_type_symbol
_atom_site_label
_atom_site_fract_x
_atom_site_fract_y
_atom_site_fract_z
Si Si1 0.414378 0.080517 0.238829
Si Si2 0.337528 0.668746 0.002819
Si Si3 0.189666 0.081663 0.367732
Si Si4 0.116554 0.812172 0.939150
Si Si5 0.437285 0.586341 0.609202
Si Si6 0.990613 0.420561 0.650460
O O1 0.296307 0.080048 0.297511
O O2 0.644571 0.101237 0.410931
O O3 0.397664 0.000000 0.162423
O O4 0.315084 0.140132 0.078783
O O5 0.191532 0.735407 0.936177
O O6 0.191037 0.611076 0.841036
O O7 0.500000 0.689882 0.000000
O O8 0.432817 0.634667 0.201103
O O9 0.024136 0.144869 0.260484
O O10 0.100587 0.000000 0.334549
O O11 0.000000 0.801508 0.000000
O O12 0.500000 0.599017 0.500000
O O13 0.446248 0.500000 0.656794
O O14 0.215873 0.620071 0.458443
O O15 0.974606 0.500000 0.707662
O O16 0.000000 0.427091 0.500000
#
# Coordination Sequence:
#
# PCOD8065720 Si02
#       6
#     4   4   4   4   4   4
#     4   8  14  28  51  78 107 140 186 241 289 333
#     4  12  25  40  58  86 124 164 196 233 294 359
#     4   8  14  28  51  78 106 142 189 240 287 334
#     4  10  21  33  50  82 115 150 188 237 290 342
#     4  10  23  42  65  92 117 147 195 253 299 339
#     4  10  21  40  66  89 111 150 202 246 287 343
#
# _framework density 19.402957000000001
#
# number of rings (size 3 to 8) (size 9 to 14) (size 15 to 20)
#    0.000    2.333    1.667    2.000    2.333    4.000 
#    3.000    2.500    0.000    2.000    0.000    2.333 
#    0.000    0.000    0.000    0.000    0.000    0.000 
#
# Total GULP energy -297324.319093 kJ/mol
# GULP energy per Si atom -12388.513296 kJ/mol
# Density = 1.935879 g / cm^3
# Si number density = 19.402957 Si / 1000 Ang^3
#
#
#
# Elastic Constant Matrix: (Units=GPa)
#
#
# Indices 1 2 3 4 5 6 
#
# 1 82.1141 37.2873 40.7851 0.0000 16.2599 0.0000
# 2 37.2873 86.8223 48.0913 0.0000 13.9167 0.0000
# 3 40.7851 48.0913 105.5564 0.0000 23.7409 0.0000
# 4 0.0000 0.0000 0.0000 13.8192 0.0000 15.7023
# 5 16.2599 13.9167 23.7409 0.0000 30.1171 0.0000
# 6 0.0000 0.0000 0.0000 15.7023 0.0000 12.4224
#
#
#
# Elastic Compliance Matrix: (Units=1/GPa)
#
#
# Indices 1 2 3 4 5 6 
#
# 1 0.016833 -0.004649 -0.003434 0.000000 -0.004233 0.000000
# 2 -0.004649 0.016782 -0.005676 0.000000 -0.000770 0.000000
# 3 -0.003434 -0.005676 0.015048 0.000000 -0.007385 0.000000
# 4 0.000000 0.000000 0.000000 -0.165862 0.000000 0.209655
# 5 -0.004233 -0.000770 -0.007385 0.000000 0.041666 0.000000
# 6 0.000000 0.000000 0.000000 0.209655 0.000000 -0.184512
#
#
# Mechanical properties :
#
#
# Convention : Reuss Voigt Hill
#
# Bulk Modulus (GPa) = 47.29413 58.53559 52.91486
# Shear Modulus (GPa) = -22.17501 21.16033 -0.50734
#
# Velocity S-wave (km/s) = -3.38430 3.30596 -0.51190
# Velocity P-wave (km/s) = 3.02594 6.69376 5.19436
#
# Compressibility (1/GPa) = 0.02114427
#
# Stress axis : x y z
#
# Youngs Moduli (GPa) = 59.40764 59.58817 66.45593
#
# Poissons Ratio (x) = 0.27700 0.22821
# Poissons Ratio (y) = 0.27616 0.37723
# Poissons Ratio (z) = 0.20401 0.33825
#
# Static dielectric constant tensor:
#      x y z
#    x 3.338170 0.000000 0.319560 
#    y 0.000000 3.652850 0.000000 
#    z 0.319560 0.000000 3.700730 
# 
# 
# High freq. dielectric constant tensor:
#      x y z
#    x 1.733100 0.000000 0.028790 
#    y 0.000000 1.749490 0.000000 
#    z 0.028790 0.000000 1.759270 
# 
# From -- ./inp_files/20268.got.cif
#   From: 2010.06.25/outbox.cif.g09.slc.cpg/sg10_11_cif.got.tgz:20268.got - 2010.06.27 22:07:45.
