data_PCOD8065290
_publ_section_title
;
Structure prediction by ZEFSAII (Michael W. Deem and Ramdas Pophale) SiO2 
 PCOD8065290
Probable space group: P 2/M
;
_chemical_formula_sum "Si O2"
_cell_formula_units_Z 28
_cell_length_a 9.366238
_cell_length_b 8.754685
_cell_length_c 26.620834
_cell_angle_alpha 90.000000
_cell_angle_beta 41.268215
_cell_angle_gamma 90.000000
_cell_volume 1439.786212
_symmetry_space_group_name_H-M "P 2/M"
_symmetry_group_IT_number 10
_symmetry_cell_setting 'monoclinic'
loop_
_space_group_symop_operation_xyz
x,y,z
-x,y,-z
-x,-y,-z
x,-y,z
loop_
_atom_site_type_symbol
_atom_site_label
_atom_site_fract_x
_atom_site_fract_y
_atom_site_fract_z
Si Si1 0.164357 0.176729 0.911590
Si Si2 0.374998 0.335408 0.310334
Si Si3 0.246676 0.174626 0.437816
Si Si4 0.963632 0.819533 0.261007
Si Si5 0.122045 0.331293 0.822599
Si Si6 0.428706 0.320720 0.574147
Si Si7 0.371453 0.322162 0.200809
O O1 0.045633 0.243933 0.893131
O O2 0.388366 0.255983 0.868206
O O3 0.213565 0.000000 0.888563
O O4 0.000000 0.203735 0.000000
O O5 0.283668 0.500000 0.354339
O O6 0.333568 0.196406 0.358664
O O7 0.626589 0.354043 0.235357
O O8 0.275034 0.297763 0.282426
O O9 0.370254 0.284560 0.443033
O O10 0.000000 0.224742 0.500000
O O11 0.279226 0.000000 0.445987
O O12 0.916510 0.764081 0.217380
O O13 0.789159 0.757115 0.347500
O O14 0.206208 0.766610 0.208708
O O15 0.946608 0.000000 0.266955
O O16 0.012448 0.500000 0.847493
O O17 0.500000 0.262282 0.500000
O O18 0.383994 0.500000 0.585705
O O19 0.376123 0.500000 0.184865
#
# Coordination Sequence:
#
# PCOD8065290 Si02
#       7
#     4   4   4   4   4   4   4
#     4  10  21  39  64  95 129 160 195 243 297 352
#     4   9  19  36  58  81 108 149 196 242 290 347
#     4  11  24  38  55  83 115 148 193 248 303 356
#     4  12  24  39  62  89 122 159 199 253 308 360
#     4  10  20  37  62  89 118 156 200 242 289 355
#     4  11  25  43  61  83 115 159 206 251 304 362
#     4  10  22  39  61  89 121 158 202 246 292 355
#
# _framework density 19.447330000000001
#
# number of rings (size 3 to 8) (size 9 to 14) (size 15 to 20)
#    0.000    1.571    1.429    4.286    2.000    6.286 
#    0.000    0.714    0.000    4.286    0.000    0.000 
#    0.000    0.000    0.000    0.000    0.000    0.000 
#
# Total GULP energy -347119.308743 kJ/mol
# GULP energy per Si atom -12397.118169 kJ/mol
# Density = 1.940307 g / cm^3
# Si number density = 19.447330 Si / 1000 Ang^3
#
#
#
# Elastic Constant Matrix: (Units=GPa)
#
#
# Indices 1 2 3 4 5 6 
#
# 1 88.4423 47.2645 47.1428 0.0000 4.0559 0.0000
# 2 47.2645 123.7519 50.1515 0.0000 7.9205 0.0000
# 3 47.1428 50.1515 92.5245 0.0000 14.9514 0.0000
# 4 0.0000 0.0000 0.0000 29.0445 0.0000 6.2753
# 5 4.0559 7.9205 14.9514 0.0000 28.9337 0.0000
# 6 0.0000 0.0000 0.0000 6.2753 0.0000 37.1703
#
#
#
# Elastic Compliance Matrix: (Units=1/GPa)
#
#
# Indices 1 2 3 4 5 6 
#
# 1 0.016928 -0.003802 -0.006928 0.000000 0.002248 0.000000
# 2 -0.003802 0.011209 -0.004069 0.000000 -0.000433 0.000000
# 3 -0.006928 -0.004069 0.017683 0.000000 -0.007053 0.000000
# 4 0.000000 0.000000 0.000000 0.035733 0.000000 -0.006033
# 5 0.002248 -0.000433 -0.007053 0.000000 0.038010 0.000000
# 6 0.000000 0.000000 0.000000 -0.006033 0.000000 0.027922
#
#
# Mechanical properties :
#
#
# Convention : Reuss Voigt Hill
#
# Bulk Modulus (GPa) = 61.63786 65.98181 63.80983
# Shear Modulus (GPa) = 27.39889 29.70705 28.55297
#
# Velocity S-wave (km/s) = 3.75757 3.91265 3.83589
# Velocity P-wave (km/s) = 7.11262 7.37658 7.24580
#
# Compressibility (1/GPa) = 0.01622379
#
# Stress axis : x y z
#
# Youngs Moduli (GPa) = 59.07338 89.21159 56.55202
#
# Poissons Ratio (x) = 0.33915 0.39178
# Poissons Ratio (y) = 0.22458 0.23010
# Poissons Ratio (z) = 0.40924 0.36299
#
# Static dielectric constant tensor:
#      x y z
#    x 3.681930 0.000000 0.154840 
#    y 0.000000 3.746550 0.000000 
#    z 0.154840 0.000000 3.414360 
# 
# 
# High freq. dielectric constant tensor:
#      x y z
#    x 1.762800 0.000000 0.008910 
#    y 0.000000 1.771680 0.000000 
#    z 0.008910 0.000000 1.741920 
# 
# From -- ./inp_files/91948.got.cif
#   From: 2010.06.25/outbox.cif.g09.slc.cpg/sg10_46_cif.got.tgz:91948.got - 2010.06.27 22:07:45.
