data_PCOD8065377
_publ_section_title
;
Structure prediction by ZEFSAII (Michael W. Deem and Ramdas Pophale) SiO2 
 PCOD8065377
Probable space group: P 2/M
;
_chemical_formula_sum "Si O2"
_cell_formula_units_Z 32
_cell_length_a 12.401781
_cell_length_b 9.148265
_cell_length_c 23.554298
_cell_angle_alpha 90.000000
_cell_angle_beta 45.844319
_cell_angle_gamma 90.000000
_cell_volume 1917.274929
_symmetry_space_group_name_H-M "P 2/M"
_symmetry_group_IT_number 10
_symmetry_cell_setting 'monoclinic'
loop_
_space_group_symop_operation_xyz
x,y,z
-x,y,-z
-x,-y,-z
x,-y,z
loop_
_atom_site_type_symbol
_atom_site_label
_atom_site_fract_x
_atom_site_fract_y
_atom_site_fract_z
Si Si1 0.872577 0.665222 0.999314
Si Si2 0.367692 0.828062 0.322185
Si Si3 0.180106 0.666928 0.585486
Si Si4 0.673206 0.168916 0.151942
Si Si5 0.760904 0.170685 0.325111
Si Si6 0.929146 0.670018 0.585898
Si Si7 0.080748 0.832007 0.847355
Si Si8 0.542379 0.330092 0.596431
O O1 0.831494 0.500000 0.999567
O O2 0.934095 0.740512 0.919518
O O3 0.722411 0.742214 0.077926
O O4 0.000000 0.679271 0.000000
O O5 0.501903 0.792750 0.229356
O O6 0.217289 0.767188 0.348449
O O7 0.393997 0.748835 0.371844
O O8 0.355628 0.000000 0.338350
O O9 0.165113 0.500000 0.611954
O O10 0.164859 0.775547 0.643945
O O11 0.340038 0.690727 0.497306
O O12 0.047675 0.707304 0.591056
O O13 0.772963 0.213644 0.169864
O O14 0.695014 0.000000 0.129395
O O15 0.883219 0.200271 0.231298
O O16 0.611797 0.260964 0.367535
O O17 0.719178 0.000000 0.343589
O O18 0.883793 0.500000 0.601914
O O19 0.000000 0.715818 0.500000
O O20 0.041170 0.000000 0.872620
O O21 0.518249 0.500000 0.619702
#
# Coordination Sequence:
#
# PCOD8065377 Si02
#       8
#     4   4   4   4   4   4   4   4
#     4   9  17  27  43  71  99 126 166 204 236 289
#     4  11  21  33  52  79 104 131 173 215 256 300
#     4  10  22  38  53  71  98 136 177 212 255 308
#     4   9  17  31  47  67 101 135 162 198 249 304
#     4  11  22  35  51  76 105 134 173 214 252 300
#     4  10  20  38  56  72  98 134 174 213 259 309
#     4   9  17  31  47  66  99 138 164 193 248 303
#     4  11  21  35  53  72 101 139 174 208 256 308
#
# _framework density 16.690355
#
# number of rings (size 3 to 8) (size 9 to 14) (size 15 to 20)
#    0.000    2.000    2.500    1.875    0.000    6.750 
#    0.000    0.000    0.000    0.000    0.000    0.875 
#    0.000    7.000    0.000    0.000    0.000    0.000 
#
# Total GULP energy -396884.978077 kJ/mol
# GULP energy per Si atom -12402.655565 kJ/mol
# Density = 1.665237 g / cm^3
# Si number density = 16.690355 Si / 1000 Ang^3
#
#
#
# Elastic Constant Matrix: (Units=GPa)
#
#
# Indices 1 2 3 4 5 6 
#
# 1 50.8074 30.8582 34.4385 0.0000 4.5348 0.0000
# 2 30.8582 93.5438 64.8560 0.0000 -0.8049 0.0000
# 3 34.4385 64.8560 111.3682 0.0000 -0.9689 0.0000
# 4 0.0000 0.0000 0.0000 21.9956 0.0000 -2.0135
# 5 4.5348 -0.8049 -0.9689 0.0000 15.3885 0.0000
# 6 0.0000 0.0000 0.0000 -2.0135 0.0000 26.8693
#
#
#
# Elastic Compliance Matrix: (Units=1/GPa)
#
#
# Indices 1 2 3 4 5 6 
#
# 1 0.027385 -0.005342 -0.005433 0.000000 -0.008691 0.000000
# 2 -0.005342 0.018972 -0.009380 0.000000 0.001976 0.000000
# 3 -0.005433 -0.009380 0.016140 0.000000 0.002127 0.000000
# 4 0.000000 0.000000 0.000000 0.045778 0.000000 0.003431
# 5 -0.008691 0.001976 0.002127 0.000000 0.067782 0.000000
# 6 0.000000 0.000000 0.000000 0.003431 0.000000 0.037474
#
#
# Mechanical properties :
#
#
# Convention : Reuss Voigt Hill
#
# Bulk Modulus (GPa) = 45.06833 57.33609 51.20221
# Shear Modulus (GPa) = 19.13971 21.22178 20.18075
#
# Velocity S-wave (km/s) = 3.39005 3.56968 3.48102
# Velocity P-wave (km/s) = 6.51034 7.17060 6.84843
#
# Compressibility (1/GPa) = 0.02218853
#
# Stress axis : x y z
#
# Youngs Moduli (GPa) = 36.51646 52.70800 61.95711
#
# Poissons Ratio (x) = 0.28154 0.33663
# Poissons Ratio (y) = 0.19505 0.58114
# Poissons Ratio (z) = 0.19840 0.49439
#
# Static dielectric constant tensor:
#      x y z
#    x 2.922990 0.000000 -0.052390 
#    y 0.000000 3.219380 0.000000 
#    z -0.052390 0.000000 3.219290 
# 
# 
# High freq. dielectric constant tensor:
#      x y z
#    x 1.606950 0.000000 -0.005170 
#    y 0.000000 1.652770 0.000000 
#    z -0.005170 0.000000 1.646880 
# 
# From -- ./inp_files/55346.got.cif
#   From: 2010.06.25/outbox.cif.g09.slc.cpg/sg10_28_cif.got.tgz:55346.got - 2010.06.27 22:07:45.
