data_PCOD8065181
_publ_section_title
;
Structure prediction by ZEFSAII (Michael W. Deem and Ramdas Pophale) SiO2 
 PCOD8065181
Probable space group: P 2/M
;
_chemical_formula_sum "Si O2"
_cell_formula_units_Z 28
_cell_length_a 15.536793
_cell_length_b 8.538447
_cell_length_c 21.128888
_cell_angle_alpha 90.000000
_cell_angle_beta 28.484904
_cell_angle_gamma 90.000000
_cell_volume 1336.807880
_symmetry_space_group_name_H-M "P 2/M"
_symmetry_group_IT_number 10
_symmetry_cell_setting 'monoclinic'
loop_
_space_group_symop_operation_xyz
x,y,z
-x,y,-z
-x,-y,-z
x,-y,z
loop_
_atom_site_type_symbol
_atom_site_label
_atom_site_fract_x
_atom_site_fract_y
_atom_site_fract_z
Si Si1 0.923228 0.317830 0.359951
Si Si2 0.803299 0.818064 0.908115
Si Si3 0.449370 0.316587 0.103167
Si Si4 0.247540 0.181437 0.814230
Si Si5 0.908586 0.316771 0.968110
Si Si6 0.066239 0.816460 0.388041
Si Si7 0.583410 0.181325 0.512024
O O1 0.911902 0.500000 0.381362
O O2 0.764621 0.269800 0.414419
O O3 0.114536 0.277416 0.204102
O O4 0.915553 0.229302 0.432747
O O5 0.826691 0.000000 0.878701
O O6 0.594699 0.771244 0.053667
O O7 0.913347 0.771878 0.898951
O O8 0.474577 0.500000 0.095360
O O9 0.250360 0.271152 0.252706
O O10 0.500000 0.260700 0.000000
O O11 0.246377 0.238320 0.887768
O O12 0.444199 0.208969 0.658820
O O13 0.189481 0.000000 0.846317
O O14 0.105672 0.290566 0.869796
O O15 0.869810 0.500000 0.984447
O O16 0.000000 0.761831 0.500000
O O17 0.101751 0.000000 0.363705
O O18 0.500000 0.247229 0.500000
O O19 0.632652 0.000000 0.470832
#
# Coordination Sequence:
#
# PCOD8065181 Si02
#       7
#     4   4   4   4   4   4   4
#     4  12  25  41  64  94 128 166 209 262 322 382
#     4  12  24  40  65  92 123 162 210 259 312 376
#     4  11  23  41  67  97 128 161 205 260 318 378
#     4  10  20  37  60  86 122 164 209 255 310 374
#     4  11  22  37  59  88 123 160 205 259 316 371
#     4  11  25  45  69  97 131 174 220 265 320 386
#     4  10  22  40  63  90 123 166 212 257 309 375
#
# _framework density 20.945416999999999
#
# number of rings (size 3 to 8) (size 9 to 14) (size 15 to 20)
#    0.000    1.000    1.429    6.857    0.000    5.429 
#    0.000    1.429    0.000    0.000    0.000    0.000 
#    0.000    0.000    0.000    0.000    0.000    0.000 
#
# Total GULP energy -347324.382570 kJ/mol
# GULP energy per Si atom -12404.442235 kJ/mol
# Density = 2.089774 g / cm^3
# Si number density = 20.945417 Si / 1000 Ang^3
#
#
#
# Elastic Constant Matrix: (Units=GPa)
#
#
# Indices 1 2 3 4 5 6 
#
# 1 111.4423 24.0160 34.7081 0.0000 11.4602 0.0000
# 2 24.0160 81.0982 27.5079 0.0000 6.0840 0.0000
# 3 34.7081 27.5079 97.4520 0.0000 6.1070 0.0000
# 4 0.0000 0.0000 0.0000 23.8030 0.0000 -1.0319
# 5 11.4602 6.0840 6.1070 0.0000 35.3137 0.0000
# 6 0.0000 0.0000 0.0000 -1.0319 0.0000 29.1821
#
#
#
# Elastic Compliance Matrix: (Units=1/GPa)
#
#
# Indices 1 2 3 4 5 6 
#
# 1 0.010608 -0.001903 -0.003079 0.000000 -0.002582 0.000000
# 2 -0.001903 0.014080 -0.003218 0.000000 -0.001252 0.000000
# 3 -0.003079 -0.003218 0.012302 0.000000 -0.000574 0.000000
# 4 0.000000 0.000000 0.000000 0.042076 0.000000 0.001488
# 5 -0.002582 -0.001252 -0.000574 0.000000 0.029470 0.000000
# 6 0.000000 0.000000 0.000000 0.001488 0.000000 0.034320
#
#
# Mechanical properties :
#
#
# Convention : Reuss Voigt Hill
#
# Bulk Modulus (GPa) = 48.56859 51.38407 49.97633
# Shear Modulus (GPa) = 30.09862 31.24378 30.67120
#
# Velocity S-wave (km/s) = 3.79489 3.86641 3.83082
# Velocity P-wave (km/s) = 6.51461 6.67217 6.59386
#
# Compressibility (1/GPa) = 0.02058944
#
# Stress axis : x y z
#
# Youngs Moduli (GPa) = 94.26946 71.02384 81.28500
#
# Poissons Ratio (x) = 0.13518 0.25028
# Poissons Ratio (y) = 0.17942 0.26158
# Poissons Ratio (z) = 0.29026 0.22856
#
# Static dielectric constant tensor:
#      x y z
#    x 4.002630 0.000000 0.197690 
#    y 0.000000 3.719550 0.000000 
#    z 0.197690 0.000000 3.843330 
# 
# 
# High freq. dielectric constant tensor:
#      x y z
#    x 1.826150 0.000000 0.004210 
#    y 0.000000 1.825770 0.000000 
#    z 0.004210 0.000000 1.819050 
# 
# From -- ./inp_files/84917.got.cif
#   From: 2010.06.25/outbox.cif.g09.slc.cpg/sg10_43_cif.got.tgz:84917.got - 2010.06.27 22:07:45.
