data_PCOD8065030
_publ_section_title
;
Structure prediction by ZEFSAII (Michael W. Deem and Ramdas Pophale) SiO2 
 PCOD8065030
Probable space group: P 2/M
;
_chemical_formula_sum "Si O2"
_cell_formula_units_Z 32
_cell_length_a 24.862592
_cell_length_b 9.094258
_cell_length_c 12.446948
_cell_angle_alpha 90.000000
_cell_angle_beta 131.293986
_cell_angle_gamma 90.000000
_cell_volume 2114.507588
_symmetry_space_group_name_H-M "P 2/M"
_symmetry_group_IT_number 10
_symmetry_cell_setting 'monoclinic'
loop_
_space_group_symop_operation_xyz
x,y,z
-x,y,-z
-x,-y,-z
x,-y,z
loop_
_atom_site_type_symbol
_atom_site_label
_atom_site_fract_x
_atom_site_fract_y
_atom_site_fract_z
Si Si1 0.808520 0.839101 0.862050
Si Si2 0.340607 0.825847 0.258787
Si Si3 0.189307 0.161063 0.372900
Si Si4 0.918964 0.327129 0.891143
Si Si5 0.336304 0.174817 0.652165
Si Si6 0.588422 0.671131 0.446617
Si Si7 0.423563 0.667857 0.190862
Si Si8 0.577604 0.671215 0.060004
O O1 0.743965 0.781585 0.851814
O O2 0.774291 0.852170 0.697269
O O3 0.877574 0.731142 0.944137
O O4 0.835231 0.000000 0.936411
O O5 0.382174 0.741475 0.406520
O O6 0.370849 0.776400 0.184210
O O7 0.349757 0.000000 0.286762
O O8 0.120121 0.268109 0.269596
O O9 0.252105 0.220337 0.533083
O O10 0.162440 0.000000 0.376010
O O11 0.916225 0.500000 0.887065
O O12 0.000000 0.268160 0.000000
O O13 0.381861 0.251340 0.619734
O O14 0.362700 0.232052 0.801830
O O15 0.345010 0.000000 0.654012
O O16 0.609816 0.500000 0.470227
O O17 0.503585 0.692228 0.337577
O O18 0.399874 0.500000 0.179928
O O19 0.417173 0.708622 0.057946
O O20 0.591243 0.500000 0.102404
O O21 0.500000 0.718840 0.000000
#
# Coordination Sequence:
#
# PCOD8065030 Si02
#       8
#     4   4   4   4   4   4   4   4
#     4   8  16  29  42  59  88 123 148 171 213 265
#     4  11  21  33  47  67  93 117 152 197 234 274
#     4   8  16  29  42  61  91 122 149 177 218 270
#     4   9  16  25  41  68  97 121 150 184 212 254
#     4  11  20  31  49  71  93 116 156 203 240 277
#     4  11  20  32  48  65  87 119 154 190 238 288
#     4  10  22  36  47  62  86 118 157 195 236 288
#     4  10  20  37  52  64  86 119 158 200 244 290
#
# _framework density 15.133547
#
# number of rings (size 3 to 8) (size 9 to 14) (size 15 to 20)
#    0.750    1.500    2.500    1.500    0.000    7.250 
#    0.000    0.000    0.000    0.000    0.000    0.000 
#    0.000    1.000    0.000   11.000    0.000    8.000 
#
# Total GULP energy -396541.570575 kJ/mol
# GULP energy per Si atom -12391.924080 kJ/mol
# Density = 1.509910 g / cm^3
# Si number density = 15.133547 Si / 1000 Ang^3
#
#
#
# Elastic Constant Matrix: (Units=GPa)
#
#
# Indices 1 2 3 4 5 6 
#
# 1 88.1669 48.3887 51.7390 0.0000 13.4989 0.0000
# 2 48.3887 73.9690 39.5711 0.0000 11.3728 0.0000
# 3 51.7390 39.5711 66.4859 0.0000 10.6993 0.0000
# 4 0.0000 0.0000 0.0000 24.6712 0.0000 1.1670
# 5 13.4989 11.3728 10.6993 0.0000 23.7553 0.0000
# 6 0.0000 0.0000 0.0000 1.1670 0.0000 24.9954
#
#
#
# Elastic Compliance Matrix: (Units=1/GPa)
#
#
# Indices 1 2 3 4 5 6 
#
# 1 0.024261 -0.008083 -0.013447 0.000000 -0.003860 0.000000
# 2 -0.008083 0.022985 -0.006855 0.000000 -0.003323 0.000000
# 3 -0.013447 -0.006855 0.030002 0.000000 -0.002589 0.000000
# 4 0.000000 0.000000 0.000000 0.040623 0.000000 -0.001897
# 5 -0.003860 -0.003323 -0.002589 0.000000 0.047046 0.000000
# 6 0.000000 0.000000 0.000000 -0.001897 0.000000 0.040096
#
#
# Mechanical properties :
#
#
# Convention : Reuss Voigt Hill
#
# Bulk Modulus (GPa) = 48.83668 56.44660 52.64164
# Shear Modulus (GPa) = 18.61425 20.61258 19.61342
#
# Velocity S-wave (km/s) = 3.51094 3.69459 3.60394
# Velocity P-wave (km/s) = 6.98399 7.45520 7.22344
#
# Compressibility (1/GPa) = 0.02047641
#
# Stress axis : x y z
#
# Youngs Moduli (GPa) = 41.21859 43.50583 33.33079
#
# Poissons Ratio (x) = 0.35168 0.44821
# Poissons Ratio (y) = 0.33319 0.22849
# Poissons Ratio (z) = 0.55429 0.29824
#
# Static dielectric constant tensor:
#      x y z
#    x 2.789460 0.000000 0.086560 
#    y 0.000000 2.941250 0.000000 
#    z 0.086560 0.000000 2.808890 
# 
# 
# High freq. dielectric constant tensor:
#      x y z
#    x 1.556780 0.000000 0.010490 
#    y 0.000000 1.589310 0.000000 
#    z 0.010490 0.000000 1.556010 
# 
# From -- ./inp_files/57196.got.cif
#   From: 2010.06.25/outbox.cif.g09.slc.cpg/sg10_29_cif.got.tgz:57196.got - 2010.06.27 22:07:45.
