data_PCOD8065451
_publ_section_title
;
Structure prediction by ZEFSAII (Michael W. Deem and Ramdas Pophale) SiO2 
 PCOD8065451
Probable space group: P 2/M
;
_chemical_formula_sum "Si O2"
_cell_formula_units_Z 24
_cell_length_a 9.134416
_cell_length_b 14.839489
_cell_length_c 15.075449
_cell_angle_alpha 90.000000
_cell_angle_beta 37.630625
_cell_angle_gamma 90.000000
_cell_volume 1247.683485
_symmetry_space_group_name_H-M "P 2/M"
_symmetry_group_IT_number 10
_symmetry_cell_setting 'monoclinic'
loop_
_space_group_symop_operation_xyz
x,y,z
-x,y,-z
-x,-y,-z
x,-y,z
loop_
_atom_site_type_symbol
_atom_site_label
_atom_site_fract_x
_atom_site_fract_y
_atom_site_fract_z
Si Si1 0.640515 0.399613 0.739997
Si Si2 0.579375 0.230305 0.554433
Si Si3 0.718875 0.246536 0.126131
Si Si4 0.014442 0.096010 0.593636
Si Si5 0.148059 0.400155 0.556830
Si Si6 0.498942 0.106433 0.103403
O O1 0.539880 0.500000 0.808644
O O2 0.421446 0.329582 0.853117
O O3 0.758921 0.396660 0.587540
O O4 0.862902 0.376941 0.699482
O O5 0.500000 0.185370 0.500000
O O6 0.375022 0.232476 0.727974
O O7 0.785909 0.169429 0.492924
O O8 0.691808 0.326410 0.469735
O O9 0.685770 0.160249 0.076893
O O10 0.000000 0.268677 0.000000
O O11 0.000000 0.069929 0.500000
O O12 0.763610 0.138090 0.742577
O O13 0.065194 0.000000 0.620155
O O14 0.191885 0.500000 0.576335
O O15 0.548089 0.000000 0.094289
O O16 0.500000 0.133350 0.000000
#
# Coordination Sequence:
#
# PCOD8065451 Si02
#       6
#     4   4   4   4   4   4
#     4   8  15  31  56  82 105 142 190 230 272 324
#     4  11  23  35  55  86 117 148 185 228 277 331
#     4  11  23  37  54  83 119 152 180 225 285 333
#     4  10  20  38  62  82 105 142 188 235 277 322
#     4   8  15  30  55  82 108 140 186 235 272 317
#     4  10  22  40  62  84 107 144 190 232 277 331
#
# _framework density 19.235648000000001
#
# number of rings (size 3 to 8) (size 9 to 14) (size 15 to 20)
#    0.000    2.333    1.667    2.000    4.667    1.333 
#    0.000    0.000    0.000    0.500    0.000    0.000 
#    0.000    0.000    0.000    0.000    0.000    0.000 
#
# Total GULP energy -297315.317216 kJ/mol
# GULP energy per Si atom -12388.138217 kJ/mol
# Density = 1.919187 g / cm^3
# Si number density = 19.235648 Si / 1000 Ang^3
#
#
#
# Elastic Constant Matrix: (Units=GPa)
#
#
# Indices 1 2 3 4 5 6 
#
# 1 72.2620 38.4359 45.7222 0.0000 -5.0380 0.0000
# 2 38.4359 94.3504 32.6376 0.0000 -15.7131 0.0000
# 3 45.7222 32.6376 96.5022 0.0000 -17.8407 0.0000
# 4 0.0000 0.0000 0.0000 30.8677 0.0000 -60.6922
# 5 -5.0380 -15.7131 -17.8407 0.0000 35.1947 0.0000
# 6 0.0000 0.0000 0.0000 -60.6922 0.0000 333.7083
#
#
#
# Elastic Compliance Matrix: (Units=1/GPa)
#
#
# Indices 1 2 3 4 5 6 
#
# 1 0.023222 -0.006937 -0.009505 0.000000 -0.004591 0.000000
# 2 -0.006937 0.014514 -0.000671 0.000000 0.005147 0.000000
# 3 -0.009505 -0.000671 0.016315 0.000000 0.006610 0.000000
# 4 0.000000 0.000000 0.000000 0.050430 0.000000 0.009172
# 5 -0.004591 0.005147 0.006610 0.000000 0.033405 0.000000
# 6 0.000000 0.000000 0.000000 0.009172 0.000000 0.004665
#
#
# Mechanical properties :
#
#
# Convention : Reuss Voigt Hill
#
# Bulk Modulus (GPa) = 50.43936 55.18954 52.81445
# Shear Modulus (GPa) = 27.26509 89.70872 58.48690
#
# Velocity S-wave (km/s) = 3.76895 6.83652 5.52010
# Velocity P-wave (km/s) = 6.72449 9.54310 8.25499
#
# Compressibility (1/GPa) = 0.01982579
#
# Stress axis : x y z
#
# Youngs Moduli (GPa) = 43.06188 68.90012 61.29364
#
# Poissons Ratio (x) = 0.47794 0.58262
# Poissons Ratio (y) = 0.29871 0.04110
# Poissons Ratio (z) = 0.40932 0.04620
#
# Static dielectric constant tensor:
#      x y z
#    x 3.399620 0.000000 -0.160060 
#    y 0.000000 3.915590 0.000000 
#    z -0.160060 0.000000 3.416740 
# 
# 
# High freq. dielectric constant tensor:
#      x y z
#    x 1.728930 0.000000 -0.011270 
#    y 0.000000 1.761060 0.000000 
#    z -0.011270 0.000000 1.729260 
# 
# From -- ./inp_files/61669.got.cif
#   From: 2010.06.25/outbox.cif.g09.slc.cpg/sg10_31_cif.got.tgz:61669.got - 2010.06.27 22:07:45.
