data_PCOD8065503
_publ_section_title
;
Structure prediction by ZEFSAII (Michael W. Deem and Ramdas Pophale) SiO2 
 PCOD8065503
Probable space group: P 2/M
;
_chemical_formula_sum "Si O2"
_cell_formula_units_Z 28
_cell_length_a 12.391742
_cell_length_b 9.115954
_cell_length_c 13.855327
_cell_angle_alpha 90.000000
_cell_angle_beta 63.436662
_cell_angle_gamma 90.000000
_cell_volume 1399.918503
_symmetry_space_group_name_H-M "P 2/M"
_symmetry_group_IT_number 10
_symmetry_cell_setting 'monoclinic'
loop_
_space_group_symop_operation_xyz
x,y,z
-x,y,-z
-x,-y,-z
x,-y,z
loop_
_atom_site_type_symbol
_atom_site_label
_atom_site_fract_x
_atom_site_fract_y
_atom_site_fract_z
Si Si1 0.621338 0.172101 0.257324
Si Si2 0.964329 0.157010 0.907807
Si Si3 0.175010 0.170742 0.680472
Si Si4 0.372135 0.842990 0.092193
Si Si5 0.644518 0.170742 0.680472
Si Si6 0.264079 0.669292 0.971843
Si Si7 0.126443 0.325737 0.500000
O O1 0.694047 0.214511 0.326309
O O2 0.479644 0.214511 0.326309
O O3 0.679750 0.245980 0.140499
O O4 0.634075 0.000000 0.231851
O O5 0.078292 0.209335 0.800715
O O6 0.914094 0.000000 0.885423
O O7 0.873045 0.290784 0.950389
O O8 0.000000 0.118683 0.000000
O O9 0.137866 0.265780 0.603515
O O10 0.175300 0.000000 0.650643
O O11 0.379007 0.790666 0.199285
O O12 0.299517 0.000000 0.114577
O O13 0.500000 0.881317 0.000000
O O14 0.323433 0.709216 0.049612
O O15 0.758619 0.265780 0.603515
O O16 0.674058 0.000000 0.650643
O O17 0.278343 0.500000 0.943313
O O18 0.132904 0.500000 0.500000
O O19 0.000000 0.275267 0.500000
#
# Coordination Sequence:
#
# PCOD8065503 Si02
#       7
#     4   4   4   4   4   4   4
#     4  10  20  41  67  94 126 159 206 259 308 365
#     4  10  20  38  63  90 122 163 209 253 302 361
#     4  10  22  41  69  95 119 159 211 263 305 361
#     4  10  20  38  63  90 122 163 209 253 302 361
#     4  10  22  41  69  95 119 159 211 263 305 361
#     4  12  24  34  53  90 135 172 201 247 309 377
#     4  11  27  48  65  86 126 167 202 253 312 375
#
# _framework density 20.001163999999999
#
# number of rings (size 3 to 8) (size 9 to 14) (size 15 to 20)
#    0.000    1.571    2.857    1.714    2.000    4.571 
#    0.000    2.857    0.000    0.000    0.000    0.000 
#    0.000    0.000    0.000    0.000    0.000    0.000 
#
# Total GULP energy -346919.241843 kJ/mol
# GULP energy per Si atom -12389.972923 kJ/mol
# Density = 1.995564 g / cm^3
# Si number density = 20.001164 Si / 1000 Ang^3
#
#
#
# Elastic Constant Matrix: (Units=GPa)
#
#
# Indices 1 2 3 4 5 6 
#
# 1 165.5528 61.7643 68.0206 0.0000 -1.8427 0.0000
# 2 61.7643 83.3231 40.5397 0.0000 -1.2784 0.0000
# 3 68.0206 40.5397 128.4921 0.0000 -0.3887 0.0000
# 4 0.0000 0.0000 0.0000 22.7866 0.0000 -0.1266
# 5 -1.8427 -1.2784 -0.3887 0.0000 33.5526 0.0000
# 6 0.0000 0.0000 0.0000 -0.1266 0.0000 24.9054
#
#
#
# Elastic Compliance Matrix: (Units=1/GPa)
#
#
# Indices 1 2 3 4 5 6 
#
# 1 0.009391 -0.005362 -0.003279 0.000000 0.000273 0.000000
# 2 -0.005362 0.017247 -0.002602 0.000000 0.000333 0.000000
# 3 -0.003279 -0.002602 0.010339 0.000000 -0.000159 0.000000
# 4 0.000000 0.000000 0.000000 0.043887 0.000000 0.000223
# 5 0.000273 0.000333 -0.000159 0.000000 0.029830 0.000000
# 6 0.000000 0.000000 0.000000 0.000223 0.000000 0.040153
#
#
# Mechanical properties :
#
#
# Convention : Reuss Voigt Hill
#
# Bulk Modulus (GPa) = 69.00642 79.77968 74.39305
# Shear Modulus (GPa) = 28.06432 30.05182 29.05807
#
# Velocity S-wave (km/s) = 3.74991 3.88042 3.81572
# Velocity P-wave (km/s) = 7.30241 7.74926 7.52915
#
# Compressibility (1/GPa) = 0.01449140
#
# Stress axis : x y z
#
# Youngs Moduli (GPa) = 106.48587 57.98107 96.72264
#
# Poissons Ratio (x) = 0.31087 0.31714
# Poissons Ratio (y) = 0.57094 0.25169
# Poissons Ratio (z) = 0.34915 0.15088
#
# Static dielectric constant tensor:
#      x y z
#    x 3.882560 0.000000 -0.027480 
#    y 0.000000 3.427800 0.000000 
#    z -0.027480 0.000000 3.426160 
# 
# 
# High freq. dielectric constant tensor:
#      x y z
#    x 1.791380 0.000000 -0.000760 
#    y 0.000000 1.766030 0.000000 
#    z -0.000760 0.000000 1.778770 
# 
# From -- ./inp_files/63677.got.cif
#   From: 2010.06.25/outbox.cif.g09.slc.cpg/sg10_32_cif.got.tgz:63677.got - 2010.06.27 22:07:45.
