data_PCOD8065487
_publ_section_title
;
Structure prediction by ZEFSAII (Michael W. Deem and Ramdas Pophale) SiO2 
 PCOD8065487
Probable space group: P 2/M
;
_chemical_formula_sum "Si O2"
_cell_formula_units_Z 32
_cell_length_a 25.149861
_cell_length_b 9.302680
_cell_length_c 24.043814
_cell_angle_alpha 90.000000
_cell_angle_beta 17.517066
_cell_angle_gamma 90.000000
_cell_volume 1693.163483
_symmetry_space_group_name_H-M "P 2/M"
_symmetry_group_IT_number 10
_symmetry_cell_setting 'monoclinic'
loop_
_space_group_symop_operation_xyz
x,y,z
-x,y,-z
-x,-y,-z
x,-y,z
loop_
_atom_site_type_symbol
_atom_site_label
_atom_site_fract_x
_atom_site_fract_y
_atom_site_fract_z
Si Si1 0.942558 0.834603 0.235354
Si Si2 0.423993 0.334289 0.400168
Si Si3 0.246692 0.666782 0.126624
Si Si4 0.239110 0.334357 0.003463
Si Si5 0.543891 0.166885 0.893338
Si Si6 0.418971 0.662875 0.525901
Si Si7 0.917233 0.837889 0.139055
Si Si8 0.047215 0.833063 0.515535
O O1 0.749677 0.762661 0.433998
O O2 0.025020 0.829131 0.089699
O O3 0.920597 0.000000 0.275472
O O4 0.079420 0.758654 0.139190
O O5 0.367969 0.500000 0.445587
O O6 0.572859 0.282203 0.208577
O O7 0.519482 0.322641 0.366518
O O8 0.247061 0.500000 0.142953
O O9 0.070006 0.738912 0.326414
O O10 0.245985 0.689330 0.061870
O O11 0.424354 0.738776 0.972218
O O12 0.205879 0.500000 0.020390
O O13 0.748031 0.199949 0.676517
O O14 0.498535 0.000000 0.928941
O O15 0.500000 0.210942 0.000000
O O16 0.500000 0.740083 0.500000
O O17 0.380086 0.500000 0.581513
O O18 0.240460 0.737185 0.688616
O O19 0.854937 0.000000 0.188654
O O20 0.000000 0.774249 0.000000
O O21 0.000000 0.788733 0.500000
O O22 0.002322 0.000000 0.570064
#
# Coordination Sequence:
#
# PCOD8065487 Si02
#       8
#     4   4   4   4   4   4   4   4
#     4  10  21  37  58  84 112 145 191 242 287 338
#     4   9  19  38  59  78 110 152 190 234 288 341
#     4  11  24  39  57  88 123 152 192 238 281 337
#     4  10  23  41  60  81 112 158 197 230 282 342
#     4  10  20  38  63  87 116 155 193 231 279 335
#     4   9  18  31  50  80 107 132 179 234 278 329
#     4   9  19  34  50  75 110 143 175 219 284 349
#     4  10  20  38  63  88 119 157 193 231 280 336
#
# _framework density 18.899533999999999
#
# number of rings (size 3 to 8) (size 9 to 14) (size 15 to 20)
#    0.000    2.250    1.250    0.750    1.750    4.500 
#    0.000    3.750    0.000    0.000    0.000    0.000 
#    0.000    0.000    0.000    0.000    0.000    0.000 
#
# Total GULP energy -396559.303593 kJ/mol
# GULP energy per Si atom -12392.478237 kJ/mol
# Density = 1.885652 g / cm^3
# Si number density = 18.899534 Si / 1000 Ang^3
#
#
#
# Elastic Constant Matrix: (Units=GPa)
#
#
# Indices 1 2 3 4 5 6 
#
# 1 107.5135 58.7545 61.3585 0.0000 -1.3902 0.0000
# 2 58.7545 84.0517 55.2649 0.0000 -4.0900 0.0000
# 3 61.3585 55.2649 116.7737 0.0000 2.0946 0.0000
# 4 0.0000 0.0000 0.0000 24.1216 0.0000 2.2821
# 5 -1.3902 -4.0900 2.0946 0.0000 32.2118 0.0000
# 6 0.0000 0.0000 0.0000 2.2821 0.0000 25.4525
#
#
#
# Elastic Compliance Matrix: (Units=1/GPa)
#
#
# Indices 1 2 3 4 5 6 
#
# 1 0.016661 -0.008557 -0.004704 0.000000 -0.000062 0.000000
# 2 -0.008557 0.021909 -0.005923 0.000000 0.002798 0.000000
# 3 -0.004704 -0.005923 0.013872 0.000000 -0.001857 0.000000
# 4 0.000000 0.000000 0.000000 0.041811 0.000000 -0.003749
# 5 -0.000062 0.002798 -0.001857 0.000000 0.031518 0.000000
# 6 0.000000 0.000000 0.000000 -0.003749 0.000000 0.039625
#
#
# Mechanical properties :
#
#
# Convention : Reuss Voigt Hill
#
# Bulk Modulus (GPa) = 71.04805 73.23276 72.14041
# Shear Modulus (GPa) = 23.98602 25.22124 24.60363
#
# Velocity S-wave (km/s) = 3.56635 3.65703 3.61198
# Velocity P-wave (km/s) = 7.39139 7.52758 7.45979
#
# Compressibility (1/GPa) = 0.01407498
#
# Stress axis : x y z
#
# Youngs Moduli (GPa) = 60.02079 45.64256 72.08948
#
# Poissons Ratio (x) = 0.39055 0.33909
# Poissons Ratio (y) = 0.51358 0.42699
# Poissons Ratio (z) = 0.28232 0.27034
#
# Static dielectric constant tensor:
#      x y z
#    x 3.716630 0.000000 0.092560 
#    y 0.000000 3.461360 0.000000 
#    z 0.092560 0.000000 3.460650 
# 
# 
# High freq. dielectric constant tensor:
#      x y z
#    x 1.742650 0.000000 0.006600 
#    y 0.000000 1.733240 0.000000 
#    z 0.006600 0.000000 1.726630 
# 
# From -- ./inp_files/90606.got.cif
#   From: 2010.06.25/outbox.cif.g09.slc.cpg/sg10_46_cif.got.tgz:90606.got - 2010.06.27 22:07:45.
