data_PCOD8065544
_publ_section_title
;
Structure prediction by ZEFSAII (Michael W. Deem and Ramdas Pophale) SiO2 
 PCOD8065544
Probable space group: P 2/M
;
_chemical_formula_sum "Si O2"
_cell_formula_units_Z 30
_cell_length_a 9.015394
_cell_length_b 14.660609
_cell_length_c 22.738995
_cell_angle_alpha 90.000000
_cell_angle_beta 30.582515
_cell_angle_gamma 90.000000
_cell_volume 1529.103654
_symmetry_space_group_name_H-M "P 2/M"
_symmetry_group_IT_number 10
_symmetry_cell_setting 'monoclinic'
loop_
_space_group_symop_operation_xyz
x,y,z
-x,y,-z
-x,-y,-z
x,-y,z
loop_
_atom_site_type_symbol
_atom_site_label
_atom_site_fract_x
_atom_site_fract_y
_atom_site_fract_z
Si Si1 0.296649 0.604892 0.363622
Si Si2 0.841923 0.398277 0.721791
Si Si3 0.677411 0.896864 0.606036
Si Si4 0.715052 0.102443 0.154134
Si Si5 0.690430 0.726674 0.881640
Si Si6 0.343722 0.891866 0.955234
Si Si7 0.635698 0.266351 0.332389
Si Si8 0.500000 0.351031 0.500000
O O1 0.403644 0.500000 0.331260
O O2 0.254389 0.635369 0.310275
O O3 0.532868 0.670030 0.313498
O O4 0.000000 0.617404 0.500000
O O5 0.723300 0.500000 0.773592
O O6 0.688579 0.334011 0.822751
O O7 0.195912 0.406447 0.604321
O O8 0.565978 0.889818 0.710223
O O9 0.475348 0.836955 0.633820
O O10 0.000000 0.856005 0.500000
O O11 0.675268 0.000000 0.582225
O O12 0.629166 0.144833 0.121078
O O13 0.801094 0.000000 0.108617
O O14 0.010165 0.137646 0.086126
O O15 0.569860 0.829568 0.913715
O O16 0.020143 0.733700 0.789591
O O17 0.500000 0.681735 0.000000
O O18 0.416849 0.000000 0.940885
O O19 0.500989 0.292957 0.440580
#
# Coordination Sequence:
#
# PCOD8065544 Si02
#       8
#     4   4   4   4   4   4   4   2
#     4  10  20  38  66  96 113 140 193 253 305 344
#     4  10  22  40  63  88 119 151 193 243 294 353
#     4  10  21  34  53  82 118 159 194 228 287 352
#     4   8  16  33  58  86 108 143 202 254 294 330
#     4  11  25  40  55  88 123 164 200 230 295 356
#     4   9  18  35  60  86 113 149 200 256 291 328
#     4  11  23  37  59  85 123 154 194 247 291 346
#     4  10  21  36  59  94 116 150 189 240 307 348
#
# _framework density 19.619336000000001
#
# number of rings (size 3 to 8) (size 9 to 14) (size 15 to 20)
#    0.000    2.133    1.333    2.200    1.867    4.267 
#    0.000    0.333    0.000    1.600    0.000    0.000 
#    0.000    0.000    0.000    0.000    0.000    0.000 
#
# Total GULP energy -371702.228934 kJ/mol
# GULP energy per Si atom -12390.074298 kJ/mol
# Density = 1.957468 g / cm^3
# Si number density = 19.619336 Si / 1000 Ang^3
#
#
#
# Elastic Constant Matrix: (Units=GPa)
#
#
# Indices 1 2 3 4 5 6 
#
# 1 124.4336 53.5040 51.4185 0.0000 5.9777 0.0000
# 2 53.5040 83.5682 40.0049 0.0000 1.9237 0.0000
# 3 51.4185 40.0049 124.8251 0.0000 7.1433 0.0000
# 4 0.0000 0.0000 0.0000 19.7303 0.0000 0.1740
# 5 5.9777 1.9237 7.1433 0.0000 33.7829 0.0000
# 6 0.0000 0.0000 0.0000 0.1740 0.0000 20.1063
#
#
#
# Elastic Compliance Matrix: (Units=1/GPa)
#
#
# Indices 1 2 3 4 5 6 
#
# 1 0.011967 -0.006269 -0.002854 0.000000 -0.001157 0.000000
# 2 -0.006269 0.017420 -0.003044 0.000000 0.000761 0.000000
# 3 -0.002854 -0.003044 0.010248 0.000000 -0.001488 0.000000
# 4 0.000000 0.000000 0.000000 0.050687 0.000000 -0.000439
# 5 -0.001157 0.000761 -0.001488 0.000000 0.030077 0.000000
# 6 0.000000 0.000000 0.000000 -0.000439 0.000000 0.049739
#
#
# Mechanical properties :
#
#
# Convention : Reuss Voigt Hill
#
# Bulk Modulus (GPa) = 65.35899 69.18684 67.27291
# Shear Modulus (GPa) = 25.05366 27.25053 26.15210
#
# Velocity S-wave (km/s) = 3.57737 3.73092 3.65495
# Velocity P-wave (km/s) = 7.10277 7.34172 7.22323
#
# Compressibility (1/GPa) = 0.01530012
#
# Stress axis : x y z
#
# Youngs Moduli (GPa) = 83.56427 57.40692 97.58327
#
# Poissons Ratio (x) = 0.35987 0.27852
# Poissons Ratio (y) = 0.52384 0.29705
# Poissons Ratio (z) = 0.23851 0.17475
#
# Static dielectric constant tensor:
#      x y z
#    x 3.587460 0.000000 0.010350 
#    y 0.000000 3.529240 0.000000 
#    z 0.010350 0.000000 3.537660 
# 
# 
# High freq. dielectric constant tensor:
#      x y z
#    x 1.768000 0.000000 0.005820 
#    y 0.000000 1.752490 0.000000 
#    z 0.005820 0.000000 1.766680 
# 
# From -- ./inp_files/88202.got.cif
#   From: 2010.06.25/outbox.cif.g09.slc.cpg/sg10_45_cif.got.tgz:88202.got - 2010.06.27 22:07:45.
