data_PCOD8065138
_publ_section_title
;
Structure prediction by ZEFSAII (Michael W. Deem and Ramdas Pophale) SiO2 
 PCOD8065138
Probable space group: P 2/M
;
_chemical_formula_sum "Si O2"
_cell_formula_units_Z 28
_cell_length_a 10.097550
_cell_length_b 9.184558
_cell_length_c 30.456238
_cell_angle_alpha 90.000000
_cell_angle_beta 147.055736
_cell_angle_gamma 90.000000
_cell_volume 1536.059551
_symmetry_space_group_name_H-M "P 2/M"
_symmetry_group_IT_number 10
_symmetry_cell_setting 'monoclinic'
loop_
_space_group_symop_operation_xyz
x,y,z
-x,y,-z
-x,-y,-z
x,-y,z
loop_
_atom_site_type_symbol
_atom_site_label
_atom_site_fract_x
_atom_site_fract_y
_atom_site_fract_z
Si Si1 0.947341 0.666167 0.177256
Si Si2 0.026935 0.827463 0.905397
Si Si3 0.331206 0.164777 0.495540
Si Si4 0.576527 0.333497 0.929339
Si Si5 0.952892 0.330346 0.339845
Si Si6 0.406189 0.330349 0.167596
Si Si7 0.280975 0.332059 0.349665
O O1 0.957847 0.500000 0.162688
O O2 0.956260 0.777508 0.140000
O O3 0.704583 0.690951 0.137788
O O4 0.176467 0.699385 0.272327
O O5 0.783781 0.766131 0.859191
O O6 0.021533 0.000000 0.905771
O O7 0.263643 0.772217 0.996674
O O8 0.500000 0.177072 0.500000
O O9 0.471852 0.240278 0.575134
O O10 0.076196 0.244377 0.414513
O O11 0.274313 0.000000 0.492979
O O12 0.654559 0.500000 0.960443
O O13 0.618699 0.293845 0.890539
O O14 0.985496 0.500000 0.358384
O O15 0.671391 0.286281 0.258950
O O16 0.076933 0.286739 0.328339
O O17 0.353619 0.500000 0.161500
O O18 0.349910 0.500000 0.374889
#
# Coordination Sequence:
#
# PCOD8065138 Si02
#       7
#     4   4   4   4   4   4   4
#     4  10  20  37  60  82 105 138 182 229 272 314
#     4  12  26  38  50  77 114 149 180 214 268 330
#     4   9  17  27  43  74 113 146 171 202 256 320
#     4  10  20  38  62  83 102 133 183 234 274 314
#     4   9  16  30  53  80 105 132 174 224 267 307
#     4  10  20  37  60  82 105 138 182 229 272 314
#     4   9  16  30  53  80 105 132 174 224 267 307
#
# _framework density 18.228459000000001
#
# number of rings (size 3 to 8) (size 9 to 14) (size 15 to 20)
#    0.000    2.143    1.429    2.571    0.000    7.429 
#    0.000    0.000    0.000    0.857    0.000    6.000 
#    0.000    0.000    0.000    0.000    0.000    0.000 
#
# Total GULP energy -347257.692358 kJ/mol
# GULP energy per Si atom -12402.060441 kJ/mol
# Density = 1.818697 g / cm^3
# Si number density = 18.228459 Si / 1000 Ang^3
#
#
#
# Elastic Constant Matrix: (Units=GPa)
#
#
# Indices 1 2 3 4 5 6 
#
# 1 71.6583 38.1464 29.0712 0.0000 -36.3687 0.0000
# 2 38.1464 98.5170 65.1483 0.0000 -23.0708 0.0000
# 3 29.0712 65.1483 136.1642 0.0000 -20.3407 0.0000
# 4 0.0000 0.0000 0.0000 6.7472 0.0000 -0.8886
# 5 -36.3687 -23.0708 -20.3407 0.0000 46.9634 0.0000
# 6 0.0000 0.0000 0.0000 -0.8886 0.0000 18.3127
#
#
#
# Elastic Compliance Matrix: (Units=1/GPa)
#
#
# Indices 1 2 3 4 5 6 
#
# 1 0.025790 -0.005913 -0.000136 0.000000 0.017008 0.000000
# 2 -0.005913 0.017154 -0.006811 0.000000 0.000898 0.000000
# 3 -0.000136 -0.006811 0.010816 0.000000 0.001233 0.000000
# 4 0.000000 0.000000 0.000000 0.149162 0.000000 0.007238
# 5 0.017008 0.000898 0.001233 0.000000 0.035440 0.000000
# 6 0.000000 0.000000 0.000000 0.007238 0.000000 0.054958
#
#
# Mechanical properties :
#
#
# Convention : Reuss Voigt Hill
#
# Bulk Modulus (GPa) = 35.66309 63.45237 49.55773
# Shear Modulus (GPa) = 15.22585 26.00290 20.61438
#
# Velocity S-wave (km/s) = 2.89326 3.78100 3.36652
# Velocity P-wave (km/s) = 5.54691 7.34482 6.50825
#
# Compressibility (1/GPa) = 0.02804020
#
# Stress axis : x y z
#
# Youngs Moduli (GPa) = 38.77417 58.29391 92.45406
#
# Poissons Ratio (x) = 0.34469 0.01261
# Poissons Ratio (y) = 0.22927 0.62971
# Poissons Ratio (z) = 0.00529 0.39704
#
# Static dielectric constant tensor:
#      x y z
#    x 3.102260 0.000000 0.009380 
#    y 0.000000 3.340320 0.000000 
#    z 0.009380 0.000000 3.550600 
# 
# 
# High freq. dielectric constant tensor:
#      x y z
#    x 1.675770 0.000000 0.001540 
#    y 0.000000 1.697630 0.000000 
#    z 0.001540 0.000000 1.723950 
# 
# From -- ./inp_files/36810.got.cif
#   From: 2010.06.25/outbox.cif.g09.slc.cpg/sg10_19_cif.got.tgz:36810.got - 2010.06.27 22:07:45.
