data_PCOD8065524
_publ_section_title
;
Structure prediction by ZEFSAII (Michael W. Deem and Ramdas Pophale) SiO2 
 PCOD8065524
Probable space group: P 2/M
;
_chemical_formula_sum "Si O2"
_cell_formula_units_Z 20
_cell_length_a 9.859326
_cell_length_b 14.182184
_cell_length_c 7.585073
_cell_angle_alpha 90.000000
_cell_angle_beta 62.710364
_cell_angle_gamma 90.000000
_cell_volume 942.552123
_symmetry_space_group_name_H-M "P 2/M"
_symmetry_group_IT_number 10
_symmetry_cell_setting 'monoclinic'
loop_
_space_group_symop_operation_xyz
x,y,z
-x,y,-z
-x,-y,-z
x,-y,z
loop_
_atom_site_type_symbol
_atom_site_label
_atom_site_fract_x
_atom_site_fract_y
_atom_site_fract_z
Si Si1 0.167147 0.110199 0.973059
Si Si2 0.828478 0.780883 0.667804
Si Si3 0.324431 0.775171 0.585959
Si Si4 0.836592 0.605095 0.170724
Si Si5 0.327478 0.605806 0.090872
O O1 0.194777 0.155299 0.146900
O O2 0.196796 0.000000 0.972259
O O3 0.287662 0.152708 0.764367
O O4 0.000000 0.133694 0.000000
O O5 0.716767 0.820250 0.579733
O O6 0.786031 0.672753 0.734269
O O7 0.000000 0.787590 0.500000
O O8 0.500000 0.747422 0.500000
O O9 0.220815 0.680206 0.652454
O O10 0.850123 0.500000 0.246154
O O11 0.713746 0.605901 0.089161
O O12 0.000000 0.638601 0.000000
O O13 0.313985 0.500000 0.177745
O O14 0.500000 0.644076 0.000000
#
# Coordination Sequence:
#
# PCOD8065524 Si02
#       5
#     4   4   4   4   4
#     4  11  25  48  72  95 130 168 215 278 336 391
#     4  12  24  40  70 100 127 172 225 265 322 395
#     4  12  25  41  67 100 135 170 215 270 331 390
#     4  10  20  38  64  91 130 179 221 262 314 381
#     4  10  21  38  62  93 134 178 215 259 318 380
#
# _framework density 21.218986000000001
#
# number of rings (size 3 to 8) (size 9 to 14) (size 15 to 20)
#    0.000    1.000    4.000    3.000    0.000    3.200 
#    0.000    1.000    0.000    0.000    0.000    0.000 
#    0.000    0.000    0.000    0.000    0.000    0.000 
#
# Total GULP energy -248065.750874 kJ/mol
# GULP energy per Si atom -12403.287544 kJ/mol
# Density = 2.117069 g / cm^3
# Si number density = 21.218986 Si / 1000 Ang^3
#
#
#
# Elastic Constant Matrix: (Units=GPa)
#
#
# Indices 1 2 3 4 5 6 
#
# 1 120.1186 37.7760 43.3132 0.0000 7.7955 0.0000
# 2 37.7760 122.1275 62.5286 0.0000 2.2175 0.0000
# 3 43.3132 62.5286 103.6947 0.0000 20.7571 0.0000
# 4 0.0000 0.0000 0.0000 -0.5827 0.0000 2.6146
# 5 7.7955 2.2175 20.7571 0.0000 38.7248 0.0000
# 6 0.0000 0.0000 0.0000 2.6146 0.0000 17.3753
#
#
#
# Elastic Compliance Matrix: (Units=1/GPa)
#
#
# Indices 1 2 3 4 5 6 
#
# 1 0.009959 -0.001395 -0.003286 0.000000 -0.000164 0.000000
# 2 -0.001395 0.012487 -0.007685 0.000000 0.003685 0.000000
# 3 -0.003286 -0.007685 0.017284 0.000000 -0.008163 0.000000
# 4 0.000000 0.000000 0.000000 -1.024467 0.000000 0.154160
# 5 -0.000164 0.003685 -0.008163 0.000000 0.030021 0.000000
# 6 0.000000 0.000000 0.000000 0.154160 0.000000 0.034356
#
#
# Mechanical properties :
#
#
# Convention : Reuss Voigt Hill
#
# Bulk Modulus (GPa) = 66.67083 70.35292 68.51188
# Shear Modulus (GPa) = -5.61401 24.59167 9.48883
#
# Velocity S-wave (km/s) = -1.62834 3.40802 2.11697
# Velocity P-wave (km/s) = 5.28708 6.97953 6.19141
#
# Compressibility (1/GPa) = 0.01499906
#
# Stress axis : x y z
#
# Youngs Moduli (GPa) = 100.40784 80.08054 57.85602
#
# Poissons Ratio (x) = 0.11173 0.19011
# Poissons Ratio (y) = 0.14010 0.44461
# Poissons Ratio (z) = 0.32993 0.61541
#
# Static dielectric constant tensor:
#      x y z
#    x 4.024040 0.000000 0.124180 
#    y 0.000000 3.885380 0.000000 
#    z 0.124180 0.000000 3.796400 
# 
# 
# High freq. dielectric constant tensor:
#      x y z
#    x 1.846640 0.000000 0.003730 
#    y 0.000000 1.825010 0.000000 
#    z 0.003730 0.000000 1.826940 
# 
# From -- ./inp_files/24513.got.cif
#   From: 2010.06.25/outbox.cif.g09.slc.cpg/sg10_13_cif.got.tgz:24513.got - 2010.06.27 22:07:45.
