data_PCOD8065915
_publ_section_title
;
Structure prediction by ZEFSAII (Michael W. Deem and Ramdas Pophale) SiO2 
 PCOD8065915
Probable space group: P 2/M
;
_chemical_formula_sum "Si O2"
_cell_formula_units_Z 24
_cell_length_a 8.677789
_cell_length_b 11.511043
_cell_length_c 24.884875
_cell_angle_alpha 90.000000
_cell_angle_beta 30.097172
_cell_angle_gamma 90.000000
_cell_volume 1246.529269
_symmetry_space_group_name_H-M "P 2/M"
_symmetry_group_IT_number 10
_symmetry_cell_setting 'monoclinic'
loop_
_space_group_symop_operation_xyz
x,y,z
-x,y,-z
-x,-y,-z
x,-y,z
loop_
_atom_site_type_symbol
_atom_site_label
_atom_site_fract_x
_atom_site_fract_y
_atom_site_fract_z
Si Si1 0.678253 0.770834 0.085878
Si Si2 0.750363 0.000000 0.000742
Si Si3 0.305655 0.636743 0.110326
Si Si4 0.285185 0.221266 0.713552
Si Si5 0.337584 0.866241 0.492655
Si Si6 0.931271 0.000000 0.832517
Si Si7 0.379164 0.862848 0.283356
O O1 0.803604 0.885381 0.018530
O O2 0.451260 0.693873 0.119013
O O3 0.495987 0.806272 0.193640
O O4 0.000000 0.701682 0.000000
O O5 0.419890 0.000000 0.074938
O O6 0.992488 0.000000 0.878388
O O7 0.330713 0.500000 0.108890
O O8 0.944089 0.668669 0.213820
O O9 0.500000 0.681017 0.000000
O O10 0.528536 0.225160 0.591331
O O11 0.462130 0.205215 0.715821
O O12 0.071927 0.112635 0.762923
O O13 0.500000 0.842926 0.500000
O O14 0.980863 0.838562 0.605373
O O15 0.386762 0.000000 0.458804
O O16 0.449179 0.000000 0.264511
#
# Coordination Sequence:
#
# PCOD8065915 Si02
#       7
#     4   2   4   4   4   2   4
#     4  12  23  36  58  89 124 157 191 245 298 358
#     4  11  21  32  51  86 125 149 185 236 303 365
#     4  11  25  44  63  83 113 160 212 252 293 343
#     4  12  21  38  60  85 121 157 198 246 295 353
#     4  10  21  35  56  87 126 164 195 231 291 364
#     4  11  20  30  55  85 114 155 189 237 299 361
#     4  11  22  35  57  93 130 159 189 232 299 372
#
# _framework density 19.253457000000001
#
# number of rings (size 3 to 8) (size 9 to 14) (size 15 to 20)
#    0.000    0.833    4.167    4.750    0.000    1.667 
#    0.000    0.833    0.000    6.500    0.000    0.000 
#    0.000    0.000    0.000    0.000    0.000    0.000 
#
# Total GULP energy -297613.479013 kJ/mol
# GULP energy per Si atom -12400.561626 kJ/mol
# Density = 1.920964 g / cm^3
# Si number density = 19.253457 Si / 1000 Ang^3
#
#
#
# Elastic Constant Matrix: (Units=GPa)
#
#
# Indices 1 2 3 4 5 6 
#
# 1 142.2824 37.0399 63.0333 0.0000 -6.8576 0.0000
# 2 37.0399 54.6146 30.8838 0.0000 -0.7128 0.0000
# 3 63.0333 30.8838 141.6202 0.0000 1.8795 0.0000
# 4 0.0000 0.0000 0.0000 19.9004 0.0000 9.8478
# 5 -6.8576 -0.7128 1.8795 0.0000 39.2528 0.0000
# 6 0.0000 0.0000 0.0000 9.8478 0.0000 -21.5978
#
#
#
# Elastic Compliance Matrix: (Units=1/GPa)
#
#
# Indices 1 2 3 4 5 6 
#
# 1 0.009843 -0.004747 -0.003370 0.000000 0.001795 0.000000
# 2 -0.004747 0.023189 -0.002941 0.000000 -0.000267 0.000000
# 3 -0.003370 -0.002941 0.009217 0.000000 -0.001083 0.000000
# 4 0.000000 0.000000 0.000000 0.040999 0.000000 0.018694
# 5 0.001795 -0.000267 -0.001083 0.000000 0.025836 0.000000
# 6 0.000000 0.000000 0.000000 0.018694 0.000000 -0.037777
#
#
# Mechanical properties :
#
#
# Convention : Reuss Voigt Hill
#
# Bulk Modulus (GPa) = 49.66629 66.71458 58.19043
# Shear Modulus (GPa) = 49.93327 21.34841 35.64084
#
# Velocity S-wave (km/s) = 5.09814 3.33349 4.30715
# Velocity P-wave (km/s) = 7.77861 7.03862 7.41785
#
# Compressibility (1/GPa) = 0.02013438
#
# Stress axis : x y z
#
# Youngs Moduli (GPa) = 101.59098 43.12420 108.49925
#
# Poissons Ratio (x) = 0.20470 0.36562
# Poissons Ratio (y) = 0.48224 0.31905
# Poissons Ratio (z) = 0.34234 0.12681
#
# Static dielectric constant tensor:
#      x y z
#    x 3.874810 0.000000 -0.001110 
#    y 0.000000 3.150420 0.000000 
#    z -0.001110 0.000000 3.769960 
# 
# 
# High freq. dielectric constant tensor:
#      x y z
#    x 1.773820 0.000000 -0.006800 
#    y 0.000000 1.696410 0.000000 
#    z -0.006800 0.000000 1.769090 
# 
# From -- ./inp_files/88053.got.cif
#   From: 2010.06.25/outbox.cif.g09.slc.cpg/sg10_45_cif.got.tgz:88053.got - 2010.06.27 22:07:45.
