data_PCOD8065193
_publ_section_title
;
Structure prediction by ZEFSAII (Michael W. Deem and Ramdas Pophale) SiO2 
 PCOD8065193
Probable space group: P 2/M
;
_chemical_formula_sum "Si O2"
_cell_formula_units_Z 28
_cell_length_a 28.867811
_cell_length_b 8.904466
_cell_length_c 8.225083
_cell_angle_alpha 90.000000
_cell_angle_beta 140.248701
_cell_angle_gamma 90.000000
_cell_volume 1351.988455
_symmetry_space_group_name_H-M "P 2/M"
_symmetry_group_IT_number 10
_symmetry_cell_setting 'monoclinic'
loop_
_space_group_symop_operation_xyz
x,y,z
-x,y,-z
-x,-y,-z
x,-y,z
loop_
_atom_site_type_symbol
_atom_site_label
_atom_site_fract_x
_atom_site_fract_y
_atom_site_fract_z
Si Si1 0.917654 0.178595 0.275708
Si Si2 0.562088 0.163205 0.039556
Si Si3 0.162680 0.173337 0.622787
Si Si4 0.311629 0.825342 0.174237
Si Si5 0.701692 0.677185 0.528153
Si Si6 0.832266 0.178900 0.724721
Si Si7 0.460482 0.340236 0.550829
O O1 0.878973 0.247862 0.334205
O O2 0.000000 0.235307 0.500000
O O3 0.912236 0.000000 0.263892
O O4 0.883018 0.234969 0.010897
O O5 0.520631 0.226693 0.775375
O O6 0.597937 0.000000 0.096821
O O7 0.500000 0.139681 0.000000
O O8 0.619829 0.281939 0.260686
O O9 0.138280 0.230256 0.375948
O O10 0.142630 0.000000 0.579238
O O11 0.249406 0.197677 0.871305
O O12 0.278627 0.758507 0.250511
O O13 0.383696 0.739746 0.314653
O O14 0.330060 0.000000 0.251775
O O15 0.710240 0.500000 0.568094
O O16 0.754877 0.741106 0.534543
O O17 0.822039 0.000000 0.700046
O O18 0.500000 0.395927 0.500000
O O19 0.447363 0.500000 0.613516
#
# Coordination Sequence:
#
# PCOD8065193 Si02
#       7
#     4   4   4   4   4   4   4
#     4   9  17  32  58  93 129 158 192 244 300 354
#     4  11  23  39  60  83 107 148 200 247 300 361
#     4   9  19  34  56  89 122 157 201 247 297 353
#     4  11  21  38  60  83 114 157 206 252 301 364
#     4  12  24  38  59  85 114 151 198 252 311 365
#     4  10  20  37  60  87 122 160 199 245 296 360
#     4  11  25  41  56  83 121 156 198 254 311 360
#
# _framework density 20.710235000000001
#
# number of rings (size 3 to 8) (size 9 to 14) (size 15 to 20)
#    0.000    1.571    2.857    2.571    2.000    2.286 
#    0.000    3.571    0.000    0.429    0.000    1.000 
#    0.000    0.000    0.000    0.000    0.000    0.000 
#
# Total GULP energy -346881.238034 kJ/mol
# GULP energy per Si atom -12388.615644 kJ/mol
# Density = 2.066310 g / cm^3
# Si number density = 20.710235 Si / 1000 Ang^3
#
#
#
# Elastic Constant Matrix: (Units=GPa)
#
#
# Indices 1 2 3 4 5 6 
#
# 1 121.0528 33.0368 62.5842 0.0000 -17.3316 0.0000
# 2 33.0368 84.3768 27.2556 0.0000 2.6648 0.0000
# 3 62.5842 27.2556 114.2627 0.0000 -14.2051 0.0000
# 4 0.0000 0.0000 0.0000 88.1334 0.0000 65.7265
# 5 -17.3316 2.6648 -14.2051 0.0000 29.9752 0.0000
# 6 0.0000 0.0000 0.0000 65.7265 0.0000 72.5339
#
#
#
# Elastic Compliance Matrix: (Units=1/GPa)
#
#
# Indices 1 2 3 4 5 6 
#
# 1 0.012782 -0.003365 -0.005571 0.000000 0.005050 0.000000
# 2 -0.003365 0.013945 -0.001997 0.000000 -0.004132 0.000000
# 3 -0.005571 -0.001997 0.012646 0.000000 0.002949 0.000000
# 4 0.000000 0.000000 0.000000 0.034995 0.000000 -0.031711
# 5 0.005050 -0.004132 0.002949 0.000000 0.038046 0.000000
# 6 0.000000 0.000000 0.000000 -0.031711 0.000000 0.042521
#
#
# Mechanical properties :
#
#
# Convention : Reuss Voigt Hill
#
# Bulk Modulus (GPa) = 57.11686 62.82729 59.97208
# Shear Modulus (GPa) = 27.37689 51.24953 39.31321
#
# Velocity S-wave (km/s) = 3.63974 4.97993 4.36162
# Velocity P-wave (km/s) = 6.73072 7.96671 7.37465
#
# Compressibility (1/GPa) = 0.01750796
#
# Stress axis : x y z
#
# Youngs Moduli (GPa) = 78.23396 71.71246 79.07668
#
# Poissons Ratio (x) = 0.24129 0.44051
# Poissons Ratio (y) = 0.26324 0.15791
# Poissons Ratio (z) = 0.43582 0.14321
#
# Static dielectric constant tensor:
#      x y z
#    x 3.936430 0.000000 -0.188280 
#    y 0.000000 3.864410 0.000000 
#    z -0.188280 0.000000 3.843360 
# 
# 
# High freq. dielectric constant tensor:
#      x y z
#    x 1.811660 0.000000 -0.005850 
#    y 0.000000 1.784990 0.000000 
#    z -0.005850 0.000000 1.807720 
# 
# From -- ./inp_files/38050.got.cif
#   From: 2010.06.25/outbox.cif.g09.slc.cpg/sg10_20_cif.got.tgz:38050.got - 2010.06.27 22:07:45.
