data_PCOD8065252
_publ_section_title
;
Structure prediction by ZEFSAII (Michael W. Deem and Ramdas Pophale) SiO2 
 PCOD8065252
Probable space group: P 2/M
;
_chemical_formula_sum "Si O2"
_cell_formula_units_Z 24
_cell_length_a 16.877478
_cell_length_b 11.559145
_cell_length_c 12.160974
_cell_angle_alpha 90.000000
_cell_angle_beta 146.925375
_cell_angle_gamma 90.000000
_cell_volume 1294.732852
_symmetry_space_group_name_H-M "P 2/M"
_symmetry_group_IT_number 10
_symmetry_cell_setting 'monoclinic'
loop_
_space_group_symop_operation_xyz
x,y,z
-x,y,-z
-x,-y,-z
x,-y,z
loop_
_atom_site_type_symbol
_atom_site_label
_atom_site_fract_x
_atom_site_fract_y
_atom_site_fract_z
Si Si1 0.843260 0.868538 0.782441
Si Si2 0.861807 0.500000 0.499677
Si Si3 0.718092 0.722794 0.438423
Si Si4 0.196751 0.500000 0.823589
Si Si5 0.377809 0.280171 0.070833
Si Si6 0.373263 0.869854 0.278737
Si Si7 0.670255 0.873296 0.183588
O O1 0.772090 0.776992 0.615959
O O2 0.768841 0.868789 0.813941
O O3 0.841527 0.000000 0.731129
O O4 0.000000 0.824418 0.000000
O O5 0.809781 0.610454 0.509791
O O6 0.792827 0.500000 0.297330
O O7 0.035072 0.500000 0.685223
O O8 0.547193 0.691028 0.246322
O O9 0.744655 0.820352 0.377857
O O10 0.284554 0.394134 0.975677
O O11 0.353412 0.207285 0.150484
O O12 0.299702 0.209699 0.883213
O O13 0.500000 0.815901 0.500000
O O14 0.415721 0.000000 0.289611
O O15 0.739368 0.000000 0.243353
O O16 0.500000 0.886353 0.000000
#
# Coordination Sequence:
#
# PCOD8065252 Si02
#       7
#     4   2   4   2   4   4   4
#     4  10  22  39  61  90 126 167 200 238 299 365
#     4  11  25  43  61  83 121 166 200 247 305 360
#     4  11  21  38  63  89 119 156 204 249 298 356
#     4  11  25  43  61  85 119 163 204 248 305 360
#     4  11  21  37  63  91 119 155 203 249 298 356
#     4  10  20  37  61  90 125 161 197 242 298 355
#     4   9  18  31  56  92 121 145 185 246 304 354
#
# _framework density 18.536642000000001
#
# number of rings (size 3 to 8) (size 9 to 14) (size 15 to 20)
#    0.000    1.667    3.333    1.500    2.333    2.000 
#    0.000    1.667    0.000    1.000    0.000    0.000 
#    0.000    0.000    0.000    0.000    0.000    0.000 
#
# Total GULP energy -297530.943814 kJ/mol
# GULP energy per Si atom -12397.122659 kJ/mol
# Density = 1.849445 g / cm^3
# Si number density = 18.536642 Si / 1000 Ang^3
#
#
#
# Elastic Constant Matrix: (Units=GPa)
#
#
# Indices 1 2 3 4 5 6 
#
# 1 86.5169 46.5755 40.6381 0.0000 -7.1480 0.0000
# 2 46.5755 115.9680 36.2274 0.0000 -4.0012 0.0000
# 3 40.6381 36.2274 82.6718 0.0000 2.0279 0.0000
# 4 0.0000 0.0000 0.0000 118.9856 0.0000 14.3322
# 5 -7.1480 -4.0012 2.0279 0.0000 32.9000 0.0000
# 6 0.0000 0.0000 0.0000 14.3322 0.0000 26.2304
#
#
#
# Elastic Compliance Matrix: (Units=1/GPa)
#
#
# Indices 1 2 3 4 5 6 
#
# 1 0.017581 -0.004875 -0.006595 0.000000 0.003633 0.000000
# 2 -0.004875 0.011416 -0.002618 0.000000 0.000490 0.000000
# 3 -0.006595 -0.002618 0.016553 0.000000 -0.002771 0.000000
# 4 0.000000 0.000000 0.000000 0.008996 0.000000 -0.004916
# 5 0.003633 0.000490 -0.002771 0.000000 0.031415 0.000000
# 6 0.000000 0.000000 0.000000 -0.004916 0.000000 0.040810
#
#
# Mechanical properties :
#
#
# Convention : Reuss Voigt Hill
#
# Bulk Modulus (GPa) = 57.55915 59.11540 58.33727
# Shear Modulus (GPa) = 31.10649 46.40424 38.75537
#
# Velocity S-wave (km/s) = 4.10092 5.00881 4.57743
# Velocity P-wave (km/s) = 7.31726 8.08772 7.71212
#
# Compressibility (1/GPa) = 0.01737343
#
# Stress axis : x y z
#
# Youngs Moduli (GPa) = 56.88010 87.59700 60.41223
#
# Poissons Ratio (x) = 0.42707 0.39840
# Poissons Ratio (y) = 0.27731 0.15816
# Poissons Ratio (z) = 0.37511 0.22933
#
# Static dielectric constant tensor:
#      x y z
#    x 3.216780 0.000000 0.142600 
#    y 0.000000 3.526740 0.000000 
#    z 0.142600 0.000000 3.250500 
# 
# 
# High freq. dielectric constant tensor:
#      x y z
#    x 1.718600 0.000000 -0.005120 
#    y 0.000000 1.720850 0.000000 
#    z -0.005120 0.000000 1.715390 
# 
# From -- ./inp_files/50850.got.cif
#   From: 2010.06.25/outbox.cif.g09.slc.cpg/sg10_26_cif.got.tgz:50850.got - 2010.06.27 22:07:45.
