data_PCOD8065002
_publ_section_title
;
Structure prediction by ZEFSAII (Michael W. Deem and Ramdas Pophale) SiO2 
 PCOD8065002
Probable space group: P 2/M
;
_chemical_formula_sum "Si O2"
_cell_formula_units_Z 32
_cell_length_a 12.312098
_cell_length_b 8.906458
_cell_length_c 14.464290
_cell_angle_alpha 90.000000
_cell_angle_beta 90.045325
_cell_angle_gamma 90.000000
_cell_volume 1586.112810
_symmetry_space_group_name_H-M "P 2/M"
_symmetry_group_IT_number 10
_symmetry_cell_setting 'monoclinic'
loop_
_space_group_symop_operation_xyz
x,y,z
-x,y,-z
-x,-y,-z
x,-y,z
loop_
_atom_site_type_symbol
_atom_site_label
_atom_site_fract_x
_atom_site_fract_y
_atom_site_fract_z
Si Si1 0.112693 0.171541 0.167408
Si Si2 0.328851 0.823988 0.271698
Si Si3 0.384164 0.175160 0.960648
Si Si4 0.825420 0.323226 0.010633
Si Si5 0.622141 0.176430 0.519351
Si Si6 0.278917 0.329277 0.647347
Si Si7 0.540827 0.670699 0.210913
Si Si8 0.873696 0.172662 0.206343
O O1 0.211542 0.225621 0.232840
O O2 0.002513 0.187511 0.226430
O O3 0.131243 0.000000 0.135847
O O4 0.098800 0.271218 0.074286
O O5 0.338484 0.778496 0.378586
O O6 0.420402 0.737157 0.214414
O O7 0.350088 0.000000 0.257666
O O8 0.295401 0.268522 0.018364
O O9 0.382353 0.228849 0.854649
O O10 0.358621 0.000000 0.969157
O O11 0.500000 0.220146 0.000000
O O12 0.833987 0.500000 0.023256
O O13 0.852139 0.245277 0.107054
O O14 0.500000 0.236462 0.500000
O O15 0.710614 0.250141 0.451572
O O16 0.625872 0.000000 0.502609
O O17 0.241768 0.500000 0.633447
O O18 0.399471 0.320213 0.690897
O O19 0.188126 0.251980 0.710249
O O20 0.535588 0.500000 0.174230
O O21 0.836528 0.000000 0.201652
#
# Coordination Sequence:
#
# PCOD8065002 Si02
#       8
#     4   4   4   4   4   4   4   4
#     4  10  23  42  62  87 117 156 203 250 296 346
#     4  10  21  39  62  88 121 156 197 246 296 355
#     4  11  23  37  55  81 116 159 201 242 291 349
#     4  12  24  38  59  88 120 156 198 246 299 355
#     4  10  20  36  62  92 119 154 196 239 292 355
#     4  11  23  38  59  89 122 153 191 243 298 351
#     4  11  22  35  55  85 120 155 191 238 298 355
#     4  11  23  41  65  87 115 157 206 251 292 346
#
# _framework density 20.17511
#
# number of rings (size 3 to 8) (size 9 to 14) (size 15 to 20)
#    0.000    1.250    2.500    3.750    0.000    8.750 
#    0.000    0.625    0.000    3.750    0.000    0.000 
#    0.000    0.000    0.000    0.000    0.000    0.000 
#
# Total GULP energy -396890.132342 kJ/mol
# GULP energy per Si atom -12402.816636 kJ/mol
# Density = 2.012919 g / cm^3
# Si number density = 20.175110 Si / 1000 Ang^3
#
#
#
# Elastic Constant Matrix: (Units=GPa)
#
#
# Indices 1 2 3 4 5 6 
#
# 1 93.3228 28.8644 26.9339 0.0000 -14.4681 0.0000
# 2 28.8644 80.8426 32.5171 0.0000 -9.6686 0.0000
# 3 26.9339 32.5171 91.1986 0.0000 -16.6466 0.0000
# 4 0.0000 0.0000 0.0000 21.7395 0.0000 -1.9370
# 5 -14.4681 -9.6686 -16.6466 0.0000 29.2145 0.0000
# 6 0.0000 0.0000 0.0000 -1.9370 0.0000 8.9553
#
#
#
# Elastic Compliance Matrix: (Units=1/GPa)
#
#
# Indices 1 2 3 4 5 6 
#
# 1 0.012950 -0.003373 -0.001847 0.000000 0.004244 0.000000
# 2 -0.003373 0.015431 -0.004329 0.000000 0.000970 0.000000
# 3 -0.001847 -0.004329 0.014091 0.000000 0.005682 0.000000
# 4 0.000000 0.000000 0.000000 0.046903 0.000000 0.010145
# 5 0.004244 0.000970 0.005682 0.000000 0.039890 0.000000
# 6 0.000000 0.000000 0.000000 0.010145 0.000000 0.113860
#
#
# Mechanical properties :
#
#
# Convention : Reuss Voigt Hill
#
# Bulk Modulus (GPa) = 42.78213 49.11052 45.94633
# Shear Modulus (GPa) = 18.51746 23.78508 21.15127
#
# Velocity S-wave (km/s) = 3.03287 3.43728 3.24139
# Velocity P-wave (km/s) = 5.78929 6.33626 6.06894
#
# Compressibility (1/GPa) = 0.02337424
#
# Stress axis : x y z
#
# Youngs Moduli (GPa) = 77.22061 64.80365 70.96653
#
# Poissons Ratio (x) = 0.21859 0.13108
# Poissons Ratio (y) = 0.26047 0.30720
# Poissons Ratio (z) = 0.14263 0.28052
#
# Static dielectric constant tensor:
#      x y z
#    x 3.855070 0.000000 -0.033410 
#    y 0.000000 3.623710 0.000000 
#    z -0.033410 0.000000 3.587110 
# 
# 
# High freq. dielectric constant tensor:
#      x y z
#    x 1.791560 0.000000 -0.007460 
#    y 0.000000 1.787660 0.000000 
#    z -0.007460 0.000000 1.780190 
# 
# From -- ./inp_files/58300.got.cif
#   From: 2010.06.25/outbox.cif.g09.slc.cpg/sg10_30_cif.got.tgz:58300.got - 2010.06.27 22:07:45.
