data_PCOD8065840
_publ_section_title
;
Structure prediction by ZEFSAII (Michael W. Deem and Ramdas Pophale) SiO2 
 PCOD8065840
Probable space group: P 2/M
;
_chemical_formula_sum "Si O2"
_cell_formula_units_Z 28
_cell_length_a 21.726966
_cell_length_b 12.817616
_cell_length_c 27.447055
_cell_angle_alpha 90.000000
_cell_angle_beta 168.598983
_cell_angle_gamma 90.000000
_cell_volume 1510.961055
_symmetry_space_group_name_H-M "P 2/M"
_symmetry_group_IT_number 10
_symmetry_cell_setting 'monoclinic'
loop_
_space_group_symop_operation_xyz
x,y,z
-x,y,-z
-x,-y,-z
x,-y,z
loop_
_atom_site_type_symbol
_atom_site_label
_atom_site_fract_x
_atom_site_fract_y
_atom_site_fract_z
Si Si1 0.711311 0.883330 0.711316
Si Si2 0.272750 0.119095 0.614198
Si Si3 0.782118 0.264130 0.188064
Si Si4 0.678444 0.119100 0.019900
Si Si5 0.702749 0.622018 0.468515
Si Si6 0.198140 0.768586 0.367031
Si Si7 0.211557 0.231402 0.042670
O O1 0.500000 0.891510 0.500000
O O2 0.529068 0.820964 0.611841
O O3 0.793369 0.000000 0.793379
O O4 0.025714 0.820973 0.942952
O O5 0.547066 0.144910 0.789060
O O6 0.979542 0.192499 0.377855
O O7 0.173192 0.000000 0.528493
O O8 0.388247 0.137791 0.758815
O O9 0.630441 0.192499 0.028768
O O10 0.994056 0.354527 0.329355
O O11 0.500000 0.315290 0.000000
O O12 0.000879 0.144930 0.242884
O O13 0.694920 0.000000 0.050216
O O14 0.656832 0.500000 0.437887
O O15 0.747892 0.668055 0.557508
O O16 0.394510 0.668075 0.204126
O O17 0.019137 0.731342 0.179411
#
# Coordination Sequence:
#
# PCOD8065840 Si02
#       7
#     4   4   4   4   4   4   4
#     4   9  16  29  53  82 111 141 168 196 234 282
#     4   9  17  30  49  73 104 139 165 189 234 297
#     4  10  21  35  51  73  97 121 160 212 255 298
#     4   9  17  30  49  73 104 139 165 189 234 297
#     4  10  22  39  56  71  91 127 171 213 260 303
#     4   9  18  33  52  76 105 134 168 207 242 283
#     4   9  18  33  52  76 105 134 168 207 242 283
#
# _framework density 18.531251000000001
#
# number of rings (size 3 to 8) (size 9 to 14) (size 15 to 20)
#    0.000    2.714    0.000    1.286    0.000    6.571 
#    0.000    5.714    0.000    2.571    0.000    8.000 
#    0.000    0.000    0.000    0.000    0.000    0.000 
#
# Total GULP energy -347214.173855 kJ/mol
# GULP energy per Si atom -12400.506209 kJ/mol
# Density = 1.848907 g / cm^3
# Si number density = 18.531251 Si / 1000 Ang^3
#
#
#
# Elastic Constant Matrix: (Units=GPa)
#
#
# Indices 1 2 3 4 5 6 
#
# 1 85.0582 42.0040 52.3716 0.0000 11.5083 0.0000
# 2 42.0040 119.5017 42.0433 0.0000 -0.2245 0.0000
# 3 52.3716 42.0433 81.9689 0.0000 8.1256 0.0000
# 4 0.0000 0.0000 0.0000 17.1130 0.0000 -3.3715
# 5 11.5083 -0.2245 8.1256 0.0000 36.9958 0.0000
# 6 0.0000 0.0000 0.0000 -3.3715 0.0000 16.5899
#
#
#
# Elastic Compliance Matrix: (Units=1/GPa)
#
#
# Indices 1 2 3 4 5 6 
#
# 1 0.020878 -0.003410 -0.011188 0.000000 -0.004058 0.000000
# 2 -0.003410 0.010823 -0.003562 0.000000 0.001909 0.000000
# 3 -0.011188 -0.003562 0.021296 0.000000 -0.001219 0.000000
# 4 0.000000 0.000000 0.000000 0.060872 0.000000 0.012371
# 5 -0.004058 0.001909 -0.001219 0.000000 0.028572 0.000000
# 6 0.000000 0.000000 0.000000 0.012371 0.000000 0.062792
#
#
# Mechanical properties :
#
#
# Convention : Reuss Voigt Hill
#
# Bulk Modulus (GPa) = 59.96208 62.15184 61.05696
# Shear Modulus (GPa) = 20.23359 24.14706 22.19032
#
# Velocity S-wave (km/s) = 3.30792 3.61369 3.46418
# Velocity P-wave (km/s) = 6.85692 7.14307 7.00145
#
# Compressibility (1/GPa) = 0.01667721
#
# Stress axis : x y z
#
# Youngs Moduli (GPa) = 47.89629 92.39189 46.95702
#
# Poissons Ratio (x) = 0.31505 0.52537
# Poissons Ratio (y) = 0.16332 0.16727
# Poissons Ratio (z) = 0.53588 0.32911
#
# Static dielectric constant tensor:
#      x y z
#    x 3.524660 0.000000 -0.102240 
#    y 0.000000 3.034550 0.000000 
#    z -0.102240 0.000000 3.540530 
# 
# 
# High freq. dielectric constant tensor:
#      x y z
#    x 1.724130 0.000000 -0.003660 
#    y 0.000000 1.686050 0.000000 
#    z -0.003660 0.000000 1.724690 
# 
# From -- ./inp_files/91451.got.cif
#   From: 2010.06.25/outbox.cif.g09.slc.cpg/sg10_46_cif.got.tgz:91451.got - 2010.06.27 22:07:45.
