data_PCOD8065431
_publ_section_title
;
Structure prediction by ZEFSAII (Michael W. Deem and Ramdas Pophale) SiO2 
 PCOD8065431
Probable space group: P 2/M
;
_chemical_formula_sum "Si O2"
_cell_formula_units_Z 20
_cell_length_a 9.363448
_cell_length_b 14.748321
_cell_length_c 8.790517
_cell_angle_alpha 90.000000
_cell_angle_beta 113.028619
_cell_angle_gamma 90.000000
_cell_volume 1117.189231
_symmetry_space_group_name_H-M "P 2/M"
_symmetry_group_IT_number 10
_symmetry_cell_setting 'monoclinic'
loop_
_space_group_symop_operation_xyz
x,y,z
-x,y,-z
-x,-y,-z
x,-y,z
loop_
_atom_site_type_symbol
_atom_site_label
_atom_site_fract_x
_atom_site_fract_y
_atom_site_fract_z
Si Si1 0.756423 0.396509 0.452307
Si Si2 0.939877 0.605085 0.232612
Si Si3 0.721303 0.148828 0.746653
Si Si4 0.000000 0.740071 0.000000
Si Si5 0.326182 0.000000 0.492186
Si Si6 0.500000 0.715585 0.500000
Si Si7 0.535711 0.000000 0.839453
O O1 0.707255 0.500000 0.422191
O O2 0.820898 0.365776 0.315211
O O3 0.603140 0.342741 0.428994
O O4 0.885372 0.381985 0.635341
O O5 0.913262 0.500000 0.172180
O O6 0.912790 0.673884 0.082446
O O7 0.759818 0.089458 0.609579
O O8 0.602868 0.226952 0.656425
O O9 0.639236 0.087507 0.840673
O O10 0.878759 0.192821 0.870995
O O11 0.500000 0.000000 0.500000
O O12 0.361856 0.000000 0.687540
O O13 0.500000 0.000000 0.000000
#
# Coordination Sequence:
#
# PCOD8065431 Si02
#       7
#     4   4   4   2   2   2   2
#     4   9  19  34  55  81 112 155 198 234 284 343
#     4   9  19  36  53  77 119 159 188 232 293 343
#     4  10  21  35  58  81 112 149 185 230 282 340
#     4  12  21  35  56  90 112 150 196 241 277 324
#     4   8  16  38  55  74 107 148 172 213 288 344
#     4  12  17  35  62  84 108 150 196 243 275 328
#     4  10  20  38  61  84 114 145 177 230 294 346
#
# _framework density 17.902069999999998
#
# number of rings (size 3 to 8) (size 9 to 14) (size 15 to 20)
#    0.000    2.400    5.000    1.800    0.000    3.200 
#    0.000    0.000    0.000    3.600    0.000    0.000 
#    0.000    0.000    0.000    0.000    0.000    0.000 
#
# Total GULP energy -247891.925752 kJ/mol
# GULP energy per Si atom -12394.596288 kJ/mol
# Density = 1.786132 g / cm^3
# Si number density = 17.902070 Si / 1000 Ang^3
#
#
#
# Elastic Constant Matrix: (Units=GPa)
#
#
# Indices 1 2 3 4 5 6 
#
# 1 91.8964 58.4652 44.5640 0.0000 1.9766 0.0000
# 2 58.4652 102.4608 56.9197 0.0000 0.0049 0.0000
# 3 44.5640 56.9197 114.5017 0.0000 -2.4123 0.0000
# 4 0.0000 0.0000 0.0000 29.5667 0.0000 8.8368
# 5 1.9766 0.0049 -2.4123 0.0000 31.6231 0.0000
# 6 0.0000 0.0000 0.0000 8.8368 0.0000 20.6136
#
#
#
# Elastic Compliance Matrix: (Units=1/GPa)
#
#
# Indices 1 2 3 4 5 6 
#
# 1 0.017667 -0.008629 -0.002614 0.000000 -0.001302 0.000000
# 2 -0.008629 0.017706 -0.005441 0.000000 0.000122 0.000000
# 3 -0.002614 -0.005441 0.012479 0.000000 0.001116 0.000000
# 4 0.000000 0.000000 0.000000 0.038792 0.000000 -0.016630
# 5 -0.001302 0.000122 0.001116 0.000000 0.031789 0.000000
# 6 0.000000 0.000000 0.000000 -0.016630 0.000000 0.055641
#
#
# Mechanical properties :
#
#
# Convention : Reuss Voigt Hill
#
# Bulk Modulus (GPa) = 69.03795 69.86185 69.44990
# Shear Modulus (GPa) = 23.55489 26.28802 24.92146
#
# Velocity S-wave (km/s) = 3.63128 3.83617 3.73513
# Velocity P-wave (km/s) = 7.49864 7.66360 7.58157
#
# Compressibility (1/GPa) = 0.01448479
#
# Stress axis : x y z
#
# Youngs Moduli (GPa) = 56.60194 56.47766 80.13381
#
# Poissons Ratio (x) = 0.48734 0.20947
# Poissons Ratio (y) = 0.48841 0.43600
# Poissons Ratio (z) = 0.14796 0.30729
#
# Static dielectric constant tensor:
#      x y z
#    x 2.431790 0.000000 -0.251570 
#    y 0.000000 3.520140 0.000000 
#    z -0.251570 0.000000 3.472520 
# 
# 
# High freq. dielectric constant tensor:
#      x y z
#    x 1.667660 0.000000 0.002400 
#    y 0.000000 1.706320 0.000000 
#    z 0.002400 0.000000 1.689570 
# 
# From -- ./inp_files/18719.got.cif
#   From: 2010.06.25/outbox.cif.g09.slc.cpg/sg10_10_cif.got.tgz:18719.got - 2010.06.27 22:07:45.
