data_PCOD8065637
_publ_section_title
;
Structure prediction by ZEFSAII (Michael W. Deem and Ramdas Pophale) SiO2 
 PCOD8065637
Probable space group: P 2/M
;
_chemical_formula_sum "Si O2"
_cell_formula_units_Z 32
_cell_length_a 9.301839
_cell_length_b 22.314371
_cell_length_c 11.212884
_cell_angle_alpha 90.000000
_cell_angle_beta 131.770019
_cell_angle_gamma 90.000000
_cell_volume 1735.831411
_symmetry_space_group_name_H-M "P 2/M"
_symmetry_group_IT_number 10
_symmetry_cell_setting 'monoclinic'
loop_
_space_group_symop_operation_xyz
x,y,z
-x,y,-z
-x,-y,-z
x,-y,z
loop_
_atom_site_type_symbol
_atom_site_label
_atom_site_fract_x
_atom_site_fract_y
_atom_site_fract_z
Si Si1 0.466720 0.728880 0.614997
Si Si2 0.390875 0.070198 0.817335
Si Si3 0.782032 0.345239 0.372657
Si Si4 0.796763 0.330040 0.948710
Si Si5 0.398612 0.867392 0.568611
Si Si6 0.965938 0.145255 0.351000
Si Si7 0.469227 0.568065 0.123101
Si Si8 0.724245 0.253491 0.130069
O O1 0.500000 0.712389 0.500000
O O2 0.271335 0.693587 0.540523
O O3 0.648776 0.703085 0.782604
O O4 0.449461 0.799332 0.628223
O O5 0.459372 0.098061 0.725684
O O6 0.166308 0.086019 0.711629
O O7 0.418927 0.000000 0.818390
O O8 0.500000 0.092205 0.000000
O O9 0.655693 0.405139 0.292454
O O10 0.734600 0.300464 0.240881
O O11 0.000000 0.366787 0.500000
O O12 0.720807 0.395097 0.946684
O O13 0.818163 0.285835 0.070513
O O14 0.000000 0.340398 0.000000
O O15 0.500000 0.889229 0.500000
O O16 0.171818 0.873596 0.410533
O O17 0.854059 0.194661 0.213587
O O18 0.000000 0.173850 0.500000
O O19 0.441339 0.500000 0.150346
O O20 0.500000 0.572633 0.000000
O O21 0.500000 0.234064 0.000000
#
# Coordination Sequence:
#
# PCOD8065637 Si02
#       8
#     4   4   4   4   4   4   4   4
#     4  10  22  37  53  83 121 153 179 234 293 354
#     4  10  22  41  63  87 115 157 206 250 287 337
#     4  11  20  34  58  82 111 147 187 239 287 344
#     4  11  24  36  57  87 114 155 188 231 292 346
#     4  10  22  39  57  87 122 158 193 237 304 352
#     4  10  22  35  59  88 117 155 191 242 291 349
#     4  10  20  40  60  81 112 145 195 246 284 336
#     4  12  20  36  57  88 114 147 192 236 293 345
#
# _framework density 18.434968999999999
#
# number of rings (size 3 to 8) (size 9 to 14) (size 15 to 20)
#    0.000    1.500    3.750    3.000    7.000    3.000 
#    0.000    0.625    0.000    7.500    0.000    0.000 
#    0.000    0.000    0.000    0.000    0.000    0.000 
#
# Total GULP energy -396581.931020 kJ/mol
# GULP energy per Si atom -12393.185344 kJ/mol
# Density = 1.839301 g / cm^3
# Si number density = 18.434969 Si / 1000 Ang^3
#
#
#
# Elastic Constant Matrix: (Units=GPa)
#
#
# Indices 1 2 3 4 5 6 
#
# 1 149.0919 50.3508 58.7763 0.0000 0.2152 0.0000
# 2 50.3508 86.8212 42.4892 0.0000 -13.5746 0.0000
# 3 58.7763 42.4892 84.4128 0.0000 0.0392 0.0000
# 4 0.0000 0.0000 0.0000 27.4258 0.0000 -2.0326
# 5 0.2152 -13.5746 0.0392 0.0000 33.4136 0.0000
# 6 0.0000 0.0000 0.0000 -2.0326 0.0000 23.9745
#
#
#
# Elastic Compliance Matrix: (Units=1/GPa)
#
#
# Indices 1 2 3 4 5 6 
#
# 1 0.009909 -0.003448 -0.005164 0.000000 -0.001458 0.000000
# 2 -0.003448 0.017893 -0.006609 0.000000 0.007299 0.000000
# 3 -0.005164 -0.006609 0.018770 0.000000 -0.002674 0.000000
# 4 0.000000 0.000000 0.000000 0.036693 0.000000 0.003111
# 5 -0.001458 0.007299 -0.002674 0.000000 0.032906 0.000000
# 6 0.000000 0.000000 0.000000 0.003111 0.000000 0.041975
#
#
# Mechanical properties :
#
#
# Convention : Reuss Voigt Hill
#
# Bulk Modulus (GPa) = 61.99224 69.28427 65.63825
# Shear Modulus (GPa) = 25.77791 28.21008 26.99399
#
# Velocity S-wave (km/s) = 3.74346 3.91608 3.83075
# Velocity P-wave (km/s) = 7.23776 7.62314 7.43295
#
# Compressibility (1/GPa) = 0.01613105
#
# Stress axis : x y z
#
# Youngs Moduli (GPa) = 100.91347 55.88742 53.27630
#
# Poissons Ratio (x) = 0.19269 0.27511
# Poissons Ratio (y) = 0.34793 0.35211
# Poissons Ratio (z) = 0.52110 0.36937
#
# Static dielectric constant tensor:
#      x y z
#    x 3.580180 0.000000 0.039580 
#    y 0.000000 3.405380 0.000000 
#    z 0.039580 0.000000 3.599480 
# 
# 
# High freq. dielectric constant tensor:
#      x y z
#    x 1.717950 0.000000 -0.001630 
#    y 0.000000 1.708080 0.000000 
#    z -0.001630 0.000000 1.721320 
# 
# From -- ./inp_files/43612.got.cif
#   From: 2010.06.25/outbox.cif.g09.slc.cpg/sg10_22_cif.got.tgz:43612.got - 2010.06.27 22:07:45.
