data_PCOD8065730
_publ_section_title
;
Structure prediction by ZEFSAII (Michael W. Deem and Ramdas Pophale) SiO2 
 PCOD8065730
Probable space group: P 2/M
;
_chemical_formula_sum "Si O2"
_cell_formula_units_Z 32
_cell_length_a 24.027480
_cell_length_b 8.617834
_cell_length_c 17.185607
_cell_angle_alpha 90.000000
_cell_angle_beta 146.120877
_cell_angle_gamma 90.000000
_cell_volume 1983.679062
_symmetry_space_group_name_H-M "P 2/M"
_symmetry_group_IT_number 10
_symmetry_cell_setting 'monoclinic'
loop_
_space_group_symop_operation_xyz
x,y,z
-x,y,-z
-x,-y,-z
x,-y,z
loop_
_atom_site_type_symbol
_atom_site_label
_atom_site_fract_x
_atom_site_fract_y
_atom_site_fract_z
Si Si1 0.393605 0.678673 0.220443
Si Si2 0.266180 0.677387 0.211388
Si Si3 0.887618 0.818318 0.856810
Si Si4 0.659294 0.819062 0.330860
Si Si5 0.409817 0.179709 0.494060
Si Si6 0.392748 0.183549 0.892679
Si Si7 0.257733 0.680911 0.429920
Si Si8 0.428358 0.819109 0.100160
O O1 0.426896 0.500000 0.265287
O O2 0.289282 0.705001 0.146488
O O3 0.475338 0.785758 0.356703
O O4 0.380354 0.723492 0.115141
O O5 0.237018 0.500000 0.194201
O O6 0.175964 0.782354 0.138955
O O7 0.368359 0.717119 0.375433
O O8 0.844870 0.730033 0.731401
O O9 0.883324 0.000000 0.834838
O O10 0.000000 0.760087 0.000000
O O11 0.679014 0.768050 0.262882
O O12 0.739163 0.722233 0.474824
O O13 0.545089 0.779975 0.222582
O O14 0.681335 0.000000 0.367992
O O15 0.348337 0.219403 0.500120
O O16 0.396752 0.000000 0.457579
O O17 0.405058 0.000000 0.904229
O O18 0.500000 0.259785 0.000000
O O19 0.363610 0.229897 0.947598
O O20 0.275603 0.500000 0.437323
O O21 0.415736 0.000000 0.104390
#
# Coordination Sequence:
#
# PCOD8065730 Si02
#       8
#     4   4   4   4   4   4   4   4
#     4  11  21  30  41  61  91 121 150 184 219 258
#     4  10  21  34  47  64  87 116 146 179 222 268
#     4  10  21  37  55  71  87 109 142 185 228 268
#     4   9  15  26  43  62  87 118 154 191 221 256
#     4  11  20  30  44  61  84 117 154 189 221 253
#     4   7  12  23  39  59  82 113 154 191 221 254
#     4  11  20  29  45  68  93 119 148 182 222 269
#     4   9  16  26  42  61  84 121 159 188 221 256
#
# _framework density 16.131640999999998
#
# number of rings (size 3 to 8) (size 9 to 14) (size 15 to 20)
#    0.000    2.250    1.250    6.750    0.000    4.500 
#    0.000    0.625    0.000    2.250    0.000    0.000 
#    0.000    1.000    0.000   11.250    0.000    5.625 
#
# Total GULP energy -396500.940720 kJ/mol
# GULP energy per Si atom -12390.654398 kJ/mol
# Density = 1.609492 g / cm^3
# Si number density = 16.131641 Si / 1000 Ang^3
#
#
#
# Elastic Constant Matrix: (Units=GPa)
#
#
# Indices 1 2 3 4 5 6 
#
# 1 88.1370 16.9742 50.4128 0.0000 -20.3249 0.0000
# 2 16.9742 48.4434 20.9629 0.0000 -2.0782 0.0000
# 3 50.4128 20.9629 75.5870 0.0000 -10.6290 0.0000
# 4 0.0000 0.0000 0.0000 12.7545 0.0000 -0.4615
# 5 -20.3249 -2.0782 -10.6290 0.0000 17.7693 0.0000
# 6 0.0000 0.0000 0.0000 -0.4615 0.0000 19.3923
#
#
#
# Elastic Compliance Matrix: (Units=1/GPa)
#
#
# Indices 1 2 3 4 5 6 
#
# 1 0.023027 -0.002001 -0.012154 0.000000 0.018834 0.000000
# 2 -0.002001 0.023657 -0.005633 0.000000 -0.002891 0.000000
# 3 -0.012154 -0.005633 0.022766 0.000000 -0.000943 0.000000
# 4 0.000000 0.000000 0.000000 0.078471 0.000000 0.001868
# 5 0.018834 -0.002891 -0.000943 0.000000 0.076917 0.000000
# 6 0.000000 0.000000 0.000000 0.001868 0.000000 0.051611
#
#
# Mechanical properties :
#
#
# Convention : Reuss Voigt Hill
#
# Bulk Modulus (GPa) = 33.47493 43.20746 38.34120
# Shear Modulus (GPa) = 15.33824 18.23773 16.78799
#
# Velocity S-wave (km/s) = 3.08688 3.36602 3.22947
# Velocity P-wave (km/s) = 5.78803 6.47682 6.14209
#
# Compressibility (1/GPa) = 0.02987310
#
# Stress axis : x y z
#
# Youngs Moduli (GPa) = 43.42818 42.27026 43.92581
#
# Poissons Ratio (x) = 0.08458 0.53389
# Poissons Ratio (y) = 0.08689 0.24744
# Poissons Ratio (z) = 0.52784 0.23811
#
# Static dielectric constant tensor:
#      x y z
#    x 3.188470 0.000000 -0.388580 
#    y 0.000000 2.975250 0.000000 
#    z -0.388580 0.000000 2.902480 
# 
# 
# High freq. dielectric constant tensor:
#      x y z
#    x 1.605870 0.000000 -0.037690 
#    y 0.000000 1.619960 0.000000 
#    z -0.037690 0.000000 1.577950 
# 
# From -- ./inp_files/79998.got.cif
#   From: 2010.06.25/outbox.cif.g09.slc.cpg/sg10_40_cif.got.tgz:79998.got - 2010.06.27 22:07:45.
