data_PCOD8065351
_publ_section_title
;
Structure prediction by ZEFSAII (Michael W. Deem and Ramdas Pophale) SiO2 
 PCOD8065351
Probable space group: P 2/M
;
_chemical_formula_sum "Si O2"
_cell_formula_units_Z 32
_cell_length_a 12.976098
_cell_length_b 8.480390
_cell_length_c 30.391906
_cell_angle_alpha 90.000000
_cell_angle_beta 152.117261
_cell_angle_gamma 90.000000
_cell_volume 1564.052764
_symmetry_space_group_name_H-M "P 2/M"
_symmetry_group_IT_number 10
_symmetry_cell_setting 'monoclinic'
loop_
_space_group_symop_operation_xyz
x,y,z
-x,y,-z
-x,-y,-z
x,-y,z
loop_
_atom_site_type_symbol
_atom_site_label
_atom_site_fract_x
_atom_site_fract_y
_atom_site_fract_z
Si Si1 0.455969 0.682451 0.098229
Si Si2 0.004846 0.687546 0.604877
Si Si3 0.284378 0.685221 0.941330
Si Si4 0.577057 0.312791 0.390391
Si Si5 0.134843 0.311950 0.269655
Si Si6 0.925297 0.184567 0.273760
Si Si7 0.242578 0.183034 0.101029
Si Si8 0.575454 0.685602 0.291277
O O1 0.439948 0.500000 0.106188
O O2 0.704859 0.719995 0.177860
O O3 0.395497 0.790240 0.116534
O O4 0.290973 0.722045 0.995876
O O5 0.011819 0.500000 0.614033
O O6 0.794244 0.743635 0.497710
O O7 0.988732 0.770132 0.645763
O O8 0.221122 0.750225 0.660928
O O9 0.291549 0.500000 0.935586
O O10 0.060774 0.752488 0.835844
O O11 0.500000 0.762824 0.000000
O O12 0.568533 0.500000 0.384654
O O13 0.362725 0.249491 0.335085
O O14 0.582879 0.242004 0.343165
O O15 0.132893 0.500000 0.273077
O O16 0.110681 0.235635 0.308674
O O17 0.878097 0.000000 0.253333
O O18 0.344280 0.269369 0.181642
O O19 0.229075 0.000000 0.107027
O O20 0.000000 0.253384 0.000000
O O21 0.595703 0.500000 0.302199
#
# Coordination Sequence:
#
# PCOD8065351 Si02
#       8
#     4   4   4   4   4   4   4   4
#     4  11  21  37  62  88 114 152 200 249 294 344
#     4  10  20  38  63  90 117 151 197 251 307 355
#     4   9  17  31  55  84 112 143 185 237 288 339
#     4   9  20  37  62  92 118 149 197 257 307 350
#     4  10  20  38  60  85 119 156 198 246 299 355
#     4  12  24  38  58  86 122 159 199 245 295 358
#     4  11  25  41  56  84 128 166 193 231 289 351
#     4  10  20  37  64  92 119 153 200 251 296 352
#
# _framework density 20.459669000000002
#
# number of rings (size 3 to 8) (size 9 to 14) (size 15 to 20)
#    0.000    1.750    2.500    2.250    1.750    3.000 
#    0.000    6.250    0.000    1.500    0.000    0.000 
#    0.000    0.000    0.000    0.000    0.000    0.000 
#
# Total GULP energy -396887.877571 kJ/mol
# GULP energy per Si atom -12402.746174 kJ/mol
# Density = 2.041310 g / cm^3
# Si number density = 20.459669 Si / 1000 Ang^3
#
#
#
# Elastic Constant Matrix: (Units=GPa)
#
#
# Indices 1 2 3 4 5 6 
#
# 1 145.1925 21.2383 75.1291 0.0000 -13.5725 0.0000
# 2 21.2383 26.2133 14.6348 0.0000 -4.6112 0.0000
# 3 75.1291 14.6348 156.7244 0.0000 -5.9685 0.0000
# 4 0.0000 0.0000 0.0000 12.8183 0.0000 7.2914
# 5 -13.5725 -4.6112 -5.9685 0.0000 34.3623 0.0000
# 6 0.0000 0.0000 0.0000 7.2914 0.0000 5.7696
#
#
#
# Elastic Compliance Matrix: (Units=1/GPa)
#
#
# Indices 1 2 3 4 5 6 
#
# 1 0.010108 -0.005373 -0.004247 0.000000 0.002534 0.000000
# 2 -0.005373 0.043898 -0.001389 0.000000 0.003527 0.000000
# 3 -0.004247 -0.001389 0.008532 0.000000 -0.000382 0.000000
# 4 0.000000 0.000000 0.000000 0.277485 0.000000 -0.350673
# 5 0.002534 0.003527 -0.000382 0.000000 0.030509 0.000000
# 6 0.000000 0.000000 0.000000 -0.350673 0.000000 0.616486
#
#
# Mechanical properties :
#
#
# Convention : Reuss Voigt Hill
#
# Bulk Modulus (GPa) = 24.67978 61.12605 42.90292
# Shear Modulus (GPa) = 4.88977 25.06525 14.97751
#
# Velocity S-wave (km/s) = 1.54763 3.50395 2.70858
# Velocity P-wave (km/s) = 3.90927 6.80525 5.54949
#
# Compressibility (1/GPa) = 0.04051900
#
# Stress axis : x y z
#
# Youngs Moduli (GPa) = 98.93303 22.78031 117.20848
#
# Poissons Ratio (x) = 0.12239 0.49781
# Poissons Ratio (y) = 0.53152 0.16284
# Poissons Ratio (z) = 0.42019 0.03165
#
# Static dielectric constant tensor:
#      x y z
#    x 3.821860 0.000000 -0.004530 
#    y 0.000000 3.237890 0.000000 
#    z -0.004530 0.000000 3.899260 
# 
# 
# High freq. dielectric constant tensor:
#      x y z
#    x 1.809680 0.000000 -0.007340 
#    y 0.000000 1.760600 0.000000 
#    z -0.007340 0.000000 1.807420 
# 
# From -- ./inp_files/95047.got.cif
#   From: 2010.06.25/outbox.cif.g09.slc.cpg/sg10_48_cif.got.tgz:95047.got - 2010.06.27 22:07:45.
