data_PCOD8065250
_publ_section_title
;
Structure prediction by ZEFSAII (Michael W. Deem and Ramdas Pophale) SiO2 
 PCOD8065250
Probable space group: P 2/M
;
_chemical_formula_sum "Si O2"
_cell_formula_units_Z 28
_cell_length_a 9.372775
_cell_length_b 9.065949
_cell_length_c 24.951234
_cell_angle_alpha 90.000000
_cell_angle_beta 139.049982
_cell_angle_gamma 90.000000
_cell_volume 1389.569266
_symmetry_space_group_name_H-M "P 2/M"
_symmetry_group_IT_number 10
_symmetry_cell_setting 'monoclinic'
loop_
_space_group_symop_operation_xyz
x,y,z
-x,y,-z
-x,-y,-z
x,-y,z
loop_
_atom_site_type_symbol
_atom_site_label
_atom_site_fract_x
_atom_site_fract_y
_atom_site_fract_z
Si Si1 0.378686 0.826719 0.355987
Si Si2 0.828931 0.835553 0.815051
Si Si3 0.791307 0.670570 0.910041
Si Si4 0.956880 0.174475 0.645466
Si Si5 0.706894 0.833207 0.090542
Si Si6 0.684052 0.670896 0.189851
Si Si7 0.832109 0.673854 0.499788
O O1 0.252103 0.782983 0.266033
O O2 0.229254 0.783023 0.364310
O O3 0.594923 0.730276 0.416435
O O4 0.436010 0.000000 0.374571
O O5 0.742175 0.733735 0.837499
O O6 0.089987 0.830520 0.891706
O O7 0.742922 0.000000 0.801690
O O8 0.839848 0.500000 0.915386
O O9 0.574171 0.700539 0.882168
O O10 0.000000 0.742596 0.000000
O O11 0.901661 0.242971 0.572926
O O12 0.190150 0.238861 0.728827
O O13 0.977400 0.000000 0.645610
O O14 0.765095 0.726252 0.155601
O O15 0.664791 0.000000 0.099948
O O16 0.500000 0.771449 0.000000
O O17 0.740683 0.500000 0.213426
O O18 0.824879 0.500000 0.508692
O O19 0.000000 0.712832 0.500000
#
# Coordination Sequence:
#
# PCOD8065250 Si02
#       7
#     4   4   4   4   4   4   4
#     4  10  22  42  65  92 124 159 203 250 302 361
#     4  10  21  38  60  90 122 156 205 253 297 358
#     4  10  23  41  58  83 123 166 207 254 308 363
#     4  11  23  43  68  92 124 161 202 250 303 361
#     4  10  20  37  61  89 122 159 203 254 302 354
#     4  11  23  38  60  90 124 161 206 253 304 364
#     4  11  26  44  64  95 130 159 197 246 298 359
#
# _framework density 20.150129
#
# number of rings (size 3 to 8) (size 9 to 14) (size 15 to 20)
#    0.000    1.571    1.429    2.571    2.000    6.857 
#    0.000    0.000    0.000    0.000    0.000    0.000 
#    0.000    0.000    0.000    0.000    0.000    0.000 
#
# Total GULP energy -347274.066971 kJ/mol
# GULP energy per Si atom -12402.645249 kJ/mol
# Density = 2.010427 g / cm^3
# Si number density = 20.150129 Si / 1000 Ang^3
#
#
#
# Elastic Constant Matrix: (Units=GPa)
#
#
# Indices 1 2 3 4 5 6 
#
# 1 91.7861 51.0322 32.1127 0.0000 -11.1718 0.0000
# 2 51.0322 79.2604 46.5498 0.0000 2.1671 0.0000
# 3 32.1127 46.5498 112.8431 0.0000 1.4504 0.0000
# 4 0.0000 0.0000 0.0000 17.7354 0.0000 29.8828
# 5 -11.1718 2.1671 1.4504 0.0000 33.6268 0.0000
# 6 0.0000 0.0000 0.0000 29.8828 0.0000 -19.6563
#
#
#
# Elastic Compliance Matrix: (Units=1/GPa)
#
#
# Indices 1 2 3 4 5 6 
#
# 1 0.018461 -0.011796 -0.000477 0.000000 0.006914 0.000000
# 2 -0.011796 0.024208 -0.006562 0.000000 -0.005196 0.000000
# 3 -0.000477 -0.006562 0.011708 0.000000 -0.000240 0.000000
# 4 0.000000 0.000000 0.000000 0.015831 0.000000 0.024068
# 5 0.006914 -0.005196 -0.000240 0.000000 0.032380 0.000000
# 6 0.000000 0.000000 0.000000 0.024068 0.000000 -0.014284
#
#
# Mechanical properties :
#
#
# Convention : Reuss Voigt Hill
#
# Bulk Modulus (GPa) = 59.85452 60.36436 60.10944
# Shear Modulus (GPa) = 38.01040 16.62083 27.31562
#
# Velocity S-wave (km/s) = 4.34794 2.87514 3.68585
# Velocity P-wave (km/s) = 7.41450 6.40658 6.92889
#
# Compressibility (1/GPa) = 0.01670718
#
# Stress axis : x y z
#
# Youngs Moduli (GPa) = 54.16686 41.30951 85.41351
#
# Poissons Ratio (x) = 0.48727 0.04072
# Poissons Ratio (y) = 0.63893 0.56052
# Poissons Ratio (z) = 0.02582 0.27109
#
# Static dielectric constant tensor:
#      x y z
#    x 3.610070 0.000000 0.086820 
#    y 0.000000 3.631010 0.000000 
#    z 0.086820 0.000000 3.901480 
# 
# 
# High freq. dielectric constant tensor:
#      x y z
#    x 1.787800 0.000000 0.001400 
#    y 0.000000 1.783060 0.000000 
#    z 0.001400 0.000000 1.801370 
# 
# From -- ./inp_files/36904.got.cif
#   From: 2010.06.25/outbox.cif.g09.slc.cpg/sg10_19_cif.got.tgz:36904.got - 2010.06.27 22:07:45.
