data_PCOD8065291
_publ_section_title
;
Structure prediction by ZEFSAII (Michael W. Deem and Ramdas Pophale) SiO2 
 PCOD8065291
Probable space group: P 2/M
;
_chemical_formula_sum "Si O2"
_cell_formula_units_Z 24
_cell_length_a 8.909494
_cell_length_b 15.332829
_cell_length_c 9.614910
_cell_angle_alpha 90.000000
_cell_angle_beta 69.456196
_cell_angle_gamma 90.000000
_cell_volume 1229.939916
_symmetry_space_group_name_H-M "P 2/M"
_symmetry_group_IT_number 10
_symmetry_cell_setting 'monoclinic'
loop_
_space_group_symop_operation_xyz
x,y,z
-x,y,-z
-x,-y,-z
x,-y,z
loop_
_atom_site_type_symbol
_atom_site_label
_atom_site_fract_x
_atom_site_fract_y
_atom_site_fract_z
Si Si1 0.842891 0.902869 0.959556
Si Si2 0.379865 0.245621 0.915147
Si Si3 0.187723 0.598534 0.422374
Si Si4 0.604608 0.243782 0.596172
Si Si5 0.158530 0.898661 0.361569
Si Si6 0.692625 0.593929 0.928302
O O1 0.873515 0.874016 0.789557
O O2 0.770847 0.000000 0.984239
O O3 0.718599 0.841704 0.080051
O O4 0.000000 0.898382 0.000000
O O5 0.477681 0.276065 0.750429
O O6 0.500000 0.223900 0.000000
O O7 0.254404 0.324425 0.993744
O O8 0.229191 0.500000 0.461559
O O9 0.282466 0.672840 0.478308
O O10 0.239177 0.609575 0.246524
O O11 0.000000 0.616951 0.500000
O O12 0.500000 0.213123 0.500000
O O13 0.701053 0.160860 0.622382
O O14 0.000000 0.877596 0.500000
O O15 0.207570 0.000000 0.362023
O O16 0.755061 0.500000 0.964085
O O17 0.500000 0.595539 0.000000
#
# Coordination Sequence:
#
# PCOD8065291 Si02
#       6
#     4   4   4   4   4   4
#     4  10  22  39  62  88 114 151 198 250 303 354
#     4  11  20  38  60  86 114 155 198 243 298 355
#     4  10  20  37  62  89 118 157 203 250 301 358
#     4  12  25  38  57  90 123 158 200 245 299 356
#     4  10  22  41  61  83 117 158 196 241 301 362
#     4   9  16  32  61  86 111 152 196 237 291 352
#
# _framework density 19.513148000000001
#
# number of rings (size 3 to 8) (size 9 to 14) (size 15 to 20)
#    0.000    1.667    5.000    0.500    2.333    1.667 
#    0.000    0.000    0.000    0.500    0.000    0.000 
#    0.000    0.000    0.000    0.000    0.000    0.000 
#
# Total GULP energy -297446.734205 kJ/mol
# GULP energy per Si atom -12393.613925 kJ/mol
# Density = 1.946874 g / cm^3
# Si number density = 19.513148 Si / 1000 Ang^3
#
#
#
# Elastic Constant Matrix: (Units=GPa)
#
#
# Indices 1 2 3 4 5 6 
#
# 1 76.8217 57.8157 50.3676 0.0000 3.4275 0.0000
# 2 57.8157 134.5976 30.9869 0.0000 4.3609 0.0000
# 3 50.3676 30.9869 86.6866 0.0000 -3.7444 0.0000
# 4 0.0000 0.0000 0.0000 29.7933 0.0000 -27.9186
# 5 3.4275 4.3609 -3.7444 0.0000 36.8169 0.0000
# 6 0.0000 0.0000 0.0000 -27.9186 0.0000 6.8131
#
#
#
# Elastic Compliance Matrix: (Units=1/GPa)
#
#
# Indices 1 2 3 4 5 6 
#
# 1 0.029124 -0.009248 -0.013747 0.000000 -0.003014 0.000000
# 2 -0.009248 0.011091 0.001395 0.000000 -0.000311 0.000000
# 3 -0.013747 0.001395 0.019157 0.000000 0.003063 0.000000
# 4 0.000000 0.000000 0.000000 -0.011819 0.000000 -0.048431
# 5 -0.003014 -0.000311 0.003063 0.000000 0.027790 0.000000
# 6 0.000000 0.000000 0.000000 -0.048431 0.000000 -0.051683
#
#
# Mechanical properties :
#
#
# Convention : Reuss Voigt Hill
#
# Bulk Modulus (GPa) = 61.82971 64.04959 62.93965
# Shear Modulus (GPa) = 69.20454 25.28039 47.24247
#
# Velocity S-wave (km/s) = 5.96176 3.60329 4.92576
# Velocity P-wave (km/s) = 8.89635 7.08567 8.04213
#
# Compressibility (1/GPa) = 0.01617345
#
# Stress axis : x y z
#
# Youngs Moduli (GPa) = 34.33544 90.16524 52.20148
#
# Poissons Ratio (x) = 0.83384 0.71760
# Poissons Ratio (y) = 0.31753 -0.07284
# Poissons Ratio (z) = 0.47200 -0.12581
#
# Static dielectric constant tensor:
#      x y z
#    x 3.285840 0.000000 -0.359510 
#    y 0.000000 4.283610 0.000000 
#    z -0.359510 0.000000 3.344190 
# 
# 
# High freq. dielectric constant tensor:
#      x y z
#    x 1.729850 0.000000 -0.023040 
#    y 0.000000 1.785260 0.000000 
#    z -0.023040 0.000000 1.756830 
# 
# From -- ./inp_files/18755.got.cif
#   From: 2010.06.25/outbox.cif.g09.slc.cpg/sg10_10_cif.got.tgz:18755.got - 2010.06.27 22:07:45.
