data_PCOD8065783
_publ_section_title
;
Structure prediction by ZEFSAII (Michael W. Deem and Ramdas Pophale) SiO2 
 PCOD8065783
Probable space group: P 2/M
;
_chemical_formula_sum "Si O2"
_cell_formula_units_Z 28
_cell_length_a 13.830785
_cell_length_b 22.986430
_cell_length_c 8.668355
_cell_angle_alpha 90.000000
_cell_angle_beta 150.336282
_cell_angle_gamma 90.000000
_cell_volume 1363.891972
_symmetry_space_group_name_H-M "P 2/M"
_symmetry_group_IT_number 10
_symmetry_cell_setting 'monoclinic'
loop_
_space_group_symop_operation_xyz
x,y,z
-x,y,-z
-x,-y,-z
x,-y,z
loop_
_atom_site_type_symbol
_atom_site_label
_atom_site_fract_x
_atom_site_fract_y
_atom_site_fract_z
Si Si1 0.300090 0.364481 0.800090
Si Si2 0.601093 0.932778 0.303280
Si Si3 0.862817 0.435072 0.676694
Si Si4 0.451059 0.435072 0.264935
Si Si5 0.950262 0.848695 0.761711
Si Si6 0.638814 0.848695 0.827365
Si Si7 0.204298 0.766474 0.704297
O O1 0.125414 0.392338 0.455402
O O2 0.296698 0.295254 0.796698
O O3 0.500000 0.384421 0.000000
O O4 0.295425 0.392338 0.965437
O O5 0.818126 0.905824 0.600710
O O6 0.464458 0.905824 0.247042
O O7 0.626128 0.000000 0.378385
O O8 0.500000 0.922556 0.000000
O O9 0.935782 0.500000 0.731403
O O10 0.645399 0.438748 0.436197
O O11 0.000000 0.408481 0.000000
O O12 0.500000 0.408481 0.500000
O O13 0.359838 0.500000 0.155459
O O14 0.823338 0.801113 0.493812
O O15 0.000000 0.823132 0.000000
O O16 0.146530 0.865155 0.939589
O O17 0.500000 0.823132 0.500000
O O18 0.652865 0.801113 0.982392
O O19 0.000000 0.754842 0.500000
#
# Coordination Sequence:
#
# PCOD8065783 Si02
#       7
#     4   4   4   4   4   4   4
#     4  10  21  34  56  82 107 151 195 242 289 353
#     4  11  24  42  68  97 127 165 203 252 303 362
#     4   9  18  34  54  79 112 147 187 236 294 355
#     4   9  18  34  54  79 112 147 187 236 294 355
#     4  11  23  42  65  91 125 166 205 252 308 365
#     4  11  23  42  65  91 125 166 205 252 308 365
#     4  10  24  41  59  84 118 155 203 252 296 353
#
# _framework density 20.529487
#
# number of rings (size 3 to 8) (size 9 to 14) (size 15 to 20)
#    0.000    1.857    2.857    0.429    2.000    5.143 
#    0.000    7.143    0.000    4.286    0.000    0.000 
#    0.000    0.000    0.000    0.000    0.000    0.000 
#
# Total GULP energy -347153.764044 kJ/mol
# GULP energy per Si atom -12398.348716 kJ/mol
# Density = 2.048276 g / cm^3
# Si number density = 20.529487 Si / 1000 Ang^3
#
#
#
# Elastic Constant Matrix: (Units=GPa)
#
#
# Indices 1 2 3 4 5 6 
#
# 1 89.0919 53.5296 53.4492 0.0000 -18.4059 0.0000
# 2 53.5296 133.0780 80.4557 0.0000 -27.3953 0.0000
# 3 53.4492 80.4557 148.0669 0.0000 -41.5970 0.0000
# 4 0.0000 0.0000 0.0000 18.6636 0.0000 1.3426
# 5 -18.4059 -27.3953 -41.5970 0.0000 50.4622 0.0000
# 6 0.0000 0.0000 0.0000 1.3426 0.0000 19.9827
#
#
#
# Elastic Compliance Matrix: (Units=1/GPa)
#
#
# Indices 1 2 3 4 5 6 
#
# 1 0.015879 -0.004305 -0.003152 0.000000 0.000856 0.000000
# 2 -0.004305 0.012433 -0.004875 0.000000 0.001160 0.000000
# 3 -0.003152 -0.004875 0.012329 0.000000 0.006367 0.000000
# 4 0.000000 0.000000 0.000000 0.053840 0.000000 -0.003617
# 5 0.000856 0.001160 0.006367 0.000000 0.026007 0.000000
# 6 0.000000 0.000000 0.000000 -0.003617 0.000000 0.050286
#
#
# Mechanical properties :
#
#
# Convention : Reuss Voigt Hill
#
# Bulk Modulus (GPa) = 62.59654 82.78951 72.69302
# Shear Modulus (GPa) = 24.90463 30.00853 27.45658
#
# Velocity S-wave (km/s) = 3.48676 3.82740 3.66105
# Velocity P-wave (km/s) = 6.83866 7.74252 7.30458
#
# Compressibility (1/GPa) = 0.01597532
#
# Stress axis : x y z
#
# Youngs Moduli (GPa) = 62.97592 80.43379 81.10679
#
# Poissons Ratio (x) = 0.34629 0.25566
# Poissons Ratio (y) = 0.27113 0.39543
# Poissons Ratio (z) = 0.19851 0.39215
#
# Static dielectric constant tensor:
#      x y z
#    x 3.763910 0.000000 -0.266680 
#    y 0.000000 3.561030 0.000000 
#    z -0.266680 0.000000 4.026000 
# 
# 
# High freq. dielectric constant tensor:
#      x y z
#    x 1.806110 0.000000 -0.010970 
#    y 0.000000 1.782120 0.000000 
#    z -0.010970 0.000000 1.816890 
# 
# From -- ./inp_files/30426.got.cif
#   From: 2010.06.25/outbox.cif.g09.slc.cpg/sg10_16_cif.got.tgz:30426.got - 2010.06.27 22:07:45.
