data_PCOD8065330
_publ_section_title
;
Structure prediction by ZEFSAII (Michael W. Deem and Ramdas Pophale) SiO2 
 PCOD8065330
Probable space group: P 2/M
;
_chemical_formula_sum "Si O2"
_cell_formula_units_Z 28
_cell_length_a 9.933501
_cell_length_b 8.851147
_cell_length_c 25.970779
_cell_angle_alpha 90.000000
_cell_angle_beta 38.390675
_cell_angle_gamma 90.000000
_cell_volume 1418.053493
_symmetry_space_group_name_H-M "P 2/M"
_symmetry_group_IT_number 10
_symmetry_cell_setting 'monoclinic'
loop_
_space_group_symop_operation_xyz
x,y,z
-x,y,-z
-x,-y,-z
x,-y,z
loop_
_atom_site_type_symbol
_atom_site_label
_atom_site_fract_x
_atom_site_fract_y
_atom_site_fract_z
Si Si1 0.476241 0.173696 0.271851
Si Si2 0.376568 0.324933 0.197820
Si Si3 0.755569 0.322098 0.564606
Si Si4 0.044521 0.676450 0.741952
Si Si5 0.031202 0.825822 0.854961
Si Si6 0.469709 0.178136 0.567729
Si Si7 0.175638 0.676563 0.989326
O O1 0.364593 0.225920 0.252760
O O2 0.391908 0.274504 0.343629
O O3 0.732800 0.198734 0.190994
O O4 0.416507 0.000000 0.300439
O O5 0.384347 0.500000 0.211655
O O6 0.167083 0.284964 0.227491
O O7 0.586474 0.281557 0.101820
O O8 0.741113 0.500000 0.561840
O O9 0.672495 0.245266 0.537543
O O10 0.000000 0.266896 0.500000
O O11 0.097446 0.500000 0.726201
O O12 0.002680 0.729389 0.812240
O O13 0.245027 0.762317 0.657138
O O14 0.856724 0.768562 0.948490
O O15 0.988274 0.000000 0.854567
O O16 0.500000 0.229330 0.500000
O O17 0.470991 0.000000 0.573874
O O18 0.149928 0.500000 0.009194
O O19 0.000000 0.729107 0.000000
#
# Coordination Sequence:
#
# PCOD8065330 Si02
#       7
#     4   4   4   4   4   4   4
#     4  11  23  39  63  92 125 165 205 254 311 366
#     4  10  23  41  62  93 125 161 211 260 309 367
#     4  11  25  43  66  96 126 161 208 257 303 362
#     4  11  24  42  65  90 123 165 209 257 307 368
#     4  11  23  39  62  91 125 163 207 254 307 372
#     4  11  25  44  65  92 127 165 204 251 311 373
#     4  10  20  37  63  90 122 162 206 257 310 363
#
# _framework density 19.745377000000001
#
# number of rings (size 3 to 8) (size 9 to 14) (size 15 to 20)
#    0.000    1.286    2.857    2.143    2.000    6.000 
#    0.000    2.857    0.000    0.000    0.000    0.000 
#    0.000    0.000    0.000    0.000    0.000    0.000 
#
# Total GULP energy -347402.827585 kJ/mol
# GULP energy per Si atom -12407.243842 kJ/mol
# Density = 1.970044 g / cm^3
# Si number density = 19.745377 Si / 1000 Ang^3
#
#
#
# Elastic Constant Matrix: (Units=GPa)
#
#
# Indices 1 2 3 4 5 6 
#
# 1 147.0012 51.0011 55.6179 0.0000 5.3891 0.0000
# 2 51.0011 56.2137 27.9146 0.0000 3.9159 0.0000
# 3 55.6179 27.9146 82.3800 0.0000 9.3957 0.0000
# 4 0.0000 0.0000 0.0000 26.6240 0.0000 9.8293
# 5 5.3891 3.9159 9.3957 0.0000 37.1097 0.0000
# 6 0.0000 0.0000 0.0000 9.8293 0.0000 30.3429
#
#
#
# Elastic Compliance Matrix: (Units=1/GPa)
#
#
# Indices 1 2 3 4 5 6 
#
# 1 0.011458 -0.007887 -0.005116 0.000000 0.000464 0.000000
# 2 -0.007887 0.026824 -0.003679 0.000000 -0.000754 0.000000
# 3 -0.005116 -0.003679 0.017207 0.000000 -0.003226 0.000000
# 4 0.000000 0.000000 0.000000 0.042662 0.000000 -0.013820
# 5 0.000464 -0.000754 -0.003226 0.000000 0.027776 0.000000
# 6 0.000000 0.000000 0.000000 -0.013820 0.000000 0.037434
#
#
# Mechanical properties :
#
#
# Convention : Reuss Voigt Hill
#
# Bulk Modulus (GPa) = 45.19566 61.62910 53.41238
# Shear Modulus (GPa) = 24.49792 28.88609 26.69200
#
# Velocity S-wave (km/s) = 3.52617 3.82897 3.68069
# Velocity P-wave (km/s) = 6.28629 7.12936 6.72105
#
# Compressibility (1/GPa) = 0.02212602
#
# Stress axis : x y z
#
# Youngs Moduli (GPa) = 87.27838 37.27979 58.11546
#
# Poissons Ratio (x) = 0.29403 0.29731
# Poissons Ratio (y) = 0.68837 0.21378
# Poissons Ratio (z) = 0.44650 0.13714
#
# Static dielectric constant tensor:
#      x y z
#    x 3.819340 0.000000 -0.005260 
#    y 0.000000 3.619980 0.000000 
#    z -0.005260 0.000000 3.628250 
# 
# 
# High freq. dielectric constant tensor:
#      x y z
#    x 1.779620 0.000000 0.003270 
#    y 0.000000 1.776680 0.000000 
#    z 0.003270 0.000000 1.777460 
# 
# From -- ./inp_files/37279.got.cif
#   From: 2010.06.25/outbox.cif.g09.slc.cpg/sg10_19_cif.got.tgz:37279.got - 2010.06.27 22:07:45.
