data_PCOD8065149
_publ_section_title
;
Structure prediction by ZEFSAII (Michael W. Deem and Ramdas Pophale) SiO2 
 PCOD8065149
Probable space group: P 2/M
;
_chemical_formula_sum "Si O2"
_cell_formula_units_Z 28
_cell_length_a 29.096131
_cell_length_b 8.493237
_cell_length_c 9.200535
_cell_angle_alpha 90.000000
_cell_angle_beta 142.135934
_cell_angle_gamma 90.000000
_cell_volume 1395.537505
_symmetry_space_group_name_H-M "P 2/M"
_symmetry_group_IT_number 10
_symmetry_cell_setting 'monoclinic'
loop_
_space_group_symop_operation_xyz
x,y,z
-x,y,-z
-x,-y,-z
x,-y,z
loop_
_atom_site_type_symbol
_atom_site_label
_atom_site_fract_x
_atom_site_fract_y
_atom_site_fract_z
Si Si1 0.492729 0.317522 0.314810
Si Si2 0.928454 0.317058 0.405797
Si Si3 0.219969 0.682045 0.635624
Si Si4 0.355557 0.817588 0.805053
Si Si5 0.066286 0.182560 0.271626
Si Si6 0.370040 0.183196 0.507969
Si Si7 0.772914 0.182134 0.034770
O O1 0.500000 0.265091 0.500000
O O2 0.470271 0.500000 0.246339
O O3 0.570676 0.288733 0.428855
O O4 0.429217 0.212334 0.083049
O O5 0.917955 0.500000 0.344730
O O6 0.942439 0.291579 0.610283
O O7 0.000000 0.247187 0.500000
O O8 0.853282 0.227757 0.167312
O O9 0.199057 0.500000 0.575350
O O10 0.287153 0.716494 0.694231
O O11 0.147365 0.781915 0.403527
O O12 0.244187 0.722378 0.860887
O O13 0.370939 0.766376 0.678119
O O14 0.333811 0.000000 0.760273
O O15 0.060931 0.000000 0.301906
O O16 0.000000 0.232204 0.000000
O O17 0.288718 0.221451 0.239724
O O18 0.391057 0.000000 0.541948
O O19 0.772742 0.000000 0.077494
#
# Coordination Sequence:
#
# PCOD8065149 Si02
#       7
#     4   4   4   4   4   4   4
#     4  11  24  40  60  87 116 148 187 229 276 332
#     4  10  21  36  55  82 115 149 187 232 283 336
#     4  11  22  37  58  84 114 148 188 231 280 336
#     4  11  23  40  60  84 116 149 187 232 277 329
#     4  10  21  37  58  83 111 147 191 235 280 333
#     4  10  23  40  59  85 114 147 186 231 280 329
#     4  10  20  37  60  83 110 147 190 232 278 333
#
# _framework density 20.063955
#
# number of rings (size 3 to 8) (size 9 to 14) (size 15 to 20)
#    0.000    1.571    0.000    6.429    0.000   10.857 
#    0.000    4.286    0.000    0.000    0.000    0.000 
#    0.000    0.000    0.000    0.000    0.000    0.000 
#
# Total GULP energy -347346.850120 kJ/mol
# GULP energy per Si atom -12405.244647 kJ/mol
# Density = 2.001829 g / cm^3
# Si number density = 20.063955 Si / 1000 Ang^3
#
#
#
# Elastic Constant Matrix: (Units=GPa)
#
#
# Indices 1 2 3 4 5 6 
#
# 1 131.5801 20.4577 50.8504 0.0000 7.8461 0.0000
# 2 20.4577 54.9617 20.0439 0.0000 -2.5579 0.0000
# 3 50.8504 20.0439 139.7768 0.0000 1.8657 0.0000
# 4 0.0000 0.0000 0.0000 14.2945 0.0000 7.0626
# 5 7.8461 -2.5579 1.8657 0.0000 29.4885 0.0000
# 6 0.0000 0.0000 0.0000 7.0626 0.0000 33.0830
#
#
#
# Elastic Compliance Matrix: (Units=1/GPa)
#
#
# Indices 1 2 3 4 5 6 
#
# 1 0.009291 -0.002484 -0.002990 0.000000 -0.002498 0.000000
# 2 -0.002484 0.019963 -0.001993 0.000000 0.002519 0.000000
# 3 -0.002990 -0.001993 0.008527 0.000000 0.000083 0.000000
# 4 0.000000 0.000000 0.000000 0.078206 0.000000 -0.016696
# 5 -0.002498 0.002519 0.000083 0.000000 0.034790 0.000000
# 6 0.000000 0.000000 0.000000 -0.016696 0.000000 0.033791
#
#
# Mechanical properties :
#
#
# Convention : Reuss Voigt Hill
#
# Bulk Modulus (GPa) = 43.77019 56.55805 50.16412
# Shear Modulus (GPa) = 24.14098 31.03762 27.58930
#
# Velocity S-wave (km/s) = 3.47248 3.93738 3.71221
# Velocity P-wave (km/s) = 6.15956 6.99433 6.59018
#
# Compressibility (1/GPa) = 0.02284660
#
# Stress axis : x y z
#
# Youngs Moduli (GPa) = 107.63367 50.09278 117.27720
#
# Poissons Ratio (x) = 0.12442 0.35071
# Poissons Ratio (y) = 0.26735 0.23369
# Poissons Ratio (z) = 0.32187 0.09982
#
# Static dielectric constant tensor:
#      x y z
#    x 3.717190 0.000000 0.132060 
#    y 0.000000 3.605890 0.000000 
#    z 0.132060 0.000000 3.774230 
# 
# 
# High freq. dielectric constant tensor:
#      x y z
#    x 1.785880 0.000000 0.010210 
#    y 0.000000 1.788450 0.000000 
#    z 0.010210 0.000000 1.789180 
# 
# From -- ./inp_files/38047.got.cif
#   From: 2010.06.25/outbox.cif.g09.slc.cpg/sg10_20_cif.got.tgz:38047.got - 2010.06.27 22:07:45.
