data_PCOD8065141
_publ_section_title
;
Structure prediction by ZEFSAII (Michael W. Deem and Ramdas Pophale) SiO2 
 PCOD8065141
Probable space group: P 2/M
;
_chemical_formula_sum "Si O2"
_cell_formula_units_Z 24
_cell_length_a 8.017851
_cell_length_b 8.889378
_cell_length_c 21.399876
_cell_angle_alpha 90.000000
_cell_angle_beta 55.087153
_cell_angle_gamma 90.000000
_cell_volume 1250.739732
_symmetry_space_group_name_H-M "P 2/M"
_symmetry_group_IT_number 10
_symmetry_cell_setting 'monoclinic'
loop_
_space_group_symop_operation_xyz
x,y,z
-x,y,-z
-x,-y,-z
x,-y,z
loop_
_atom_site_type_symbol
_atom_site_label
_atom_site_fract_x
_atom_site_fract_y
_atom_site_fract_z
Si Si1 0.771816 0.822569 0.831920
Si Si2 0.212850 0.329440 0.418318
Si Si3 0.704652 0.821150 0.079269
Si Si4 0.961151 0.319501 0.914163
Si Si5 0.703692 0.161220 0.489496
Si Si6 0.078404 0.176787 0.332650
O O1 0.534403 0.783527 0.872524
O O2 0.879239 0.731610 0.864328
O O3 0.885541 0.764568 0.745006
O O4 0.799553 0.000000 0.838612
O O5 0.258784 0.500000 0.394056
O O6 0.365180 0.265066 0.437516
O O7 0.241355 0.243816 0.346748
O O8 0.000000 0.298996 0.500000
O O9 0.815277 0.750312 0.117189
O O10 0.742743 0.000000 0.070214
O O11 0.801114 0.743674 0.998178
O O12 0.972270 0.500000 0.914792
O O13 0.500000 0.123740 0.500000
O O14 0.860817 0.233975 0.405739
O O15 0.796433 0.000000 0.492770
O O16 0.105611 0.000000 0.325476
#
# Coordination Sequence:
#
# PCOD8065141 Si02
#       6
#     4   4   4   4   4   4
#     4  10  21  37  57  81 110 147 187 227 274 323
#     4   9  17  30  49  71  97 131 167 206 254 308
#     4  10  20  37  60  82 107 144 189 230 267 319
#     4  11  22  36  57  84 114 145 179 225 275 329
#     4   9  17  31  52  76 100 131 173 218 259 306
#     4   9  18  34  53  74 101 134 174 218 261 310
#
# _framework density 19.188644
#
# number of rings (size 3 to 8) (size 9 to 14) (size 15 to 20)
#    0.000    2.333    0.000    4.000    0.000    6.333 
#    3.000    0.000    0.000    0.000    0.000    0.000 
#    0.000    0.000    0.000    0.000    0.000    0.000 
#
# Total GULP energy -297323.252773 kJ/mol
# GULP energy per Si atom -12388.468866 kJ/mol
# Density = 1.914497 g / cm^3
# Si number density = 19.188644 Si / 1000 Ang^3
#
#
#
# Elastic Constant Matrix: (Units=GPa)
#
#
# Indices 1 2 3 4 5 6 
#
# 1 129.5868 54.6602 65.2697 0.0000 26.8025 0.0000
# 2 54.6602 83.8537 47.3718 0.0000 20.2943 0.0000
# 3 65.2697 47.3718 104.7706 0.0000 28.3821 0.0000
# 4 0.0000 0.0000 0.0000 8.9203 0.0000 -0.2806
# 5 26.8025 20.2943 28.3821 0.0000 27.8665 0.0000
# 6 0.0000 0.0000 0.0000 -0.2806 0.0000 11.9458
#
#
#
# Elastic Compliance Matrix: (Units=1/GPa)
#
#
# Indices 1 2 3 4 5 6 
#
# 1 0.013011 -0.004748 -0.004841 0.000000 -0.004126 0.000000
# 2 -0.004748 0.018490 -0.004132 0.000000 -0.004691 0.000000
# 3 -0.004841 -0.004132 0.017059 0.000000 -0.009709 0.000000
# 4 0.000000 0.000000 0.000000 0.112186 0.000000 0.002635
# 5 -0.004126 -0.004691 -0.009709 0.000000 0.053159 0.000000
# 6 0.000000 0.000000 0.000000 0.002635 0.000000 0.083774
#
#
# Mechanical properties :
#
#
# Convention : Reuss Voigt Hill
#
# Bulk Modulus (GPa) = 47.35154 72.53494 59.94324
# Shear Modulus (GPa) = 15.05300 19.80715 17.43007
#
# Velocity S-wave (km/s) = 2.80389 3.21632 3.01716
# Velocity P-wave (km/s) = 5.93404 7.18860 6.59124
#
# Compressibility (1/GPa) = 0.02111864
#
# Stress axis : x y z
#
# Youngs Moduli (GPa) = 76.85611 54.08380 58.62012
#
# Poissons Ratio (x) = 0.25678 0.28380
# Poissons Ratio (y) = 0.36490 0.24219
# Poissons Ratio (z) = 0.37209 0.22345
#
# Static dielectric constant tensor:
#      x y z
#    x 3.667330 0.000000 0.178580 
#    y 0.000000 3.463210 0.000000 
#    z 0.178580 0.000000 3.500330 
# 
# 
# High freq. dielectric constant tensor:
#      x y z
#    x 1.747090 0.000000 0.017730 
#    y 0.000000 1.746290 0.000000 
#    z 0.017730 0.000000 1.731400 
# 
# From -- ./inp_files/81930.got.cif
#   From: 2010.06.25/outbox.cif.g09.slc.cpg/sg10_41_cif.got.tgz:81930.got - 2010.06.27 22:07:45.
