data_PCOD8065769
_publ_section_title
;
Structure prediction by ZEFSAII (Michael W. Deem and Ramdas Pophale) SiO2 
 PCOD8065769
Probable space group: P 2/M
;
_chemical_formula_sum "Si O2"
_cell_formula_units_Z 28
_cell_length_a 26.101595
_cell_length_b 9.175529
_cell_length_c 9.260201
_cell_angle_alpha 90.000000
_cell_angle_beta 44.291111
_cell_angle_gamma 90.000000
_cell_volume 1548.685575
_symmetry_space_group_name_H-M "P 2/M"
_symmetry_group_IT_number 10
_symmetry_cell_setting 'monoclinic'
loop_
_space_group_symop_operation_xyz
x,y,z
-x,y,-z
-x,-y,-z
x,-y,z
loop_
_atom_site_type_symbol
_atom_site_label
_atom_site_fract_x
_atom_site_fract_y
_atom_site_fract_z
Si Si1 0.737012 0.171965 0.529908
Si Si2 0.813574 0.661815 0.622308
Si Si3 0.916402 0.672669 0.673139
Si Si4 0.572456 0.827035 0.942355
Si Si5 0.556935 0.333902 0.272615
Si Si6 0.194936 0.169936 0.910357
Si Si7 0.289842 0.342951 0.917576
O O1 0.795719 0.232653 0.526288
O O2 0.651597 0.227241 0.716491
O O3 0.773080 0.222727 0.307006
O O4 0.736736 0.000000 0.546620
O O5 0.834621 0.500000 0.522295
O O6 0.877728 0.721196 0.600488
O O7 0.738656 0.656102 0.861743
O O8 0.909463 0.500000 0.705525
O O9 0.000000 0.725844 0.500000
O O10 0.878110 0.744860 0.890743
O O11 0.572560 0.000000 0.949890
O O12 0.500000 0.773084 0.000000
O O13 0.564719 0.766207 0.118124
O O14 0.500000 0.266653 0.500000
O O15 0.538834 0.500000 0.260809
O O16 0.624852 0.327351 0.242628
O O17 0.259209 0.205840 0.892912
O O18 0.176893 0.000000 0.947500
O O19 0.267828 0.500000 0.889512
#
# Coordination Sequence:
#
# PCOD8065769 Si02
#       7
#     4   4   4   4   4   4   4
#     4  10  21  36  52  76 110 145 181 223 266 313
#     4   9  17  32  56  80 101 134 177 216 259 315
#     4   9  19  38  61  84 111 140 173 216 264 317
#     4  10  22  38  54  74 106 147 188 228 271 319
#     4  10  21  36  53  76 105 135 177 231 280 324
#     4  10  21  34  53  81 110 140 179 219 262 317
#     4   9  18  34  52  74 103 136 178 225 269 318
#
# _framework density 18.079847999999998
#
# number of rings (size 3 to 8) (size 9 to 14) (size 15 to 20)
#    0.000    2.429    1.429    1.286    2.000    4.857 
#    0.000    0.714    0.000    4.286    0.000    0.000 
#    0.000    0.000    0.000    0.000    0.000    0.000 
#
# Total GULP energy -346894.453045 kJ/mol
# GULP energy per Si atom -12389.087609 kJ/mol
# Density = 1.803870 g / cm^3
# Si number density = 18.079848 Si / 1000 Ang^3
#
#
#
# Elastic Constant Matrix: (Units=GPa)
#
#
# Indices 1 2 3 4 5 6 
#
# 1 88.8992 25.8696 67.2769 0.0000 -7.6643 0.0000
# 2 25.8696 29.5505 37.7477 0.0000 2.0293 0.0000
# 3 67.2769 37.7477 139.5330 0.0000 -4.4443 0.0000
# 4 0.0000 0.0000 0.0000 18.4659 0.0000 4.6613
# 5 -7.6643 2.0293 -4.4443 0.0000 27.0831 0.0000
# 6 0.0000 0.0000 0.0000 4.6613 0.0000 29.0602
#
#
#
# Elastic Compliance Matrix: (Units=1/GPa)
#
#
# Indices 1 2 3 4 5 6 
#
# 1 0.019355 -0.008509 -0.006871 0.000000 0.004987 0.000000
# 2 -0.008509 0.056509 -0.011456 0.000000 -0.008522 0.000000
# 3 -0.006871 -0.011456 0.013616 0.000000 0.001148 0.000000
# 4 0.000000 0.000000 0.000000 0.056439 0.000000 -0.009053
# 5 0.004987 -0.008522 0.001148 0.000000 0.039162 0.000000
# 6 0.000000 0.000000 0.000000 -0.009053 0.000000 0.035863
#
#
# Mechanical properties :
#
#
# Convention : Reuss Voigt Hill
#
# Bulk Modulus (GPa) = 27.92799 57.75236 42.84018
# Shear Modulus (GPa) = 17.44890 23.39441 20.42166
#
# Velocity S-wave (km/s) = 3.10998 3.60105 3.36449
# Velocity P-wave (km/s) = 5.32696 7.02157 6.23213
#
# Compressibility (1/GPa) = 0.03580637
#
# Stress axis : x y z
#
# Youngs Moduli (GPa) = 51.66666 17.69643 73.44561
#
# Poissons Ratio (x) = 0.15058 0.50466
# Poissons Ratio (y) = 0.43964 0.84139
# Poissons Ratio (z) = 0.35502 0.20273
#
# Static dielectric constant tensor:
#      x y z
#    x 3.340770 0.000000 -0.173720 
#    y 0.000000 3.261570 0.000000 
#    z -0.173720 0.000000 3.446650 
# 
# 
# High freq. dielectric constant tensor:
#      x y z
#    x 1.696180 0.000000 -0.007180 
#    y 0.000000 1.690620 0.000000 
#    z -0.007180 0.000000 1.698980 
# 
# From -- ./inp_files/36900.got.cif
#   From: 2010.06.25/outbox.cif.g09.slc.cpg/sg10_19_cif.got.tgz:36900.got - 2010.06.27 22:07:45.
