data_PCOD8065538
_publ_section_title
;
Structure prediction by ZEFSAII (Michael W. Deem and Ramdas Pophale) SiO2 
 PCOD8065538
Probable space group: P 2/M
;
_chemical_formula_sum "Si O2"
_cell_formula_units_Z 28
_cell_length_a 11.466808
_cell_length_b 11.821804
_cell_length_c 18.093355
_cell_angle_alpha 90.000000
_cell_angle_beta 145.033953
_cell_angle_gamma 90.000000
_cell_volume 1405.623218
_symmetry_space_group_name_H-M "P 2/M"
_symmetry_group_IT_number 10
_symmetry_cell_setting 'monoclinic'
loop_
_space_group_symop_operation_xyz
x,y,z
-x,y,-z
-x,-y,-z
x,-y,z
loop_
_atom_site_type_symbol
_atom_site_label
_atom_site_fract_x
_atom_site_fract_y
_atom_site_fract_z
Si Si1 0.825693 0.290125 0.074611
Si Si2 0.423357 0.275370 0.675007
Si Si3 0.468751 0.500000 0.071114
Si Si4 0.090776 0.126815 0.469673
Si Si5 0.843180 0.370157 0.851857
Si Si6 0.759297 0.500000 0.357279
Si Si7 0.235908 0.125614 0.827563
Si Si8 0.551173 0.871953 0.869936
O O1 0.823285 0.234288 0.154308
O O2 0.047832 0.336975 0.168856
O O3 0.660519 0.389056 0.976156
O O4 0.768690 0.190351 0.987308
O O5 0.272549 0.212358 0.538944
O O6 0.648401 0.289326 0.758694
O O7 0.335990 0.394730 0.651567
O O8 0.412337 0.191182 0.739066
O O9 0.680443 0.500000 0.229525
O O10 0.500000 0.500000 0.000000
O O11 0.000000 0.171101 0.500000
O O12 0.916014 0.129099 0.319164
O O13 0.177995 0.000000 0.523937
O O14 0.771354 0.500000 0.811482
O O15 0.000000 0.351230 0.000000
O O16 0.000000 0.500000 0.500000
O O17 0.460264 0.138520 0.906892
O O18 0.219693 0.000000 0.858048
O O19 0.578282 0.000000 0.858456
#
# Coordination Sequence:
#
# PCOD8065538 Si02
#       8
#     4   4   2   4   4   2   4   4
#     4  12  23  39  63  90 126 166 212 251 315 381
#     4  12  22  39  63  92 123 161 212 259 315 370
#     4  12  24  39  61  95 129 164 206 264 330 382
#     4  10  20  38  65  93 126 166 206 255 317 381
#     4  11  22  42  63  84 120 170 213 258 313 369
#     4  12  26  39  61  95 131 164 206 267 330 378
#     4  10  22  40  63  94 132 168 200 254 324 382
#     4  11  21  36  61  93 127 158 200 256 316 375
#
# _framework density 19.919989000000001
#
# number of rings (size 3 to 8) (size 9 to 14) (size 15 to 20)
#    0.000    0.857    5.714    2.571    0.000    1.143 
#    0.000    4.286    0.000    2.571    0.000    0.000 
#    0.000    0.000    0.000    0.000    0.000    0.000 
#
# Total GULP energy -347061.912868 kJ/mol
# GULP energy per Si atom -12395.068317 kJ/mol
# Density = 1.987465 g / cm^3
# Si number density = 19.919989 Si / 1000 Ang^3
#
#
#
# Elastic Constant Matrix: (Units=GPa)
#
#
# Indices 1 2 3 4 5 6 
#
# 1 65.9184 34.3147 30.0243 0.0000 12.5103 0.0000
# 2 34.3147 128.9961 35.6746 0.0000 8.9591 0.0000
# 3 30.0243 35.6746 70.0111 0.0000 15.4851 0.0000
# 4 0.0000 0.0000 0.0000 37.7333 0.0000 0.0321
# 5 12.5103 8.9591 15.4851 0.0000 27.9215 0.0000
# 6 0.0000 0.0000 0.0000 0.0321 0.0000 23.3176
#
#
#
# Elastic Compliance Matrix: (Units=1/GPa)
#
#
# Indices 1 2 3 4 5 6 
#
# 1 0.020636 -0.003495 -0.006009 0.000000 -0.004792 0.000000
# 2 -0.003495 0.009619 -0.003495 0.000000 0.000418 0.000000
# 3 -0.006009 -0.003495 0.020286 0.000000 -0.007437 0.000000
# 4 0.000000 0.000000 0.000000 0.026502 0.000000 -0.000036
# 5 -0.004792 0.000418 -0.007437 0.000000 0.041952 0.000000
# 6 0.000000 0.000000 0.000000 -0.000036 0.000000 0.042886
#
#
# Mechanical properties :
#
#
# Convention : Reuss Voigt Hill
#
# Bulk Modulus (GPa) = 40.74400 51.66141 46.20270
# Shear Modulus (GPa) = 25.50223 28.78861 27.14542
#
# Velocity S-wave (km/s) = 3.58192 3.80572 3.69551
# Velocity P-wave (km/s) = 6.13230 6.73068 6.43844
#
# Compressibility (1/GPa) = 0.02454349
#
# Stress axis : x y z
#
# Youngs Moduli (GPa) = 48.45915 103.95585 49.29421
#
# Poissons Ratio (x) = 0.36330 0.29621
# Poissons Ratio (y) = 0.16935 0.17230
# Poissons Ratio (z) = 0.29119 0.36336
#
# Static dielectric constant tensor:
#      x y z
#    x 3.432900 0.000000 0.022100 
#    y 0.000000 3.545720 0.000000 
#    z 0.022100 0.000000 3.750510 
# 
# 
# High freq. dielectric constant tensor:
#      x y z
#    x 1.738650 0.000000 -0.002460 
#    y 0.000000 1.800120 0.000000 
#    z -0.002460 0.000000 1.781030 
# 
# From -- ./inp_files/55836.got.cif
#   From: 2010.06.25/outbox.cif.g09.slc.cpg/sg10_28_cif.got.tgz:55836.got - 2010.06.27 22:07:45.
