data_PCOD8065627
_publ_section_title
;
Structure prediction by ZEFSAII (Michael W. Deem and Ramdas Pophale) SiO2 
 PCOD8065627
Probable space group: P 2/M
;
_chemical_formula_sum "Si O2"
_cell_formula_units_Z 32
_cell_length_a 11.582808
_cell_length_b 18.066356
_cell_length_c 14.191757
_cell_angle_alpha 90.000000
_cell_angle_beta 30.575057
_cell_angle_gamma 90.000000
_cell_volume 1510.615219
_symmetry_space_group_name_H-M "P 2/M"
_symmetry_group_IT_number 10
_symmetry_cell_setting 'monoclinic'
loop_
_space_group_symop_operation_xyz
x,y,z
-x,y,-z
-x,-y,-z
x,-y,z
loop_
_atom_site_type_symbol
_atom_site_label
_atom_site_fract_x
_atom_site_fract_y
_atom_site_fract_z
Si Si1 0.730706 0.582550 0.686903
Si Si2 0.436103 0.805444 0.272896
Si Si3 0.559361 0.414408 0.607142
Si Si4 0.904456 0.270601 0.968900
Si Si5 0.342741 0.915576 0.019437
Si Si6 0.286290 0.273371 0.205254
Si Si7 0.857551 0.413678 0.220807
Si Si8 0.048618 0.197116 0.684359
O O1 0.632469 0.500000 0.775595
O O2 0.635710 0.616427 0.654887
O O3 0.660072 0.639609 0.817814
O O4 0.000000 0.579076 0.500000
O O5 0.536286 0.880627 0.157771
O O6 0.260636 0.768585 0.322592
O O7 0.298760 0.820957 0.466480
O O8 0.639668 0.747769 0.147236
O O9 0.512580 0.500000 0.650108
O O10 0.764080 0.401249 0.390947
O O11 0.325859 0.382510 0.727069
O O12 0.060443 0.229198 0.781464
O O13 0.925137 0.360401 0.943875
O O14 0.000000 0.240758 0.000000
O O15 0.289018 0.000000 0.031316
O O16 0.500000 0.909802 0.000000
O O17 0.104107 0.876508 0.211086
O O18 0.062440 0.261800 0.301254
O O19 0.500000 0.237586 0.000000
O O20 0.924822 0.500000 0.156963
#
# Coordination Sequence:
#
# PCOD8065627 Si02
#       8
#     4   4   4   4   4   4   4   4
#     4  10  22  35  54  84 119 162 219 270 320 388
#     4  11  23  41  65  94 132 171 210 250 312 385
#     4   8  17  34  56  83 113 155 211 278 340 392
#     4  11  26  41  60  92 125 165 221 280 323 372
#     4  10  20  39  67 106 145 167 199 248 297 371
#     4  12  22  39  61  86 126 169 213 259 322 380
#     4   9  19  36  58  82 116 160 219 283 341 384
#     4  11  23  43  66  94 131 176 206 250 318 384
#
# _framework density 21.183420999999999
#
# number of rings (size 3 to 8) (size 9 to 14) (size 15 to 20)
#    0.000    1.750    3.750    1.875    5.250    2.500 
#    0.000    1.875    0.000    7.500    0.000    7.000 
#    0.000    0.000    0.000    0.000    0.000    0.000 
#
# Total GULP energy -396677.596909 kJ/mol
# GULP energy per Si atom -12396.174903 kJ/mol
# Density = 2.113521 g / cm^3
# Si number density = 21.183421 Si / 1000 Ang^3
#
#
#
# Elastic Constant Matrix: (Units=GPa)
#
#
# Indices 1 2 3 4 5 6 
#
# 1 108.8454 51.8178 30.8531 0.0000 10.5206 0.0000
# 2 51.8178 129.1575 50.7985 0.0000 3.4980 0.0000
# 3 30.8531 50.7985 134.0852 0.0000 15.1321 0.0000
# 4 0.0000 0.0000 0.0000 22.3667 0.0000 -1.2309
# 5 10.5206 3.4980 15.1321 0.0000 26.5481 0.0000
# 6 0.0000 0.0000 0.0000 -1.2309 0.0000 14.4645
#
#
#
# Elastic Compliance Matrix: (Units=1/GPa)
#
#
# Indices 1 2 3 4 5 6 
#
# 1 0.011819 -0.004391 -0.000633 0.000000 -0.003744 0.000000
# 2 -0.004391 0.010746 -0.003310 0.000000 0.002211 0.000000
# 3 -0.000633 -0.003310 0.009384 0.000000 -0.004662 0.000000
# 4 0.000000 0.000000 0.000000 0.044920 0.000000 0.003822
# 5 -0.003744 0.002211 -0.004662 0.000000 0.041517 0.000000
# 6 0.000000 0.000000 0.000000 0.003822 0.000000 0.069460
#
#
# Mechanical properties :
#
#
# Convention : Reuss Voigt Hill
#
# Bulk Modulus (GPa) = 65.44785 71.00301 68.22543
# Shear Modulus (GPa) = 23.85383 28.58377 26.21880
#
# Velocity S-wave (km/s) = 3.35932 3.67733 3.52192
# Velocity P-wave (km/s) = 6.78304 7.18480 6.98681
#
# Compressibility (1/GPa) = 0.01527934
#
# Stress axis : x y z
#
# Youngs Moduli (GPa) = 84.60671 93.05428 106.56536
#
# Poissons Ratio (x) = 0.40864 0.06750
# Poissons Ratio (y) = 0.37154 0.35277
# Poissons Ratio (z) = 0.05359 0.30805
#
# Static dielectric constant tensor:
#      x y z
#    x 4.769620 0.000000 0.211520 
#    y 0.000000 3.840150 0.000000 
#    z 0.211520 0.000000 3.756550 
# 
# 
# High freq. dielectric constant tensor:
#      x y z
#    x 1.826750 0.000000 0.010400 
#    y 0.000000 1.809120 0.000000 
#    z 0.010400 0.000000 1.829960 
# 
# From -- ./inp_files/51998.got.cif
#   From: 2010.06.25/outbox.cif.g09.slc.cpg/sg10_26_cif.got.tgz:51998.got - 2010.06.27 22:07:45.
