data_PCOD8065422
_publ_section_title
;
Structure prediction by ZEFSAII (Michael W. Deem and Ramdas Pophale) SiO2 
 PCOD8065422
Probable space group: P 2/M
;
_chemical_formula_sum "Si O2"
_cell_formula_units_Z 24
_cell_length_a 18.436001
_cell_length_b 11.733361
_cell_length_c 12.196400
_cell_angle_alpha 90.000000
_cell_angle_beta 151.214800
_cell_angle_gamma 90.000000
_cell_volume 1270.403641
_symmetry_space_group_name_H-M "P 2/M"
_symmetry_group_IT_number 10
_symmetry_cell_setting 'monoclinic'
loop_
_space_group_symop_operation_xyz
x,y,z
-x,y,-z
-x,-y,-z
x,-y,z
loop_
_atom_site_type_symbol
_atom_site_label
_atom_site_fract_x
_atom_site_fract_y
_atom_site_fract_z
Si Si1 0.703301 0.500000 0.666242
Si Si2 0.248704 0.131350 0.142762
Si Si3 0.719004 0.261909 0.592086
Si Si4 0.900958 0.128985 0.657471
Si Si5 0.348996 0.500000 0.160284
Si Si6 0.623954 0.261494 0.887366
Si Si7 0.839006 0.131407 0.328352
O O1 0.771209 0.387977 0.698270
O O2 0.524414 0.500000 0.420573
O O3 0.745587 0.500000 0.851373
O O4 0.276342 0.176838 0.300258
O O5 0.356372 0.196292 0.201257
O O6 0.294270 0.000000 0.200910
O O7 0.077835 0.150440 0.877985
O O8 0.835578 0.219197 0.655829
O O9 0.552969 0.264072 0.319722
O O10 0.822892 0.147331 0.436867
O O11 0.871492 0.000000 0.660897
O O12 0.308612 0.388640 0.035946
O O13 0.705916 0.202019 0.096925
O O14 0.000000 0.177242 0.500000
O O15 0.820692 0.000000 0.268475
#
# Coordination Sequence:
#
# PCOD8065422 Si02
#       7
#     2   4   4   4   2   4   4
#     4   9  18  36  57  78 116 156 181 222 290 343
#     4  11  21  35  57  84 117 151 182 228 287 342
#     4  11  22  36  57  87 115 145 188 237 283 333
#     4  10  22  39  57  80 118 157 182 223 288 342
#     4   9  18  36  57  83 112 149 187 231 288 326
#     4  11  21  36  61  85 110 146 196 237 272 330
#     4  10  20  38  61  81 110 154 192 225 278 343
#
# _framework density 18.891635000000001
#
# number of rings (size 3 to 8) (size 9 to 14) (size 15 to 20)
#    0.000    1.667    3.333    2.000    0.000    5.333 
#    0.000    5.417    0.000    3.000    0.000    0.000 
#    0.000    0.000    0.000    0.000    0.000    0.000 
#
# Total GULP energy -297698.652674 kJ/mol
# GULP energy per Si atom -12404.110528 kJ/mol
# Density = 1.884864 g / cm^3
# Si number density = 18.891635 Si / 1000 Ang^3
#
#
#
# Elastic Constant Matrix: (Units=GPa)
#
#
# Indices 1 2 3 4 5 6 
#
# 1 53.9626 23.7204 -8.9343 0.0000 -2.3050 0.0000
# 2 23.7204 113.1675 15.1619 0.0000 -1.9756 0.0000
# 3 -8.9343 15.1619 55.4740 0.0000 -15.5139 0.0000
# 4 0.0000 0.0000 0.0000 -17.4584 0.0000 2.9174
# 5 -2.3050 -1.9756 -15.5139 0.0000 22.4960 0.0000
# 6 0.0000 0.0000 0.0000 2.9174 0.0000 32.7371
#
#
#
# Elastic Compliance Matrix: (Units=1/GPa)
#
#
# Indices 1 2 3 4 5 6 
#
# 1 0.022388 -0.005510 0.006960 0.000000 0.006610 0.000000
# 2 -0.005510 0.010552 -0.004547 0.000000 -0.002774 0.000000
# 3 0.006960 -0.004547 0.025371 0.000000 0.017810 0.000000
# 4 0.000000 0.000000 0.000000 -0.056438 0.000000 0.005030
# 5 0.006610 -0.002774 0.017810 0.000000 0.057168 0.000000
# 6 0.000000 0.000000 0.000000 0.005030 0.000000 0.030098
#
#
# Mechanical properties :
#
#
# Convention : Reuss Voigt Hill
#
# Bulk Modulus (GPa) = 19.18736 31.38891 25.28813
# Shear Modulus (GPa) = 44.36344 20.39867 32.38106
#
# Velocity S-wave (km/s) = 4.85120 3.28955 4.14459
# Velocity P-wave (km/s) = 6.44650 5.57490 6.02648
#
# Compressibility (1/GPa) = 0.05211763
#
# Stress axis : x y z
#
# Youngs Moduli (GPa) = 44.66691 94.76779 39.41498
#
# Poissons Ratio (x) = 0.52214 -0.27433
# Poissons Ratio (y) = 0.24610 0.17922
# Poissons Ratio (z) = -0.31088 0.43092
#
# Static dielectric constant tensor:
#      x y z
#    x 3.296480 0.000000 -0.029910 
#    y 0.000000 3.689910 0.000000 
#    z -0.029910 0.000000 3.326560 
# 
# 
# High freq. dielectric constant tensor:
#      x y z
#    x 1.725740 0.000000 -0.004750 
#    y 0.000000 1.738630 0.000000 
#    z -0.004750 0.000000 1.724780 
# 
# From -- ./inp_files/42110.got.cif
#   From: 2010.06.25/outbox.cif.g09.slc.cpg/sg10_22_cif.got.tgz:42110.got - 2010.06.27 22:07:45.
