data_PCOD8065427
_publ_section_title
;
Structure prediction by ZEFSAII (Michael W. Deem and Ramdas Pophale) SiO2 
 PCOD8065427
Probable space group: P 2/M
;
_chemical_formula_sum "Si O2"
_cell_formula_units_Z 28
_cell_length_a 11.516112
_cell_length_b 9.107450
_cell_length_c 15.081682
_cell_angle_alpha 90.000000
_cell_angle_beta 63.972983
_cell_angle_gamma 90.000000
_cell_volume 1421.388187
_symmetry_space_group_name_H-M "P 2/M"
_symmetry_group_IT_number 10
_symmetry_cell_setting 'monoclinic'
loop_
_space_group_symop_operation_xyz
x,y,z
-x,y,-z
-x,-y,-z
x,-y,z
loop_
_atom_site_type_symbol
_atom_site_label
_atom_site_fract_x
_atom_site_fract_y
_atom_site_fract_z
Si Si1 0.292852 0.170811 0.547986
Si Si2 0.135412 0.672372 0.194458
Si Si3 0.054518 0.671662 0.891599
Si Si4 0.336618 0.671564 0.843650
Si Si5 0.966707 0.671769 0.414205
Si Si6 0.528878 0.829133 0.349682
Si Si7 0.353204 0.171083 0.023604
O O1 0.161268 0.258129 0.582991
O O2 0.366520 0.221125 0.612234
O O3 0.385224 0.203914 0.433127
O O4 0.260040 0.000000 0.563759
O O5 0.162438 0.500000 0.171538
O O6 0.266056 0.761557 0.131446
O O7 0.022811 0.733315 0.166913
O O8 0.088560 0.705629 0.309949
O O9 0.027636 0.500000 0.905257
O O10 0.206340 0.704296 0.831742
O O11 0.000000 0.745380 0.000000
O O12 0.360594 0.500000 0.851043
O O13 0.453256 0.738412 0.747027
O O14 0.322062 0.746945 0.943176
O O15 0.938668 0.500000 0.429071
O O16 0.000000 0.736496 0.500000
O O17 0.546069 0.000000 0.322270
O O18 0.322260 0.000000 0.022948
O O19 0.500000 0.199678 0.000000
#
# Coordination Sequence:
#
# PCOD8065427 Si02
#       7
#     4   4   4   4   4   4   4
#     4   9  19  37  59  82 113 155 194 231 283 342
#     4  10  20  38  61  83 113 150 186 234 289 341
#     4   9  16  30  54  83 112 140 176 225 280 334
#     4  11  21  35  59  88 115 149 189 228 282 347
#     4  10  22  38  57  84 117 150 190 242 291 334
#     4   9  19  36  57  84 119 151 184 234 288 335
#     4  11  25  42  57  78 113 152 191 236 281 331
#
# _framework density 19.699051999999998
#
# number of rings (size 3 to 8) (size 9 to 14) (size 15 to 20)
#    0.000    2.143    1.429    2.571    0.000    5.429 
#    0.000    6.429    0.000    0.000    0.000    0.000 
#    0.000    0.000    0.000    0.000    0.000    0.000 
#
# Total GULP energy -347217.380222 kJ/mol
# GULP energy per Si atom -12400.620722 kJ/mol
# Density = 1.965422 g / cm^3
# Si number density = 19.699052 Si / 1000 Ang^3
#
#
#
# Elastic Constant Matrix: (Units=GPa)
#
#
# Indices 1 2 3 4 5 6 
#
# 1 75.9486 42.6729 34.8810 0.0000 -9.8842 0.0000
# 2 42.6729 74.7037 51.2090 0.0000 -11.1363 0.0000
# 3 34.8810 51.2090 132.3082 0.0000 -7.2630 0.0000
# 4 0.0000 0.0000 0.0000 25.7383 0.0000 -7.9226
# 5 -9.8842 -11.1363 -7.2630 0.0000 28.3717 0.0000
# 6 0.0000 0.0000 0.0000 -7.9226 0.0000 23.5019
#
#
#
# Elastic Compliance Matrix: (Units=1/GPa)
#
#
# Indices 1 2 3 4 5 6 
#
# 1 0.019694 -0.010072 -0.001150 0.000000 0.002613 0.000000
# 2 -0.010072 0.024233 -0.006485 0.000000 0.004343 0.000000
# 3 -0.001150 -0.006485 0.010355 0.000000 -0.000296 0.000000
# 4 0.000000 0.000000 0.000000 0.043351 0.000000 0.014614
# 5 0.002613 0.004343 -0.000296 0.000000 0.037786 0.000000
# 6 0.000000 0.000000 0.000000 0.014614 0.000000 0.047476
#
#
# Mechanical properties :
#
#
# Convention : Reuss Voigt Hill
#
# Bulk Modulus (GPa) = 53.00266 60.05405 56.52836
# Shear Modulus (GPa) = 22.26191 25.80223 24.03207
#
# Velocity S-wave (km/s) = 3.36534 3.62307 3.49658
# Velocity P-wave (km/s) = 6.48578 6.93211 6.71265
#
# Compressibility (1/GPa) = 0.01886698
#
# Stress axis : x y z
#
# Youngs Moduli (GPa) = 50.77640 41.26685 96.56876
#
# Poissons Ratio (x) = 0.41563 0.11110
# Poissons Ratio (y) = 0.51140 0.62629
# Poissons Ratio (z) = 0.05841 0.26763
#
# Static dielectric constant tensor:
#      x y z
#    x 3.524090 0.000000 0.019050 
#    y 0.000000 3.349040 0.000000 
#    z 0.019050 0.000000 3.731390 
# 
# 
# High freq. dielectric constant tensor:
#      x y z
#    x 1.759540 0.000000 -0.005040 
#    y 0.000000 1.747690 0.000000 
#    z -0.005040 0.000000 1.781870 
# 
# From -- ./inp_files/63679.got.cif
#   From: 2010.06.25/outbox.cif.g09.slc.cpg/sg10_32_cif.got.tgz:63679.got - 2010.06.27 22:07:45.
