data_PCOD8065721
_publ_section_title
;
Structure prediction by ZEFSAII (Michael W. Deem and Ramdas Pophale) SiO2 
 PCOD8065721
Probable space group: P 2/M
;
_chemical_formula_sum "Si O2"
_cell_formula_units_Z 28
_cell_length_a 16.199235
_cell_length_b 9.302732
_cell_length_c 12.078411
_cell_angle_alpha 90.000000
_cell_angle_beta 52.052468
_cell_angle_gamma 90.000000
_cell_volume 1435.348592
_symmetry_space_group_name_H-M "P 2/M"
_symmetry_group_IT_number 10
_symmetry_cell_setting 'monoclinic'
loop_
_space_group_symop_operation_xyz
x,y,z
-x,y,-z
-x,-y,-z
x,-y,z
loop_
_atom_site_type_symbol
_atom_site_label
_atom_site_fract_x
_atom_site_fract_y
_atom_site_fract_z
Si Si1 0.572344 0.161746 0.547883
Si Si2 0.417208 0.665191 0.809189
Si Si3 0.276367 0.336976 0.710360
Si Si4 0.831594 0.170116 0.666460
Si Si5 0.384376 0.830424 0.051606
Si Si6 0.024862 0.829582 0.646555
Si Si7 0.085117 0.840951 0.837210
O O1 0.500000 0.160000 0.500000
O O2 0.522083 0.248176 0.691169
O O3 0.677709 0.243193 0.428200
O O4 0.596855 0.000000 0.568414
O O5 0.444999 0.500000 0.813749
O O6 0.338987 0.675892 0.771768
O O7 0.363561 0.742735 0.956776
O O8 0.271761 0.500000 0.673086
O O9 0.163246 0.273234 0.825964
O O10 0.710687 0.219144 0.788043
O O11 0.876600 0.224145 0.510478
O O12 0.913192 0.229223 0.692423
O O13 0.832859 0.000000 0.668260
O O14 0.378743 0.000000 0.031294
O O15 0.500000 0.787780 0.000000
O O16 0.039940 0.776259 0.759684
O O17 0.020264 0.000000 0.646066
O O18 0.135404 0.000000 0.774705
O O19 0.000000 0.859090 0.000000
#
# Coordination Sequence:
#
# PCOD8065721 Si02
#       7
#     4   4   4   4   4   4   4
#     4   9  17  32  55  80 104 135 180 228 268 314
#     4  10  21  36  54  77 109 150 185 219 272 342
#     4  10  21  36  53  76 109 150 188 221 274 344
#     4   8  15  30  53  75 103 141 182 227 275 329
#     4  10  21  34  52  82 110 136 179 235 290 337
#     4   8  15  30  51  77 104 140 184 227 277 324
#     4  10  21  33  51  83 115 141 181 234 283 331
#
# _framework density 19.507455
#
# number of rings (size 3 to 8) (size 9 to 14) (size 15 to 20)
#    0.000    2.714    0.000    2.143    2.000    5.143 
#    0.000    2.857    0.000    0.857    0.000    2.000 
#    0.000    0.000    0.000    0.000    0.000    0.000 
#
# Total GULP energy -347012.160885 kJ/mol
# GULP energy per Si atom -12393.291460 kJ/mol
# Density = 1.946306 g / cm^3
# Si number density = 19.507455 Si / 1000 Ang^3
#
#
#
# Elastic Constant Matrix: (Units=GPa)
#
#
# Indices 1 2 3 4 5 6 
#
# 1 57.6597 42.8352 47.6828 0.0000 -18.3129 0.0000
# 2 42.8352 85.6639 40.0695 0.0000 -1.3651 0.0000
# 3 47.6828 40.0695 127.9907 0.0000 -7.5990 0.0000
# 4 0.0000 0.0000 0.0000 17.0533 0.0000 3.1074
# 5 -18.3129 -1.3651 -7.5990 0.0000 30.9439 0.0000
# 6 0.0000 0.0000 0.0000 3.1074 0.0000 18.4139
#
#
#
# Elastic Compliance Matrix: (Units=1/GPa)
#
#
# Indices 1 2 3 4 5 6 
#
# 1 0.047660 -0.018534 -0.010480 0.000000 0.024814 0.000000
# 2 -0.018534 0.020890 -0.000235 0.000000 -0.010105 0.000000
# 3 -0.010480 -0.000235 0.011591 0.000000 -0.003366 0.000000
# 4 0.000000 0.000000 0.000000 0.060500 0.000000 -0.010209
# 5 0.024814 -0.010105 -0.003366 0.000000 0.045730 0.000000
# 6 0.000000 0.000000 0.000000 -0.010209 0.000000 0.056030
#
#
# Mechanical properties :
#
#
# Convention : Reuss Voigt Hill
#
# Bulk Modulus (GPa) = 46.20487 59.16548 52.68518
# Shear Modulus (GPa) = 16.22779 22.66403 19.44591
#
# Velocity S-wave (km/s) = 2.88736 3.41224 3.16071
# Velocity P-wave (km/s) = 5.90364 6.77643 6.35503
#
# Compressibility (1/GPa) = 0.02164274
#
# Stress axis : x y z
#
# Youngs Moduli (GPa) = 20.98194 47.86905 86.27314
#
# Poissons Ratio (x) = 0.88722 0.90414
# Poissons Ratio (y) = 0.38889 0.02028
# Poissons Ratio (z) = 0.21989 0.01125
#
# Static dielectric constant tensor:
#      x y z
#    x 3.506130 0.000000 -0.100940 
#    y 0.000000 3.354190 0.000000 
#    z -0.100940 0.000000 3.746700 
# 
# 
# High freq. dielectric constant tensor:
#      x y z
#    x 1.746070 0.000000 -0.004640 
#    y 0.000000 1.727250 0.000000 
#    z -0.004640 0.000000 1.767110 
# 
# From -- ./inp_files/49594.got.cif
#   From: 2010.06.25/outbox.cif.g09.slc.cpg/sg10_25_cif.got.tgz:49594.got - 2010.06.27 22:07:45.
