data_PCOD8065679
_publ_section_title
;
Structure prediction by ZEFSAII (Michael W. Deem and Ramdas Pophale) SiO2 
 PCOD8065679
Probable space group: P 2/M
;
_chemical_formula_sum "Si O2"
_cell_formula_units_Z 20
_cell_length_a 17.415496
_cell_length_b 12.445875
_cell_length_c 8.646564
_cell_angle_alpha 90.000000
_cell_angle_beta 32.499345
_cell_angle_gamma 90.000000
_cell_volume 1006.963141
_symmetry_space_group_name_H-M "P 2/M"
_symmetry_group_IT_number 10
_symmetry_cell_setting 'monoclinic'
loop_
_space_group_symop_operation_xyz
x,y,z
-x,y,-z
-x,-y,-z
x,-y,z
loop_
_atom_site_type_symbol
_atom_site_label
_atom_site_fract_x
_atom_site_fract_y
_atom_site_fract_z
Si Si1 0.554608 0.194470 0.737005
Si Si2 0.580393 0.000000 0.208103
Si Si3 0.581501 0.381923 0.202596
Si Si4 0.114909 0.000000 0.170873
Si Si5 0.877561 0.804320 0.078645
Si Si6 0.123195 0.373473 0.169994
O O1 0.465823 0.107533 0.796252
O O2 0.506718 0.312281 0.767741
O O3 0.725044 0.182689 0.424325
O O4 0.500000 0.175507 0.000000
O O5 0.500000 0.000000 0.500000
O O6 0.746127 0.000000 0.959918
O O7 0.500000 0.388690 0.500000
O O8 0.596933 0.500000 0.101290
O O9 0.736383 0.333326 0.977960
O O10 0.000000 0.000000 0.500000
O O11 0.103360 0.896475 0.081144
O O12 0.892700 0.690549 0.964254
O O13 0.000000 0.813119 0.000000
O O14 0.130390 0.500000 0.115534
O O15 0.000000 0.346411 0.500000
#
# Coordination Sequence:
#
# PCOD8065679 Si02
#       6
#     4   2   4   2   4   4
#     4  12  26  41  64  95 128 164 205 255 315 369
#     4  12  23  46  70  88 119 164 214 260 302 362
#     4  10  20  40  67  90 121 165 215 262 300 355
#     4  12  27  44  70  94 119 164 212 255 306 370
#     4  12  26  43  62  93 133 164 200 256 317 371
#     4  10  22  41  66  93 123 166 214 256 304 365
#
# _framework density 19.861699999999999
#
# number of rings (size 3 to 8) (size 9 to 14) (size 15 to 20)
#    0.000    0.800    4.000    3.000    5.600    0.800 
#    0.000    0.000    0.000    0.000    0.000    0.000 
#    0.000    0.000    0.000    0.000    0.000    0.000 
#
# Total GULP energy -247965.572535 kJ/mol
# GULP energy per Si atom -12398.278627 kJ/mol
# Density = 1.981649 g / cm^3
# Si number density = 19.861700 Si / 1000 Ang^3
#
#
#
# Elastic Constant Matrix: (Units=GPa)
#
#
# Indices 1 2 3 4 5 6 
#
# 1 150.0865 66.5040 83.8663 0.0000 -12.9660 0.0000
# 2 66.5040 104.8282 44.5669 0.0000 1.0738 0.0000
# 3 83.8663 44.5669 180.1377 0.0000 -5.9390 0.0000
# 4 0.0000 0.0000 0.0000 27.2500 0.0000 3.9106
# 5 -12.9660 1.0738 -5.9390 0.0000 47.6516 0.0000
# 6 0.0000 0.0000 0.0000 3.9106 0.0000 51.2108
#
#
#
# Elastic Compliance Matrix: (Units=1/GPa)
#
#
# Indices 1 2 3 4 5 6 
#
# 1 0.011633 -0.005751 -0.003901 0.000000 0.002809 0.000000
# 2 -0.005751 0.013519 -0.000732 0.000000 -0.001961 0.000000
# 3 -0.003901 -0.000732 0.007545 0.000000 -0.000105 0.000000
# 4 0.000000 0.000000 0.000000 0.037104 0.000000 -0.002833
# 5 0.002809 -0.001961 -0.000105 0.000000 0.021781 0.000000
# 6 0.000000 0.000000 0.000000 -0.002833 0.000000 0.019743
#
#
# Mechanical properties :
#
#
# Convention : Reuss Voigt Hill
#
# Bulk Modulus (GPa) = 83.81865 91.65854 87.73860
# Shear Modulus (GPa) = 36.74598 41.23017 38.98808
#
# Velocity S-wave (km/s) = 4.30594 4.56111 4.43536
# Velocity P-wave (km/s) = 8.18622 8.60156 8.39646
#
# Compressibility (1/GPa) = 0.01193052
#
# Stress axis : x y z
#
# Youngs Moduli (GPa) = 85.96002 73.97006 132.53785
#
# Poissons Ratio (x) = 0.42538 0.51700
# Poissons Ratio (y) = 0.49433 0.09701
# Poissons Ratio (z) = 0.33531 0.05414
#
# Static dielectric constant tensor:
#      x y z
#    x 3.484380 0.000000 -0.180310 
#    y 0.000000 3.966880 0.000000 
#    z -0.180310 0.000000 3.676420 
# 
# 
# High freq. dielectric constant tensor:
#      x y z
#    x 1.772000 0.000000 -0.008010 
#    y 0.000000 1.790880 0.000000 
#    z -0.008010 0.000000 1.794440 
# 
# From -- ./inp_files/17798.got.cif
#   From: 2010.06.25/outbox.cif.g09.slc.cpg/sg10_9_cif.got.tgz:17798.got - 2010.06.27 22:07:45.
