data_PCOD8065429
_publ_section_title
;
Structure prediction by ZEFSAII (Michael W. Deem and Ramdas Pophale) SiO2 
 PCOD8065429
Probable space group: P 2/M
;
_chemical_formula_sum "Si O2"
_cell_formula_units_Z 18
_cell_length_a 9.600348
_cell_length_b 20.342049
_cell_length_c 8.561709
_cell_angle_alpha 90.000000
_cell_angle_beta 32.000180
_cell_angle_gamma 90.000000
_cell_volume 886.041423
_symmetry_space_group_name_H-M "P 2/M"
_symmetry_group_IT_number 10
_symmetry_cell_setting 'monoclinic'
loop_
_space_group_symop_operation_xyz
x,y,z
-x,y,-z
-x,-y,-z
x,-y,z
loop_
_atom_site_type_symbol
_atom_site_label
_atom_site_fract_x
_atom_site_fract_y
_atom_site_fract_z
Si Si1 0.051912 0.297604 0.132889
Si Si2 0.431734 0.638437 0.246148
Si Si3 0.956132 0.850906 0.857851
Si Si4 0.729318 0.500000 0.661010
Si Si5 0.541692 0.074079 0.645242
O O1 0.796947 0.313675 0.478847
O O2 0.116756 0.223228 0.122496
O O3 0.000000 0.302616 0.000000
O O4 0.296181 0.346612 0.925581
O O5 0.314568 0.565863 0.399127
O O6 0.500000 0.647723 0.000000
O O7 0.219017 0.879198 0.527989
O O8 0.719093 0.897210 0.026735
O O9 0.000000 0.854074 0.000000
O O10 0.000000 0.500000 0.500000
O O11 0.500000 0.500000 0.000000
O O12 0.500000 0.074957 0.500000
O O13 0.592690 0.000000 0.655532
#
# Coordination Sequence:
#
# PCOD8065429 Si02
#       5
#     4   4   4   2   4
#     4  11  22  37  56  83 119 152 181 223 285 340
#     4  11  22  39  61  84 109 145 191 232 271 328
#     4   9  17  28  43  66 102 142 172 211 273 329
#     4  10  20  38  61  84 109 144 185 230 281 326
#     4   9  15  24  40  64  96 136 179 218 260 316
#
# _framework density 20.315078
#
# number of rings (size 3 to 8) (size 9 to 14) (size 15 to 20)
#    0.000    2.000    0.000    6.000    0.000    6.222 
#    0.000    3.333    0.000    0.000    0.000    0.000 
#    0.000   62.222    0.000    0.000    0.000    0.000 
#
# Total GULP energy -223089.500453 kJ/mol
# GULP energy per Si atom -12393.861136 kJ/mol
# Density = 2.026884 g / cm^3
# Si number density = 20.315078 Si / 1000 Ang^3
#
#
#
# Elastic Constant Matrix: (Units=GPa)
#
#
# Indices 1 2 3 4 5 6 
#
# 1 49.2986 53.9953 33.1030 0.0000 -21.1680 0.0000
# 2 53.9953 132.7887 53.2964 0.0000 -9.0796 0.0000
# 3 33.1030 53.2964 139.0190 0.0000 -31.1306 0.0000
# 4 0.0000 0.0000 0.0000 42.0598 0.0000 -1.5737
# 5 -21.1680 -9.0796 -31.1306 0.0000 31.1424 0.0000
# 6 0.0000 0.0000 0.0000 -1.5737 0.0000 14.3121
#
#
#
# Elastic Compliance Matrix: (Units=1/GPa)
#
#
# Indices 1 2 3 4 5 6 
#
# 1 0.058355 -0.022363 0.002706 0.000000 0.035850 0.000000
# 2 -0.022363 0.017497 -0.004696 0.000000 -0.014793 0.000000
# 3 0.002706 -0.004696 0.010893 0.000000 0.011359 0.000000
# 4 0.000000 0.000000 0.000000 0.023874 0.000000 0.002625
# 5 0.035850 -0.014793 0.011359 0.000000 0.063520 0.000000
# 6 0.000000 0.000000 0.000000 0.002625 0.000000 0.070160
#
#
# Mechanical properties :
#
#
# Convention : Reuss Voigt Hill
#
# Bulk Modulus (GPa) = 26.28882 66.87729 46.58306
# Shear Modulus (GPa) = 16.35679 29.55030 22.95355
#
# Velocity S-wave (km/s) = 2.84060 3.81806 3.36501
# Velocity P-wave (km/s) = 4.87107 7.24074 6.17072
#
# Compressibility (1/GPa) = 0.03803898
#
# Stress axis : x y z
#
# Youngs Moduli (GPa) = 17.13658 57.15143 91.80493
#
# Poissons Ratio (x) = 1.27810 -0.24843
# Poissons Ratio (y) = 0.38323 0.43108
# Poissons Ratio (z) = -0.04637 0.26836
#
# Static dielectric constant tensor:
#      x y z
#    x 3.259680 0.000000 -0.238180 
#    y 0.000000 5.687130 0.000000 
#    z -0.238180 0.000000 3.831810 
# 
# 
# High freq. dielectric constant tensor:
#      x y z
#    x 1.743000 0.000000 -0.026490 
#    y 0.000000 1.810690 0.000000 
#    z -0.026490 0.000000 1.807580 
# 
# From -- ./inp_files/14773.got.cif
#   From: 2010.06.25/outbox.cif.g09.slc.cpg/sg10_8_cif.got.tgz:14773.got - 2010.06.27 22:07:45.
