data_PCOD8065400
_publ_section_title
;
Structure prediction by ZEFSAII (Michael W. Deem and Ramdas Pophale) SiO2 
 PCOD8065400
Probable space group: P 2/M
;
_chemical_formula_sum "Si O2"
_cell_formula_units_Z 32
_cell_length_a 14.331268
_cell_length_b 8.871844
_cell_length_c 23.951964
_cell_angle_alpha 90.000000
_cell_angle_beta 147.029285
_cell_angle_gamma 90.000000
_cell_volume 1657.320125
_symmetry_space_group_name_H-M "P 2/M"
_symmetry_group_IT_number 10
_symmetry_cell_setting 'monoclinic'
loop_
_space_group_symop_operation_xyz
x,y,z
-x,y,-z
-x,-y,-z
x,-y,z
loop_
_atom_site_type_symbol
_atom_site_label
_atom_site_fract_x
_atom_site_fract_y
_atom_site_fract_z
Si Si1 0.481249 0.822978 0.282510
Si Si2 0.133161 0.177576 0.811745
Si Si3 0.181494 0.820966 0.611672
Si Si4 0.676281 0.820573 0.200801
Si Si5 0.822683 0.677889 0.939470
Si Si6 0.223415 0.327684 0.367470
Si Si7 0.286155 0.820743 0.004319
Si Si8 0.520537 0.327224 0.601828
O O1 0.666757 0.768654 0.353471
O O2 0.334677 0.739143 0.175143
O O3 0.467350 0.785000 0.340488
O O4 0.456594 0.000000 0.260621
O O5 0.236973 0.246833 0.811430
O O6 0.935174 0.217228 0.706680
O O7 0.154322 0.000000 0.821573
O O8 0.210866 0.241140 0.908224
O O9 0.220392 0.760147 0.693459
O O10 0.000000 0.752089 0.500000
O O11 0.170503 0.000000 0.606838
O O12 0.481368 0.764142 0.106963
O O13 0.679326 0.000000 0.200841
O O14 0.806341 0.500000 0.935768
O O15 0.824276 0.747744 0.001935
O O16 0.000000 0.727165 0.000000
O O17 0.160531 0.500000 0.335784
O O18 0.344594 0.296811 0.481011
O O19 0.321256 0.291166 0.359286
O O20 0.272474 0.000000 0.002027
O O21 0.529267 0.500000 0.626845
#
# Coordination Sequence:
#
# PCOD8065400 Si02
#       8
#     4   4   4   4   4   4   4   4
#     4  11  22  37  62  92 117 148 189 243 293 336
#     4  10  21  33  57  89 113 142 188 242 289 336
#     4   9  18  32  54  85 117 150 186 228 287 350
#     4   9  17  34  56  79 114 152 184 228 289 348
#     4  11  25  42  60  83 114 157 198 234 285 351
#     4   9  20  39  58  78 112 156 194 229 278 340
#     4  10  20  38  59  84 114 146 189 240 290 338
#     4   9  20  39  59  78 111 158 194 226 278 343
#
# _framework density 19.308281000000001
#
# number of rings (size 3 to 8) (size 9 to 14) (size 15 to 20)
#    0.000    2.250    1.250    1.875    3.500    4.000 
#    0.000    1.875    0.000    3.000    0.000    0.000 
#    0.000    0.000    0.000    0.000    0.000    0.000 
#
# Total GULP energy -396852.045819 kJ/mol
# GULP energy per Si atom -12401.626432 kJ/mol
# Density = 1.926433 g / cm^3
# Si number density = 19.308281 Si / 1000 Ang^3
#
#
#
# Elastic Constant Matrix: (Units=GPa)
#
#
# Indices 1 2 3 4 5 6 
#
# 1 139.8234 29.4567 47.8203 0.0000 -6.5848 0.0000
# 2 29.4567 24.3180 20.0326 0.0000 0.8037 0.0000
# 3 47.8203 20.0326 61.9254 0.0000 6.3358 0.0000
# 4 0.0000 0.0000 0.0000 26.4838 0.0000 -0.5231
# 5 -6.5848 0.8037 6.3358 0.0000 39.5145 0.0000
# 6 0.0000 0.0000 0.0000 -0.5231 0.0000 0.9292
#
#
#
# Elastic Compliance Matrix: (Units=1/GPa)
#
#
# Indices 1 2 3 4 5 6 
#
# 1 0.011225 -0.008590 -0.006201 0.000000 0.003040 0.000000
# 2 -0.008590 0.062760 -0.013616 0.000000 -0.000525 0.000000
# 3 -0.006201 -0.013616 0.025843 0.000000 -0.004900 0.000000
# 4 0.000000 0.000000 0.000000 0.038183 0.000000 0.021494
# 5 0.003040 -0.000525 -0.004900 0.000000 0.026610 0.000000
# 6 0.000000 0.000000 0.000000 0.021494 0.000000 1.088308
#
#
# Mechanical properties :
#
#
# Convention : Reuss Voigt Hill
#
# Bulk Modulus (GPa) = 23.24721 46.74289 34.99505
# Shear Modulus (GPa) = 3.77621 21.96931 12.87276
#
# Velocity S-wave (km/s) = 1.40000 3.37682 2.58485
# Velocity P-wave (km/s) = 3.83138 6.28213 5.20311
#
# Compressibility (1/GPa) = 0.04301592
#
# Stress axis : x y z
#
# Youngs Moduli (GPa) = 89.08436 15.93363 38.69554
#
# Poissons Ratio (x) = 0.13687 0.23994
# Poissons Ratio (y) = 0.76522 0.52687
# Poissons Ratio (z) = 0.55238 0.21695
#
# Static dielectric constant tensor:
#      x y z
#    x 3.776510 0.000000 -0.076470 
#    y 0.000000 3.149800 0.000000 
#    z -0.076470 0.000000 3.669420 
# 
# 
# High freq. dielectric constant tensor:
#      x y z
#    x 1.766550 0.000000 -0.003370 
#    y 0.000000 1.716460 0.000000 
#    z -0.003370 0.000000 1.763030 
# 
# From -- ./inp_files/71647.got.cif
#   From: 2010.06.25/outbox.cif.g09.slc.cpg/sg10_36_cif.got.tgz:71647.got - 2010.06.27 22:07:45.
