data_PCOD8065482
_publ_section_title
;
Structure prediction by ZEFSAII (Michael W. Deem and Ramdas Pophale) SiO2 
 PCOD8065482
Probable space group: P 2/M
;
_chemical_formula_sum "Si O2"
_cell_formula_units_Z 16
_cell_length_a 14.343052
_cell_length_b 12.343440
_cell_length_c 12.188392
_cell_angle_alpha 90.000000
_cell_angle_beta 160.198735
_cell_angle_gamma 90.000000
_cell_volume 730.995403
_symmetry_space_group_name_H-M "P 2/M"
_symmetry_group_IT_number 10
_symmetry_cell_setting 'monoclinic'
loop_
_space_group_symop_operation_xyz
x,y,z
-x,y,-z
-x,-y,-z
x,-y,z
loop_
_atom_site_type_symbol
_atom_site_label
_atom_site_fract_x
_atom_site_fract_y
_atom_site_fract_z
Si Si1 0.057147 0.701992 0.807892
Si Si2 0.307315 0.000000 0.887656
Si Si3 0.193385 0.879384 0.119686
Si Si4 0.542148 0.764911 0.916893
Si Si5 0.195948 0.500000 0.113511
O O1 0.730592 0.717271 0.440674
O O2 0.183003 0.809823 0.999123
O O3 0.203358 0.693170 0.849389
O O4 0.137803 0.602463 0.973232
O O5 0.000000 0.000000 0.500000
O O6 0.500000 0.000000 0.000000
O O7 0.384444 0.889329 0.037521
O O8 0.500000 0.882127 0.500000
O O9 0.086864 0.000000 0.972294
O O10 0.000000 0.827879 0.000000
O O11 0.500000 0.751295 0.000000
O O12 0.500000 0.500000 0.500000
O O13 0.000000 0.500000 0.000000
#
# Coordination Sequence:
#
# PCOD8065482 Si02
#       5
#     4   2   4   4   2
#     4  12  24  41  68  95 128 176 226 263 341 386
#     4  10  20  38  62  92 132 180 216 262 318 378
#     4  10  21  37  58  88 125 159 204 267 332 391
#     4  11  24  41  64  97 138 173 222 269 322 395
#     4  12  26  48  73  98 129 170 230 286 330 398
#
# _framework density 21.887962999999999
#
# number of rings (size 3 to 8) (size 9 to 14) (size 15 to 20)
#    0.000    1.000    0.000    8.250    3.500    0.000 
#    0.000    3.750    0.000    0.000    0.000    0.000 
#    0.000    0.000    0.000    0.000    0.000    0.000 
#
# Total GULP energy -198319.361344 kJ/mol
# GULP energy per Si atom -12394.960084 kJ/mol
# Density = 2.183814 g / cm^3
# Si number density = 21.887963 Si / 1000 Ang^3
#
#
#
# Elastic Constant Matrix: (Units=GPa)
#
#
# Indices 1 2 3 4 5 6 
#
# 1 140.7949 57.5403 27.4120 0.0000 18.8691 0.0000
# 2 57.5403 100.8535 58.0755 0.0000 -5.8049 0.0000
# 3 27.4120 58.0755 136.9091 0.0000 19.3021 0.0000
# 4 0.0000 0.0000 0.0000 45.6773 0.0000 -9.1974
# 5 18.8691 -5.8049 19.3021 0.0000 43.7870 0.0000
# 6 0.0000 0.0000 0.0000 -9.1974 0.0000 45.7089
#
#
#
# Elastic Compliance Matrix: (Units=1/GPa)
#
#
# Indices 1 2 3 4 5 6 
#
# 1 0.010708 -0.007647 0.002019 0.000000 -0.006518 0.000000
# 2 -0.007647 0.019457 -0.008051 0.000000 0.009424 0.000000
# 3 0.002019 -0.008051 0.011290 0.000000 -0.006914 0.000000
# 4 0.000000 0.000000 0.000000 0.022817 0.000000 0.004591
# 5 -0.006518 0.009424 -0.006914 0.000000 0.029944 0.000000
# 6 0.000000 0.000000 0.000000 0.004591 0.000000 0.022801
#
#
# Mechanical properties :
#
#
# Convention : Reuss Voigt Hill
#
# Bulk Modulus (GPa) = 70.93994 73.84590 72.39292
# Shear Modulus (GPa) = 33.54031 42.73662 38.13846
#
# Velocity S-wave (km/s) = 3.91879 4.42352 4.17878
# Velocity P-wave (km/s) = 7.27714 7.73960 7.51193
#
# Compressibility (1/GPa) = 0.01409643
#
# Stress axis : x y z
#
# Youngs Moduli (GPa) = 93.38572 51.39615 88.57573
#
# Poissons Ratio (x) = 0.39303 -0.17882
# Poissons Ratio (y) = 0.71413 0.71311
# Poissons Ratio (z) = -0.18853 0.41378
#
# Static dielectric constant tensor:
#      x y z
#    x 4.168500 0.000000 0.203480 
#    y 0.000000 3.475840 0.000000 
#    z 0.203480 0.000000 3.954620 
# 
# 
# High freq. dielectric constant tensor:
#      x y z
#    x 1.884110 0.000000 0.015990 
#    y 0.000000 1.846780 0.000000 
#    z 0.015990 0.000000 1.865450 
# 
# From -- ./inp_files/50929.got.cif
#   From: 2010.06.25/outbox.cif.g09.slc.cpg/sg10_26_cif.got.tgz:50929.got - 2010.06.27 22:07:45.
