data_PCOD8065729
_publ_section_title
;
Structure prediction by ZEFSAII (Michael W. Deem and Ramdas Pophale) SiO2 
 PCOD8065729
Probable space group: P 2/M
;
_chemical_formula_sum "Si O2"
_cell_formula_units_Z 28
_cell_length_a 14.566288
_cell_length_b 9.332929
_cell_length_c 17.697888
_cell_angle_alpha 90.000000
_cell_angle_beta 39.743610
_cell_angle_gamma 90.000000
_cell_volume 1538.257974
_symmetry_space_group_name_H-M "P 2/M"
_symmetry_group_IT_number 10
_symmetry_cell_setting 'monoclinic'
loop_
_space_group_symop_operation_xyz
x,y,z
-x,y,-z
-x,-y,-z
x,-y,z
loop_
_atom_site_type_symbol
_atom_site_label
_atom_site_fract_x
_atom_site_fract_y
_atom_site_fract_z
Si Si1 0.657210 0.663016 0.610498
Si Si2 0.930540 0.833233 0.286877
Si Si3 0.497705 0.339106 0.856566
Si Si4 0.241281 0.839919 0.251769
Si Si5 0.079366 0.167542 0.537271
Si Si6 0.380356 0.168199 0.517867
Si Si7 0.769152 0.161015 0.921171
O O1 0.702065 0.500000 0.562057
O O2 0.519337 0.663935 0.752793
O O3 0.784824 0.740392 0.579675
O O4 0.606503 0.747200 0.568499
O O5 0.920345 0.769523 0.377511
O O6 0.776923 0.803199 0.343980
O O7 0.959927 0.000000 0.279313
O O8 0.072734 0.778542 0.151739
O O9 0.485901 0.500000 0.894920
O O10 0.634438 0.270835 0.810677
O O11 0.351539 0.260823 0.968970
O O12 0.083987 0.806516 0.392833
O O13 0.287673 0.000000 0.247811
O O14 0.219567 0.836704 0.176221
O O15 0.118140 0.000000 0.508442
O O16 0.500000 0.225092 0.500000
O O17 0.400828 0.000000 0.487322
O O18 0.737596 0.000000 0.970076
#
# Coordination Sequence:
#
# PCOD8065729 Si02
#       7
#     4   4   4   4   4   4   4
#     4  10  21  34  46  66  99 132 158 188 233 286
#     4   7  12  26  48  73  96 115 142 187 236 276
#     4  11  23  33  42  63  97 133 166 201 235 271
#     4   9  18  32  50  71  92 120 163 210 248 278
#     4   8  15  30  50  69  91 120 157 200 240 281
#     4   9  17  32  57  83 100 115 143 188 238 288
#     4   9  17  31  50  68  90 124 164 200 233 274
#
# _framework density 18.202407999999998
#
# number of rings (size 3 to 8) (size 9 to 14) (size 15 to 20)
#    0.000    3.000    0.000    3.857    0.000    6.000 
#    0.000    8.571    0.000    0.857    0.000    6.000 
#    0.000    0.000    0.000    0.000    0.000    0.000 
#
# Total GULP energy -346865.441548 kJ/mol
# GULP energy per Si atom -12388.051484 kJ/mol
# Density = 1.816098 g / cm^3
# Si number density = 18.202408 Si / 1000 Ang^3
#
#
#
# Elastic Constant Matrix: (Units=GPa)
#
#
# Indices 1 2 3 4 5 6 
#
# 1 67.6246 24.5649 17.2514 0.0000 -26.3213 0.0000
# 2 24.5649 84.7325 38.0383 0.0000 -16.6557 0.0000
# 3 17.2514 38.0383 100.3606 0.0000 -33.8794 0.0000
# 4 0.0000 0.0000 0.0000 20.8670 0.0000 8.8440
# 5 -26.3213 -16.6557 -33.8794 0.0000 27.3362 0.0000
# 6 0.0000 0.0000 0.0000 8.8440 0.0000 0.0089
#
#
#
# Elastic Compliance Matrix: (Units=1/GPa)
#
#
# Indices 1 2 3 4 5 6 
#
# 1 0.027966 -0.005282 0.008938 0.000000 0.034787 0.000000
# 2 -0.005282 0.015407 -0.005982 0.000000 -0.003113 0.000000
# 3 0.008938 -0.005982 0.021268 0.000000 0.031320 0.000000
# 4 0.000000 0.000000 0.000000 -0.000114 0.000000 0.113340
# 5 0.034787 -0.003113 0.031320 0.000000 0.106998 0.000000
# 6 0.000000 0.000000 0.000000 0.113340 0.000000 -0.267420
#
#
# Mechanical properties :
#
#
# Convention : Reuss Voigt Hill
#
# Bulk Modulus (GPa) = 16.66990 45.82522 31.24756
# Shear Modulus (GPa) = -70.17904 21.16663 -24.50621
#
# Velocity S-wave (km/s) = -6.21599 3.41375 -3.67320
# Velocity P-wave (km/s) = 6.50692 6.38501 0.88650
#
# Compressibility (1/GPa) = 0.05998838
#
# Stress axis : x y z
#
# Youngs Moduli (GPa) = 35.75730 64.90593 47.01889
#
# Poissons Ratio (x) = 0.34285 -0.42027
# Poissons Ratio (y) = 0.18888 0.28129
# Poissons Ratio (z) = -0.31961 0.38830
#
# Static dielectric constant tensor:
#      x y z
#    x 3.255650 0.000000 -0.277950 
#    y 0.000000 3.263300 0.000000 
#    z -0.277950 0.000000 3.609080 
# 
# 
# High freq. dielectric constant tensor:
#      x y z
#    x 1.678270 0.000000 -0.020820 
#    y 0.000000 1.686210 0.000000 
#    z -0.020820 0.000000 1.713780 
# 
# From -- ./inp_files/54729.got.cif
#   From: 2010.06.25/outbox.cif.g09.slc.cpg/sg10_28_cif.got.tgz:54729.got - 2010.06.27 22:07:45.
