data_PCOD8065877
_publ_section_title
;
Structure prediction by ZEFSAII (Michael W. Deem and Ramdas Pophale) SiO2 
 PCOD8065877
Probable space group: P 2/M
;
_chemical_formula_sum "Si O2"
_cell_formula_units_Z 28
_cell_length_a 11.063638
_cell_length_b 10.002023
_cell_length_c 23.176072
_cell_angle_alpha 90.000000
_cell_angle_beta 35.093294
_cell_angle_gamma 90.000000
_cell_volume 1474.433248
_symmetry_space_group_name_H-M "P 2/M"
_symmetry_group_IT_number 10
_symmetry_cell_setting 'monoclinic'
loop_
_space_group_symop_operation_xyz
x,y,z
-x,y,-z
-x,-y,-z
x,-y,z
loop_
_atom_site_type_symbol
_atom_site_label
_atom_site_fract_x
_atom_site_fract_y
_atom_site_fract_z
Si Si1 0.970445 0.843283 0.657870
Si Si2 0.844589 0.737144 0.108143
Si Si3 0.177458 0.851010 0.054841
Si Si4 0.098949 0.156877 0.737795
Si Si5 0.149782 0.653590 0.493754
Si Si6 0.494150 0.841443 0.843090
Si Si7 0.370307 0.646276 0.698288
O O1 0.054518 0.816794 0.688910
O O2 0.111615 0.753769 0.561414
O O3 0.731708 0.789755 0.746679
O O4 0.988386 0.000000 0.634380
O O5 0.634431 0.798217 0.162864
O O6 0.766516 0.639749 0.189381
O O7 0.985117 0.851867 0.083771
O O8 0.000000 0.665994 0.000000
O O9 0.100077 0.789160 0.146080
O O10 0.246271 0.000000 0.042013
O O11 0.379938 0.780390 0.945555
O O12 0.300499 0.241457 0.679536
O O13 0.141880 0.000000 0.733540
O O14 0.105385 0.500000 0.529822
O O15 0.388057 0.673905 0.379856
O O16 0.000000 0.696614 0.500000
O O17 0.492065 0.000000 0.848219
O O18 0.347129 0.500000 0.678206
#
# Coordination Sequence:
#
# PCOD8065877 Si02
#       7
#     4   4   4   4   4   4   4
#     4  10  21  35  53  79 106 134 173 218 256 293
#     4   9  16  28  49  77 105 133 164 207 258 306
#     4   8  14  26  46  73 105 139 170 203 249 305
#     4   9  19  35  53  76 106 137 171 211 255 300
#     4  10  22  40  58  76 102 135 169 207 255 310
#     4   9  16  27  47  76 108 139 171 208 252 304
#     4  10  21  36  55  77 101 134 173 210 252 305
#
# _framework density 18.990345999999999
#
# number of rings (size 3 to 8) (size 9 to 14) (size 15 to 20)
#    0.000    2.714    0.000    1.286    0.000    5.143 
#    0.000    5.714    0.000    3.429    0.000   10.000 
#    0.000    0.000    0.000    0.000    0.000    0.000 
#
# Total GULP energy -346892.101081 kJ/mol
# GULP energy per Si atom -12389.003610 kJ/mol
# Density = 1.894712 g / cm^3
# Si number density = 18.990346 Si / 1000 Ang^3
#
#
#
# Elastic Constant Matrix: (Units=GPa)
#
#
# Indices 1 2 3 4 5 6 
#
# 1 86.1917 32.5974 48.5555 0.0000 7.2996 0.0000
# 2 32.5974 55.4876 40.9252 0.0000 5.5650 0.0000
# 3 48.5555 40.9252 106.1978 0.0000 3.1611 0.0000
# 4 0.0000 0.0000 0.0000 19.3117 0.0000 -0.8263
# 5 7.2996 5.5650 3.1611 0.0000 31.7910 0.0000
# 6 0.0000 0.0000 0.0000 -0.8263 0.0000 22.6091
#
#
#
# Elastic Compliance Matrix: (Units=1/GPa)
#
#
# Indices 1 2 3 4 5 6 
#
# 1 0.017084 -0.005713 -0.005539 0.000000 -0.002372 0.000000
# 2 -0.005713 0.027473 -0.007894 0.000000 -0.002712 0.000000
# 3 -0.005539 -0.007894 0.014956 0.000000 0.001166 0.000000
# 4 0.000000 0.000000 0.000000 0.051863 0.000000 0.001895
# 5 -0.002372 -0.002712 0.001166 0.000000 0.032359 0.000000
# 6 0.000000 0.000000 0.000000 0.001895 0.000000 0.044299
#
#
# Mechanical properties :
#
#
# Convention : Reuss Voigt Hill
#
# Bulk Modulus (GPa) = 47.12416 54.67035 50.89726
# Shear Modulus (GPa) = 21.42243 23.12896 22.27570
#
# Velocity S-wave (km/s) = 3.36232 3.49368 3.42863
# Velocity P-wave (km/s) = 6.31999 6.71754 6.52179
#
# Compressibility (1/GPa) = 0.02122054
#
# Stress axis : x y z
#
# Youngs Moduli (GPa) = 58.53476 36.39955 66.86173
#
# Poissons Ratio (x) = 0.20796 0.37033
# Poissons Ratio (y) = 0.33443 0.52782
# Poissons Ratio (z) = 0.32421 0.28735
#
# Static dielectric constant tensor:
#      x y z
#    x 3.393060 0.000000 -0.009340 
#    y 0.000000 3.177660 0.000000 
#    z -0.009340 0.000000 3.743440 
# 
# 
# High freq. dielectric constant tensor:
#      x y z
#    x 1.731020 0.000000 0.001560 
#    y 0.000000 1.702230 0.000000 
#    z 0.001560 0.000000 1.750310 
# 
# From -- ./inp_files/88835.got.cif
#   From: 2010.06.25/outbox.cif.g09.slc.cpg/sg10_45_cif.got.tgz:88835.got - 2010.06.27 22:07:45.
