data_PCOD8065310
_publ_section_title
;
Structure prediction by ZEFSAII (Michael W. Deem and Ramdas Pophale) SiO2 
 PCOD8065310
Probable space group: P 2/M
;
_chemical_formula_sum "Si O2"
_cell_formula_units_Z 26
_cell_length_a 8.601161
_cell_length_b 14.871094
_cell_length_c 15.200951
_cell_angle_alpha 90.000000
_cell_angle_beta 39.529214
_cell_angle_gamma 90.000000
_cell_volume 1237.512991
_symmetry_space_group_name_H-M "P 2/M"
_symmetry_group_IT_number 10
_symmetry_cell_setting 'monoclinic'
loop_
_space_group_symop_operation_xyz
x,y,z
-x,y,-z
-x,-y,-z
x,-y,z
loop_
_atom_site_type_symbol
_atom_site_label
_atom_site_fract_x
_atom_site_fract_y
_atom_site_fract_z
Si Si1 0.772403 0.895702 0.663087
Si Si2 0.054647 0.766481 0.074026
Si Si3 0.266026 0.398881 0.361621
Si Si4 0.038039 0.900365 0.228293
Si Si5 0.500000 0.145271 0.500000
Si Si6 0.488768 0.237943 0.672621
Si Si7 0.584522 0.602502 0.060260
O O1 0.849707 0.867677 0.727690
O O2 0.554004 0.828701 0.726596
O O3 0.000000 0.879224 0.500000
O O4 0.686623 0.000000 0.694352
O O5 0.792002 0.749170 0.229773
O O6 0.158981 0.840491 0.097017
O O7 0.000000 0.804708 0.000000
O O8 0.214590 0.675489 0.997198
O O9 0.287558 0.500000 0.386918
O O10 0.444568 0.340190 0.341041
O O11 0.341736 0.390241 0.226315
O O12 0.000000 0.360148 0.500000
O O13 0.738795 0.908419 0.361016
O O14 0.133439 0.000000 0.166847
O O15 0.616497 0.202350 0.528766
O O16 0.691304 0.500000 0.019920
O O17 0.500000 0.626204 0.000000
#
# Coordination Sequence:
#
# PCOD8065310 Si02
#       7
#     4   4   4   4   2   4   4
#     4  10  20  37  62  92 123 168 221 268 322 383
#     4  11  24  40  61  93 128 172 214 255 318 383
#     4  10  22  39  65  96 125 161 207 261 320 372
#     4  10  22  38  60  89 128 170 216 269 318 379
#     4  10  21  34  57  92 126 168 215 258 331 382
#     4  11  22  37  61  93 130 168 204 266 315 379
#     4  10  23  44  70  95 126 170 216 262 316 386
#
# _framework density 21.009881
#
# number of rings (size 3 to 8) (size 9 to 14) (size 15 to 20)
#    0.000    1.692    3.077    0.692    2.154    4.923 
#    0.000    0.385    0.000    2.308    0.000    0.000 
#    0.000    0.000    0.000    0.000    0.000    0.000 
#
# Total GULP energy -322137.816364 kJ/mol
# GULP energy per Si atom -12389.916014 kJ/mol
# Density = 2.096206 g / cm^3
# Si number density = 21.009881 Si / 1000 Ang^3
#
#
#
# Elastic Constant Matrix: (Units=GPa)
#
#
# Indices 1 2 3 4 5 6 
#
# 1 110.6927 45.8899 34.7929 0.0000 29.5618 0.0000
# 2 45.8899 89.4461 41.7396 0.0000 14.9787 0.0000
# 3 34.7929 41.7396 80.9352 0.0000 13.9186 0.0000
# 4 0.0000 0.0000 0.0000 22.5460 0.0000 3.1995
# 5 29.5618 14.9787 13.9186 0.0000 41.9004 0.0000
# 6 0.0000 0.0000 0.0000 3.1995 0.0000 16.4639
#
#
#
# Elastic Compliance Matrix: (Units=1/GPa)
#
#
# Indices 1 2 3 4 5 6 
#
# 1 0.013607 -0.004774 -0.002153 0.000000 -0.007178 0.000000
# 2 -0.004774 0.016740 -0.006502 0.000000 -0.000456 0.000000
# 3 -0.002153 -0.006502 0.016941 0.000000 -0.001784 0.000000
# 4 0.000000 0.000000 0.000000 0.045612 0.000000 -0.008864
# 5 -0.007178 -0.000456 -0.001784 0.000000 0.029686 0.000000
# 6 0.000000 0.000000 0.000000 -0.008864 0.000000 0.062461
#
#
# Mechanical properties :
#
#
# Convention : Reuss Voigt Hill
#
# Bulk Modulus (GPa) = 48.94910 58.43542 53.69226
# Shear Modulus (GPa) = 22.86068 26.75882 24.80975
#
# Velocity S-wave (km/s) = 3.30220 3.57267 3.44009
# Velocity P-wave (km/s) = 6.15533 6.70017 6.43352
#
# Compressibility (1/GPa) = 0.02042938
#
# Stress axis : x y z
#
# Youngs Moduli (GPa) = 73.49136 59.73724 59.02776
#
# Poissons Ratio (x) = 0.28521 0.12707
# Poissons Ratio (y) = 0.35088 0.38381
# Poissons Ratio (z) = 0.15821 0.38843
#
# Static dielectric constant tensor:
#      x y z
#    x 3.839310 0.000000 0.109220 
#    y 0.000000 3.829680 0.000000 
#    z 0.109220 0.000000 3.888550 
# 
# 
# High freq. dielectric constant tensor:
#      x y z
#    x 1.817890 0.000000 0.010910 
#    y 0.000000 1.822350 0.000000 
#    z 0.010910 0.000000 1.823030 
# 
# From -- ./inp_files/62032.got.cif
#   From: 2010.06.25/outbox.cif.g09.slc.cpg/sg10_32_cif.got.tgz:62032.got - 2010.06.27 22:07:45.
