data_PCOD8065087
_publ_section_title
;
Structure prediction by ZEFSAII (Michael W. Deem and Ramdas Pophale) SiO2 
 PCOD8065087
Probable space group: P 2/M
;
_chemical_formula_sum "Si O2"
_cell_formula_units_Z 32
_cell_length_a 12.081568
_cell_length_b 8.616301
_cell_length_c 16.068084
_cell_angle_alpha 90.000000
_cell_angle_beta 88.177456
_cell_angle_gamma 90.000000
_cell_volume 1671.816100
_symmetry_space_group_name_H-M "P 2/M"
_symmetry_group_IT_number 10
_symmetry_cell_setting 'monoclinic'
loop_
_space_group_symop_operation_xyz
x,y,z
-x,y,-z
-x,-y,-z
x,-y,z
loop_
_atom_site_type_symbol
_atom_site_label
_atom_site_fract_x
_atom_site_fract_y
_atom_site_fract_z
Si Si1 0.378251 0.318965 0.974639
Si Si2 0.117993 0.179755 0.535461
Si Si3 0.732917 0.180239 0.873537
Si Si4 0.084952 0.319808 0.230596
Si Si5 0.157024 0.320645 0.710792
Si Si6 0.640459 0.178983 0.203336
Si Si7 0.422618 0.320619 0.259401
Si Si8 0.771566 0.320261 0.617120
O O1 0.360740 0.500000 0.990754
O O2 0.359426 0.283014 0.878845
O O3 0.500000 0.264397 0.000000
O O4 0.287267 0.224996 0.030065
O O5 0.139113 0.284474 0.614843
O O6 0.212624 0.217131 0.465346
O O7 0.000000 0.226623 0.500000
O O8 0.122984 0.000000 0.560473
O O9 0.858980 0.223137 0.845565
O O10 0.647476 0.278091 0.820337
O O11 0.711250 0.000000 0.859307
O O12 0.111615 0.500000 0.215206
O O13 0.138111 0.266855 0.316865
O O14 0.954749 0.285141 0.234998
O O15 0.190919 0.500000 0.718975
O O16 0.251262 0.211783 0.745328
O O17 0.533821 0.219791 0.262079
O O18 0.637114 0.000000 0.177841
O O19 0.455616 0.500000 0.251020
O O20 0.351261 0.288902 0.344148
O O21 0.788270 0.500000 0.593765
#
# Coordination Sequence:
#
# PCOD8065087 Si02
#       8
#     4   4   4   4   4   4   4   4
#     4  11  22  38  62  87 116 155 199 243 283 342
#     4  11  22  35  56  89 123 152 191 245 297 342
#     4  11  21  33  57  90 121 150 187 244 299 339
#     4   9  19  36  58  84 115 154 197 238 285 347
#     4  11  23  41  63  84 116 161 202 238 286 352
#     4  12  25  40  60  88 122 154 191 242 300 353
#     4  10  20  37  58  84 117 155 198 237 284 349
#     4   9  18  34  58  86 114 149 195 243 284 339
#
# _framework density 19.140861999999998
#
# number of rings (size 3 to 8) (size 9 to 14) (size 15 to 20)
#    0.000    1.500    2.500    4.500    0.000    4.500 
#    0.000    1.250    0.000    7.500    0.000    0.000 
#    0.000    0.000    0.000    0.000    0.000    0.000 
#
# Total GULP energy -396973.124701 kJ/mol
# GULP energy per Si atom -12405.410147 kJ/mol
# Density = 1.909730 g / cm^3
# Si number density = 19.140862 Si / 1000 Ang^3
#
#
#
# Elastic Constant Matrix: (Units=GPa)
#
#
# Indices 1 2 3 4 5 6 
#
# 1 100.2031 31.0850 39.5840 0.0000 -10.1629 0.0000
# 2 31.0850 65.1200 22.6982 0.0000 -10.3888 0.0000
# 3 39.5840 22.6982 81.6112 0.0000 -15.5849 0.0000
# 4 0.0000 0.0000 0.0000 26.6131 0.0000 0.5205
# 5 -10.1629 -10.3888 -15.5849 0.0000 30.5972 0.0000
# 6 0.0000 0.0000 0.0000 0.5205 0.0000 20.8841
#
#
#
# Elastic Compliance Matrix: (Units=1/GPa)
#
#
# Indices 1 2 3 4 5 6 
#
# 1 0.013488 -0.004577 -0.005218 0.000000 0.000268 0.000000
# 2 -0.004577 0.018950 -0.002340 0.000000 0.003722 0.000000
# 3 -0.005218 -0.002340 0.016563 0.000000 0.005909 0.000000
# 4 0.000000 0.000000 0.000000 0.037594 0.000000 -0.000937
# 5 0.000268 0.003722 0.005909 0.000000 0.037046 0.000000
# 6 0.000000 0.000000 0.000000 -0.000937 0.000000 0.047907
#
#
# Mechanical properties :
#
#
# Convention : Reuss Voigt Hill
#
# Bulk Modulus (GPa) = 40.43282 48.18540 44.30911
# Shear Modulus (GPa) = 24.50241 25.85667 25.17954
#
# Velocity S-wave (km/s) = 3.58174 3.67940 3.63090
# Velocity P-wave (km/s) = 6.18667 6.57870 6.38570
#
# Compressibility (1/GPa) = 0.02473238
#
# Stress axis : x y z
#
# Youngs Moduli (GPa) = 74.13944 52.76910 60.37455
#
# Poissons Ratio (x) = 0.24152 0.31503
# Poissons Ratio (y) = 0.33933 0.14126
# Poissons Ratio (z) = 0.38686 0.12347
#
# Static dielectric constant tensor:
#      x y z
#    x 3.579900 0.000000 -0.282230 
#    y 0.000000 3.428540 0.000000 
#    z -0.282230 0.000000 3.361930 
# 
# 
# High freq. dielectric constant tensor:
#      x y z
#    x 1.736540 0.000000 -0.025750 
#    y 0.000000 1.750230 0.000000 
#    z -0.025750 0.000000 1.732310 
# 
# From -- ./inp_files/63763.got.cif
#   From: 2010.06.25/outbox.cif.g09.slc.cpg/sg10_32_cif.got.tgz:63763.got - 2010.06.27 22:07:45.
