data_PCOD8065016
_publ_section_title
;
Structure prediction by ZEFSAII (Michael W. Deem and Ramdas Pophale) SiO2 
 PCOD8065016
Probable space group: P 2/M
;
_chemical_formula_sum "Si O2"
_cell_formula_units_Z 28
_cell_length_a 14.491071
_cell_length_b 8.989471
_cell_length_c 21.063362
_cell_angle_alpha 90.000000
_cell_angle_beta 150.646009
_cell_angle_gamma 90.000000
_cell_volume 1345.052281
_symmetry_space_group_name_H-M "P 2/M"
_symmetry_group_IT_number 10
_symmetry_cell_setting 'monoclinic'
loop_
_space_group_symop_operation_xyz
x,y,z
-x,y,-z
-x,-y,-z
x,-y,z
loop_
_atom_site_type_symbol
_atom_site_label
_atom_site_fract_x
_atom_site_fract_y
_atom_site_fract_z
Si Si1 0.032795 0.823886 0.593609
Si Si2 0.788276 0.324753 0.876930
Si Si3 0.732988 0.171989 0.968847
Si Si4 0.191544 0.675360 0.433528
Si Si5 0.099805 0.168967 0.263096
Si Si6 0.566270 0.823865 0.108318
Si Si7 0.577449 0.172302 0.638314
O O1 0.232322 0.767733 0.742863
O O2 0.000000 0.779482 0.500000
O O3 0.869941 0.741151 0.535673
O O4 0.010128 0.000000 0.588031
O O5 0.775983 0.500000 0.869704
O O6 0.686058 0.264522 0.878207
O O7 0.684902 0.263663 0.754905
O O8 0.000000 0.265388 0.000000
O O9 0.592994 0.230133 0.938865
O O10 0.695439 0.000000 0.931395
O O11 0.948283 0.201814 0.117607
O O12 0.220046 0.500000 0.457144
O O13 0.048461 0.719948 0.290795
O O14 0.372812 0.756930 0.513336
O O15 0.309937 0.190678 0.360429
O O16 0.074655 0.000000 0.273018
O O17 0.575609 0.000000 0.108738
O O18 0.500000 0.758288 0.000000
O O19 0.563138 0.000000 0.648682
#
# Coordination Sequence:
#
# PCOD8065016 Si02
#       7
#     4   4   4   4   4   4   4
#     4  10  22  41  64  91 120 159 212 264 312 367
#     4  11  23  38  57  87 129 168 200 245 309 372
#     4  10  20  36  63  93 120 158 207 255 302 360
#     4  12  26  41  61  89 124 164 201 249 319 381
#     4  10  21  39  63  92 122 158 206 255 300 360
#     4   9  18  35  62  92 121 153 200 261 314 359
#     4  11  23  40  64  90 120 161 212 258 299 358
#
# _framework density 20.817035000000001
#
# number of rings (size 3 to 8) (size 9 to 14) (size 15 to 20)
#    0.000    1.571    1.429    3.429    2.000    6.571 
#    0.000    0.714    0.000    1.714    0.000    0.000 
#    0.000    0.000    0.000    0.000    0.000    0.000 
#
# Total GULP energy -347138.274839 kJ/mol
# GULP energy per Si atom -12397.795530 kJ/mol
# Density = 2.076965 g / cm^3
# Si number density = 20.817035 Si / 1000 Ang^3
#
#
#
# Elastic Constant Matrix: (Units=GPa)
#
#
# Indices 1 2 3 4 5 6 
#
# 1 128.2198 51.5689 36.9964 0.0000 -11.7134 0.0000
# 2 51.5689 108.5243 40.8520 0.0000 -15.8142 0.0000
# 3 36.9964 40.8520 87.4280 0.0000 -11.1134 0.0000
# 4 0.0000 0.0000 0.0000 21.1402 0.0000 2.5965
# 5 -11.7134 -15.8142 -11.1134 0.0000 39.5113 0.0000
# 6 0.0000 0.0000 0.0000 2.5965 0.0000 13.0924
#
#
#
# Elastic Compliance Matrix: (Units=1/GPa)
#
#
# Indices 1 2 3 4 5 6 
#
# 1 0.010082 -0.003769 -0.002403 0.000000 0.000804 0.000000
# 2 -0.003769 0.012973 -0.004095 0.000000 0.002923 0.000000
# 3 -0.002403 -0.004095 0.014591 0.000000 0.001753 0.000000
# 4 0.000000 0.000000 0.000000 0.048484 0.000000 -0.009615
# 5 0.000804 0.002923 0.001753 0.000000 0.027211 0.000000
# 6 0.000000 0.000000 0.000000 -0.009615 0.000000 0.078287
#
#
# Mechanical properties :
#
#
# Convention : Reuss Voigt Hill
#
# Bulk Modulus (GPa) = 58.43994 64.77852 61.60923
# Shear Modulus (GPa) = 22.94988 27.73244 25.34116
#
# Velocity S-wave (km/s) = 3.32393 3.65389 3.49281
# Velocity P-wave (km/s) = 6.54717 6.99906 6.77688
#
# Compressibility (1/GPa) = 0.01711158
#
# Stress axis : x y z
#
# Youngs Moduli (GPa) = 99.18908 77.08290 68.53438
#
# Poissons Ratio (x) = 0.29052 0.16468
# Poissons Ratio (y) = 0.37384 0.28068
# Poissons Ratio (z) = 0.23834 0.31568
#
# Static dielectric constant tensor:
#      x y z
#    x 3.971990 0.000000 0.420940 
#    y 0.000000 3.453100 0.000000 
#    z 0.420940 0.000000 5.058190 
# 
# 
# High freq. dielectric constant tensor:
#      x y z
#    x 1.827740 0.000000 -0.007510 
#    y 0.000000 1.784500 0.000000 
#    z -0.007510 0.000000 1.826410 
# 
# From -- ./inp_files/50081.got.cif
#   From: 2010.06.25/outbox.cif.g09.slc.cpg/sg10_26_cif.got.tgz:50081.got - 2010.06.27 22:07:45.
