data_PCOD8065614
_publ_section_title
;
Structure prediction by ZEFSAII (Michael W. Deem and Ramdas Pophale) SiO2 
 PCOD8065614
Probable space group: P 2/M
;
_chemical_formula_sum "Si O2"
_cell_formula_units_Z 24
_cell_length_a 18.175407
_cell_length_b 7.385452
_cell_length_c 24.861049
_cell_angle_alpha 90.000000
_cell_angle_beta 20.238458
_cell_angle_gamma 90.000000
_cell_volume 1154.426957
_symmetry_space_group_name_H-M "P 2/M"
_symmetry_group_IT_number 10
_symmetry_cell_setting 'monoclinic'
loop_
_space_group_symop_operation_xyz
x,y,z
-x,y,-z
-x,-y,-z
x,-y,z
loop_
_atom_site_type_symbol
_atom_site_label
_atom_site_fract_x
_atom_site_fract_y
_atom_site_fract_z
Si Si1 0.383096 0.783409 0.633511
Si Si2 0.555695 0.500000 0.023835
Si Si3 0.669325 0.786095 0.533114
Si Si4 0.102241 0.792642 0.187671
Si Si5 0.065866 0.793359 0.088449
Si Si6 0.747923 0.500000 0.670764
Si Si7 0.469769 0.783650 0.253485
O O1 0.500000 0.710802 0.500000
O O2 0.502010 0.705956 0.604648
O O3 0.139494 0.708071 0.800656
O O4 0.379958 0.000000 0.634796
O O5 0.687356 0.679666 0.946283
O O6 0.500000 0.500000 0.000000
O O7 0.344543 0.500000 0.205229
O O8 0.607067 0.723098 0.635069
O O9 0.908361 0.718128 0.357081
O O10 0.664856 0.000000 0.530340
O O11 0.025842 0.771404 0.179092
O O12 0.158675 0.000000 0.162529
O O13 0.083735 0.000000 0.058728
O O14 0.290144 0.705864 0.917417
O O15 0.674755 0.682735 0.690908
O O16 0.000000 0.500000 0.500000
O O17 0.451958 0.000000 0.255908
#
# Coordination Sequence:
#
# PCOD8065614 Si02
#       7
#     4   2   4   4   4   2   4
#     4   9  14  24  49  88 125 158 205 249 282 332
#     4  12  28  44  66  95 115 145 199 251 304 370
#     4   9  18  32  57  92 125 163 204 243 289 343
#     4  10  20  39  64  89 122 160 197 241 296 353
#     4   9  16  30  56  85 119 163 200 238 287 340
#     4  12  28  46  66  89 118 154 190 248 317 363
#     4  10  22  41  63  89 122 161 202 239 294 365
#
# _framework density 20.789535000000001
#
# number of rings (size 3 to 8) (size 9 to 14) (size 15 to 20)
#    0.000    2.167    3.333    0.000    2.333    1.333 
#    0.000    3.333    0.000    6.000    0.000    0.000 
#    0.000    0.000    0.000    0.000    0.000    0.000 
#
# Total GULP energy -297523.739527 kJ/mol
# GULP energy per Si atom -12396.822480 kJ/mol
# Density = 2.074222 g / cm^3
# Si number density = 20.789535 Si / 1000 Ang^3
#
#
#
# Elastic Constant Matrix: (Units=GPa)
#
#
# Indices 1 2 3 4 5 6 
#
# 1 111.9984 30.2212 70.5370 0.0000 -1.1478 0.0000
# 2 30.2212 67.4690 30.1469 0.0000 -6.1157 0.0000
# 3 70.5370 30.1469 196.9277 0.0000 -0.7937 0.0000
# 4 0.0000 0.0000 0.0000 23.9412 0.0000 -11.4959
# 5 -1.1478 -6.1157 -0.7937 0.0000 42.2578 0.0000
# 6 0.0000 0.0000 0.0000 -11.4959 0.0000 18.0856
#
#
#
# Elastic Compliance Matrix: (Units=1/GPa)
#
#
# Indices 1 2 3 4 5 6 
#
# 1 0.012390 -0.003857 -0.003849 0.000000 -0.000294 0.000000
# 2 -0.003857 0.017329 -0.001262 0.000000 0.002379 0.000000
# 3 -0.003849 -0.001262 0.006649 0.000000 -0.000162 0.000000
# 4 0.000000 0.000000 0.000000 0.060118 0.000000 0.038213
# 5 -0.000294 0.002379 -0.000162 0.000000 0.023998 0.000000
# 6 0.000000 0.000000 0.000000 0.038213 0.000000 0.079582
#
#
# Mechanical properties :
#
#
# Convention : Reuss Voigt Hill
#
# Bulk Modulus (GPa) = 54.24952 70.91169 62.58061
# Shear Modulus (GPa) = 22.30696 33.22293 27.76495
#
# Velocity S-wave (km/s) = 3.27921 4.00191 3.65845
# Velocity P-wave (km/s) = 6.36309 7.45232 6.92914
#
# Compressibility (1/GPa) = 0.01843334
#
# Stress axis : x y z
#
# Youngs Moduli (GPa) = 80.70747 57.70785 150.39615
#
# Poissons Ratio (x) = 0.22257 0.57885
# Poissons Ratio (y) = 0.31128 0.18976
# Poissons Ratio (z) = 0.31063 0.07281
#
# Static dielectric constant tensor:
#      x y z
#    x 3.770300 0.000000 0.030210 
#    y 0.000000 1.327720 0.000000 
#    z 0.030210 0.000000 4.043820 
# 
# 
# High freq. dielectric constant tensor:
#      x y z
#    x 1.798930 0.000000 0.002360 
#    y 0.000000 1.796760 0.000000 
#    z 0.002360 0.000000 1.826650 
# 
# From -- ./inp_files/90035.got.cif
#   From: 2010.06.25/outbox.cif.g09.slc.cpg/sg10_46_cif.got.tgz:90035.got - 2010.06.27 22:07:45.
