data_PCOD8065152
_publ_section_title
;
Structure prediction by ZEFSAII (Michael W. Deem and Ramdas Pophale) SiO2 
 PCOD8065152
Probable space group: P 2/M
;
_chemical_formula_sum "Si O2"
_cell_formula_units_Z 32
_cell_length_a 12.119577
_cell_length_b 9.040665
_cell_length_c 31.299302
_cell_angle_alpha 90.000000
_cell_angle_beta 151.055166
_cell_angle_gamma 90.000000
_cell_volume 1659.734031
_symmetry_space_group_name_H-M "P 2/M"
_symmetry_group_IT_number 10
_symmetry_cell_setting 'monoclinic'
loop_
_space_group_symop_operation_xyz
x,y,z
-x,y,-z
-x,-y,-z
x,-y,z
loop_
_atom_site_type_symbol
_atom_site_label
_atom_site_fract_x
_atom_site_fract_y
_atom_site_fract_z
Si Si1 0.809057 0.327953 0.187329
Si Si2 0.969184 0.671636 0.078086
Si Si3 0.712164 0.174818 0.514863
Si Si4 0.510515 0.673219 0.765368
Si Si5 0.085024 0.176207 0.575865
Si Si6 0.233280 0.836724 0.911097
Si Si7 0.227104 0.825419 0.369796
Si Si8 0.593370 0.672502 0.887924
O O1 0.852226 0.500000 0.207177
O O2 0.823478 0.286081 0.142994
O O3 0.576873 0.277761 0.131918
O O4 0.005971 0.238124 0.275102
O O5 0.915057 0.500000 0.070419
O O6 0.238238 0.700688 0.168473
O O7 0.858234 0.777129 0.075341
O O8 0.848315 0.712100 0.991425
O O9 0.765438 0.238153 0.579724
O O10 0.449007 0.220689 0.416733
O O11 0.888244 0.240920 0.540294
O O12 0.738371 0.000000 0.522490
O O13 0.449105 0.500000 0.744514
O O14 0.326395 0.755081 0.672785
O O15 0.521164 0.742098 0.817444
O O16 0.000000 0.225718 0.500000
O O17 0.112582 0.000000 0.587246
O O18 0.123919 0.000000 0.865270
O O19 0.500000 0.856976 0.000000
O O20 0.213358 0.000000 0.367451
O O21 0.578743 0.500000 0.874216
#
# Coordination Sequence:
#
# PCOD8065152 Si02
#       8
#     4   4   4   4   4   4   4   4
#     4  11  21  33  54  83 114 148 186 223 274 332
#     4  10  20  37  60  83 113 152 188 225 273 332
#     4   8  16  33  55  76 102 142 184 224 277 334
#     4  10  21  37  59  87 113 143 188 233 276 327
#     4  10  21  37  56  77 106 145 185 226 280 337
#     4  11  23  38  55  77 108 145 186 228 269 316
#     4   9  17  32  54  78 105 139 184 231 273 322
#     4   9  18  34  57  83 114 151 185 222 271 332
#
# _framework density 19.280197999999999
#
# number of rings (size 3 to 8) (size 9 to 14) (size 15 to 20)
#    0.000    2.250    1.250    2.625    0.000    3.750 
#    0.000    4.375    0.000    1.500    0.000    0.000 
#    0.000    0.000    0.000    0.000    0.000    0.000 
#
# Total GULP energy -396496.545130 kJ/mol
# GULP energy per Si atom -12390.517035 kJ/mol
# Density = 1.923632 g / cm^3
# Si number density = 19.280198 Si / 1000 Ang^3
#
#
#
# Elastic Constant Matrix: (Units=GPa)
#
#
# Indices 1 2 3 4 5 6 
#
# 1 122.0863 58.0814 76.0926 0.0000 0.6846 0.0000
# 2 58.0814 123.4396 94.6713 0.0000 11.7493 0.0000
# 3 76.0926 94.6713 207.8832 0.0000 10.5300 0.0000
# 4 0.0000 0.0000 0.0000 38.3476 0.0000 2.1525
# 5 0.6846 11.7493 10.5300 0.0000 30.1309 0.0000
# 6 0.0000 0.0000 0.0000 2.1525 0.0000 13.8848
#
#
#
# Elastic Compliance Matrix: (Units=1/GPa)
#
#
# Indices 1 2 3 4 5 6 
#
# 1 0.011565 -0.003553 -0.002720 0.000000 0.002073 0.000000
# 2 -0.003553 0.013799 -0.004800 0.000000 -0.003623 0.000000
# 3 -0.002720 -0.004800 0.008037 0.000000 -0.000875 0.000000
# 4 0.000000 0.000000 0.000000 0.026306 0.000000 -0.004078
# 5 0.002073 -0.003623 -0.000875 0.000000 0.034860 0.000000
# 6 0.000000 0.000000 0.000000 -0.004078 0.000000 0.072653
#
#
# Mechanical properties :
#
#
# Convention : Reuss Voigt Hill
#
# Bulk Modulus (GPa) = 88.85660 101.23333 95.04496
# Shear Modulus (GPa) = 25.89099 31.44360 28.66729
#
# Velocity S-wave (km/s) = 3.66851 4.04279 3.86019
# Velocity P-wave (km/s) = 8.00818 8.62627 8.32297
#
# Compressibility (1/GPa) = 0.01125409
#
# Stress axis : x y z
#
# Youngs Moduli (GPa) = 86.46856 72.46848 124.43158
#
# Poissons Ratio (x) = 0.25745 0.33849
# Poissons Ratio (y) = 0.30719 0.59731
# Poissons Ratio (z) = 0.23522 0.34787
#
# Static dielectric constant tensor:
#      x y z
#    x 3.579190 0.000000 0.126440 
#    y 0.000000 2.886860 0.000000 
#    z 0.126440 0.000000 3.551750 
# 
# 
# High freq. dielectric constant tensor:
#      x y z
#    x 1.756750 0.000000 0.003200 
#    y 0.000000 1.718220 0.000000 
#    z 0.003200 0.000000 1.758290 
# 
# From -- ./inp_files/58121.got.cif
#   From: 2010.06.25/outbox.cif.g09.slc.cpg/sg10_30_cif.got.tgz:58121.got - 2010.06.27 22:07:45.
