data_PCOD8065868
_publ_section_title
;
Structure prediction by ZEFSAII (Michael W. Deem and Ramdas Pophale) SiO2 
 PCOD8065868
Probable space group: P 2/M
;
_chemical_formula_sum "Si O2"
_cell_formula_units_Z 24
_cell_length_a 15.467250
_cell_length_b 18.582099
_cell_length_c 8.958233
_cell_angle_alpha 90.000000
_cell_angle_beta 29.412748
_cell_angle_gamma 90.000000
_cell_volume 1264.439413
_symmetry_space_group_name_H-M "P 2/M"
_symmetry_group_IT_number 10
_symmetry_cell_setting 'monoclinic'
loop_
_space_group_symop_operation_xyz
x,y,z
-x,y,-z
-x,-y,-z
x,-y,z
loop_
_atom_site_type_symbol
_atom_site_label
_atom_site_fract_x
_atom_site_fract_y
_atom_site_fract_z
Si Si1 0.169942 0.832725 0.140247
Si Si2 0.817152 0.416669 0.193669
Si Si3 0.305893 0.683048 0.863171
Si Si4 0.830534 0.084992 0.162309
Si Si5 0.519953 0.837439 0.798955
Si Si6 0.525327 0.671114 0.795371
O O1 0.000000 0.834615 0.500000
O O2 0.191613 0.755362 0.028386
O O3 0.153169 0.890277 0.033430
O O4 0.335376 0.850061 0.995367
O O5 0.775107 0.500000 0.232368
O O6 0.808533 0.378380 0.045214
O O7 0.672899 0.381089 0.513470
O O8 0.000000 0.403828 0.000000
O O9 0.500000 0.696110 0.500000
O O10 0.342309 0.659950 0.979836
O O11 0.660532 0.115865 0.499772
O O12 0.813482 0.000000 0.187036
O O13 0.000000 0.111106 0.000000
O O14 0.583216 0.754522 0.698258
O O15 0.500000 0.863375 0.000000
O O16 0.500000 0.645222 0.000000
#
# Coordination Sequence:
#
# PCOD8065868 Si02
#       6
#     4   4   4   4   4   4
#     4  11  22  37  60  87 114 146 186 232 281 334
#     4  10  21  35  52  77 109 145 183 223 272 328
#     4   9  19  36  57  80 107 142 185 226 273 331
#     4  11  24  40  58  83 115 151 189 229 278 333
#     4  10  21  39  61  87 114 144 187 233 280 333
#     4   9  19  35  56  81 107 137 178 225 272 326
#
# _framework density 18.980744000000001
#
# number of rings (size 3 to 8) (size 9 to 14) (size 15 to 20)
#    0.000    2.000    0.000    4.500    0.000   12.000 
#    0.000    0.000    0.000    2.500    0.000    0.000 
#    0.000    0.000    0.000    0.000    0.000    0.000 
#
# Total GULP energy -297590.810615 kJ/mol
# GULP energy per Si atom -12399.617109 kJ/mol
# Density = 1.893754 g / cm^3
# Si number density = 18.980744 Si / 1000 Ang^3
#
#
#
# Elastic Constant Matrix: (Units=GPa)
#
#
# Indices 1 2 3 4 5 6 
#
# 1 147.0969 61.9806 55.1148 0.0000 9.0549 0.0000
# 2 61.9806 93.7358 51.8266 0.0000 -5.2362 0.0000
# 3 55.1148 51.8266 97.7556 0.0000 -7.4064 0.0000
# 4 0.0000 0.0000 0.0000 -16.5884 0.0000 -21.1616
# 5 9.0549 -5.2362 -7.4064 0.0000 32.3749 0.0000
# 6 0.0000 0.0000 0.0000 -21.1616 0.0000 16.9215
#
#
#
# Elastic Compliance Matrix: (Units=1/GPa)
#
#
# Indices 1 2 3 4 5 6 
#
# 1 0.010665 -0.005365 -0.003521 0.000000 -0.004656 0.000000
# 2 -0.005365 0.017803 -0.006189 0.000000 0.002964 0.000000
# 3 -0.003521 -0.006189 0.015768 0.000000 0.003591 0.000000
# 4 0.000000 0.000000 0.000000 -0.023227 0.000000 -0.029048
# 5 -0.004656 0.002964 0.003591 0.000000 0.033491 0.000000
# 6 0.000000 0.000000 0.000000 -0.029048 0.000000 0.022770
#
#
# Mechanical properties :
#
#
# Convention : Reuss Voigt Hill
#
# Bulk Modulus (GPa) = 70.99608 75.15912 73.07760
# Shear Modulus (GPa) = 44.59621 17.85271 31.22446
#
# Velocity S-wave (km/s) = 4.85247 3.07020 4.06033
# Velocity P-wave (km/s) = 8.29945 7.22853 7.78243
#
# Compressibility (1/GPa) = 0.01408528
#
# Stress axis : x y z
#
# Youngs Moduli (GPa) = 93.76620 56.16874 63.41814
#
# Poissons Ratio (x) = 0.30135 0.22331
# Poissons Ratio (y) = 0.50306 0.39252
# Poissons Ratio (z) = 0.33017 0.34765
#
# Static dielectric constant tensor:
#      x y z
#    x 4.291100 0.000000 0.068010 
#    y 0.000000 3.450500 0.000000 
#    z 0.068010 0.000000 3.167340 
# 
# 
# High freq. dielectric constant tensor:
#      x y z
#    x 1.763860 0.000000 0.002430 
#    y 0.000000 1.731780 0.000000 
#    z 0.002430 0.000000 1.729440 
# 
# From -- ./inp_files/20142.got.cif
#   From: 2010.06.25/outbox.cif.g09.slc.cpg/sg10_11_cif.got.tgz:20142.got - 2010.06.27 22:07:45.
