data_PCOD8065946
_publ_section_title
;
Structure prediction by ZEFSAII (Michael W. Deem and Ramdas Pophale) SiO2 
 PCOD8065946
Probable space group: P 2/M
;
_chemical_formula_sum "Si O2"
_cell_formula_units_Z 32
_cell_length_a 9.307926
_cell_length_b 9.383053
_cell_length_c 20.548216
_cell_angle_alpha 90.000000
_cell_angle_beta 89.999976
_cell_angle_gamma 90.000000
_cell_volume 1794.614670
_symmetry_space_group_name_H-M "P 2/M"
_symmetry_group_IT_number 10
_symmetry_cell_setting 'monoclinic'
loop_
_space_group_symop_operation_xyz
x,y,z
-x,y,-z
-x,-y,-z
x,-y,z
loop_
_atom_site_type_symbol
_atom_site_label
_atom_site_fract_x
_atom_site_fract_y
_atom_site_fract_z
Si Si1 0.416208 0.333412 0.671996
Si Si2 0.090953 0.669142 0.818092
Si Si3 0.416556 0.166775 0.436007
Si Si4 0.409048 0.330858 0.818092
Si Si5 0.083792 0.666588 0.671996
Si Si6 0.411296 0.670087 0.061683
Si Si7 0.088704 0.329913 0.061683
Si Si8 0.083444 0.833226 0.436007
O O1 0.443909 0.500000 0.661157
O O2 0.520763 0.246723 0.625864
O O3 0.457471 0.287066 0.745517
O O4 0.250000 0.296082 0.657623
O O5 0.097064 0.500000 0.822500
O O6 0.250000 0.730075 0.832838
O O7 0.042529 0.712934 0.745517
O O8 0.981595 0.730415 0.871848
O O9 0.500000 0.219643 0.500000
O O10 0.250000 0.205922 0.444515
O O11 0.440210 0.000000 0.424847
O O12 0.402938 0.500000 0.822500
O O13 0.518405 0.269585 0.871848
O O14 0.056090 0.500000 0.661157
O O15 0.979237 0.753276 0.625864
O O16 0.411458 0.500000 0.062007
O O17 0.250000 0.729720 0.057085
O O18 0.500000 0.727956 0.000000
O O19 0.088542 0.500000 0.062007
O O20 0.000000 0.272044 0.000000
O O21 0.000000 0.780358 0.500000
O O22 0.059790 0.000000 0.424847
#
# Coordination Sequence:
#
# PCOD8065946 Si02
#       8
#     4   4   4   4   4   4   4   4
#     4   9  18  32  50  72  97 125 156 191 234 282
#     4   8  14  25  39  56  82 114 146 182 224 269
#     4  10  21  36  53  72  94 122 156 193 233 277
#     4   8  14  25  39  56  82 114 146 182 224 269
#     4   9  18  32  50  72  97 125 156 191 234 282
#     4   9  15  21  31  49  75 110 150 187 223 265
#     4   9  15  21  31  49  75 110 150 187 223 265
#     4  10  21  36  53  72  94 122 156 193 233 277
#
# _framework density 17.831125
#
# number of rings (size 3 to 8) (size 9 to 14) (size 15 to 20)
#    0.000    3.000    0.000    3.000    0.000    6.500 
#    0.000    2.500    0.000    0.000    0.000    0.000 
#    0.000    1.000    0.000    3.250    0.000    7.250 
#
# Total GULP energy -396707.858336 kJ/mol
# GULP energy per Si atom -12397.120573 kJ/mol
# Density = 1.779054 g / cm^3
# Si number density = 17.831125 Si / 1000 Ang^3
#
#
#
# Elastic Constant Matrix: (Units=GPa)
#
#
# Indices 1 2 3 4 5 6 
#
# 1 155.7949 31.3627 108.1094 0.0000 0.0001 0.0000
# 2 31.3627 18.9540 32.1126 0.0000 0.0001 0.0000
# 3 108.1094 32.1126 168.9595 0.0000 0.0001 0.0000
# 4 0.0000 0.0000 0.0000 -5.0830 0.0000 0.0001
# 5 0.0001 0.0001 0.0001 0.0000 42.0602 0.0000
# 6 0.0000 0.0000 0.0000 0.0001 0.0000 18.8982
#
#
#
# Elastic Compliance Matrix: (Units=1/GPa)
#
#
# Indices 1 2 3 4 5 6 
#
# 1 0.012900 -0.010857 -0.006191 0.000000 0.000000 0.000000
# 2 -0.010857 0.086955 -0.009580 0.000000 0.000000 0.000000
# 3 -0.006191 -0.009580 0.011700 0.000000 0.000000 0.000000
# 4 0.000000 0.000000 0.000000 -0.196733 0.000000 0.000001
# 5 0.000000 0.000000 0.000000 0.000000 0.023775 0.000000
# 6 0.000000 0.000000 0.000000 0.000001 0.000000 0.052915
#
#
# Mechanical properties :
#
#
# Convention : Reuss Voigt Hill
#
# Bulk Modulus (GPa) = 17.15257 76.31976 46.73616
# Shear Modulus (GPa) = 77.87963 22.64997 50.26480
#
# Velocity S-wave (km/s) = 6.61597 3.56792 5.31513
# Velocity P-wave (km/s) = 8.24632 7.73743 7.99592
#
# Compressibility (1/GPa) = 0.05830031
#
# Stress axis : x y z
#
# Youngs Moduli (GPa) = 77.51832 11.50023 85.46660
#
# Poissons Ratio (x) = 0.12486 0.52910
# Poissons Ratio (y) = 0.84162 0.81875
# Poissons Ratio (z) = 0.47989 0.11017
#
# Static dielectric constant tensor:
#      x y z
#    x 3.522590 0.000000 0.000000 
#    y 0.000000 2.686910 0.000000 
#    z 0.000000 0.000000 3.539650 
# 
# 
# High freq. dielectric constant tensor:
#      x y z
#    x 1.698010 0.000000 0.000000 
#    y 0.000000 1.622000 0.000000 
#    z 0.000000 0.000000 1.706910 
# 
# From -- ./inp_files/74829.got.cif
#   From: 2010.06.25/outbox.cif.g09.slc.cpg/sg10_38_cif.got.tgz:74829.got - 2010.06.27 22:07:45.
