data_PCOD8065632
_publ_section_title
;
Structure prediction by ZEFSAII (Michael W. Deem and Ramdas Pophale) SiO2 
 PCOD8065632
Probable space group: P 2/M
;
_chemical_formula_sum "Si O2"
_cell_formula_units_Z 32
_cell_length_a 19.493494
_cell_length_b 14.631973
_cell_length_c 8.460902
_cell_angle_alpha 90.000000
_cell_angle_beta 139.197396
_cell_angle_gamma 90.000000
_cell_volume 1576.975459
_symmetry_space_group_name_H-M "P 2/M"
_symmetry_group_IT_number 10
_symmetry_cell_setting 'monoclinic'
loop_
_space_group_symop_operation_xyz
x,y,z
-x,y,-z
-x,-y,-z
x,-y,z
loop_
_atom_site_type_symbol
_atom_site_label
_atom_site_fract_x
_atom_site_fract_y
_atom_site_fract_z
Si Si1 0.028445 0.276266 0.223620
Si Si2 0.159589 0.103314 0.407819
Si Si3 0.311458 0.790147 0.473269
Si Si4 0.196429 0.602209 0.695814
Si Si5 0.735206 0.898947 0.079274
Si Si6 0.605609 0.664401 0.108589
Si Si7 0.525587 0.804091 0.715853
Si Si8 0.185007 0.269609 0.967258
O O1 0.061567 0.170164 0.265416
O O2 0.120857 0.338035 0.453985
O O3 0.932565 0.281719 0.176592
O O4 0.000000 0.314513 0.000000
O O5 0.223961 0.134789 0.364786
O O6 0.117772 0.000000 0.310372
O O7 0.239024 0.109903 0.691906
O O8 0.334126 0.725893 0.660017
O O9 0.418149 0.841804 0.607026
O O10 0.267350 0.726680 0.254874
O O11 0.151037 0.500000 0.637866
O O12 0.310036 0.592077 0.808656
O O13 0.209766 0.648320 0.890435
O O14 0.610214 0.884559 0.844280
O O15 0.762433 0.000000 0.062880
O O16 0.804346 0.827592 0.101570
O O17 0.500000 0.618982 0.000000
O O18 0.573762 0.724101 0.903262
O O19 0.500000 0.762184 0.500000
#
# Coordination Sequence:
#
# PCOD8065632 Si02
#       8
#     4   4   4   4   4   4   4   4
#     4  12  24  44  68  91 128 170 211 270 324 369
#     4  11  23  41  63  93 129 171 221 262 311 374
#     4  11  20  38  65  90 126 175 209 260 314 379
#     4  12  25  45  70  97 127 161 211 265 324 389
#     4  11  23  39  60  91 131 172 216 261 316 378
#     4  10  20  39  68  95 126 167 210 249 322 377
#     4  11  19  35  62  90 128 172 214 256 316 380
#     4  12  23  42  65  88 129 168 214 266 325 371
#
# _framework density 20.292010000000001
#
# number of rings (size 3 to 8) (size 9 to 14) (size 15 to 20)
#    0.000    0.750    7.500    0.375    0.000    3.500 
#    0.000    4.375    0.000    7.125    0.000    0.000 
#    0.000    0.000    0.000    0.000    0.000    0.000 
#
# Total GULP energy -396770.079672 kJ/mol
# GULP energy per Si atom -12399.064990 kJ/mol
# Density = 2.024582 g / cm^3
# Si number density = 20.292010 Si / 1000 Ang^3
#
#
#
# Elastic Constant Matrix: (Units=GPa)
#
#
# Indices 1 2 3 4 5 6 
#
# 1 137.8684 44.5306 31.0452 0.0000 13.3383 0.0000
# 2 44.5306 103.3598 33.4028 0.0000 -3.6875 0.0000
# 3 31.0452 33.4028 104.6863 0.0000 -17.5680 0.0000
# 4 0.0000 0.0000 0.0000 9.0815 0.0000 -2.2384
# 5 13.3383 -3.6875 -17.5680 0.0000 46.8510 0.0000
# 6 0.0000 0.0000 0.0000 -2.2384 0.0000 14.3060
#
#
#
# Elastic Compliance Matrix: (Units=1/GPa)
#
#
# Indices 1 2 3 4 5 6 
#
# 1 0.009218 -0.003366 -0.002289 0.000000 -0.003748 0.000000
# 2 -0.003366 0.012026 -0.002689 0.000000 0.000897 0.000000
# 3 -0.002289 -0.002689 0.011912 0.000000 0.004907 0.000000
# 4 0.000000 0.000000 0.000000 0.114530 0.000000 0.017920
# 5 -0.003748 0.000897 0.004907 0.000000 0.024322 0.000000
# 6 0.000000 0.000000 0.000000 0.017920 0.000000 0.072705
#
#
# Mechanical properties :
#
#
# Convention : Reuss Voigt Hill
#
# Bulk Modulus (GPa) = 60.71413 62.65241 61.68327
# Shear Modulus (GPa) = 18.73435 29.84343 24.28889
#
# Velocity S-wave (km/s) = 3.04178 3.83913 3.46348
# Velocity P-wave (km/s) = 6.50552 7.11297 6.81601
#
# Compressibility (1/GPa) = 0.01647063
#
# Stress axis : x y z
#
# Youngs Moduli (GPa) = 108.47999 83.15454 83.94610
#
# Poissons Ratio (x) = 0.27986 0.19213
# Poissons Ratio (y) = 0.36510 0.22570
# Poissons Ratio (z) = 0.24828 0.22357
#
# Static dielectric constant tensor:
#      x y z
#    x 3.985880 0.000000 -0.020690 
#    y 0.000000 3.353650 0.000000 
#    z -0.020690 0.000000 3.960070 
# 
# 
# High freq. dielectric constant tensor:
#      x y z
#    x 1.811540 0.000000 -0.001960 
#    y 0.000000 1.753710 0.000000 
#    z -0.001960 0.000000 1.810160 
# 
# From -- ./inp_files/35168.got.cif
#   From: 2010.06.25/outbox.cif.g09.slc.cpg/sg10_18_cif.got.tgz:35168.got - 2010.06.27 22:07:45.
