data_PCOD8065892
_publ_section_title
;
Structure prediction by ZEFSAII (Michael W. Deem and Ramdas Pophale) SiO2 
 PCOD8065892
Probable space group: P 2/M
;
_chemical_formula_sum "Si O2"
_cell_formula_units_Z 24
_cell_length_a 22.965326
_cell_length_b 8.939864
_cell_length_c 7.868856
_cell_angle_alpha 90.000000
_cell_angle_beta 131.976995
_cell_angle_gamma 90.000000
_cell_volume 1201.006968
_symmetry_space_group_name_H-M "P 2/M"
_symmetry_group_IT_number 10
_symmetry_cell_setting 'monoclinic'
loop_
_space_group_symop_operation_xyz
x,y,z
-x,y,-z
-x,-y,-z
x,-y,z
loop_
_atom_site_type_symbol
_atom_site_label
_atom_site_fract_x
_atom_site_fract_y
_atom_site_fract_z
Si Si1 0.852111 0.328365 0.350223
Si Si2 0.318660 0.676866 0.330344
Si Si3 0.839639 0.826994 0.982586
Si Si4 0.988622 0.339299 0.169747
Si Si5 0.408332 0.827321 0.804789
Si Si6 0.321033 0.328915 0.939949
O O1 0.858322 0.500000 0.295342
O O2 0.849959 0.207538 0.199024
O O3 0.770424 0.313147 0.292875
O O4 0.927902 0.278640 0.602953
O O5 0.318836 0.500000 0.346391
O O6 0.383135 0.742493 0.583615
O O7 0.234634 0.735507 0.232988
O O8 0.333836 0.724250 0.162256
O O9 0.920586 0.781353 0.052764
O O10 0.823758 0.000000 0.918648
O O11 0.967533 0.500000 0.218451
O O12 0.000000 0.376207 0.000000
O O13 0.369835 0.769357 0.903920
O O14 0.385801 0.000000 0.740069
O O15 0.500000 0.801863 0.000000
O O16 0.348970 0.500000 0.976915
#
# Coordination Sequence:
#
# PCOD8065892 Si02
#       6
#     4   4   4   4   4   4
#     4   9  19  37  58  82 112 153 202 246 291 346
#     4  10  22  42  67  91 119 159 208 254 298 356
#     4  11  22  36  56  84 116 153 195 243 302 355
#     4  10  21  35  54  81 114 156 201 245 291 342
#     4  11  25  42  62  93 130 163 193 238 307 374
#     4   9  20  39  64  92 119 158 209 256 299 350
#
# _framework density 19.983231
#
# number of rings (size 3 to 8) (size 9 to 14) (size 15 to 20)
#    0.000    2.000    0.000    4.000    2.333    8.333 
#    0.000    3.333    0.000    0.000    0.000    0.000 
#    0.000    0.000    0.000    0.000    0.000    0.000 
#
# Total GULP energy -297441.961133 kJ/mol
# GULP energy per Si atom -12393.415047 kJ/mol
# Density = 1.993775 g / cm^3
# Si number density = 19.983231 Si / 1000 Ang^3
#
#
#
# Elastic Constant Matrix: (Units=GPa)
#
#
# Indices 1 2 3 4 5 6 
#
# 1 103.6016 40.1751 31.7330 0.0000 5.8027 0.0000
# 2 40.1751 89.7234 35.8679 0.0000 2.5701 0.0000
# 3 31.7330 35.8679 107.0237 0.0000 5.8589 0.0000
# 4 0.0000 0.0000 0.0000 30.8593 0.0000 0.4201
# 5 5.8027 2.5701 5.8589 0.0000 22.7099 0.0000
# 6 0.0000 0.0000 0.0000 0.4201 0.0000 77.2824
#
#
#
# Elastic Compliance Matrix: (Units=1/GPa)
#
#
# Indices 1 2 3 4 5 6 
#
# 1 0.012150 -0.004603 -0.001946 0.000000 -0.002082 0.000000
# 2 -0.004603 0.014616 -0.003558 0.000000 0.000440 0.000000
# 3 -0.001946 -0.003558 0.011222 0.000000 -0.001995 0.000000
# 4 0.000000 0.000000 0.000000 0.032408 0.000000 -0.000176
# 5 -0.002082 0.000440 -0.001995 0.000000 0.045031 0.000000
# 6 0.000000 0.000000 0.000000 -0.000176 0.000000 0.012941
#
#
# Mechanical properties :
#
#
# Convention : Reuss Voigt Hill
#
# Bulk Modulus (GPa) = 56.25816 57.32231 56.79023
# Shear Modulus (GPa) = 32.36147 39.00849 35.68498
#
# Velocity S-wave (km/s) = 4.02858 4.42301 4.23039
# Velocity P-wave (km/s) = 7.06067 7.40483 7.23480
#
# Compressibility (1/GPa) = 0.01777520
#
# Stress axis : x y z
#
# Youngs Moduli (GPa) = 82.30534 68.41828 89.10835
#
# Poissons Ratio (x) = 0.31491 0.17340
# Poissons Ratio (y) = 0.37883 0.31702
# Poissons Ratio (z) = 0.16016 0.24341
#
# Static dielectric constant tensor:
#      x y z
#    x 3.220340 0.000000 -0.262660 
#    y 0.000000 3.563790 0.000000 
#    z -0.262660 0.000000 3.346830 
# 
# 
# High freq. dielectric constant tensor:
#      x y z
#    x 1.775530 0.000000 0.006780 
#    y 0.000000 1.773950 0.000000 
#    z 0.006780 0.000000 1.785750 
# 
# From -- ./inp_files/35714.got.cif
#   From: 2010.06.25/outbox.cif.g09.slc.cpg/sg10_18_cif.got.tgz:35714.got - 2010.06.27 22:07:45.
