data_PCOD8065048
_publ_section_title
;
Structure prediction by ZEFSAII (Michael W. Deem and Ramdas Pophale) SiO2 
 PCOD8065048
Probable space group: P 2/M
;
_chemical_formula_sum "Si O2"
_cell_formula_units_Z 30
_cell_length_a 12.086730
_cell_length_b 17.731855
_cell_length_c 14.979584
_cell_angle_alpha 90.000000
_cell_angle_beta 29.006322
_cell_angle_gamma 90.000000
_cell_volume 1556.755513
_symmetry_space_group_name_H-M "P 2/M"
_symmetry_group_IT_number 10
_symmetry_cell_setting 'monoclinic'
loop_
_space_group_symop_operation_xyz
x,y,z
-x,y,-z
-x,-y,-z
x,-y,z
loop_
_atom_site_type_symbol
_atom_site_label
_atom_site_fract_x
_atom_site_fract_y
_atom_site_fract_z
Si Si1 0.111578 0.310317 0.186673
Si Si2 0.402351 0.296819 0.447674
Si Si3 0.262179 0.415723 0.808108
Si Si4 0.243638 0.720428 0.287521
Si Si5 0.614083 0.214506 0.132636
Si Si6 0.543611 0.583727 0.131948
Si Si7 0.500000 0.167789 0.500000
Si Si8 0.266751 0.915651 0.822812
O O1 0.228897 0.275901 0.191561
O O2 0.848129 0.331066 0.390461
O O3 0.158095 0.250682 0.072784
O O4 0.232253 0.389445 0.079771
O O5 0.584963 0.357757 0.360216
O O6 0.523798 0.271685 0.271096
O O7 0.349391 0.224183 0.546323
O O8 0.259349 0.500000 0.767486
O O9 0.394244 0.417949 0.808136
O O10 0.000000 0.386443 0.000000
O O11 0.415244 0.787371 0.197963
O O12 0.333700 0.639364 0.258966
O O13 0.000000 0.737981 0.500000
O O14 0.661386 0.132890 0.141457
O O15 0.476698 0.500000 0.146584
O O16 0.645789 0.115329 0.332897
O O17 0.361739 0.000000 0.771500
O O18 0.000000 0.915614 0.000000
#
# Coordination Sequence:
#
# PCOD8065048 Si02
#       8
#     4   4   4   4   4   4   2   4
#     4  11  21  35  59  82 112 147 192 243 292 335
#     4  11  21  36  57  86 110 147 198 236 282 346
#     4  10  21  37  54  74 113 157 193 244 294 339
#     4  11  20  37  57  83 113 146 194 241 291 341
#     4  10  20  37  57  87 113 147 184 232 280 333
#     4  10  21  36  53  78 109 147 196 246 295 339
#     4  10  23  34  59  92 118 144 184 236 275 328
#     4  10  21  39  62  89 123 152 180 220 281 345
#
# _framework density 19.270848999999998
#
# number of rings (size 3 to 8) (size 9 to 14) (size 15 to 20)
#    0.000    1.600    4.000    2.600    1.867    4.000 
#    0.000    0.333    0.000    2.000    0.000    0.000 
#    0.000    0.000    0.000    0.000    0.000    0.000 
#
# Total GULP energy -371756.395945 kJ/mol
# GULP energy per Si atom -12391.879865 kJ/mol
# Density = 1.922699 g / cm^3
# Si number density = 19.270849 Si / 1000 Ang^3
#
#
#
# Elastic Constant Matrix: (Units=GPa)
#
#
# Indices 1 2 3 4 5 6 
#
# 1 57.1655 32.0916 33.4471 0.0000 0.8214 0.0000
# 2 32.0916 120.7377 52.9887 0.0000 -0.0281 0.0000
# 3 33.4471 52.9887 100.4768 0.0000 -9.9071 0.0000
# 4 0.0000 0.0000 0.0000 17.3932 0.0000 9.4417
# 5 0.8214 -0.0281 -9.9071 0.0000 37.2451 0.0000
# 6 0.0000 0.0000 0.0000 9.4417 0.0000 18.6400
#
#
#
# Elastic Compliance Matrix: (Units=1/GPa)
#
#
# Indices 1 2 3 4 5 6 
#
# 1 0.023001 -0.003464 -0.006039 0.000000 -0.002116 0.000000
# 2 -0.003464 0.011386 -0.004973 0.000000 -0.001238 0.000000
# 3 -0.006039 -0.004973 0.014991 0.000000 0.004117 0.000000
# 4 0.000000 0.000000 0.000000 0.079297 0.000000 -0.040166
# 5 -0.002116 -0.001238 0.004117 0.000000 0.027990 0.000000
# 6 0.000000 0.000000 0.000000 -0.040166 0.000000 0.073993
#
#
# Mechanical properties :
#
#
# Convention : Reuss Voigt Hill
#
# Bulk Modulus (GPa) = 48.95632 57.27052 53.11342
# Shear Modulus (GPa) = 18.76738 25.31251 22.03995
#
# Velocity S-wave (km/s) = 3.12408 3.62817 3.38552
# Velocity P-wave (km/s) = 6.20263 6.88003 6.55009
#
# Compressibility (1/GPa) = 0.02042637
#
# Stress axis : x y z
#
# Youngs Moduli (GPa) = 43.47600 87.83087 66.70461
#
# Poissons Ratio (x) = 0.30424 0.40280
# Poissons Ratio (y) = 0.15060 0.33175
# Poissons Ratio (z) = 0.26253 0.43682
#
# Static dielectric constant tensor:
#      x y z
#    x 3.676960 0.000000 0.087010 
#    y 0.000000 3.637280 0.000000 
#    z 0.087010 0.000000 3.407110 
# 
# 
# High freq. dielectric constant tensor:
#      x y z
#    x 1.749490 0.000000 0.005880 
#    y 0.000000 1.723500 0.000000 
#    z 0.005880 0.000000 1.761250 
# 
# From -- ./inp_files/65331.got.cif
#   From: 2010.06.25/outbox.cif.g09.slc.cpg/sg10_33_cif.got.tgz:65331.got - 2010.06.27 22:07:45.
