data_PCOD8065408
_publ_section_title
;
Structure prediction by ZEFSAII (Michael W. Deem and Ramdas Pophale) SiO2 
 PCOD8065408
Probable space group: P 2/M
;
_chemical_formula_sum "Si O2"
_cell_formula_units_Z 32
_cell_length_a 11.975603
_cell_length_b 14.238003
_cell_length_c 17.817158
_cell_angle_alpha 90.000000
_cell_angle_beta 148.987297
_cell_angle_gamma 90.000000
_cell_volume 1565.252645
_symmetry_space_group_name_H-M "P 2/M"
_symmetry_group_IT_number 10
_symmetry_cell_setting 'monoclinic'
loop_
_space_group_symop_operation_xyz
x,y,z
-x,y,-z
-x,-y,-z
x,-y,z
loop_
_atom_site_type_symbol
_atom_site_label
_atom_site_fract_x
_atom_site_fract_y
_atom_site_fract_z
Si Si1 0.388619 0.388266 0.859231
Si Si2 0.297651 0.706046 0.074914
Si Si3 0.631204 0.896852 0.418361
Si Si4 0.528167 0.295682 0.660788
Si Si5 0.072082 0.110119 0.618697
Si Si6 0.479889 0.103906 0.160179
Si Si7 0.881480 0.391281 0.774521
Si Si8 0.908807 0.608567 0.614266
O O1 0.402323 0.500000 0.863213
O O2 0.512829 0.347415 0.859673
O O3 0.137399 0.354925 0.712413
O O4 0.500000 0.352513 0.000000
O O5 0.337432 0.693044 0.185809
O O6 0.294127 0.816836 0.050017
O O7 0.063320 0.665113 0.923783
O O8 0.489000 0.814356 0.374006
O O9 0.582985 0.900325 0.302219
O O10 0.888907 0.870778 0.576963
O O11 0.578945 0.000000 0.423803
O O12 0.646295 0.352433 0.662799
O O13 0.286732 0.334643 0.535680
O O14 0.322849 0.137749 0.782310
O O15 0.000000 0.161723 0.500000
O O16 0.083244 0.000000 0.610006
O O17 0.386530 0.000000 0.084949
O O18 0.898078 0.500000 0.806003
O O19 0.914159 0.375201 0.706038
O O20 0.873815 0.500000 0.574679
#
# Coordination Sequence:
#
# PCOD8065408 Si02
#       8
#     4   4   4   4   4   4   4   4
#     4  10  20  38  60  82 112 153 192 224 283 366
#     4  11  22  35  59  89 116 148 188 238 292 337
#     4   8  15  29  48  75 114 151 181 219 279 347
#     4  11  23  35  57  92 116 140 193 250 287 316
#     4   7  10  20  40  64  96 139 174 204 253 321
#     4   8  15  28  48  78 114 147 182 225 277 338
#     4  11  23  42  61  77 110 160 200 229 280 356
#     4  10  22  40  61  82 109 150 193 234 285 346
#
# _framework density 20.443982999999999
#
# number of rings (size 3 to 8) (size 9 to 14) (size 15 to 20)
#    0.000    2.500    1.250    3.000    1.750    4.000 
#    0.000    1.875    0.000    5.625    0.000    0.000 
#    0.000    0.000    0.000    0.000    0.000    0.000 
#
# Total GULP energy -396524.451133 kJ/mol
# GULP energy per Si atom -12391.389098 kJ/mol
# Density = 2.039745 g / cm^3
# Si number density = 20.443983 Si / 1000 Ang^3
#
#
#
# Elastic Constant Matrix: (Units=GPa)
#
#
# Indices 1 2 3 4 5 6 
#
# 1 48.4227 22.1964 2.0514 0.0000 18.3013 0.0000
# 2 22.1964 79.3062 31.6331 0.0000 9.9066 0.0000
# 3 2.0514 31.6331 62.3704 0.0000 14.9981 0.0000
# 4 0.0000 0.0000 0.0000 8.0248 0.0000 16.8571
# 5 18.3013 9.9066 14.9981 0.0000 21.8969 0.0000
# 6 0.0000 0.0000 0.0000 16.8571 0.0000 23.6298
#
#
#
# Elastic Compliance Matrix: (Units=1/GPa)
#
#
# Indices 1 2 3 4 5 6 
#
# 1 0.039472 -0.011857 0.013598 0.000000 -0.036940 0.000000
# 2 -0.011857 0.019442 -0.011659 0.000000 0.009100 0.000000
# 3 0.013598 -0.011659 0.027492 0.000000 -0.024921 0.000000
# 4 0.000000 0.000000 0.000000 -0.249949 0.000000 0.178309
# 5 -0.036940 0.009100 -0.024921 0.000000 0.089495 0.000000
# 6 0.000000 0.000000 0.000000 0.178309 0.000000 -0.084884
#
#
# Mechanical properties :
#
#
# Convention : Reuss Voigt Hill
#
# Bulk Modulus (GPa) = 15.02162 33.54011 24.28086
# Shear Modulus (GPa) = -42.76912 19.65819 -11.55547
#
# Velocity S-wave (km/s) = -4.57882 3.10427 -2.38003
# Velocity P-wave (km/s) = 4.53767 5.41204 2.08563
#
# Compressibility (1/GPa) = 0.06657072
#
# Stress axis : x y z
#
# Youngs Moduli (GPa) = 25.33437 51.43624 36.37452
#
# Poissons Ratio (x) = 0.60989 -0.49464
# Poissons Ratio (y) = 0.30039 0.42408
# Poissons Ratio (z) = -0.34451 0.59968
#
# Static dielectric constant tensor:
#      x y z
#    x 3.476530 0.000000 0.318850 
#    y 0.000000 3.909610 0.000000 
#    z 0.318850 0.000000 3.589660 
# 
# 
# High freq. dielectric constant tensor:
#      x y z
#    x 1.773110 0.000000 0.025060 
#    y 0.000000 1.805880 0.000000 
#    z 0.025060 0.000000 1.777460 
# 
# From -- ./inp_files/77028.got.cif
#   From: 2010.06.25/outbox.cif.g09.slc.cpg/sg10_39_cif.got.tgz:77028.got - 2010.06.27 22:07:45.
