data_PCOD8065501
_publ_section_title
;
Structure prediction by ZEFSAII (Michael W. Deem and Ramdas Pophale) SiO2 
 PCOD8065501
Probable space group: P 2/M
;
_chemical_formula_sum "Si O2"
_cell_formula_units_Z 28
_cell_length_a 9.829645
_cell_length_b 7.921331
_cell_length_c 29.014261
_cell_angle_alpha 90.000000
_cell_angle_beta 142.130687
_cell_angle_gamma 90.000000
_cell_volume 1386.815231
_symmetry_space_group_name_H-M "P 2/M"
_symmetry_group_IT_number 10
_symmetry_cell_setting 'monoclinic'
loop_
_space_group_symop_operation_xyz
x,y,z
-x,y,-z
-x,-y,-z
x,-y,z
loop_
_atom_site_type_symbol
_atom_site_label
_atom_site_fract_x
_atom_site_fract_y
_atom_site_fract_z
Si Si1 0.131218 0.308239 0.624674
Si Si2 0.641419 0.500000 0.972605
Si Si3 0.841074 0.500000 0.125691
Si Si4 0.258506 0.812727 0.062204
Si Si5 0.439642 0.306508 0.625938
Si Si6 0.843642 0.808517 0.785321
Si Si7 0.464643 0.803898 0.213460
Si Si8 0.346170 0.807568 0.500271
O O1 0.052965 0.500000 0.598100
O O2 0.237169 0.241645 0.604527
O O3 0.312112 0.295435 0.713799
O O4 0.914527 0.202809 0.581432
O O5 0.379033 0.500000 0.903604
O O6 0.706860 0.674088 0.966787
O O7 0.776184 0.500000 0.055442
O O8 0.967312 0.671396 0.173472
O O9 0.383339 0.749287 0.141458
O O10 0.347614 0.000000 0.071462
O O11 0.000000 0.829147 0.000000
O O12 0.486704 0.500000 0.651853
O O13 0.659698 0.199872 0.695812
O O14 0.383736 0.294151 0.557356
O O15 0.731743 0.758906 0.803822
O O16 0.941199 0.000000 0.812287
O O17 0.521362 0.000000 0.231618
O O18 0.500000 0.733201 0.500000
O O19 0.415388 0.000000 0.527203
#
# Coordination Sequence:
#
# PCOD8065501 Si02
#       8
#     4   2   2   4   4   4   4   4
#     4  10  21  36  59  88 116 153 197 252 305 355
#     4  11  25  40  60  86 124 163 201 243 301 362
#     4  11  24  42  58  88 121 161 208 245 286 364
#     4  10  21  39  62  92 122 155 200 252 306 362
#     4  10  20  38  63  90 118 148 203 256 297 360
#     4  10  20  38  64  90 118 157 198 248 302 346
#     4   9  19  35  60  90 118 149 195 247 302 361
#     4  11  24  40  56  82 120 161 203 246 300 363
#
# _framework density 20.190142999999999
#
# number of rings (size 3 to 8) (size 9 to 14) (size 15 to 20)
#    0.000    1.857    0.714    2.786    2.000    6.857 
#    2.571    1.429    0.000    0.000    0.000    0.000 
#    0.000    0.000    0.000    0.000    0.000    0.000 
#
# Total GULP energy -347189.269130 kJ/mol
# GULP energy per Si atom -12399.616755 kJ/mol
# Density = 2.014419 g / cm^3
# Si number density = 20.190143 Si / 1000 Ang^3
#
#
#
# Elastic Constant Matrix: (Units=GPa)
#
#
# Indices 1 2 3 4 5 6 
#
# 1 104.0414 38.9220 76.0324 0.0000 -12.9511 0.0000
# 2 38.9220 96.7581 46.1904 0.0000 -2.6679 0.0000
# 3 76.0324 46.1904 165.9458 0.0000 -43.6756 0.0000
# 4 0.0000 0.0000 0.0000 31.3291 0.0000 -1.4465
# 5 -12.9511 -2.6679 -43.6756 0.0000 61.9403 0.0000
# 6 0.0000 0.0000 0.0000 -1.4465 0.0000 33.3835
#
#
#
# Elastic Compliance Matrix: (Units=1/GPa)
#
#
# Indices 1 2 3 4 5 6 
#
# 1 0.015401 -0.003082 -0.006613 0.000000 -0.001576 0.000000
# 2 -0.003082 0.012794 -0.002669 0.000000 -0.001975 0.000000
# 3 -0.006613 -0.002669 0.011548 0.000000 0.006645 0.000000
# 4 0.000000 0.000000 0.000000 0.031983 0.000000 0.001386
# 5 -0.001576 -0.001975 0.006645 0.000000 0.020416 0.000000
# 6 0.000000 0.000000 0.000000 0.001386 0.000000 0.030015
#
#
# Mechanical properties :
#
#
# Convention : Reuss Voigt Hill
#
# Bulk Modulus (GPa) = 66.59969 76.55944 71.57956
# Shear Modulus (GPa) = 32.91822 39.03728 35.97775
#
# Velocity S-wave (km/s) = 4.04221 4.40191 4.22589
# Velocity P-wave (km/s) = 7.40566 7.98982 7.70328
#
# Compressibility (1/GPa) = 0.01501509
#
# Stress axis : x y z
#
# Youngs Moduli (GPa) = 64.92948 78.15883 86.59416
#
# Poissons Ratio (x) = 0.24086 0.57269
# Poissons Ratio (y) = 0.20009 0.23114
# Poissons Ratio (z) = 0.42941 0.20863
#
# Static dielectric constant tensor:
#      x y z
#    x 3.548220 0.000000 0.011100 
#    y 0.000000 3.730780 0.000000 
#    z 0.011100 0.000000 3.648060 
# 
# 
# High freq. dielectric constant tensor:
#      x y z
#    x 1.762880 0.000000 0.000030 
#    y 0.000000 1.797890 0.000000 
#    z 0.000030 0.000000 1.796240 
# 
# From -- ./inp_files/92175.got.cif
#   From: 2010.06.25/outbox.cif.g09.slc.cpg/sg10_47_cif.got.tgz:92175.got - 2010.06.27 22:07:45.
