data_PCOD8065558
_publ_section_title
;
Structure prediction by ZEFSAII (Michael W. Deem and Ramdas Pophale) SiO2 
 PCOD8065558
Probable space group: P 2/M
;
_chemical_formula_sum "Si O2"
_cell_formula_units_Z 28
_cell_length_a 28.155280
_cell_length_b 7.836176
_cell_length_c 9.823902
_cell_angle_alpha 90.000000
_cell_angle_beta 40.827372
_cell_angle_gamma 90.000000
_cell_volume 1417.036790
_symmetry_space_group_name_H-M "P 2/M"
_symmetry_group_IT_number 10
_symmetry_cell_setting 'monoclinic'
loop_
_space_group_symop_operation_xyz
x,y,z
-x,y,-z
-x,-y,-z
x,-y,z
loop_
_atom_site_type_symbol
_atom_site_label
_atom_site_fract_x
_atom_site_fract_y
_atom_site_fract_z
Si Si1 0.055081 0.798782 0.765240
Si Si2 0.789271 0.797948 0.465855
Si Si3 0.308399 0.691102 0.818290
Si Si4 0.565589 0.000000 0.173771
Si Si5 0.593556 0.000000 0.430802
Si Si6 0.334845 0.691997 0.069439
Si Si7 0.189077 0.805752 0.887441
Si Si8 0.031987 0.694354 0.292313
O O1 0.135356 0.739100 0.630783
O O2 0.032694 0.706002 0.675737
O O3 0.050139 0.000000 0.754734
O O4 0.000000 0.736434 0.000000
O O5 0.725839 0.703483 0.683466
O O6 0.788201 0.737940 0.311115
O O7 0.779421 0.000000 0.499431
O O8 0.340278 0.500000 0.729717
O O9 0.229819 0.699546 0.916539
O O10 0.361751 0.828052 0.631200
O O11 0.299443 0.732351 0.998328
O O12 0.573292 0.000000 0.317853
O O13 0.480244 0.000000 0.319773
O O14 0.602097 0.171359 0.034106
O O15 0.367578 0.500000 0.000698
O O16 0.213735 0.000000 0.849685
O O17 0.102436 0.797595 0.091209
O O18 0.055933 0.500000 0.263723
O O19 0.000000 0.774273 0.500000
#
# Coordination Sequence:
#
# PCOD8065558 Si02
#       8
#     4   4   4   2   2   4   4   4
#     4  10  20  39  59  78 106 143 194 245 289 341
#     4  10  21  37  59  83 113 151 195 247 293 345
#     4  10  21  37  58  89 122 153 197 238 282 349
#     4   9  18  36  61  89 127 147 193 235 280 347
#     4   9  18  36  61  91 119 161 183 232 294 338
#     4  10  21  36  59  89 120 156 192 236 292 341
#     4  11  22  39  61  82 111 154 200 241 294 349
#     4  11  25  40  53  79 116 150 192 246 297 345
#
# _framework density 19.759544000000002
#
# number of rings (size 3 to 8) (size 9 to 14) (size 15 to 20)
#    0.000    1.857    2.857    0.857    2.000    3.714 
#    0.000    2.857    0.000    1.714    0.000    2.000 
#    0.000    0.000    0.000    0.000    0.000    0.000 
#
# Total GULP energy -347242.531879 kJ/mol
# GULP energy per Si atom -12401.518996 kJ/mol
# Density = 1.971457 g / cm^3
# Si number density = 19.759544 Si / 1000 Ang^3
#
#
#
# Elastic Constant Matrix: (Units=GPa)
#
#
# Indices 1 2 3 4 5 6 
#
# 1 60.4082 22.7322 37.9935 0.0000 10.7800 0.0000
# 2 22.7322 93.0719 42.8329 0.0000 -3.1207 0.0000
# 3 37.9935 42.8329 125.6160 0.0000 1.5379 0.0000
# 4 0.0000 0.0000 0.0000 18.4233 0.0000 1.9630
# 5 10.7800 -3.1207 1.5379 0.0000 29.8344 0.0000
# 6 0.0000 0.0000 0.0000 1.9630 0.0000 36.4359
#
#
#
# Elastic Compliance Matrix: (Units=1/GPa)
#
#
# Indices 1 2 3 4 5 6 
#
# 1 0.022838 -0.003231 -0.005704 0.000000 -0.008296 0.000000
# 2 -0.003231 0.013274 -0.003583 0.000000 0.002741 0.000000
# 3 -0.005704 -0.003583 0.010894 0.000000 0.001125 0.000000
# 4 0.000000 0.000000 0.000000 0.054593 0.000000 -0.002941
# 5 -0.008296 0.002741 0.001125 0.000000 0.036745 0.000000
# 6 0.000000 0.000000 0.000000 -0.002941 0.000000 0.027604
#
#
# Mechanical properties :
#
#
# Convention : Reuss Voigt Hill
#
# Bulk Modulus (GPa) = 45.51580 54.02369 49.76975
# Shear Modulus (GPa) = 25.21353 28.64123 26.92738
#
# Velocity S-wave (km/s) = 3.57601 3.81134 3.69555
# Velocity P-wave (km/s) = 6.33525 6.83874 6.59180
#
# Compressibility (1/GPa) = 0.02197039
#
# Stress axis : x y z
#
# Youngs Moduli (GPa) = 43.78668 75.33419 91.79469
#
# Poissons Ratio (x) = 0.24341 0.52362
# Poissons Ratio (y) = 0.14148 0.32886
# Poissons Ratio (z) = 0.24977 0.26989
#
# Static dielectric constant tensor:
#      x y z
#    x 3.499100 0.000000 -0.008160 
#    y 0.000000 3.565120 0.000000 
#    z -0.008160 0.000000 3.548840 
# 
# 
# High freq. dielectric constant tensor:
#      x y z
#    x 1.755270 0.000000 0.002310 
#    y 0.000000 1.775450 0.000000 
#    z 0.002310 0.000000 1.757840 
# 
# From -- ./inp_files/37187.got.cif
#   From: 2010.06.25/outbox.cif.g09.slc.cpg/sg10_19_cif.got.tgz:37187.got - 2010.06.27 22:07:45.
