data_PCOD8065140
_publ_section_title
;
Structure prediction by ZEFSAII (Michael W. Deem and Ramdas Pophale) SiO2 
 PCOD8065140
Probable space group: P 2/M
;
_chemical_formula_sum "Si O2"
_cell_formula_units_Z 28
_cell_length_a 19.728121
_cell_length_b 9.565976
_cell_length_c 14.563913
_cell_angle_alpha 90.000000
_cell_angle_beta 32.414762
_cell_angle_gamma 90.000000
_cell_volume 1473.308790
_symmetry_space_group_name_H-M "P 2/M"
_symmetry_group_IT_number 10
_symmetry_cell_setting 'monoclinic'
loop_
_space_group_symop_operation_xyz
x,y,z
-x,y,-z
-x,-y,-z
x,-y,z
loop_
_atom_site_type_symbol
_atom_site_label
_atom_site_fract_x
_atom_site_fract_y
_atom_site_fract_z
Si Si1 0.565496 0.839705 0.719934
Si Si2 0.714669 0.160889 0.992276
Si Si3 0.196779 0.159336 0.912787
Si Si4 0.031469 0.344293 0.857866
Si Si5 0.857100 0.663442 0.690468
Si Si6 0.256040 0.158808 0.642440
Si Si7 0.635911 0.662980 0.802245
O O1 0.420985 0.788250 0.889303
O O2 0.611548 0.823219 0.561740
O O3 0.650493 0.747262 0.690810
O O4 0.576757 0.000000 0.738794
O O5 0.711108 0.180554 0.106398
O O6 0.740022 0.000000 0.937522
O O7 0.823535 0.253579 0.821471
O O8 0.270296 0.198311 0.734075
O O9 0.147057 0.000000 0.964292
O O10 0.078823 0.260342 0.066714
O O11 0.044160 0.500000 0.800625
O O12 0.160708 0.260296 0.697966
O O13 0.000000 0.353815 0.000000
O O14 0.847764 0.500000 0.722909
O O15 0.754706 0.706142 0.729956
O O16 0.000000 0.705323 0.500000
O O17 0.205529 0.000000 0.691570
O O18 0.640726 0.500000 0.773775
O O19 0.500000 0.704700 0.000000
#
# Coordination Sequence:
#
# PCOD8065140 Si02
#       7
#     4   4   4   4   4   4   4
#     4  10  21  35  55  83 110 141 184 229 271 321
#     4  10  21  36  55  81 110 142 182 226 274 325
#     4   9  18  33  53  76 109 149 181 217 269 327
#     4   9  17  30  49  73 101 136 181 228 269 312
#     4  10  22  40  60  83 111 142 180 227 279 336
#     4   9  18  33  52  77 110 146 182 220 266 323
#     4  10  20  37  60  82 106 143 184 222 275 336
#
# _framework density 19.004843000000001
#
# number of rings (size 3 to 8) (size 9 to 14) (size 15 to 20)
#    0.000    2.429    1.429    0.429    0.000    5.714 
#    0.000    5.714    0.000    0.000    0.000    6.000 
#    0.000    0.000    0.000    0.000    0.000    0.000 
#
# Total GULP energy -347128.813544 kJ/mol
# GULP energy per Si atom -12397.457627 kJ/mol
# Density = 1.896159 g / cm^3
# Si number density = 19.004843 Si / 1000 Ang^3
#
#
#
# Elastic Constant Matrix: (Units=GPa)
#
#
# Indices 1 2 3 4 5 6 
#
# 1 103.0250 40.8465 49.1515 0.0000 0.1414 0.0000
# 2 40.8465 73.1831 41.9277 0.0000 2.3777 0.0000
# 3 49.1515 41.9277 109.5892 0.0000 -1.0670 0.0000
# 4 0.0000 0.0000 0.0000 23.1110 0.0000 0.5873
# 5 0.1414 2.3777 -1.0670 0.0000 28.2963 0.0000
# 6 0.0000 0.0000 0.0000 0.5873 0.0000 24.9528
#
#
#
# Elastic Compliance Matrix: (Units=1/GPa)
#
#
# Indices 1 2 3 4 5 6 
#
# 1 0.013799 -0.005333 -0.004146 0.000000 0.000223 0.000000
# 2 -0.005333 0.019646 -0.005142 0.000000 -0.001818 0.000000
# 3 -0.004146 -0.005142 0.012961 0.000000 0.000942 0.000000
# 4 0.000000 0.000000 0.000000 0.043295 0.000000 -0.001019
# 5 0.000223 -0.001818 0.000942 0.000000 0.035527 0.000000
# 6 0.000000 0.000000 0.000000 -0.001019 0.000000 0.040100
#
#
# Mechanical properties :
#
#
# Convention : Reuss Voigt Hill
#
# Bulk Modulus (GPa) = 58.26604 61.07207 59.66906
# Shear Modulus (GPa) = 24.96349 25.53012 25.24680
#
# Velocity S-wave (km/s) = 3.62820 3.66915 3.64873
# Velocity P-wave (km/s) = 6.94816 7.08202 7.01541
#
# Compressibility (1/GPa) = 0.01716265
#
# Stress axis : x y z
#
# Youngs Moduli (GPa) = 72.47066 50.90036 77.15453
#
# Poissons Ratio (x) = 0.27148 0.31989
# Poissons Ratio (y) = 0.38652 0.39673
# Poissons Ratio (z) = 0.30047 0.26173
#
# Static dielectric constant tensor:
#      x y z
#    x 3.375000 0.000000 -0.041990 
#    y 0.000000 3.571170 0.000000 
#    z -0.041990 0.000000 3.365520 
# 
# 
# High freq. dielectric constant tensor:
#      x y z
#    x 1.730980 0.000000 0.001870 
#    y 0.000000 1.736400 0.000000 
#    z 0.001870 0.000000 1.729510 
# 
# From -- ./inp_files/68606.got.cif
#   From: 2010.06.25/outbox.cif.g09.slc.cpg/sg10_35_cif.got.tgz:68606.got - 2010.06.27 22:07:45.
