data_PCOD8065438
_publ_section_title
;
Structure prediction by ZEFSAII (Michael W. Deem and Ramdas Pophale) SiO2 
 PCOD8065438
Probable space group: P 2/M
;
_chemical_formula_sum "Si O2"
_cell_formula_units_Z 28
_cell_length_a 12.570655
_cell_length_b 8.940495
_cell_length_c 13.572260
_cell_angle_alpha 90.000000
_cell_angle_beta 67.674472
_cell_angle_gamma 90.000000
_cell_volume 1411.017560
_symmetry_space_group_name_H-M "P 2/M"
_symmetry_group_IT_number 10
_symmetry_cell_setting 'monoclinic'
loop_
_space_group_symop_operation_xyz
x,y,z
-x,y,-z
-x,-y,-z
x,-y,z
loop_
_atom_site_type_symbol
_atom_site_label
_atom_site_fract_x
_atom_site_fract_y
_atom_site_fract_z
Si Si1 0.487365 0.827719 0.293253
Si Si2 0.596342 0.823043 0.890233
Si Si3 0.120867 0.322338 0.422962
Si Si4 0.168592 0.322867 0.188294
Si Si5 0.678228 0.677384 0.505360
Si Si6 0.732367 0.827629 0.280306
Si Si7 0.961102 0.324407 0.122907
O O1 0.436813 0.765740 0.207837
O O2 0.438873 0.734525 0.403018
O O3 0.625480 0.809759 0.242783
O O4 0.452573 0.000000 0.320859
O O5 0.713565 0.751075 0.889152
O O6 0.608663 0.000000 0.886621
O O7 0.500000 0.768408 0.000000
O O8 0.115227 0.500000 0.423882
O O9 0.145994 0.261626 0.305624
O O10 0.218093 0.265517 0.462579
O O11 0.000000 0.253838 0.500000
O O12 0.182770 0.500000 0.178742
O O13 0.062541 0.269500 0.158912
O O14 0.673022 0.500000 0.498020
O O15 0.698452 0.744471 0.391735
O O16 0.843804 0.758440 0.190187
O O17 0.756870 0.000000 0.295897
O O18 0.938396 0.500000 0.142785
O O19 0.000000 0.281363 0.000000
#
# Coordination Sequence:
#
# PCOD8065438 Si02
#       7
#     4   4   4   4   4   4   4
#     4  10  22  40  59  85 122 159 195 243 296 350
#     4  10  22  39  61  87 118 156 198 243 293 347
#     4   9  17  31  54  82 113 150 186 228 285 344
#     4  10  20  38  61  87 119 152 191 241 297 348
#     4  11  21  36  60  89 119 154 198 244 295 352
#     4  11  24  40  60  86 120 162 201 239 293 354
#     4  10  23  42  63  89 120 155 197 247 296 346
#
# _framework density 19.843834999999999
#
# number of rings (size 3 to 8) (size 9 to 14) (size 15 to 20)
#    0.000    1.857    1.429    2.143    2.000    6.286 
#    0.000    0.000    0.000    2.143    0.000    0.000 
#    0.000    0.000    0.000    0.000    0.000    0.000 
#
# Total GULP energy -347281.959515 kJ/mol
# GULP energy per Si atom -12402.927126 kJ/mol
# Density = 1.979867 g / cm^3
# Si number density = 19.843835 Si / 1000 Ang^3
#
#
#
# Elastic Constant Matrix: (Units=GPa)
#
#
# Indices 1 2 3 4 5 6 
#
# 1 127.2852 39.1307 47.6050 0.0000 -17.1408 0.0000
# 2 39.1307 58.7173 43.0267 0.0000 -8.1923 0.0000
# 3 47.6050 43.0267 117.4393 0.0000 -18.5717 0.0000
# 4 0.0000 0.0000 0.0000 26.2856 0.0000 -9.1987
# 5 -17.1408 -8.1923 -18.5717 0.0000 40.7251 0.0000
# 6 0.0000 0.0000 0.0000 -9.1987 0.0000 26.5225
#
#
#
# Elastic Compliance Matrix: (Units=1/GPa)
#
#
# Indices 1 2 3 4 5 6 
#
# 1 0.010534 -0.005239 -0.001957 0.000000 0.002487 0.000000
# 2 -0.005239 0.025914 -0.007431 0.000000 -0.000381 0.000000
# 3 -0.001957 -0.007431 0.012571 0.000000 0.003414 0.000000
# 4 0.000000 0.000000 0.000000 0.043299 0.000000 0.015017
# 5 0.002487 -0.000381 0.003414 0.000000 0.027082 0.000000
# 6 0.000000 0.000000 0.000000 0.015017 0.000000 0.042912
#
#
# Mechanical properties :
#
#
# Convention : Reuss Voigt Hill
#
# Bulk Modulus (GPa) = 50.59486 62.55183 56.57335
# Shear Modulus (GPa) = 25.23289 30.28527 27.75908
#
# Velocity S-wave (km/s) = 3.56978 3.91087 3.74421
# Velocity P-wave (km/s) = 6.52250 7.20997 6.87484
#
# Compressibility (1/GPa) = 0.01976485
#
# Stress axis : x y z
#
# Youngs Moduli (GPa) = 94.93181 38.58915 79.54929
#
# Poissons Ratio (x) = 0.20216 0.15570
# Poissons Ratio (y) = 0.49732 0.59112
# Poissons Ratio (z) = 0.18581 0.28675
#
# Static dielectric constant tensor:
#      x y z
#    x 3.844920 0.000000 0.006680 
#    y 0.000000 3.356210 0.000000 
#    z 0.006680 0.000000 3.690900 
# 
# 
# High freq. dielectric constant tensor:
#      x y z
#    x 1.791210 0.000000 -0.002520 
#    y 0.000000 1.753060 0.000000 
#    z -0.002520 0.000000 1.781450 
# 
# From -- ./inp_files/63669.got.cif
#   From: 2010.06.25/outbox.cif.g09.slc.cpg/sg10_32_cif.got.tgz:63669.got - 2010.06.27 22:07:45.
