data_PCOD8065504
_publ_section_title
;
Structure prediction by ZEFSAII (Michael W. Deem and Ramdas Pophale) SiO2 
 PCOD8065504
Probable space group: P 2/M
;
_chemical_formula_sum "Si O2"
_cell_formula_units_Z 32
_cell_length_a 14.327920
_cell_length_b 17.731193
_cell_length_c 11.907973
_cell_angle_alpha 90.000000
_cell_angle_beta 28.484076
_cell_angle_gamma 90.000000
_cell_volume 1442.777859
_symmetry_space_group_name_H-M "P 2/M"
_symmetry_group_IT_number 10
_symmetry_cell_setting 'monoclinic'
loop_
_space_group_symop_operation_xyz
x,y,z
-x,y,-z
-x,-y,-z
x,-y,z
loop_
_atom_site_type_symbol
_atom_site_label
_atom_site_fract_x
_atom_site_fract_y
_atom_site_fract_z
Si Si1 0.007966 0.342385 0.107523
Si Si2 0.270379 0.415902 0.265550
Si Si3 0.650124 0.685375 0.621814
Si Si4 0.073705 0.173170 0.295101
Si Si5 0.275561 0.202384 0.752243
Si Si6 0.351275 0.914084 0.866993
Si Si7 0.257371 0.844042 0.524770
Si Si8 0.205430 0.656488 0.111118
O O1 0.103323 0.384710 0.112685
O O2 0.779216 0.324844 0.373049
O O3 0.138864 0.267520 0.947924
O O4 0.000000 0.390651 0.000000
O O5 0.206882 0.500000 0.369220
O O6 0.225533 0.354296 0.409107
O O7 0.154396 0.392371 0.275137
O O8 0.500000 0.412381 0.000000
O O9 0.632952 0.774770 0.656169
O O10 0.435226 0.651525 0.841041
O O11 0.121239 0.259576 0.214070
O O12 0.000000 0.165742 0.500000
O O13 0.923214 0.136573 0.364374
O O14 0.263456 0.121247 0.075061
O O15 0.500000 0.231835 0.500000
O O16 0.278917 0.132786 0.835402
O O17 0.186428 0.175939 0.726594
O O18 0.586659 0.911462 0.631598
O O19 0.285496 0.000000 0.920272
#
# Coordination Sequence:
#
# PCOD8065504 Si02
#       8
#     4   4   4   4   4   4   4   4
#     4  12  22  34  60  96 127 161 215 258 297 371
#     4   9  21  40  65  98 132 163 204 259 321 374
#     4  11  20  37  63  92 125 166 206 256 310 370
#     4  12  24  39  63  89 121 164 217 260 302 375
#     4  10  20  38  63  90 126 158 206 267 318 360
#     4  11  25  43  62  91 126 162 206 259 324 388
#     4  11  21  40  64  90 124 162 207 262 317 360
#     4  11  21  37  63  92 125 163 209 261 317 357
#
# _framework density 22.179437
#
# number of rings (size 3 to 8) (size 9 to 14) (size 15 to 20)
#    0.000    1.125    5.000    1.500    0.000    3.500 
#    0.000    2.500    0.000    1.500    0.000    3.500 
#    0.000    0.000    0.000    0.000    0.000    0.000 
#
# Total GULP energy -396585.670781 kJ/mol
# GULP energy per Si atom -12393.302212 kJ/mol
# Density = 2.212896 g / cm^3
# Si number density = 22.179437 Si / 1000 Ang^3
#
#
#
# Elastic Constant Matrix: (Units=GPa)
#
#
# Indices 1 2 3 4 5 6 
#
# 1 151.9927 19.6802 39.0591 0.0000 21.5774 0.0000
# 2 19.6802 73.0614 14.7565 0.0000 16.2140 0.0000
# 3 39.0591 14.7565 109.0630 0.0000 24.5539 0.0000
# 4 0.0000 0.0000 0.0000 17.2142 0.0000 -0.4420
# 5 21.5774 16.2140 24.5539 0.0000 30.8764 0.0000
# 6 0.0000 0.0000 0.0000 -0.4420 0.0000 22.8209
#
#
#
# Elastic Compliance Matrix: (Units=1/GPa)
#
#
# Indices 1 2 3 4 5 6 
#
# 1 0.007657 -0.000937 -0.001853 0.000000 -0.003385 0.000000
# 2 -0.000937 0.015617 -0.000096 0.000000 -0.007470 0.000000
# 3 -0.001853 -0.000096 0.011624 0.000000 -0.007898 0.000000
# 4 0.000000 0.000000 0.000000 0.058121 0.000000 0.001126
# 5 -0.003385 -0.007470 -0.007898 0.000000 0.044956 0.000000
# 6 0.000000 0.000000 0.000000 0.001126 0.000000 0.043841
#
#
# Mechanical properties :
#
#
# Convention : Reuss Voigt Hill
#
# Bulk Modulus (GPa) = 34.33407 53.45651 43.89529
# Shear Modulus (GPa) = 25.34248 31.55704 28.44976
#
# Velocity S-wave (km/s) = 3.38392 3.77610 3.58538
# Velocity P-wave (km/s) = 5.54812 6.57009 6.08061
#
# Compressibility (1/GPa) = 0.02912559
#
# Stress axis : x y z
#
# Youngs Moduli (GPa) = 130.59119 64.03466 86.02951
#
# Poissons Ratio (x) = 0.06000 0.15945
# Poissons Ratio (y) = 0.12237 0.00823
# Poissons Ratio (z) = 0.24205 0.00613
#
# Static dielectric constant tensor:
#      x y z
#    x 4.528420 0.000000 0.098110 
#    y 0.000000 3.561460 0.000000 
#    z 0.098110 0.000000 4.364490 
# 
# 
# High freq. dielectric constant tensor:
#      x y z
#    x 1.884540 0.000000 -0.004710 
#    y 0.000000 1.817610 0.000000 
#    z -0.004710 0.000000 1.902590 
# 
# From -- ./inp_files/51959.got.cif
#   From: 2010.06.25/outbox.cif.g09.slc.cpg/sg10_26_cif.got.tgz:51959.got - 2010.06.27 22:07:45.
