data_PCOD8065284
_publ_section_title
;
Structure prediction by ZEFSAII (Michael W. Deem and Ramdas Pophale) SiO2 
 PCOD8065284
Probable space group: P 2/M
;
_chemical_formula_sum "Si O2"
_cell_formula_units_Z 28
_cell_length_a 22.134804
_cell_length_b 8.874542
_cell_length_c 20.905568
_cell_angle_alpha 90.000000
_cell_angle_beta 19.985762
_cell_angle_gamma 90.000000
_cell_volume 1403.584805
_symmetry_space_group_name_H-M "P 2/M"
_symmetry_group_IT_number 10
_symmetry_cell_setting 'monoclinic'
loop_
_space_group_symop_operation_xyz
x,y,z
-x,y,-z
-x,-y,-z
x,-y,z
loop_
_atom_site_type_symbol
_atom_site_label
_atom_site_fract_x
_atom_site_fract_y
_atom_site_fract_z
Si Si1 0.494579 0.323455 0.157074
Si Si2 0.212376 0.325615 0.918035
Si Si3 0.817763 0.173864 0.601081
Si Si4 0.181263 0.676202 0.674632
Si Si5 0.508700 0.822609 0.705719
Si Si6 0.219552 0.825925 0.213891
Si Si7 0.304519 0.322680 0.687488
O O1 0.497212 0.500000 0.165561
O O2 0.299437 0.275810 0.328650
O O3 0.545544 0.244144 0.172266
O O4 0.640391 0.279827 0.959853
O O5 0.269748 0.500000 0.868051
O O6 0.023705 0.295264 0.138817
O O7 0.361525 0.223518 0.800916
O O8 0.193554 0.283280 0.861560
O O9 0.769137 0.210248 0.722449
O O10 0.023162 0.210275 0.383563
O O11 0.777366 0.000000 0.626179
O O12 0.227759 0.500000 0.624384
O O13 0.299020 0.763049 0.506008
O O14 0.215780 0.742683 0.711527
O O15 0.516482 0.000000 0.703476
O O16 0.267371 0.000000 0.153527
O O17 0.500000 0.253042 0.500000
O O18 0.315974 0.500000 0.666925
#
# Coordination Sequence:
#
# PCOD8065284 Si02
#       7
#     4   4   4   4   4   4   4
#     4  12  25  39  59  86 118 155 197 243 292 339
#     4  10  20  37  62  89 116 148 190 239 290 344
#     4   9  19  38  64  92 122 156 192 231 280 341
#     4  10  20  37  62  89 116 148 190 239 290 344
#     4  12  26  42  58  78 113 158 200 241 288 346
#     4   9  19  38  64  92 122 156 192 231 280 341
#     4   9  15  29  59  91 119 146 181 232 287 346
#
# _framework density 19.948919
#
# number of rings (size 3 to 8) (size 9 to 14) (size 15 to 20)
#    0.000    1.857    1.429    4.286    0.000    6.286 
#    0.000    2.857    0.000    1.714    0.000    0.000 
#    0.000    0.000    0.000    0.000    0.000    0.000 
#
# Total GULP energy -347251.135052 kJ/mol
# GULP energy per Si atom -12401.826252 kJ/mol
# Density = 1.990351 g / cm^3
# Si number density = 19.948919 Si / 1000 Ang^3
#
#
#
# Elastic Constant Matrix: (Units=GPa)
#
#
# Indices 1 2 3 4 5 6 
#
# 1 51.4957 26.9434 17.7757 0.0000 1.0207 0.0000
# 2 26.9434 96.9935 35.1357 0.0000 -1.7380 0.0000
# 3 17.7757 35.1357 79.8949 0.0000 -10.4053 0.0000
# 4 0.0000 0.0000 0.0000 -6.0896 0.0000 -7.4622
# 5 1.0207 -1.7380 -10.4053 0.0000 21.7103 0.0000
# 6 0.0000 0.0000 0.0000 -7.4622 0.0000 24.0540
#
#
#
# Elastic Compliance Matrix: (Units=1/GPa)
#
#
# Indices 1 2 3 4 5 6 
#
# 1 0.023418 -0.005385 -0.003244 0.000000 -0.003087 0.000000
# 2 -0.005385 0.013562 -0.004897 0.000000 -0.001008 0.000000
# 3 -0.003244 -0.004897 0.016383 0.000000 0.007613 0.000000
# 4 0.000000 0.000000 0.000000 -0.118983 0.000000 -0.036912
# 5 -0.003087 -0.001008 0.007613 0.000000 0.049774 0.000000
# 6 0.000000 0.000000 0.000000 -0.036912 0.000000 0.030122
#
#
# Mechanical properties :
#
#
# Convention : Reuss Voigt Hill
#
# Bulk Modulus (GPa) = 38.00848 43.12152 40.56500
# Shear Modulus (GPa) = 99.80217 17.83691 58.81954
#
# Velocity S-wave (km/s) = 7.08078 2.99344 5.43591
# Velocity P-wave (km/s) = 9.27061 5.79746 7.73158
#
# Compressibility (1/GPa) = 0.02630992
#
# Stress axis : x y z
#
# Youngs Moduli (GPa) = 42.70274 73.73593 61.03776
#
# Poissons Ratio (x) = 0.39709 0.19800
# Poissons Ratio (y) = 0.22997 0.29892
# Poissons Ratio (z) = 0.13852 0.36111
#
# Static dielectric constant tensor:
#      x y z
#    x 3.649270 0.000000 -0.022400 
#    y 0.000000 3.321670 0.000000 
#    z -0.022400 0.000000 3.688440 
# 
# 
# High freq. dielectric constant tensor:
#      x y z
#    x 1.779000 0.000000 -0.003970 
#    y 0.000000 1.747850 0.000000 
#    z -0.003970 0.000000 1.789950 
# 
# From -- ./inp_files/86444.got.cif
#   From: 2010.06.25/outbox.cif.g09.slc.cpg/sg10_44_cif.got.tgz:86444.got - 2010.06.27 22:07:45.
