data_PCOD8065098
_publ_section_title
;
Structure prediction by ZEFSAII (Michael W. Deem and Ramdas Pophale) SiO2 
 PCOD8065098
Probable space group: P 2/M
;
_chemical_formula_sum "Si O2"
_cell_formula_units_Z 32
_cell_length_a 12.177425
_cell_length_b 8.922615
_cell_length_c 28.416568
_cell_angle_alpha 90.000000
_cell_angle_beta 149.414066
_cell_angle_gamma 90.000000
_cell_volume 1571.057312
_symmetry_space_group_name_H-M "P 2/M"
_symmetry_group_IT_number 10
_symmetry_cell_setting 'monoclinic'
loop_
_space_group_symop_operation_xyz
x,y,z
-x,y,-z
-x,-y,-z
x,-y,z
loop_
_atom_site_type_symbol
_atom_site_label
_atom_site_fract_x
_atom_site_fract_y
_atom_site_fract_z
Si Si1 0.738848 0.831750 0.108680
Si Si2 0.346169 0.323920 0.729485
Si Si3 0.546495 0.822689 0.631404
Si Si4 0.105741 0.324521 0.921891
Si Si5 0.086776 0.177215 0.420201
Si Si6 0.571066 0.325904 0.132876
Si Si7 0.677587 0.178249 0.781494
Si Si8 0.720972 0.177400 0.601882
O O1 0.890364 0.735476 0.130300
O O2 0.737127 0.763586 0.160534
O O3 0.832886 0.000000 0.146368
O O4 0.500000 0.830110 0.000000
O O5 0.366353 0.500000 0.728152
O O6 0.390548 0.278615 0.799594
O O7 0.518614 0.237917 0.762182
O O8 0.108195 0.266868 0.627546
O O9 0.306832 0.772175 0.527236
O O10 0.602303 0.756098 0.702975
O O11 0.729376 0.769843 0.659956
O O12 0.549929 0.000000 0.635958
O O13 0.060759 0.500000 0.904526
O O14 0.915471 0.241668 0.879932
O O15 0.325353 0.283898 0.029807
O O16 0.092793 0.226040 0.366472
O O17 0.047738 0.000000 0.411441
O O18 0.614332 0.500000 0.139787
O O19 0.681298 0.000000 0.784270
O O20 0.500000 0.244489 0.500000
O O21 0.706964 0.000000 0.595350
#
# Coordination Sequence:
#
# PCOD8065098 Si02
#       8
#     4   4   4   4   4   4   4   4
#     4   9  17  31  55  87 116 139 172 220 268 317
#     4  11  24  40  54  74 106 143 187 232 273 321
#     4   8  16  32  55  82 111 140 171 212 266 328
#     4  10  20  37  59  81 109 145 180 217 269 329
#     4   9  17  33  58  84 108 138 175 216 266 324
#     4   9  20  38  58  78 107 148 184 217 267 330
#     4  11  23  38  55  78 107 141 186 233 273 318
#     4   7  11  24  50  81 106 129 163 206 253 310
#
# _framework density 20.368448999999998
#
# number of rings (size 3 to 8) (size 9 to 14) (size 15 to 20)
#    0.000    2.750    0.000    3.000    0.000    5.000 
#    0.000    7.500    0.000    4.125    0.000    0.000 
#    0.000    0.000    0.000    0.000    0.000    0.000 
#
# Total GULP energy -396606.701358 kJ/mol
# GULP energy per Si atom -12393.959417 kJ/mol
# Density = 2.032209 g / cm^3
# Si number density = 20.368449 Si / 1000 Ang^3
#
#
#
# Elastic Constant Matrix: (Units=GPa)
#
#
# Indices 1 2 3 4 5 6 
#
# 1 87.6716 29.7347 13.6564 0.0000 14.2809 0.0000
# 2 29.7347 64.6936 16.6148 0.0000 7.7215 0.0000
# 3 13.6564 16.6148 34.6065 0.0000 4.2450 0.0000
# 4 0.0000 0.0000 0.0000 21.7320 0.0000 2.6599
# 5 14.2809 7.7215 4.2450 0.0000 35.9308 0.0000
# 6 0.0000 0.0000 0.0000 2.6599 0.0000 33.0008
#
#
#
# Elastic Compliance Matrix: (Units=1/GPa)
#
#
# Indices 1 2 3 4 5 6 
#
# 1 0.014332 -0.005433 -0.002528 0.000000 -0.004230 0.000000
# 2 -0.005433 0.019979 -0.007292 0.000000 -0.001273 0.000000
# 3 -0.002528 -0.007292 0.033566 0.000000 -0.001394 0.000000
# 4 0.000000 0.000000 0.000000 0.046474 0.000000 -0.003746
# 5 -0.004230 -0.001273 -0.001394 0.000000 0.029951 0.000000
# 6 0.000000 0.000000 0.000000 -0.003746 0.000000 0.030604
#
#
# Mechanical properties :
#
#
# Convention : Reuss Voigt Hill
#
# Bulk Modulus (GPa) = 26.75928 34.10924 30.43426
# Shear Modulus (GPa) = 22.94958 26.59710 24.77334
#
# Velocity S-wave (km/s) = 3.36031 3.61750 3.49128
# Velocity P-wave (km/s) = 5.31241 5.85072 5.58805
#
# Compressibility (1/GPa) = 0.03737021
#
# Stress axis : x y z
#
# Youngs Moduli (GPa) = 69.77534 50.05183 29.79209
#
# Poissons Ratio (x) = 0.27193 0.07532
# Poissons Ratio (y) = 0.37909 0.21725
# Poissons Ratio (z) = 0.17641 0.36498
#
# Static dielectric constant tensor:
#      x y z
#    x 3.962790 0.000000 -0.086510 
#    y 0.000000 3.377980 0.000000 
#    z -0.086510 0.000000 3.686550 
# 
# 
# High freq. dielectric constant tensor:
#      x y z
#    x 1.802910 0.000000 0.004460 
#    y 0.000000 1.766390 0.000000 
#    z 0.004460 0.000000 1.792410 
# 
# From -- ./inp_files/95029.got.cif
#   From: 2010.06.25/outbox.cif.g09.slc.cpg/sg10_48_cif.got.tgz:95029.got - 2010.06.27 22:07:45.
