data_PCOD8065496
_publ_section_title
;
Structure prediction by ZEFSAII (Michael W. Deem and Ramdas Pophale) SiO2 
 PCOD8065496
Probable space group: P 2/M
;
_chemical_formula_sum "Si O2"
_cell_formula_units_Z 20
_cell_length_a 7.727340
_cell_length_b 8.947312
_cell_length_c 16.025844
_cell_angle_alpha 90.000000
_cell_angle_beta 63.538735
_cell_angle_gamma 90.000000
_cell_volume 991.929852
_symmetry_space_group_name_H-M "P 2/M"
_symmetry_group_IT_number 10
_symmetry_cell_setting 'monoclinic'
loop_
_space_group_symop_operation_xyz
x,y,z
-x,y,-z
-x,-y,-z
x,-y,z
loop_
_atom_site_type_symbol
_atom_site_label
_atom_site_fract_x
_atom_site_fract_y
_atom_site_fract_z
Si Si1 0.435733 0.675514 0.704621
Si Si2 0.801029 0.676767 0.899749
Si Si3 0.120216 0.325965 0.393006
Si Si4 0.921078 0.823661 0.280122
Si Si5 0.586380 0.676317 0.104941
O O1 0.396583 0.500000 0.704246
O O2 0.657346 0.714409 0.636574
O O3 0.298459 0.761511 0.668696
O O4 0.381846 0.736861 0.808766
O O5 0.836240 0.500000 0.882163
O O6 0.617047 0.735315 0.886852
O O7 0.987121 0.763418 0.825954
O O8 0.763313 0.719359 0.005211
O O9 0.097663 0.500000 0.375332
O O10 0.000000 0.280819 0.500000
O O11 0.043540 0.232745 0.331910
O O12 0.917752 0.000000 0.281506
O O13 0.565594 0.500000 0.112353
#
# Coordination Sequence:
#
# PCOD8065496 Si02
#       5
#     4   4   4   4   4
#     4  10  20  38  63  89 117 151 196 245 291 343
#     4   9  16  33  59  86 115 151 202 247 284 335
#     4  10  22  43  70  92 110 142 195 255 302 341
#     4  12  25  38  56  87 126 163 192 229 291 358
#     4   8  15  30  59  89 112 148 198 250 291 329
#
# _framework density 20.162714999999999
#
# number of rings (size 3 to 8) (size 9 to 14) (size 15 to 20)
#    0.000    2.200    2.000    3.000    0.000    2.800 
#    0.000   11.000    0.000    0.000    0.000    0.000 
#    0.000    0.000    0.000    0.000    0.000    0.000 
#
# Total GULP energy -247963.248000 kJ/mol
# GULP energy per Si atom -12398.162400 kJ/mol
# Density = 2.011682 g / cm^3
# Si number density = 20.162715 Si / 1000 Ang^3
#
#
#
# Elastic Constant Matrix: (Units=GPa)
#
#
# Indices 1 2 3 4 5 6 
#
# 1 82.7009 39.2887 37.0078 0.0000 -27.3442 0.0000
# 2 39.2887 78.9738 42.8909 0.0000 -13.0596 0.0000
# 3 37.0078 42.8909 121.2921 0.0000 -19.9686 0.0000
# 4 0.0000 0.0000 0.0000 1.8326 0.0000 4.0184
# 5 -27.3442 -13.0596 -19.9686 0.0000 20.8282 0.0000
# 6 0.0000 0.0000 0.0000 4.0184 0.0000 15.3083
#
#
#
# Elastic Compliance Matrix: (Units=1/GPa)
#
#
# Indices 1 2 3 4 5 6 
#
# 1 0.025090 -0.007693 -0.000364 0.000000 0.027767 0.000000
# 2 -0.007693 0.018552 -0.004703 0.000000 -0.002976 0.000000
# 3 -0.000364 -0.004703 0.011226 0.000000 0.007337 0.000000
# 4 0.000000 0.000000 0.000000 1.285746 0.000000 -0.337508
# 5 0.027767 -0.002976 0.007337 0.000000 0.089633 0.000000
# 6 0.000000 0.000000 0.000000 -0.337508 0.000000 0.153920
#
#
# Mechanical properties :
#
#
# Convention : Reuss Voigt Hill
#
# Bulk Modulus (GPa) = 34.07247 57.92684 45.99966
# Shear Modulus (GPa) = 3.08743 18.51246 10.79995
#
# Velocity S-wave (km/s) = 1.23878 3.03339 2.31690
# Velocity P-wave (km/s) = 4.35678 6.40786 5.47915
#
# Compressibility (1/GPa) = 0.02934920
#
# Stress axis : x y z
#
# Youngs Moduli (GPa) = 39.85655 53.90391 89.07551
#
# Poissons Ratio (x) = 0.41467 0.03239
# Poissons Ratio (y) = 0.30661 0.41892
# Poissons Ratio (z) = 0.01449 0.25351
#
# Static dielectric constant tensor:
#      x y z
#    x 3.706420 0.000000 0.008860 
#    y 0.000000 3.189570 0.000000 
#    z 0.008860 0.000000 3.984010 
# 
# 
# High freq. dielectric constant tensor:
#      x y z
#    x 1.790630 0.000000 -0.006820 
#    y 0.000000 1.739560 0.000000 
#    z -0.006820 0.000000 1.792410 
# 
# From -- ./inp_files/31284.got.cif
#   From: 2010.06.25/outbox.cif.g09.slc.cpg/sg10_16_cif.got.tgz:31284.got - 2010.06.27 22:07:45.
