data_PCOD8065029
_publ_section_title
;
Structure prediction by ZEFSAII (Michael W. Deem and Ramdas Pophale) SiO2 
 PCOD8065029
Probable space group: P 2/M
;
_chemical_formula_sum "Si O2"
_cell_formula_units_Z 24
_cell_length_a 19.453555
_cell_length_b 8.594895
_cell_length_c 10.162450
_cell_angle_alpha 90.000000
_cell_angle_beta 130.695654
_cell_angle_gamma 90.000000
_cell_volume 1288.286552
_symmetry_space_group_name_H-M "P 2/M"
_symmetry_group_IT_number 10
_symmetry_cell_setting 'monoclinic'
loop_
_space_group_symop_operation_xyz
x,y,z
-x,y,-z
-x,-y,-z
x,-y,z
loop_
_atom_site_type_symbol
_atom_site_label
_atom_site_fract_x
_atom_site_fract_y
_atom_site_fract_z
Si Si1 0.998976 0.681243 0.651576
Si Si2 0.189220 0.181084 0.513712
Si Si3 0.178513 0.181331 0.981810
Si Si4 0.574312 0.500000 0.479994
Si Si5 0.548718 0.500000 0.923263
Si Si6 0.253652 0.327031 0.332604
Si Si7 0.722067 0.328391 0.132060
O O1 0.019529 0.500000 0.695382
O O2 0.903708 0.723656 0.597380
O O3 0.000000 0.729726 0.500000
O O4 0.074901 0.778765 0.821718
O O5 0.246901 0.236251 0.461128
O O6 0.248365 0.210384 0.717841
O O7 0.166851 0.000000 0.475805
O O8 0.246037 0.270967 0.969619
O O9 0.194863 0.000000 0.984874
O O10 0.200381 0.230107 0.157317
O O11 0.500000 0.500000 0.500000
O O12 0.527286 0.500000 0.280981
O O13 0.639200 0.346937 0.570430
O O14 0.500000 0.500000 0.000000
O O15 0.612699 0.346280 0.991230
O O16 0.209829 0.500000 0.291314
O O17 0.766444 0.500000 0.214479
#
# Coordination Sequence:
#
# PCOD8065029 Si02
#       7
#     4   4   4   2   2   4   4
#     4  11  23  38  63  90 126 165 220 254 284 351
#     4  12  23  39  60  92 132 169 202 251 315 361
#     4  12  23  39  60  92 128 163 204 254 308 360
#     4  10  20  40  70  93 112 156 210 263 298 372
#     4  10  20  36  66  93 114 148 212 259 300 368
#     4  10  23  40  65  89 121 159 212 250 310 362
#     4  10  21  36  63  89 119 155 212 250 305 357
#
# _framework density 18.629397000000001
#
# number of rings (size 3 to 8) (size 9 to 14) (size 15 to 20)
#    1.000    0.167    1.667    6.500    0.000    1.333 
#    0.000    3.333    0.000   20.000    0.000    0.000 
#    0.000    0.000    0.000    0.000    0.000    0.000 
#
# Total GULP energy -297606.104188 kJ/mol
# GULP energy per Si atom -12400.254341 kJ/mol
# Density = 1.858700 g / cm^3
# Si number density = 18.629397 Si / 1000 Ang^3
#
#
#
# Elastic Constant Matrix: (Units=GPa)
#
#
# Indices 1 2 3 4 5 6 
#
# 1 80.7796 19.2391 26.4892 0.0000 -2.9702 0.0000
# 2 19.2391 77.7526 17.2405 0.0000 -1.6476 0.0000
# 3 26.4892 17.2405 92.3808 0.0000 2.8739 0.0000
# 4 0.0000 0.0000 0.0000 12.7607 0.0000 -9.6423
# 5 -2.9702 -1.6476 2.8739 0.0000 36.6947 0.0000
# 6 0.0000 0.0000 0.0000 -9.6423 0.0000 13.0891
#
#
#
# Elastic Compliance Matrix: (Units=1/GPa)
#
#
# Indices 1 2 3 4 5 6 
#
# 1 0.014259 -0.002696 -0.003626 0.000000 0.001317 0.000000
# 2 -0.002696 0.013950 -0.001847 0.000000 0.000553 0.000000
# 3 -0.003626 -0.001847 0.012251 0.000000 -0.001336 0.000000
# 4 0.000000 0.000000 0.000000 0.176756 0.000000 0.130210
# 5 0.001317 0.000553 -0.001336 0.000000 0.027488 0.000000
# 6 0.000000 0.000000 0.000000 0.130210 0.000000 0.172321
#
#
# Mechanical properties :
#
#
# Convention : Reuss Voigt Hill
#
# Bulk Modulus (GPa) = 41.46004 41.87228 41.66616
# Shear Modulus (GPa) = 11.32749 25.03852 18.18300
#
# Velocity S-wave (km/s) = 2.46853 3.67008 3.12755
# Velocity P-wave (km/s) = 5.51619 6.36275 5.95453
#
# Compressibility (1/GPa) = 0.02411961
#
# Stress axis : x y z
#
# Youngs Moduli (GPa) = 70.13050 71.68545 81.62633
#
# Poissons Ratio (x) = 0.19328 0.29601
# Poissons Ratio (y) = 0.18909 0.15080
# Poissons Ratio (z) = 0.25432 0.13244
#
# Static dielectric constant tensor:
#      x y z
#    x 3.393090 0.000000 0.019410 
#    y 0.000000 3.385300 0.000000 
#    z 0.019410 0.000000 3.247580 
# 
# 
# High freq. dielectric constant tensor:
#      x y z
#    x 1.726520 0.000000 -0.006300 
#    y 0.000000 1.714030 0.000000 
#    z -0.006300 0.000000 1.729370 
# 
# From -- ./inp_files/33991.got.cif
#   From: 2010.06.25/outbox.cif.g09.slc.cpg/sg10_17_cif.got.tgz:33991.got - 2010.06.27 22:07:45.
