data_PCOD8065492
_publ_section_title
;
Structure prediction by ZEFSAII (Michael W. Deem and Ramdas Pophale) SiO2 
 PCOD8065492
Probable space group: P 2/M
;
_chemical_formula_sum "Si O2"
_cell_formula_units_Z 24
_cell_length_a 11.404933
_cell_length_b 8.636325
_cell_length_c 22.937961
_cell_angle_alpha 90.000000
_cell_angle_beta 30.957258
_cell_angle_gamma 90.000000
_cell_volume 1162.187539
_symmetry_space_group_name_H-M "P 2/M"
_symmetry_group_IT_number 10
_symmetry_cell_setting 'monoclinic'
loop_
_space_group_symop_operation_xyz
x,y,z
-x,y,-z
-x,-y,-z
x,-y,z
loop_
_atom_site_type_symbol
_atom_site_label
_atom_site_fract_x
_atom_site_fract_y
_atom_site_fract_z
Si Si1 0.381675 0.323389 0.681721
Si Si2 0.338086 0.819275 0.243610
Si Si3 0.870469 0.180145 0.313501
Si Si4 0.761015 0.681455 0.129812
Si Si5 0.137589 0.678144 0.561174
Si Si6 0.660635 0.680352 0.880540
O O1 0.326625 0.500000 0.687574
O O2 0.313070 0.211061 0.658379
O O3 0.245704 0.279722 0.798497
O O4 0.656103 0.303657 0.573305
O O5 0.547948 0.768164 0.193308
O O6 0.398014 0.776509 0.151944
O O7 0.099134 0.740568 0.364899
O O8 0.302592 0.000000 0.265284
O O9 0.784617 0.229595 0.414034
O O10 0.086710 0.284761 0.205174
O O11 0.933962 0.000000 0.287838
O O12 0.730656 0.500000 0.131109
O O13 0.000000 0.740129 0.000000
O O14 0.097846 0.500000 0.595496
O O15 0.624345 0.500000 0.882651
O O16 0.500000 0.740272 0.000000
#
# Coordination Sequence:
#
# PCOD8065492 Si02
#       6
#     4   4   4   4   4   4
#     4  10  22  39  61  88 117 157 204 247 290 344
#     4  11  23  39  60  87 122 153 190 245 300 352
#     4  11  22  35  56  89 126 156 188 240 301 356
#     4  10  23  43  64  85 114 156 204 246 289 348
#     4  10  20  38  63  88 118 155 200 246 291 349
#     4  10  21  37  60  85 113 155 202 242 286 346
#
# _framework density 20.650711999999999
#
# number of rings (size 3 to 8) (size 9 to 14) (size 15 to 20)
#    0.000    1.667    0.000    6.500    2.333    6.333 
#    0.000    3.333    0.000    0.000    0.000    0.000 
#    0.000    0.000    0.000    0.000    0.000    0.000 
#
# Total GULP energy -297594.579320 kJ/mol
# GULP energy per Si atom -12399.774138 kJ/mol
# Density = 2.060371 g / cm^3
# Si number density = 20.650712 Si / 1000 Ang^3
#
#
#
# Elastic Constant Matrix: (Units=GPa)
#
#
# Indices 1 2 3 4 5 6 
#
# 1 81.2433 35.7357 31.1632 0.0000 -15.8649 0.0000
# 2 35.7357 76.8688 21.8333 0.0000 -0.5307 0.0000
# 3 31.1632 21.8333 124.8129 0.0000 12.1091 0.0000
# 4 0.0000 0.0000 0.0000 3.6646 0.0000 -5.5315
# 5 -15.8649 -0.5307 12.1091 0.0000 15.1647 0.0000
# 6 0.0000 0.0000 0.0000 -5.5315 0.0000 22.3178
#
#
#
# Elastic Compliance Matrix: (Units=1/GPa)
#
#
# Indices 1 2 3 4 5 6 
#
# 1 0.026227 -0.009655 -0.008117 0.000000 0.033582 0.000000
# 2 -0.009655 0.017339 0.000324 0.000000 -0.009753 0.000000
# 3 -0.008117 0.000324 0.011712 0.000000 -0.017833 0.000000
# 4 0.000000 0.000000 0.000000 0.435990 0.000000 0.108061
# 5 0.033582 -0.009753 -0.017833 0.000000 0.114974 0.000000
# 6 0.000000 0.000000 0.000000 0.108061 0.000000 0.071591
#
#
# Mechanical properties :
#
#
# Convention : Reuss Voigt Hill
#
# Bulk Modulus (GPa) = 49.06712 51.15439 50.11075
# Shear Modulus (GPa) = 6.94905 21.17561 14.06233
#
# Velocity S-wave (km/s) = 1.83639 3.20569 2.61235
# Velocity P-wave (km/s) = 5.32058 6.20701 5.78081
#
# Compressibility (1/GPa) = 0.02038025
#
# Stress axis : x y z
#
# Youngs Moduli (GPa) = 38.12845 57.67503 85.38097
#
# Poissons Ratio (x) = 0.55687 0.69307
# Poissons Ratio (y) = 0.36814 -0.02766
# Poissons Ratio (z) = 0.30951 -0.01868
#
# Static dielectric constant tensor:
#      x y z
#    x 3.552210 0.000000 -0.036900 
#    y 0.000000 3.678250 0.000000 
#    z -0.036900 0.000000 3.935410 
# 
# 
# High freq. dielectric constant tensor:
#      x y z
#    x 1.794980 0.000000 -0.005930 
#    y 0.000000 1.806540 0.000000 
#    z -0.005930 0.000000 1.819870 
# 
# From -- ./inp_files/56680.got.cif
#   From: 2010.06.25/outbox.cif.g09.slc.cpg/sg10_29_cif.got.tgz:56680.got - 2010.06.27 22:07:45.
