data_PCOD8065439
_publ_section_title
;
Structure prediction by ZEFSAII (Michael W. Deem and Ramdas Pophale) SiO2 
 PCOD8065439
Probable space group: P 2/M
;
_chemical_formula_sum "Si O2"
_cell_formula_units_Z 32
_cell_length_a 14.725571
_cell_length_b 8.855089
_cell_length_c 11.818602
_cell_angle_alpha 90.000000
_cell_angle_beta 92.713698
_cell_angle_gamma 90.000000
_cell_volume 1539.373069
_symmetry_space_group_name_H-M "P 2/M"
_symmetry_group_IT_number 10
_symmetry_cell_setting 'monoclinic'
loop_
_space_group_symop_operation_xyz
x,y,z
-x,y,-z
-x,-y,-z
x,-y,z
loop_
_atom_site_type_symbol
_atom_site_label
_atom_site_fract_x
_atom_site_fract_y
_atom_site_fract_z
Si Si1 0.485497 0.679192 0.369956
Si Si2 0.333504 0.172130 0.216725
Si Si3 0.187481 0.672580 0.567864
Si Si4 0.337739 0.678883 0.751134
Si Si5 0.154729 0.170817 0.341286
Si Si6 0.970151 0.328303 0.279796
Si Si7 0.720150 0.320651 0.007209
Si Si8 0.091687 0.176997 0.942108
O O1 0.500000 0.733585 0.500000
O O2 0.476775 0.500000 0.365161
O O3 0.393787 0.749890 0.316337
O O4 0.568178 0.738242 0.296451
O O5 0.228874 0.181687 0.247667
O O6 0.342632 0.257027 0.097329
O O7 0.365183 0.000000 0.203764
O O8 0.211862 0.500000 0.536329
O O9 0.255254 0.734781 0.667799
O O10 0.200435 0.778049 0.460728
O O11 0.083991 0.683823 0.605544
O O12 0.337215 0.500000 0.755197
O O13 0.322828 0.740570 0.877485
O O14 0.073290 0.281191 0.304837
O O15 0.118012 0.000000 0.350312
O O16 0.967438 0.500000 0.234116
O O17 0.919192 0.220411 0.189018
O O18 0.719795 0.500000 0.001774
O O19 0.823151 0.263164 0.998805
O O20 0.109262 0.000000 0.956417
O O21 0.000000 0.227945 0.000000
#
# Coordination Sequence:
#
# PCOD8065439 Si02
#       8
#     4   4   4   4   4   4   4   4
#     4  10  21  40  69  97 120 155 201 246 301 368
#     4  11  25  43  60  86 126 162 199 250 305 360
#     4  10  20  38  61  87 120 155 198 250 302 361
#     4   9  19  38  63  92 123 153 195 254 307 355
#     4  11  24  39  56  83 121 162 201 249 308 362
#     4  11  22  37  59  87 117 156 204 252 301 356
#     4  11  22  40  64  89 120 159 206 253 300 358
#     4  11  23  38  57  84 122 164 205 252 302 356
#
# _framework density 20.787683999999999
#
# number of rings (size 3 to 8) (size 9 to 14) (size 15 to 20)
#    0.000    1.500    1.250    3.750    0.000   10.250 
#    0.000    4.375    0.000    0.000    0.000    0.000 
#    0.000    0.000    0.000    0.000    0.000    0.000 
#
# Total GULP energy -396941.475006 kJ/mol
# GULP energy per Si atom -12404.421094 kJ/mol
# Density = 2.074037 g / cm^3
# Si number density = 20.787684 Si / 1000 Ang^3
#
#
#
# Elastic Constant Matrix: (Units=GPa)
#
#
# Indices 1 2 3 4 5 6 
#
# 1 87.3509 26.6816 31.5278 0.0000 2.5778 0.0000
# 2 26.6816 59.9709 37.8262 0.0000 -4.7277 0.0000
# 3 31.5278 37.8262 127.9776 0.0000 10.8926 0.0000
# 4 0.0000 0.0000 0.0000 24.5588 0.0000 0.5742
# 5 2.5778 -4.7277 10.8926 0.0000 34.8085 0.0000
# 6 0.0000 0.0000 0.0000 0.5742 0.0000 22.1575
#
#
#
# Elastic Compliance Matrix: (Units=1/GPa)
#
#
# Indices 1 2 3 4 5 6 
#
# 1 0.013665 -0.005049 -0.001777 0.000000 -0.001142 0.000000
# 2 -0.005049 0.023175 -0.006067 0.000000 0.005420 0.000000
# 3 -0.001777 -0.006067 0.010380 0.000000 -0.003941 0.000000
# 4 0.000000 0.000000 0.000000 0.040743 0.000000 -0.001056
# 5 -0.001142 0.005420 -0.003941 0.000000 0.030782 0.000000
# 6 0.000000 0.000000 0.000000 -0.001056 0.000000 0.045159
#
#
# Mechanical properties :
#
#
# Convention : Reuss Voigt Hill
#
# Bulk Modulus (GPa) = 46.65425 51.93006 49.29216
# Shear Modulus (GPa) = 25.40168 28.25589 26.82878
#
# Velocity S-wave (km/s) = 3.49944 3.69082 3.59640
# Velocity P-wave (km/s) = 6.23058 6.57254 6.40384
#
# Compressibility (1/GPa) = 0.02143427
#
# Stress axis : x y z
#
# Youngs Moduli (GPa) = 73.17752 43.14924 96.33546
#
# Poissons Ratio (x) = 0.21786 0.17119
# Poissons Ratio (y) = 0.36947 0.58451
# Poissons Ratio (z) = 0.13004 0.26180
#
# Static dielectric constant tensor:
#      x y z
#    x 3.759680 0.000000 -0.080390 
#    y 0.000000 3.598580 0.000000 
#    z -0.080390 0.000000 3.939550 
# 
# 
# High freq. dielectric constant tensor:
#      x y z
#    x 1.813570 0.000000 0.000420 
#    y 0.000000 1.799940 0.000000 
#    z 0.000420 0.000000 1.825220 
# 
# From -- ./inp_files/49938.got.cif
#   From: 2010.06.25/outbox.cif.g09.slc.cpg/sg10_25_cif.got.tgz:49938.got - 2010.06.27 22:07:45.
