data_PCOD8065918
_publ_section_title
;
Structure prediction by ZEFSAII (Michael W. Deem and Ramdas Pophale) SiO2 
 PCOD8065918
Probable space group: P 2/M
;
_chemical_formula_sum "Si O2"
_cell_formula_units_Z 28
_cell_length_a 9.880605
_cell_length_b 7.536830
_cell_length_c 30.697338
_cell_angle_alpha 90.000000
_cell_angle_beta 35.752767
_cell_angle_gamma 90.000000
_cell_volume 1335.674327
_symmetry_space_group_name_H-M "P 2/M"
_symmetry_group_IT_number 10
_symmetry_cell_setting 'monoclinic'
loop_
_space_group_symop_operation_xyz
x,y,z
-x,y,-z
-x,-y,-z
x,-y,z
loop_
_atom_site_type_symbol
_atom_site_label
_atom_site_fract_x
_atom_site_fract_y
_atom_site_fract_z
Si Si1 0.932575 0.789420 0.228924
Si Si2 0.425239 0.789184 0.066853
Si Si3 0.939352 0.802152 0.323768
Si Si4 0.227054 0.500000 0.570894
Si Si5 0.535750 0.202147 0.692289
Si Si6 0.265189 0.208905 0.933297
Si Si7 0.582318 0.299960 0.775686
Si Si8 0.100738 0.500000 0.425304
O O1 0.888575 0.720737 0.289504
O O2 0.709651 0.723532 0.260672
O O3 0.170982 0.712095 0.146166
O O4 0.953468 0.000000 0.224012
O O5 0.614282 0.726749 0.053266
O O6 0.415572 0.000000 0.067337
O O7 0.500000 0.713150 0.000000
O O8 0.843279 0.679187 0.386596
O O9 0.215697 0.814205 0.255287
O O10 0.834002 0.000000 0.356733
O O11 0.500000 0.500000 0.500000
O O12 0.114049 0.500000 0.552374
O O13 0.507265 0.203449 0.751407
O O14 0.746047 0.323562 0.620957
O O15 0.581746 0.000000 0.664364
O O16 0.373212 0.308155 0.863938
O O17 0.297103 0.000000 0.919213
O O18 0.000000 0.266638 0.000000
O O19 0.668842 0.500000 0.741998
O O20 0.000000 0.500000 0.500000
#
# Coordination Sequence:
#
# PCOD8065918 Si02
#       8
#     4   4   4   2   4   4   4   2
#     4   9  20  35  61  95 123 166 216 258 314 372
#     4   9  17  31  51  84 127 161 205 266 315 369
#     4  11  21  42  69  95 128 164 213 268 311 372
#     4  12  28  46  68 102 127 168 210 248 321 385
#     4  11  23  43  68  95 128 169 214 260 315 381
#     4  10  21  35  57  88 122 169 219 268 326 376
#     4  12  22  40  64  92 123 170 222 270 324 374
#     4  12  28  48  66 100 135 166 207 255 316 386
#
# _framework density 20.963193
#
# number of rings (size 3 to 8) (size 9 to 14) (size 15 to 20)
#    0.000    1.429    4.286    1.286    4.000    0.857 
#    0.000    0.000    0.000    0.429    0.000    0.000 
#    0.000    0.000    0.000    0.000    0.000    0.000 
#
# Total GULP energy -347198.869300 kJ/mol
# GULP energy per Si atom -12399.959618 kJ/mol
# Density = 2.091548 g / cm^3
# Si number density = 20.963193 Si / 1000 Ang^3
#
#
#
# Elastic Constant Matrix: (Units=GPa)
#
#
# Indices 1 2 3 4 5 6 
#
# 1 169.5383 21.3184 76.1963 0.0000 -6.1249 0.0000
# 2 21.3184 76.5273 34.7168 0.0000 0.5831 0.0000
# 3 76.1963 34.7168 135.6189 0.0000 1.1931 0.0000
# 4 0.0000 0.0000 0.0000 19.2161 0.0000 -0.0918
# 5 -6.1249 0.5831 1.1931 0.0000 44.8033 0.0000
# 6 0.0000 0.0000 0.0000 -0.0918 0.0000 20.9989
#
#
#
# Elastic Compliance Matrix: (Units=1/GPa)
#
#
# Indices 1 2 3 4 5 6 
#
# 1 0.007959 -0.000218 -0.004426 0.000000 0.001209 0.000000
# 2 -0.000218 0.014790 -0.003662 0.000000 -0.000125 0.000000
# 3 -0.004426 -0.003662 0.010805 0.000000 -0.000845 0.000000
# 4 0.000000 0.000000 0.000000 0.052041 0.000000 0.000228
# 5 0.001209 -0.000125 -0.000845 0.000000 0.022509 0.000000
# 6 0.000000 0.000000 0.000000 0.000228 0.000000 0.047623
#
#
# Mechanical properties :
#
#
# Convention : Reuss Voigt Hill
#
# Bulk Modulus (GPa) = 59.02970 71.79417 65.41193
# Shear Modulus (GPa) = 28.09171 33.63385 30.86278
#
# Velocity S-wave (km/s) = 3.66464 4.00987 3.84114
# Velocity P-wave (km/s) = 6.79161 7.46732 7.13746
#
# Compressibility (1/GPa) = 0.01694063
#
# Stress axis : x y z
#
# Youngs Moduli (GPa) = 125.64627 67.61108 92.54550
#
# Poissons Ratio (x) = 0.01476 0.40964
# Poissons Ratio (y) = 0.02743 0.33894
# Poissons Ratio (z) = 0.55616 0.24762
#
# Static dielectric constant tensor:
#      x y z
#    x 4.018690 0.000000 0.080060 
#    y 0.000000 3.532090 0.000000 
#    z 0.080060 0.000000 3.260920 
# 
# 
# High freq. dielectric constant tensor:
#      x y z
#    x 1.836120 0.000000 0.001120 
#    y 0.000000 1.812940 0.000000 
#    z 0.001120 0.000000 1.810330 
# 
# From -- ./inp_files/94530.got.cif
#   From: 2010.06.25/outbox.cif.g09.slc.cpg/sg10_48_cif.got.tgz:94530.got - 2010.06.27 22:07:45.
