data_PCOD8065111
_publ_section_title
;
Structure prediction by ZEFSAII (Michael W. Deem and Ramdas Pophale) SiO2 
 PCOD8065111
Probable space group: P 2/M
;
_chemical_formula_sum "Si O2"
_cell_formula_units_Z 28
_cell_length_a 10.144353
_cell_length_b 9.233125
_cell_length_c 27.640674
_cell_angle_alpha 90.000000
_cell_angle_beta 34.872190
_cell_angle_gamma 90.000000
_cell_volume 1480.219570
_symmetry_space_group_name_H-M "P 2/M"
_symmetry_group_IT_number 10
_symmetry_cell_setting 'monoclinic'
loop_
_space_group_symop_operation_xyz
x,y,z
-x,y,-z
-x,-y,-z
x,-y,z
loop_
_atom_site_type_symbol
_atom_site_label
_atom_site_fract_x
_atom_site_fract_y
_atom_site_fract_z
Si Si1 0.089174 0.828395 0.336692
Si Si2 0.345688 0.331571 0.500842
Si Si3 0.004241 0.828484 0.053547
Si Si4 0.109477 0.332371 0.230552
Si Si5 0.647895 0.333155 0.316932
Si Si6 0.564740 0.332415 0.034538
Si Si7 0.440249 0.829359 0.754022
O O1 0.075094 0.767242 0.287090
O O2 0.328286 0.779651 0.288812
O O3 0.885645 0.762749 0.430446
O O4 0.064005 0.000000 0.342026
O O5 0.500000 0.285835 0.500000
O O6 0.278962 0.500000 0.524159
O O7 0.484445 0.294226 0.410870
O O8 0.772797 0.774280 0.149472
O O9 0.027565 0.000000 0.047934
O O10 0.220391 0.763225 0.015693
O O11 0.000000 0.770871 0.000000
O O12 0.089350 0.500000 0.252607
O O13 0.353191 0.296128 0.133322
O O14 0.911206 0.296120 0.251384
O O15 0.623910 0.500000 0.309451
O O16 0.567897 0.238681 0.296243
O O17 0.634704 0.500000 0.016561
O O18 0.500000 0.288111 0.000000
O O19 0.431935 0.000000 0.749935
#
# Coordination Sequence:
#
# PCOD8065111 Si02
#       7
#     4   4   4   4   4   4   4
#     4  11  23  38  59  86 116 150 191 234 280 336
#     4  10  20  39  63  86 115 148 188 234 283 338
#     4  10  21  39  60  80 112 156 197 235 281 338
#     4  10  20  37  59  84 114 149 190 237 287 337
#     4  10  21  38  62  86 112 151 191 233 283 341
#     4  10  21  36  57  85 115 146 187 240 290 337
#     4  10  23  40  56  82 119 155 189 234 287 337
#
# _framework density 18.916111999999998
#
# number of rings (size 3 to 8) (size 9 to 14) (size 15 to 20)
#    0.000    1.857    1.429    2.143    0.000    7.143 
#    0.000    2.857    0.000    0.000    0.000    0.000 
#    0.000    0.000    0.000    0.000    0.000    0.000 
#
# Total GULP energy -347346.103035 kJ/mol
# GULP energy per Si atom -12405.217966 kJ/mol
# Density = 1.887306 g / cm^3
# Si number density = 18.916112 Si / 1000 Ang^3
#
#
#
# Elastic Constant Matrix: (Units=GPa)
#
#
# Indices 1 2 3 4 5 6 
#
# 1 84.3916 29.4206 45.4995 0.0000 1.3172 0.0000
# 2 29.4206 36.8219 36.1603 0.0000 -5.3722 0.0000
# 3 45.4995 36.1603 118.6930 0.0000 -9.3323 0.0000
# 4 0.0000 0.0000 0.0000 29.0157 0.0000 -5.6835
# 5 1.3172 -5.3722 -9.3323 0.0000 36.8227 0.0000
# 6 0.0000 0.0000 0.0000 -5.6835 0.0000 40.8549
#
#
#
# Elastic Compliance Matrix: (Units=1/GPa)
#
#
# Indices 1 2 3 4 5 6 
#
# 1 0.017725 -0.010998 -0.003694 0.000000 -0.003175 0.000000
# 2 -0.010998 0.045843 -0.009381 0.000000 0.004704 0.000000
# 3 -0.003694 -0.009381 0.012858 0.000000 0.002022 0.000000
# 4 0.000000 0.000000 0.000000 0.035430 0.000000 0.004929
# 5 -0.003175 0.004704 0.002022 0.000000 0.028470 0.000000
# 6 0.000000 0.000000 0.000000 0.004929 0.000000 0.025163
#
#
# Mechanical properties :
#
#
# Convention : Reuss Voigt Hill
#
# Bulk Modulus (GPa) = 35.35847 51.34081 43.34964
# Shear Modulus (GPa) = 22.41562 29.92706 26.17134
#
# Velocity S-wave (km/s) = 3.44612 3.98187 3.72364
# Velocity P-wave (km/s) = 5.87938 6.95274 6.43847
#
# Compressibility (1/GPa) = 0.02828177
#
# Stress axis : x y z
#
# Youngs Moduli (GPa) = 56.41904 21.81336 77.77368
#
# Poissons Ratio (x) = 0.23990 0.28726
# Poissons Ratio (y) = 0.62049 0.72957
# Poissons Ratio (z) = 0.20839 0.20462
#
# Static dielectric constant tensor:
#      x y z
#    x 3.435360 0.000000 -0.108630 
#    y 0.000000 3.356350 0.000000 
#    z -0.108630 0.000000 3.647840 
# 
# 
# High freq. dielectric constant tensor:
#      x y z
#    x 1.741430 0.000000 -0.001470 
#    y 0.000000 1.726280 0.000000 
#    z -0.001470 0.000000 1.754180 
# 
# From -- ./inp_files/70264.got.cif
#   From: 2010.06.25/outbox.cif.g09.slc.cpg/sg10_36_cif.got.tgz:70264.got - 2010.06.27 22:07:45.
