data_PCOD8065348
_publ_section_title
;
Structure prediction by ZEFSAII (Michael W. Deem and Ramdas Pophale) SiO2 
 PCOD8065348
Probable space group: P 2/M
;
_chemical_formula_sum "Si O2"
_cell_formula_units_Z 28
_cell_length_a 14.135689
_cell_length_b 8.783939
_cell_length_c 19.181463
_cell_angle_alpha 90.000000
_cell_angle_beta 144.566152
_cell_angle_gamma 90.000000
_cell_volume 1380.823688
_symmetry_space_group_name_H-M "P 2/M"
_symmetry_group_IT_number 10
_symmetry_cell_setting 'monoclinic'
loop_
_space_group_symop_operation_xyz
x,y,z
-x,y,-z
-x,-y,-z
x,-y,z
loop_
_atom_site_type_symbol
_atom_site_label
_atom_site_fract_x
_atom_site_fract_y
_atom_site_fract_z
Si Si1 0.652825 0.680071 0.552167
Si Si2 0.998768 0.681185 0.199055
Si Si3 0.266072 0.679479 0.553696
Si Si4 0.917027 0.679676 0.299988
Si Si5 0.441793 0.320641 0.888648
Si Si6 0.464048 0.179193 0.193639
Si Si7 0.863681 0.680982 0.973076
O O1 0.500000 0.756205 0.500000
O O2 0.646581 0.500000 0.555454
O O3 0.815180 0.740307 0.687510
O O4 0.651283 0.723862 0.470052
O O5 0.993137 0.500000 0.192432
O O6 0.911606 0.742334 0.217096
O O7 0.913915 0.745793 0.079080
O O8 0.276206 0.500000 0.575151
O O9 0.362881 0.766883 0.671742
O O10 0.076429 0.736753 0.438430
O O11 0.935842 0.500000 0.304734
O O12 0.748837 0.724689 0.236542
O O13 0.470763 0.500000 0.896988
O O14 0.546658 0.235778 0.892883
O O15 0.500000 0.267903 0.000000
O O16 0.451981 0.000000 0.188996
O O17 0.314916 0.249231 0.149400
O O18 0.848573 0.500000 0.960770
O O19 0.000000 0.737653 0.000000
#
# Coordination Sequence:
#
# PCOD8065348 Si02
#       7
#     4   4   4   4   4   4   4
#     4   8  14  24  48  83 112 136 170 228 284 324
#     4   8  14  27  48  81 115 135 167 223 285 337
#     4   9  18  34  56  81 112 147 190 234 279 336
#     4   8  15  30  55  86 113 141 178 233 291 333
#     4  10  20  37  64  90 113 144 188 241 291 338
#     4  12  26  40  54  78 118 157 190 231 283 344
#     4  10  21  36  59  86 110 143 190 239 284 335
#
# _framework density 20.277752
#
# number of rings (size 3 to 8) (size 9 to 14) (size 15 to 20)
#    0.000    2.714    0.000    3.857    2.000    3.429 
#    0.000    3.571    0.000    5.571    0.000    0.000 
#    0.000    0.000    0.000    0.000    0.000    0.000 
#
# Total GULP energy -347054.948613 kJ/mol
# GULP energy per Si atom -12394.819593 kJ/mol
# Density = 2.023160 g / cm^3
# Si number density = 20.277752 Si / 1000 Ang^3
#
#
#
# Elastic Constant Matrix: (Units=GPa)
#
#
# Indices 1 2 3 4 5 6 
#
# 1 98.7315 30.3352 42.1746 0.0000 14.6299 0.0000
# 2 30.3352 44.5019 29.4292 0.0000 1.6681 0.0000
# 3 42.1746 29.4292 102.9506 0.0000 0.1856 0.0000
# 4 0.0000 0.0000 0.0000 2.3600 0.0000 0.9931
# 5 14.6299 1.6681 0.1856 0.0000 34.1804 0.0000
# 6 0.0000 0.0000 0.0000 0.9931 0.0000 9.2889
#
#
#
# Elastic Compliance Matrix: (Units=1/GPa)
#
#
# Indices 1 2 3 4 5 6 
#
# 1 0.015001 -0.007327 -0.004040 0.000000 -0.006041 0.000000
# 2 -0.007327 0.031347 -0.005962 0.000000 0.001639 0.000000
# 3 -0.004040 -0.005962 0.013069 0.000000 0.001949 0.000000
# 4 0.000000 0.000000 0.000000 0.443694 0.000000 -0.047436
# 5 -0.006041 0.001639 0.001949 0.000000 0.031752 0.000000
# 6 0.000000 0.000000 0.000000 -0.047436 0.000000 0.112727
#
#
# Mechanical properties :
#
#
# Convention : Reuss Voigt Hill
#
# Bulk Modulus (GPa) = 40.39012 50.00688 45.19850
# Shear Modulus (GPa) = 7.24112 18.78219 13.01165
#
# Velocity S-wave (km/s) = 1.89175 3.04673 2.53587
# Velocity P-wave (km/s) = 4.97326 6.09026 5.55988
#
# Compressibility (1/GPa) = 0.02475853
#
# Stress axis : x y z
#
# Youngs Moduli (GPa) = 66.66414 31.90098 76.51688
#
# Poissons Ratio (x) = 0.23375 0.30910
# Poissons Ratio (y) = 0.48848 0.45619
# Poissons Ratio (z) = 0.26930 0.19019
#
# Static dielectric constant tensor:
#      x y z
#    x 3.920140 0.000000 0.212600 
#    y 0.000000 2.962390 0.000000 
#    z 0.212600 0.000000 4.061440 
# 
# 
# High freq. dielectric constant tensor:
#      x y z
#    x 1.797500 0.000000 0.007920 
#    y 0.000000 1.718510 0.000000 
#    z 0.007920 0.000000 1.806410 
# 
# From -- ./inp_files/84973.got.cif
#   From: 2010.06.25/outbox.cif.g09.slc.cpg/sg10_43_cif.got.tgz:84973.got - 2010.06.27 22:07:45.
