data_PCOD8065067
_publ_section_title
;
Structure prediction by ZEFSAII (Michael W. Deem and Ramdas Pophale) SiO2 
 PCOD8065067
Probable space group: P 2/M
;
_chemical_formula_sum "Si O2"
_cell_formula_units_Z 28
_cell_length_a 21.483327
_cell_length_b 16.138328
_cell_length_c 9.731053
_cell_angle_alpha 90.000000
_cell_angle_beta 153.453379
_cell_angle_gamma 90.000000
_cell_volume 1507.840498
_symmetry_space_group_name_H-M "P 2/M"
_symmetry_group_IT_number 10
_symmetry_cell_setting 'monoclinic'
loop_
_space_group_symop_operation_xyz
x,y,z
-x,y,-z
-x,-y,-z
x,-y,z
loop_
_atom_site_type_symbol
_atom_site_label
_atom_site_fract_x
_atom_site_fract_y
_atom_site_fract_z
Si Si1 0.489949 0.902762 0.821438
Si Si2 0.507717 0.663072 0.366165
Si Si3 0.715905 0.802184 0.766570
Si Si4 0.392561 0.407287 0.888688
Si Si5 0.082789 0.596566 0.303449
Si Si6 0.989428 0.261925 0.638232
Si Si7 0.301943 0.813159 0.955056
O O1 0.354870 0.860874 0.485599
O O2 0.466305 0.000000 0.769142
O O3 0.500000 0.872550 0.000000
O O4 0.629985 0.881230 0.011692
O O5 0.500000 0.621659 0.500000
O O6 0.655110 0.708680 0.636306
O O7 0.473919 0.590160 0.194036
O O8 0.386715 0.729469 0.103579
O O9 0.688738 0.840104 0.865787
O O10 0.879360 0.794158 0.057714
O O11 0.371100 0.500000 0.790886
O O12 0.239316 0.367600 0.591058
O O13 0.500000 0.358418 0.000000
O O14 0.083202 0.500000 0.351366
O O15 0.012555 0.652158 0.281991
O O16 0.000000 0.608567 0.000000
O O17 0.856527 0.203465 0.403072
O O18 0.000000 0.287888 0.500000
#
# Coordination Sequence:
#
# PCOD8065067 Si02
#       7
#     4   4   4   4   4   4   4
#     4  10  21  37  58  84 113 144 177 214 259 318
#     4   9  17  32  53  75 100 132 176 225 268 312
#     4   9  20  34  56  82 108 139 175 220 267 317
#     4  10  21  35  50  71 103 141 179 225 272 318
#     4  10  22  38  53  75 109 147 187 228 275 327
#     4  10  20  37  58  81 108 140 183 230 271 317
#     4   9  18  36  56  80 108 137 176 222 266 318
#
# _framework density 18.569604000000002
#
# number of rings (size 3 to 8) (size 9 to 14) (size 15 to 20)
#    0.000    2.429    1.429    1.286    2.000    5.143 
#    0.000    0.714    0.000    4.286    0.000    0.000 
#    0.000    0.000    0.000    0.000    0.000    0.000 
#
# Total GULP energy -347032.835386 kJ/mol
# GULP energy per Si atom -12394.029835 kJ/mol
# Density = 1.852734 g / cm^3
# Si number density = 18.569604 Si / 1000 Ang^3
#
#
#
# Elastic Constant Matrix: (Units=GPa)
#
#
# Indices 1 2 3 4 5 6 
#
# 1 108.5267 39.8789 63.3176 0.0000 -3.6101 0.0000
# 2 39.8789 51.4051 34.4417 0.0000 -6.7329 0.0000
# 3 63.3176 34.4417 131.2300 0.0000 1.2841 0.0000
# 4 0.0000 0.0000 0.0000 17.2545 0.0000 -3.3196
# 5 -3.6101 -6.7329 1.2841 0.0000 37.0419 0.0000
# 6 0.0000 0.0000 0.0000 -3.3196 0.0000 21.7518
#
#
#
# Elastic Compliance Matrix: (Units=1/GPa)
#
#
# Indices 1 2 3 4 5 6 
#
# 1 0.015337 -0.008396 -0.005198 0.000000 0.000149 0.000000
# 2 -0.008396 0.028977 -0.003599 0.000000 0.004573 0.000000
# 3 -0.005198 -0.003599 0.011088 0.000000 -0.001545 0.000000
# 4 0.000000 0.000000 0.000000 0.059709 0.000000 0.009112
# 5 0.000149 0.004573 -0.001545 0.000000 0.027896 0.000000
# 6 0.000000 0.000000 0.000000 0.009112 0.000000 0.047364
#
#
# Mechanical properties :
#
#
# Convention : Reuss Voigt Hill
#
# Bulk Modulus (GPa) = 47.58202 62.93756 55.25979
# Shear Modulus (GPa) = 21.57391 25.44456 23.50924
#
# Velocity S-wave (km/s) = 3.41220 3.70567 3.56196
# Velocity P-wave (km/s) = 6.41898 7.23019 6.83663
#
# Compressibility (1/GPa) = 0.02101634
#
# Stress axis : x y z
#
# Youngs Moduli (GPa) = 65.20159 34.51016 90.18903
#
# Poissons Ratio (x) = 0.28975 0.46880
# Poissons Ratio (y) = 0.54743 0.32458
# Poissons Ratio (z) = 0.33891 0.12420
#
# Static dielectric constant tensor:
#      x y z
#    x 3.668600 0.000000 0.066780 
#    y 0.000000 2.995930 0.000000 
#    z 0.066780 0.000000 3.619430 
# 
# 
# High freq. dielectric constant tensor:
#      x y z
#    x 1.725000 0.000000 -0.000220 
#    y 0.000000 1.682040 0.000000 
#    z -0.000220 0.000000 1.734680 
# 
# From -- ./inp_files/35390.got.cif
#   From: 2010.06.25/outbox.cif.g09.slc.cpg/sg10_18_cif.got.tgz:35390.got - 2010.06.27 22:07:45.
