data_PCOD8065966
_publ_section_title
;
Structure prediction by ZEFSAII (Michael W. Deem and Ramdas Pophale) SiO2 
 PCOD8065966
Probable space group: P 2/M
;
_chemical_formula_sum "Si O2"
_cell_formula_units_Z 28
_cell_length_a 19.492035
_cell_length_b 9.598658
_cell_length_c 14.310248
_cell_angle_alpha 90.000000
_cell_angle_beta 145.802205
_cell_angle_gamma 90.000000
_cell_volume 1504.842364
_symmetry_space_group_name_H-M "P 2/M"
_symmetry_group_IT_number 10
_symmetry_cell_setting 'monoclinic'
loop_
_space_group_symop_operation_xyz
x,y,z
-x,y,-z
-x,-y,-z
x,-y,z
loop_
_atom_site_type_symbol
_atom_site_label
_atom_site_fract_x
_atom_site_fract_y
_atom_site_fract_z
Si Si1 0.819938 0.837755 0.556722
Si Si2 0.796354 0.658325 0.006909
Si Si3 0.547230 0.159132 0.287617
Si Si4 0.289175 0.161745 0.925163
Si Si5 0.529510 0.340792 0.634985
Si Si6 0.977755 0.336573 0.867826
Si Si7 0.113492 0.835964 0.569845
O O1 0.674577 0.818199 0.378287
O O2 0.880109 0.777442 0.528782
O O3 0.865824 0.749817 0.697362
O O4 0.851484 0.000000 0.609026
O O5 0.812879 0.500000 0.060130
O O6 0.672832 0.677276 0.810341
O O7 0.794321 0.756530 0.094732
O O8 0.903350 0.703046 0.057791
O O9 0.549206 0.252244 0.381757
O O10 0.530991 0.000000 0.301014
O O11 0.432550 0.202875 0.092280
O O12 0.239433 0.199334 0.766136
O O13 0.268629 0.000000 0.924290
O O14 0.500000 0.282092 0.500000
O O15 0.486937 0.500000 0.597794
O O16 0.946250 0.500000 0.827324
O O17 0.000000 0.290759 0.000000
O O18 0.000000 0.770797 0.500000
O O19 0.095788 0.000000 0.541469
#
# Coordination Sequence:
#
# PCOD8065966 Si02
#       7
#     4   4   4   4   4   4   4
#     4  10  21  36  53  77 108 137 173 218 260 307
#     4   9  18  33  50  74 102 128 167 216 259 303
#     4   9  19  33  49  75 108 137 169 213 259 303
#     4   9  17  32  54  77 103 138 173 207 256 309
#     4   9  18  31  52  75  96 131 174 212 253 306
#     4  10  22  37  54  74 101 137 174 214 260 312
#     4   9  17  30  52  79 104 135 176 216 253 303
#
# _framework density 18.606601000000001
#
# number of rings (size 3 to 8) (size 9 to 14) (size 15 to 20)
#    0.000    2.714    0.000    0.857    2.000    3.429 
#    0.000    3.571    0.000    2.571    0.000    5.000 
#    0.000    0.000    0.000    0.000    0.000    0.000 
#
# Total GULP energy -347145.419890 kJ/mol
# GULP energy per Si atom -12398.050710 kJ/mol
# Density = 1.856425 g / cm^3
# Si number density = 18.606601 Si / 1000 Ang^3
#
#
#
# Elastic Constant Matrix: (Units=GPa)
#
#
# Indices 1 2 3 4 5 6 
#
# 1 96.4600 33.4734 56.7752 0.0000 -5.1893 0.0000
# 2 33.4734 43.3628 35.3521 0.0000 -5.3364 0.0000
# 3 56.7752 35.3521 99.0136 0.0000 -14.6457 0.0000
# 4 0.0000 0.0000 0.0000 19.1297 0.0000 2.5860
# 5 -5.1893 -5.3364 -14.6457 0.0000 33.4062 0.0000
# 6 0.0000 0.0000 0.0000 2.5860 0.0000 22.7094
#
#
#
# Elastic Compliance Matrix: (Units=1/GPa)
#
#
# Indices 1 2 3 4 5 6 
#
# 1 0.017272 -0.007424 -0.007520 0.000000 -0.001800 0.000000
# 2 -0.007424 0.035722 -0.008366 0.000000 0.000885 0.000000
# 3 -0.007520 -0.008366 0.018209 0.000000 0.005478 0.000000
# 4 0.000000 0.000000 0.000000 0.053092 0.000000 -0.006046
# 5 -0.001800 0.000885 0.005478 0.000000 0.032198 0.000000
# 6 0.000000 0.000000 0.000000 -0.006046 0.000000 0.044723
#
#
# Mechanical properties :
#
#
# Convention : Reuss Voigt Hill
#
# Bulk Modulus (GPa) = 40.67827 54.44863 47.56345
# Shear Modulus (GPa) = 19.52890 22.59813 21.06352
#
# Velocity S-wave (km/s) = 3.24322 3.48878 3.36824
# Velocity P-wave (km/s) = 5.99453 6.74947 6.38317
#
# Compressibility (1/GPa) = 0.02458315
#
# Stress axis : x y z
#
# Youngs Moduli (GPa) = 57.89564 27.99402 54.91852
#
# Poissons Ratio (x) = 0.20784 0.41296
# Poissons Ratio (y) = 0.42984 0.45946
# Poissons Ratio (z) = 0.43535 0.23420
#
# Static dielectric constant tensor:
#      x y z
#    x 3.472110 0.000000 0.007710 
#    y 0.000000 3.266420 0.000000 
#    z 0.007710 0.000000 3.539610 
# 
# 
# High freq. dielectric constant tensor:
#      x y z
#    x 1.716900 0.000000 0.003250 
#    y 0.000000 1.698460 0.000000 
#    z 0.003250 0.000000 1.732520 
# 
# From -- ./inp_files/70296.got.cif
#   From: 2010.06.25/outbox.cif.g09.slc.cpg/sg10_36_cif.got.tgz:70296.got - 2010.06.27 22:07:45.
