data_PCOD8065516
_publ_section_title
;
Structure prediction by ZEFSAII (Michael W. Deem and Ramdas Pophale) SiO2 
 PCOD8065516
Probable space group: P 2/M
;
_chemical_formula_sum "Si O2"
_cell_formula_units_Z 28
_cell_length_a 24.377086
_cell_length_b 9.158241
_cell_length_c 21.990210
_cell_angle_alpha 90.000000
_cell_angle_beta 17.352358
_cell_angle_gamma 90.000000
_cell_volume 1464.197467
_symmetry_space_group_name_H-M "P 2/M"
_symmetry_group_IT_number 10
_symmetry_cell_setting 'monoclinic'
loop_
_space_group_symop_operation_xyz
x,y,z
-x,y,-z
-x,-y,-z
x,-y,z
loop_
_atom_site_type_symbol
_atom_site_label
_atom_site_fract_x
_atom_site_fract_y
_atom_site_fract_z
Si Si1 0.435070 0.670450 0.775793
Si Si2 0.674741 0.329967 0.971323
Si Si3 0.212680 0.830179 0.779695
Si Si4 0.423857 0.832103 0.144948
Si Si5 0.765059 0.827692 0.375318
Si Si6 0.994743 0.167877 0.436389
Si Si7 0.194770 0.827288 0.930256
O O1 0.451050 0.500000 0.745364
O O2 0.637471 0.741689 0.557478
O O3 0.294225 0.741641 0.877949
O O4 0.358301 0.703346 0.923444
O O5 0.680135 0.500000 0.951260
O O6 0.869846 0.261991 0.747685
O O7 0.509185 0.261142 0.108496
O O8 0.299318 0.771775 0.624663
O O9 0.279386 0.770743 0.775158
O O10 0.250014 0.000000 0.741834
O O11 0.000000 0.795707 0.000000
O O12 0.206126 0.812243 0.379054
O O13 0.483376 0.000000 0.090333
O O14 0.500000 0.774111 0.000000
O O15 0.730649 0.000000 0.418254
O O16 0.977679 0.791401 0.163324
O O17 0.000000 0.225208 0.500000
O O18 0.059582 0.000000 0.366271
O O19 0.227656 0.000000 0.903225
#
# Coordination Sequence:
#
# PCOD8065516 Si02
#       7
#     4   4   4   4   4   4   4
#     4  11  25  40  52  75 116 160 192 226 276 332
#     4  11  25  41  56  80 117 156 192 228 270 329
#     4   7  12  27  53  84 111 135 174 236 295 335
#     4  10  20  38  64  90 115 142 175 223 281 332
#     4   9  18  35  60  85 109 142 189 240 287 334
#     4  10  20  38  64  90 115 142 175 223 281 332
#     4   9  18  35  60  85 109 142 189 240 287 334
#
# _framework density 19.123104999999999
#
# number of rings (size 3 to 8) (size 9 to 14) (size 15 to 20)
#    0.000    2.429    1.429    2.571    0.000    5.714 
#    0.000    9.286    0.000    2.571    0.000    0.000 
#    0.000    0.000    0.000    0.000    0.000    0.000 
#
# Total GULP energy -347033.562962 kJ/mol
# GULP energy per Si atom -12394.055820 kJ/mol
# Density = 1.907958 g / cm^3
# Si number density = 19.123105 Si / 1000 Ang^3
#
#
#
# Elastic Constant Matrix: (Units=GPa)
#
#
# Indices 1 2 3 4 5 6 
#
# 1 90.1359 44.4284 19.6604 0.0000 2.3234 0.0000
# 2 44.4284 68.0447 36.5606 0.0000 11.3444 0.0000
# 3 19.6604 36.5606 74.4918 0.0000 7.7051 0.0000
# 4 0.0000 0.0000 0.0000 -18.8381 0.0000 -41.1372
# 5 2.3234 11.3444 7.7051 0.0000 27.9671 0.0000
# 6 0.0000 0.0000 0.0000 -41.1372 0.0000 -186.1347
#
#
#
# Elastic Compliance Matrix: (Units=1/GPa)
#
#
# Indices 1 2 3 4 5 6 
#
# 1 0.016706 -0.012078 0.001189 0.000000 0.003184 0.000000
# 2 -0.012078 0.029567 -0.010486 0.000000 -0.008101 0.000000
# 3 0.001189 -0.010486 0.018350 0.000000 -0.000901 0.000000
# 4 0.000000 0.000000 0.000000 -0.102601 0.000000 0.022676
# 5 0.003184 -0.008101 -0.000901 0.000000 0.039026 0.000000
# 6 0.000000 0.000000 0.000000 0.022676 0.000000 -0.010384
#
#
# Mechanical properties :
#
#
# Convention : Reuss Voigt Hill
#
# Bulk Modulus (GPa) = 45.71549 48.21901 46.96725
# Shear Modulus (GPa) = 122.84070 -26.59960 48.12055
#
# Velocity S-wave (km/s) = 8.02348 -3.73361 5.02177
# Velocity P-wave (km/s) = 10.47821 2.58521 7.63139
#
# Compressibility (1/GPa) = 0.02187442
#
# Stress axis : x y z
#
# Youngs Moduli (GPa) = 59.85877 33.82191 54.49577
#
# Poissons Ratio (x) = 0.40849 -0.06481
# Poissons Ratio (y) = 0.72295 0.57143
# Poissons Ratio (z) = -0.07118 0.35465
#
# Static dielectric constant tensor:
#      x y z
#    x 3.619060 0.000000 0.110520 
#    y 0.000000 3.264730 0.000000 
#    z 0.110520 0.000000 3.565560 
# 
# 
# High freq. dielectric constant tensor:
#      x y z
#    x 1.750830 0.000000 0.000580 
#    y 0.000000 1.715280 0.000000 
#    z 0.000580 0.000000 1.752160 
# 
# From -- ./inp_files/86481.got.cif
#   From: 2010.06.25/outbox.cif.g09.slc.cpg/sg10_44_cif.got.tgz:86481.got - 2010.06.27 22:07:45.
