data_PCOD8065987
_publ_section_title
;
Structure prediction by ZEFSAII (Michael W. Deem and Ramdas Pophale) SiO2 
 PCOD8065987
Probable space group: P 2/M
;
_chemical_formula_sum "Si O2"
_cell_formula_units_Z 32
_cell_length_a 12.901309
_cell_length_b 8.747996
_cell_length_c 31.955601
_cell_angle_alpha 90.000000
_cell_angle_beta 27.159593
_cell_angle_gamma 90.000000
_cell_volume 1646.274007
_symmetry_space_group_name_H-M "P 2/M"
_symmetry_group_IT_number 10
_symmetry_cell_setting 'monoclinic'
loop_
_space_group_symop_operation_xyz
x,y,z
-x,y,-z
-x,-y,-z
x,-y,z
loop_
_atom_site_type_symbol
_atom_site_label
_atom_site_fract_x
_atom_site_fract_y
_atom_site_fract_z
Si Si1 0.758412 0.677599 0.098243
Si Si2 0.070647 0.170057 0.649157
Si Si3 0.455733 0.678846 0.374529
Si Si4 0.566063 0.679764 0.713729
Si Si5 0.545058 0.830418 0.856804
Si Si6 0.343326 0.819592 0.092241
Si Si7 0.847241 0.816915 0.290090
Si Si8 0.043016 0.817321 0.567575
O O1 0.799088 0.500000 0.089809
O O2 0.643712 0.739968 0.182284
O O3 0.590296 0.705268 0.120327
O O4 0.000000 0.756897 0.000000
O O5 0.802016 0.166190 0.749965
O O6 0.177485 0.247468 0.652813
O O7 0.119267 0.247382 0.586393
O O8 0.170950 0.000000 0.610809
O O9 0.462317 0.500000 0.381225
O O10 0.501769 0.716460 0.309538
O O11 0.643003 0.760283 0.335372
O O12 0.208778 0.744158 0.474004
O O13 0.612339 0.500000 0.703677
O O14 0.789017 0.769870 0.647460
O O15 0.530366 0.779285 0.910144
O O16 0.439664 0.000000 0.888236
O O17 0.084823 0.755385 0.185116
O O18 0.327125 0.000000 0.091748
O O19 0.500000 0.744009 0.000000
O O20 0.850296 0.000000 0.290914
O O21 0.058236 0.000000 0.560954
#
# Coordination Sequence:
#
# PCOD8065987 Si02
#       8
#     4   4   4   4   4   4   4   4
#     4  10  21  36  54  78 107 142 182 220 268 324
#     4   8  16  32  55  80 106 136 170 220 274 318
#     4  11  24  39  53  76 114 151 182 221 274 328
#     4  10  22  40  57  75 109 151 182 221 276 327
#     4   9  16  31  53  77 105 136 174 221 270 315
#     4   8  15  29  53  82 109 139 176 220 271 325
#     4   9  18  35  56  78 109 145 181 219 270 326
#     4  11  21  36  61  86 106 136 185 232 273 325
#
# _framework density 19.437833000000001
#
# number of rings (size 3 to 8) (size 9 to 14) (size 15 to 20)
#    0.000    2.500    1.250    2.625    0.000    4.250 
#    0.000    6.250    0.000    0.750    0.000    0.000 
#    0.000    0.000    0.000    0.000    0.000    0.000 
#
# Total GULP energy -396557.680342 kJ/mol
# GULP energy per Si atom -12392.427511 kJ/mol
# Density = 1.939359 g / cm^3
# Si number density = 19.437833 Si / 1000 Ang^3
#
#
#
# Elastic Constant Matrix: (Units=GPa)
#
#
# Indices 1 2 3 4 5 6 
#
# 1 110.1251 13.5559 51.2849 0.0000 8.3043 0.0000
# 2 13.5559 18.6093 17.4337 0.0000 3.8343 0.0000
# 3 51.2849 17.4337 112.0537 0.0000 17.4802 0.0000
# 4 0.0000 0.0000 0.0000 13.8397 0.0000 5.6656
# 5 8.3043 3.8343 17.4802 0.0000 29.2033 0.0000
# 6 0.0000 0.0000 0.0000 5.6656 0.0000 2.1507
#
#
#
# Elastic Compliance Matrix: (Units=1/GPa)
#
#
# Indices 1 2 3 4 5 6 
#
# 1 0.011807 -0.004145 -0.004765 0.000000 0.000039 0.000000
# 2 -0.004145 0.064547 -0.007729 0.000000 -0.002670 0.000001
# 3 -0.004765 -0.007729 0.013167 0.000000 -0.005512 0.000001
# 4 0.000000 0.000000 0.000000 -0.921659 0.000000 2.427905
# 5 0.000039 -0.002670 -0.005512 0.000000 0.037881 -0.000001
# 6 0.000000 0.000001 0.000001 2.427905 -0.000001 -5.930817
#
#
# Mechanical properties :
#
#
# Convention : Reuss Voigt Hill
#
# Bulk Modulus (GPa) = 17.77976 45.03745 31.40860
# Shear Modulus (GPa) = -0.74928 19.60631 9.42851
#
# Velocity S-wave (km/s) = -0.62154 3.17940 2.20480
# Velocity P-wave (km/s) = 2.94139 6.05792 4.76184
#
# Compressibility (1/GPa) = 0.05624373
#
# Stress axis : x y z
#
# Youngs Moduli (GPa) = 84.69627 15.49266 75.94477
#
# Poissons Ratio (x) = 0.06421 0.36188
# Poissons Ratio (y) = 0.35105 0.58697
# Poissons Ratio (z) = 0.40358 0.11974
#
# Static dielectric constant tensor:
#      x y z
#    x 3.758460 0.000000 0.342750 
#    y 0.000000 3.219700 0.000000 
#    z 0.342750 0.000000 3.974700 
# 
# 
# High freq. dielectric constant tensor:
#      x y z
#    x 1.765820 0.000000 0.013060 
#    y 0.000000 1.717630 0.000000 
#    z 0.013060 0.000000 1.762550 
# 
# From -- ./inp_files/94919.got.cif
#   From: 2010.06.25/outbox.cif.g09.slc.cpg/sg10_48_cif.got.tgz:94919.got - 2010.06.27 22:07:45.
