data_PCOD8065697
_publ_section_title
;
Structure prediction by ZEFSAII (Michael W. Deem and Ramdas Pophale) SiO2 
 PCOD8065697
Probable space group: P 2/M
;
_chemical_formula_sum "Si O2"
_cell_formula_units_Z 28
_cell_length_a 8.874501
_cell_length_b 13.720365
_cell_length_c 23.268286
_cell_angle_alpha 90.000000
_cell_angle_beta 28.912315
_cell_angle_gamma 90.000000
_cell_volume 1369.758545
_symmetry_space_group_name_H-M "P 2/M"
_symmetry_group_IT_number 10
_symmetry_cell_setting 'monoclinic'
loop_
_space_group_symop_operation_xyz
x,y,z
-x,y,-z
-x,-y,-z
x,-y,z
loop_
_atom_site_type_symbol
_atom_site_label
_atom_site_fract_x
_atom_site_fract_y
_atom_site_fract_z
Si Si1 0.722006 0.217831 0.165275
Si Si2 0.201784 0.395880 0.559333
Si Si3 0.420303 0.250655 0.959949
Si Si4 0.366440 0.891110 0.377931
Si Si5 0.269987 0.187063 0.524623
Si Si6 0.479764 0.390509 0.171435
Si Si7 0.332902 0.887693 0.210121
O O1 0.518594 0.192371 0.288956
O O2 0.639229 0.325144 0.168246
O O3 0.648167 0.139800 0.139568
O O4 0.075448 0.207651 0.067492
O O5 0.500000 0.400161 0.500000
O O6 0.187617 0.500000 0.528985
O O7 0.212452 0.296900 0.517996
O O8 0.893065 0.386968 0.701122
O O9 0.500000 0.266725 0.000000
O O10 0.435596 0.352509 0.920582
O O11 0.667598 0.174611 0.848818
O O12 0.451203 0.876526 0.416640
O O13 0.000000 0.875524 0.500000
O O14 0.465044 0.000000 0.324745
O O15 0.500000 0.195183 0.500000
O O16 0.948859 0.138463 0.652739
O O17 0.609303 0.500000 0.135425
O O18 0.323701 0.000000 0.196369
#
# Coordination Sequence:
#
# PCOD8065697 Si02
#       7
#     4   4   4   4   4   4   4
#     4  11  23  41  63  89 123 163 208 262 311 368
#     4   9  17  32  60  92 122 158 196 240 304 364
#     4  11  26  42  60  91 125 160 207 262 321 370
#     4  11  22  38  61  89 122 162 208 254 306 370
#     4  11  22  37  61  92 129 163 206 258 304 366
#     4  10  20  41  69  94 124 164 210 253 306 376
#     4  11  22  41  63  86 119 167 214 256 313 374
#
# _framework density 20.441558000000001
#
# number of rings (size 3 to 8) (size 9 to 14) (size 15 to 20)
#    0.000    1.429    4.286    2.571    2.000    4.571 
#    0.000    0.714    0.000    2.571    0.000    0.000 
#    0.000    0.000    0.000    0.000    0.000    0.000 
#
# Total GULP energy -346951.057539 kJ/mol
# GULP energy per Si atom -12391.109198 kJ/mol
# Density = 2.039503 g / cm^3
# Si number density = 20.441558 Si / 1000 Ang^3
#
#
#
# Elastic Constant Matrix: (Units=GPa)
#
#
# Indices 1 2 3 4 5 6 
#
# 1 82.4420 28.7260 40.0958 0.0000 15.3503 0.0000
# 2 28.7260 146.8789 37.8309 0.0000 16.0085 0.0000
# 3 40.0958 37.8309 85.4165 0.0000 18.1770 0.0000
# 4 0.0000 0.0000 0.0000 -23.6636 0.0000 -10.5859
# 5 15.3503 16.0085 18.1770 0.0000 37.2201 0.0000
# 6 0.0000 0.0000 0.0000 -10.5859 0.0000 7.8989
#
#
#
# Elastic Compliance Matrix: (Units=1/GPa)
#
#
# Indices 1 2 3 4 5 6 
#
# 1 0.016248 -0.001184 -0.006456 0.000000 -0.003039 0.000000
# 2 -0.001184 0.007885 -0.002588 0.000000 -0.001639 0.000000
# 3 -0.006456 -0.002588 0.016830 0.000000 -0.004443 0.000000
# 4 0.000000 0.000000 0.000000 -0.026420 0.000000 -0.035407
# 5 -0.003039 -0.001639 -0.004443 0.000000 0.030996 0.000000
# 6 0.000000 0.000000 0.000000 -0.035407 0.000000 0.079148
#
#
# Mechanical properties :
#
#
# Convention : Reuss Voigt Hill
#
# Bulk Modulus (GPa) = 48.76245 58.67143 53.71694
# Shear Modulus (GPa) = 32.89959 18.16340 25.53150
#
# Velocity S-wave (km/s) = 4.01614 2.98409 3.53795
# Velocity P-wave (km/s) = 6.73886 6.37475 6.55933
#
# Compressibility (1/GPa) = 0.02050758
#
# Stress axis : x y z
#
# Youngs Moduli (GPa) = 61.54626 126.82265 59.41903
#
# Poissons Ratio (x) = 0.15011 0.38362
# Poissons Ratio (y) = 0.07285 0.15376
# Poissons Ratio (z) = 0.39735 0.32819
#
# Static dielectric constant tensor:
#      x y z
#    x 3.955200 0.000000 2.749000 
#    y 0.000000 4.197560 0.000000 
#    z 2.749000 0.000000 30.258350 
# 
# 
# High freq. dielectric constant tensor:
#      x y z
#    x 1.778030 0.000000 -0.013300 
#    y 0.000000 1.809500 0.000000 
#    z -0.013300 0.000000 1.799360 
# 
# From -- ./inp_files/82904.got.cif
#   From: 2010.06.25/outbox.cif.g09.slc.cpg/sg10_42_cif.got.tgz:82904.got - 2010.06.27 22:07:45.
