data_PCOD8065037
_publ_section_title
;
Structure prediction by ZEFSAII (Michael W. Deem and Ramdas Pophale) SiO2 
 PCOD8065037
Probable space group: P 2/M
;
_chemical_formula_sum "Si O2"
_cell_formula_units_Z 28
_cell_length_a 9.053785
_cell_length_b 15.137066
_cell_length_c 11.621290
_cell_angle_alpha 90.000000
_cell_angle_beta 61.165493
_cell_angle_gamma 90.000000
_cell_volume 1395.206359
_symmetry_space_group_name_H-M "P 2/M"
_symmetry_group_IT_number 10
_symmetry_cell_setting 'monoclinic'
loop_
_space_group_symop_operation_xyz
x,y,z
-x,y,-z
-x,-y,-z
x,-y,z
loop_
_atom_site_type_symbol
_atom_site_label
_atom_site_fract_x
_atom_site_fract_y
_atom_site_fract_z
Si Si1 0.322208 0.352992 0.298874
Si Si2 0.657320 0.734490 0.149139
Si Si3 0.691210 0.592949 0.458217
Si Si4 0.464023 0.901556 0.147916
Si Si5 0.230574 0.601273 0.086715
Si Si6 0.112689 0.182829 0.348570
Si Si7 0.919060 0.283547 0.243791
O O1 0.502510 0.312981 0.269888
O O2 0.279194 0.420471 0.415999
O O3 0.329376 0.399236 0.171395
O O4 0.178808 0.278969 0.355452
O O5 0.600501 0.834546 0.147565
O O6 0.827341 0.742137 0.159496
O O7 0.685800 0.675481 0.024878
O O8 0.500000 0.607482 0.500000
O O9 0.755679 0.500000 0.378338
O O10 0.783158 0.680438 0.383542
O O11 0.270217 0.879660 0.256275
O O12 0.500343 0.000000 0.181593
O O13 0.500000 0.897744 0.000000
O O14 0.235480 0.500000 0.035973
O O15 0.040030 0.633364 0.174254
O O16 0.000000 0.146588 0.500000
O O17 0.003049 0.197104 0.271977
#
# Coordination Sequence:
#
# PCOD8065037 Si02
#       7
#     4   4   4   4   4   4   4
#     4  10  20  37  56  81 113 160 208 247 291 348
#     4  11  22  39  61  85 121 156 199 243 305 363
#     4  11  21  33  52  80 115 159 208 251 290 341
#     4  10  22  43  68  93 120 155 200 251 307 375
#     4  11  24  37  55  85 123 163 207 255 298 349
#     4  10  20  37  64  90 120 156 201 247 309 366
#     4  11  22  37  57  85 120 160 197 245 308 353
#
# _framework density 20.068715999999998
#
# number of rings (size 3 to 8) (size 9 to 14) (size 15 to 20)
#    0.000    1.429    2.857    4.286    0.000    3.714 
#    0.000    2.857    0.000    4.286    0.000    0.000 
#    0.000    0.000    0.000    0.000    0.000    0.000 
#
# Total GULP energy -346879.442638 kJ/mol
# GULP energy per Si atom -12388.551523 kJ/mol
# Density = 2.002304 g / cm^3
# Si number density = 20.068716 Si / 1000 Ang^3
#
#
#
# Elastic Constant Matrix: (Units=GPa)
#
#
# Indices 1 2 3 4 5 6 
#
# 1 108.1016 39.1204 25.8451 0.0000 9.1973 0.0000
# 2 39.1204 126.0042 38.4593 0.0000 -2.7234 0.0000
# 3 25.8451 38.4593 94.8470 0.0000 1.4723 0.0000
# 4 0.0000 0.0000 0.0000 39.5527 0.0000 52.2297
# 5 9.1973 -2.7234 1.4723 0.0000 24.7783 0.0000
# 6 0.0000 0.0000 0.0000 52.2297 0.0000 229.9079
#
#
#
# Elastic Compliance Matrix: (Units=1/GPa)
#
#
# Indices 1 2 3 4 5 6 
#
# 1 0.011130 -0.003018 -0.001741 0.000000 -0.004360 0.000000
# 2 -0.003018 0.009912 -0.003234 0.000000 0.002402 0.000000
# 3 -0.001741 -0.003234 0.012336 0.000000 -0.000442 0.000000
# 4 0.000000 0.000000 0.000000 0.036118 0.000000 -0.008205
# 5 -0.004360 0.002402 -0.000442 0.000000 0.042266 0.000000
# 6 0.000000 0.000000 0.000000 -0.008205 0.000000 0.006214
#
#
# Mechanical properties :
#
#
# Convention : Reuss Voigt Hill
#
# Bulk Modulus (GPa) = 57.50105 59.53358 58.51731
# Shear Modulus (GPa) = 35.77546 73.88297 54.82921
#
# Velocity S-wave (km/s) = 4.22672 6.07412 5.23259
# Velocity P-wave (km/s) = 7.24807 8.88383 8.10731
#
# Compressibility (1/GPa) = 0.01739099
#
# Stress axis : x y z
#
# Youngs Moduli (GPa) = 89.84674 100.88383 81.06305
#
# Poissons Ratio (x) = 0.30450 0.14116
# Poissons Ratio (y) = 0.27118 0.26217
# Poissons Ratio (z) = 0.15645 0.32628
#
# Static dielectric constant tensor:
#      x y z
#    x 5.004250 0.000000 -2.026080 
#    y 0.000000 3.504190 0.000000 
#    z -2.026080 0.000000 6.955580 
# 
# 
# High freq. dielectric constant tensor:
#      x y z
#    x 1.788600 0.000000 -0.008100 
#    y 0.000000 1.757050 0.000000 
#    z -0.008100 0.000000 1.789810 
# 
# From -- ./inp_files/42855.got.cif
#   From: 2010.06.25/outbox.cif.g09.slc.cpg/sg10_22_cif.got.tgz:42855.got - 2010.06.27 22:07:45.
