data_PCOD8065677
_publ_section_title
;
Structure prediction by ZEFSAII (Michael W. Deem and Ramdas Pophale) SiO2 
 PCOD8065677
Probable space group: P 2/M
;
_chemical_formula_sum "Si O2"
_cell_formula_units_Z 20
_cell_length_a 11.509222
_cell_length_b 11.256716
_cell_length_c 12.815915
_cell_angle_alpha 90.000000
_cell_angle_beta 144.845788
_cell_angle_gamma 90.000000
_cell_volume 956.011681
_symmetry_space_group_name_H-M "P 2/M"
_symmetry_group_IT_number 10
_symmetry_cell_setting 'monoclinic'
loop_
_space_group_symop_operation_xyz
x,y,z
-x,y,-z
-x,-y,-z
x,-y,z
loop_
_atom_site_type_symbol
_atom_site_label
_atom_site_fract_x
_atom_site_fract_y
_atom_site_fract_z
Si Si1 0.698105 0.500000 0.021797
Si Si2 0.181076 0.253226 0.567564
Si Si3 0.976732 0.135140 0.746108
Si Si4 0.683168 0.865221 0.710722
Si Si5 0.763536 0.500000 0.296472
Si Si6 0.643857 0.246965 0.899929
O O1 0.470376 0.500000 0.890205
O O2 0.727785 0.380789 0.976180
O O3 0.838414 0.500000 0.229470
O O4 0.142408 0.223217 0.418583
O O5 0.156038 0.391744 0.574767
O O6 0.413014 0.219994 0.767241
O O7 0.000000 0.186469 0.500000
O O8 0.890543 0.153959 0.799504
O O9 0.941156 0.000000 0.682268
O O10 0.215165 0.162646 0.925552
O O11 0.500000 0.836726 0.500000
O O12 0.670482 0.776308 0.797409
O O13 0.668964 0.000000 0.742989
#
# Coordination Sequence:
#
# PCOD8065677 Si02
#       6
#     2   4   4   4   2   4
#     4   9  20  38  63  93 121 160 208 244 304 371
#     4  11  23  39  62  91 122 161 208 253 300 360
#     4  11  24  40  63  93 122 162 209 249 304 365
#     4  10  20  40  67  89 118 162 206 250 304 364
#     4   9  19  40  65  87 119 165 209 251 296 359
#     4  11  22  40  63  91 125 159 202 258 303 357
#
# _framework density 20.920245000000001
#
# number of rings (size 3 to 8) (size 9 to 14) (size 15 to 20)
#    0.000    1.600    2.000    2.700    0.000    6.000 
#    0.000    4.500    0.000    0.000    0.000    0.000 
#    0.000    0.000    0.000    0.000    0.000    0.000 
#
# Total GULP energy -247824.470290 kJ/mol
# GULP energy per Si atom -12391.223514 kJ/mol
# Density = 2.087263 g / cm^3
# Si number density = 20.920245 Si / 1000 Ang^3
#
#
#
# Elastic Constant Matrix: (Units=GPa)
#
#
# Indices 1 2 3 4 5 6 
#
# 1 84.9141 61.6384 50.5953 0.0000 2.4842 0.0000
# 2 61.6384 116.1248 66.2498 0.0000 -24.6925 0.0000
# 3 50.5953 66.2498 110.2506 0.0000 7.0801 0.0000
# 4 0.0000 0.0000 0.0000 38.2780 0.0000 -5.9592
# 5 2.4842 -24.6925 7.0801 0.0000 49.2382 0.0000
# 6 0.0000 0.0000 0.0000 -5.9592 0.0000 27.3105
#
#
#
# Elastic Compliance Matrix: (Units=1/GPa)
#
#
# Indices 1 2 3 4 5 6 
#
# 1 0.021900 -0.011399 -0.002788 0.000000 -0.006421 0.000000
# 2 -0.011399 0.022843 -0.009354 0.000000 0.013375 0.000000
# 3 -0.002788 -0.009354 0.016414 0.000000 -0.006910 0.000000
# 4 0.000000 0.000000 0.000000 0.027043 0.000000 0.005901
# 5 -0.006421 0.013375 -0.006910 0.000000 0.028335 0.000000
# 6 0.000000 0.000000 0.000000 0.005901 0.000000 0.037904
#
#
# Mechanical properties :
#
#
# Convention : Reuss Voigt Hill
#
# Bulk Modulus (GPa) = 71.04933 74.25071 72.65002
# Shear Modulus (GPa) = 24.24678 31.81906 28.03292
#
# Velocity S-wave (km/s) = 3.40812 3.90419 3.66456
# Velocity P-wave (km/s) = 7.03724 7.47616 7.26002
#
# Compressibility (1/GPa) = 0.01407473
#
# Stress axis : x y z
#
# Youngs Moduli (GPa) = 45.66143 43.77793 60.92230
#
# Poissons Ratio (x) = 0.49903 0.16987
# Poissons Ratio (y) = 0.52050 0.56986
# Poissons Ratio (z) = 0.12732 0.40949
#
# Static dielectric constant tensor:
#      x y z
#    x 3.933210 0.000000 0.340750 
#    y 0.000000 3.780900 0.000000 
#    z 0.340750 0.000000 4.080710 
# 
# 
# High freq. dielectric constant tensor:
#      x y z
#    x 1.813100 0.000000 0.013850 
#    y 0.000000 1.799850 0.000000 
#    z 0.013850 0.000000 1.843160 
# 
# From -- ./inp_files/46860.got.cif
#   From: 2010.06.25/outbox.cif.g09.slc.cpg/sg10_24_cif.got.tgz:46860.got - 2010.06.27 22:07:45.
