data_PCOD8065314
_publ_section_title
;
Structure prediction by ZEFSAII (Michael W. Deem and Ramdas Pophale) SiO2 
 PCOD8065314
Probable space group: P 2/M
;
_chemical_formula_sum "Si O2"
_cell_formula_units_Z 28
_cell_length_a 12.616038
_cell_length_b 8.806663
_cell_length_c 14.610291
_cell_angle_alpha 90.000000
_cell_angle_beta 120.871762
_cell_angle_gamma 90.000000
_cell_volume 1393.289618
_symmetry_space_group_name_H-M "P 2/M"
_symmetry_group_IT_number 10
_symmetry_cell_setting 'monoclinic'
loop_
_space_group_symop_operation_xyz
x,y,z
-x,y,-z
-x,-y,-z
x,-y,z
loop_
_atom_site_type_symbol
_atom_site_label
_atom_site_fract_x
_atom_site_fract_y
_atom_site_fract_z
Si Si1 0.505229 0.678137 0.270067
Si Si2 0.267961 0.676157 0.273921
Si Si3 0.593648 0.177220 0.122544
Si Si4 0.311170 0.320920 0.494384
Si Si5 0.987631 0.821430 0.890381
Si Si6 0.042518 0.680918 0.421954
Si Si7 0.852056 0.679752 0.186517
O O1 0.530244 0.500000 0.265169
O O2 0.362289 0.707676 0.232827
O O3 0.534877 0.767422 0.191261
O O4 0.587761 0.744643 0.390304
O O5 0.228829 0.500000 0.261065
O O6 0.336808 0.721668 0.399661
O O7 0.144009 0.771352 0.207699
O O8 0.718095 0.264848 0.155503
O O9 0.622097 0.000000 0.142244
O O10 0.500000 0.215220 0.000000
O O11 0.313002 0.500000 0.507241
O O12 0.177753 0.253582 0.461547
O O13 0.103483 0.745712 0.890470
O O14 0.999810 0.000000 0.885385
O O15 0.000000 0.767688 0.000000
O O16 0.043839 0.500000 0.423214
O O17 0.000000 0.747151 0.500000
O O18 0.948210 0.740775 0.304258
O O19 0.849702 0.500000 0.179244
#
# Coordination Sequence:
#
# PCOD8065314 Si02
#       7
#     4   4   4   4   4   4   4
#     4  10  21  37  63  94 121 157 206 256 299 353
#     4  10  20  37  62  94 124 157 203 254 303 354
#     4  11  26  45  62  83 121 168 204 243 305 370
#     4   9  16  32  57  90 128 156 191 245 309 359
#     4  11  25  42  61  87 124 168 204 242 304 369
#     4   9  16  28  54  89 121 152 186 235 299 357
#     4  11  22  40  67  94 119 151 201 260 302 347
#
# _framework density 20.096323000000002
#
# number of rings (size 3 to 8) (size 9 to 14) (size 15 to 20)
#    0.000    1.857    1.429    2.571    2.000    6.857 
#    0.000    0.714    0.000    3.429    0.000    0.000 
#    0.000    0.000    0.000    0.000    0.000    0.000 
#
# Total GULP energy -347220.227881 kJ/mol
# GULP energy per Si atom -12400.722424 kJ/mol
# Density = 2.005058 g / cm^3
# Si number density = 20.096323 Si / 1000 Ang^3
#
#
#
# Elastic Constant Matrix: (Units=GPa)
#
#
# Indices 1 2 3 4 5 6 
#
# 1 117.1009 23.1955 31.3116 0.0000 -22.0803 0.0000
# 2 23.1955 42.2325 25.0751 0.0000 -8.8635 0.0000
# 3 31.3116 25.0751 95.3488 0.0000 -20.5975 0.0000
# 4 0.0000 0.0000 0.0000 5.0136 0.0000 8.8289
# 5 -22.0803 -8.8635 -20.5975 0.0000 37.0946 0.0000
# 6 0.0000 0.0000 0.0000 8.8289 0.0000 16.7568
#
#
#
# Elastic Compliance Matrix: (Units=1/GPa)
#
#
# Indices 1 2 3 4 5 6 
#
# 1 0.010573 -0.003999 -0.001440 0.000000 0.004538 0.000000
# 2 -0.003999 0.029862 -0.006264 0.000000 0.001276 0.000000
# 3 -0.001440 -0.006264 0.013749 0.000000 0.005280 0.000000
# 4 0.000000 0.000000 0.000000 2.763883 0.000000 -1.456249
# 5 0.004538 0.001276 0.005280 0.000000 0.032896 0.000000
# 6 0.000000 0.000000 0.000000 -1.456249 0.000000 0.826953
#
#
# Mechanical properties :
#
#
# Convention : Reuss Voigt Hill
#
# Bulk Modulus (GPa) = 32.49217 45.98295 39.23756
# Shear Modulus (GPa) = 1.34713 23.44634 12.39674
#
# Velocity S-wave (km/s) = 0.81963 3.41940 2.48637
# Velocity P-wave (km/s) = 4.13510 6.20650 5.27351
#
# Compressibility (1/GPa) = 0.03077665
#
# Stress axis : x y z
#
# Youngs Moduli (GPa) = 94.58448 33.48711 72.73426
#
# Poissons Ratio (x) = 0.13393 0.10472
# Poissons Ratio (y) = 0.37829 0.45562
# Poissons Ratio (z) = 0.13618 0.20977
#
# Static dielectric constant tensor:
#      x y z
#    x 3.802010 0.000000 -0.068960 
#    y 0.000000 3.303440 0.000000 
#    z -0.068960 0.000000 3.870530 
# 
# 
# High freq. dielectric constant tensor:
#      x y z
#    x 1.803100 0.000000 -0.004990 
#    y 0.000000 1.748080 0.000000 
#    z -0.004990 0.000000 1.795500 
# 
# From -- ./inp_files/63895.got.cif
#   From: 2010.06.25/outbox.cif.g09.slc.cpg/sg10_32_cif.got.tgz:63895.got - 2010.06.27 22:07:45.
