data_PCOD8065101
_publ_section_title
;
Structure prediction by ZEFSAII (Michael W. Deem and Ramdas Pophale) SiO2 
 PCOD8065101
Probable space group: P 2/M
;
_chemical_formula_sum "Si O2"
_cell_formula_units_Z 28
_cell_length_a 14.469169
_cell_length_b 9.126137
_cell_length_c 21.547288
_cell_angle_alpha 90.000000
_cell_angle_beta 149.477308
_cell_angle_gamma 90.000000
_cell_volume 1445.053527
_symmetry_space_group_name_H-M "P 2/M"
_symmetry_group_IT_number 10
_symmetry_cell_setting 'monoclinic'
loop_
_space_group_symop_operation_xyz
x,y,z
-x,y,-z
-x,-y,-z
x,-y,z
loop_
_atom_site_type_symbol
_atom_site_label
_atom_site_fract_x
_atom_site_fract_y
_atom_site_fract_z
Si Si1 0.380510 0.669270 0.338080
Si Si2 0.166264 0.327798 0.552015
Si Si3 0.402848 0.172042 0.883731
Si Si4 0.499503 0.169247 0.195010
Si Si5 0.203373 0.829975 0.121754
Si Si6 0.231733 0.669988 0.383066
Si Si7 0.006080 0.826379 0.345514
O O1 0.375879 0.500000 0.316937
O O2 0.319121 0.759348 0.243314
O O3 0.246464 0.700370 0.318243
O O4 0.582771 0.715876 0.474870
O O5 0.177394 0.500000 0.546472
O O6 0.353031 0.274497 0.689457
O O7 0.000000 0.283988 0.500000
O O8 0.142098 0.246649 0.473071
O O9 0.516110 0.209778 0.887001
O O10 0.197522 0.232260 0.759317
O O11 0.390226 0.000000 0.887288
O O12 0.500000 0.244614 0.000000
O O13 0.305077 0.197106 0.114990
O O14 0.561575 0.000000 0.238708
O O15 0.189720 0.000000 0.129914
O O16 0.000000 0.762055 0.000000
O O17 0.188731 0.500000 0.370639
O O18 0.068610 0.771236 0.313917
O O19 0.020876 0.000000 0.358694
#
# Coordination Sequence:
#
# PCOD8065101 Si02
#       7
#     4   4   4   4   4   4   4
#     4   9  19  37  58  79 107 147 186 224 274 335
#     4  11  22  35  55  82 114 147 181 228 281 327
#     4   9  19  35  54  77 107 145 184 219 264 326
#     4  10  20  37  59  81 111 148 185 230 278 330
#     4  10  22  37  55  82 113 146 186 237 285 321
#     4   9  19  36  57  81 112 144 177 224 282 333
#     4  11  21  33  55  85 112 143 184 226 269 327
#
# _framework density 19.376446000000001
#
# number of rings (size 3 to 8) (size 9 to 14) (size 15 to 20)
#    0.000    2.143    1.429    2.571    0.000    6.000 
#    0.000    4.286    0.000    3.857    0.000    0.000 
#    0.000    0.000    0.000    0.000    0.000    0.000 
#
# Total GULP energy -347225.830343 kJ/mol
# GULP energy per Si atom -12400.922512 kJ/mol
# Density = 1.933234 g / cm^3
# Si number density = 19.376446 Si / 1000 Ang^3
#
#
#
# Elastic Constant Matrix: (Units=GPa)
#
#
# Indices 1 2 3 4 5 6 
#
# 1 139.5261 38.7869 45.0399 0.0000 1.4596 0.0000
# 2 38.7869 50.8697 22.7664 0.0000 0.7965 0.0000
# 3 45.0399 22.7664 82.4971 0.0000 -8.7158 0.0000
# 4 0.0000 0.0000 0.0000 15.7290 0.0000 1.0507
# 5 1.4596 0.7965 -8.7158 0.0000 32.5641 0.0000
# 6 0.0000 0.0000 0.0000 1.0507 0.0000 28.4697
#
#
#
# Elastic Compliance Matrix: (Units=1/GPa)
#
#
# Indices 1 2 3 4 5 6 
#
# 1 0.010126 -0.005886 -0.004051 0.000000 -0.001394 0.000000
# 2 -0.005886 0.026013 -0.004121 0.000000 -0.001476 0.000000
# 3 -0.004051 -0.004121 0.015952 0.000000 0.004552 0.000000
# 4 0.000000 0.000000 0.000000 0.063734 0.000000 -0.002352
# 5 -0.001394 -0.001476 0.004552 0.000000 0.032026 0.000000
# 6 0.000000 0.000000 0.000000 -0.002352 0.000000 0.035212
#
#
# Mechanical properties :
#
#
# Convention : Reuss Voigt Hill
#
# Bulk Modulus (GPa) = 41.71154 54.00882 47.86018
# Shear Modulus (GPa) = 22.81336 26.43920 24.62628
#
# Velocity S-wave (km/s) = 3.43501 3.69792 3.56889
# Velocity P-wave (km/s) = 6.10787 6.79462 6.46038
#
# Compressibility (1/GPa) = 0.02397418
#
# Stress axis : x y z
#
# Youngs Moduli (GPa) = 98.75947 38.44186 62.68924
#
# Poissons Ratio (x) = 0.22625 0.25397
# Poissons Ratio (y) = 0.58126 0.25837
# Poissons Ratio (z) = 0.40010 0.15843
#
# Static dielectric constant tensor:
#      x y z
#    x 3.849890 0.000000 0.035440 
#    y 0.000000 3.290970 0.000000 
#    z 0.035440 0.000000 3.470360 
# 
# 
# High freq. dielectric constant tensor:
#      x y z
#    x 1.774720 0.000000 -0.001170 
#    y 0.000000 1.733690 0.000000 
#    z -0.001170 0.000000 1.739850 
# 
# From -- ./inp_files/49130.got.cif
#   From: 2010.06.25/outbox.cif.g09.slc.cpg/sg10_25_cif.got.tgz:49130.got - 2010.06.27 22:07:45.
