data_PCOD8065919
_publ_section_title
;
Structure prediction by ZEFSAII (Michael W. Deem and Ramdas Pophale) SiO2 
 PCOD8065919
Probable space group: P 2/M
;
_chemical_formula_sum "Si O2"
_cell_formula_units_Z 30
_cell_length_a 13.829886
_cell_length_b 12.887542
_cell_length_c 17.449604
_cell_angle_alpha 90.000000
_cell_angle_beta 28.781036
_cell_angle_gamma 90.000000
_cell_volume 1497.399666
_symmetry_space_group_name_H-M "P 2/M"
_symmetry_group_IT_number 10
_symmetry_cell_setting 'monoclinic'
loop_
_space_group_symop_operation_xyz
x,y,z
-x,y,-z
-x,-y,-z
x,-y,z
loop_
_atom_site_type_symbol
_atom_site_label
_atom_site_fract_x
_atom_site_fract_y
_atom_site_fract_z
Si Si1 0.002829 0.384612 0.263487
Si Si2 0.660434 0.386983 0.674964
Si Si3 0.000000 0.222612 0.000000
Si Si4 0.297918 0.319486 0.184550
Si Si5 0.083473 0.884505 0.357119
Si Si6 0.797755 0.385714 0.031334
Si Si7 0.242570 0.217910 0.506334
Si Si8 0.598753 0.122983 0.348140
O O1 0.906539 0.500000 0.325182
O O2 0.115449 0.371653 0.265896
O O3 0.832834 0.294908 0.373260
O O4 0.159023 0.365619 0.087495
O O5 0.749914 0.500000 0.589051
O O6 0.681163 0.378603 0.750737
O O7 0.437988 0.381410 0.795984
O O8 0.768539 0.290599 0.561177
O O9 0.893009 0.294669 0.013440
O O10 0.828668 0.158400 0.167424
O O11 0.262654 0.196494 0.219180
O O12 0.500000 0.338861 0.000000
O O13 0.000000 0.867921 0.500000
O O14 0.912147 0.872620 0.409910
O O15 0.172896 0.000000 0.286129
O O16 0.879095 0.500000 0.000262
O O17 0.455439 0.169744 0.381692
O O18 0.500000 0.155471 0.500000
O O19 0.598550 0.000000 0.342526
#
# Coordination Sequence:
#
# PCOD8065919 Si02
#       8
#     4   4   2   4   4   4   4   4
#     4  10  21  35  57  89 123 159 199 241 292 357
#     4  11  21  35  57  86 117 154 193 233 287 351
#     4  12  22  42  68  92 122 158 204 250 314 368
#     4  11  21  35  57  84 120 158 196 243 295 344
#     4  10  21  37  57  80 111 151 195 239 288 347
#     4  10  21  37  58  87 122 157 195 240 295 360
#     4  11  21  40  60  84 117 155 194 243 299 358
#     4  11  25  44  67  93 120 153 202 261 312 362
#
# _framework density 20.034731000000001
#
# number of rings (size 3 to 8) (size 9 to 14) (size 15 to 20)
#    0.000    1.333    4.000    2.400    0.000    0.800 
#    0.000    2.000    0.000    4.000    0.000    0.000 
#    0.000    0.000    0.000    0.000    0.000    0.000 
#
# Total GULP energy -371722.933801 kJ/mol
# GULP energy per Si atom -12390.764460 kJ/mol
# Density = 1.998913 g / cm^3
# Si number density = 20.034731 Si / 1000 Ang^3
#
#
#
# Elastic Constant Matrix: (Units=GPa)
#
#
# Indices 1 2 3 4 5 6 
#
# 1 77.0372 30.2070 10.7245 0.0000 -0.3083 0.0000
# 2 30.2070 103.3283 18.7724 0.0000 2.4068 0.0000
# 3 10.7245 18.7724 81.8118 0.0000 4.4704 0.0000
# 4 0.0000 0.0000 0.0000 19.4789 0.0000 10.6071
# 5 -0.3083 2.4068 4.4704 0.0000 28.8118 0.0000
# 6 0.0000 0.0000 0.0000 10.6071 0.0000 20.8792
#
#
#
# Elastic Compliance Matrix: (Units=1/GPa)
#
#
# Indices 1 2 3 4 5 6 
#
# 1 0.014749 -0.004142 -0.001019 0.000000 0.000662 0.000000
# 2 -0.004142 0.011269 -0.002006 0.000000 -0.000674 0.000000
# 3 -0.001019 -0.002006 0.012918 0.000000 -0.001848 0.000000
# 4 0.000000 0.000000 0.000000 0.070971 0.000000 -0.036055
# 5 0.000662 -0.000674 -0.001848 0.000000 0.035058 0.000000
# 6 0.000000 0.000000 0.000000 -0.036055 0.000000 0.066211
#
#
# Mechanical properties :
#
#
# Convention : Reuss Voigt Hill
#
# Bulk Modulus (GPa) = 40.64718 42.39833 41.52275
# Shear Modulus (GPa) = 21.39383 27.33220 24.36301
#
# Velocity S-wave (km/s) = 3.27132 3.69757 3.49096
# Velocity P-wave (km/s) = 5.88227 6.27995 6.08436
#
# Compressibility (1/GPa) = 0.02460195
#
# Stress axis : x y z
#
# Youngs Moduli (GPa) = 67.79916 88.73951 77.41128
#
# Poissons Ratio (x) = 0.36757 0.07890
# Poissons Ratio (y) = 0.28083 0.15528
# Poissons Ratio (z) = 0.06910 0.17800
#
# Static dielectric constant tensor:
#      x y z
#    x 3.522020 0.000000 0.085240 
#    y 0.000000 3.807270 0.000000 
#    z 0.085240 0.000000 3.903020 
# 
# 
# High freq. dielectric constant tensor:
#      x y z
#    x 1.773240 0.000000 0.004350 
#    y 0.000000 1.793500 0.000000 
#    z 0.004350 0.000000 1.783390 
# 
# From -- ./inp_files/78099.got.cif
#   From: 2010.06.25/outbox.cif.g09.slc.cpg/sg10_40_cif.got.tgz:78099.got - 2010.06.27 22:07:45.
