data_PCOD8065986
_publ_section_title
;
Structure prediction by ZEFSAII (Michael W. Deem and Ramdas Pophale) SiO2 
 PCOD8065986
Probable space group: P 2/M
;
_chemical_formula_sum "Si O2"
_cell_formula_units_Z 28
_cell_length_a 8.986601
_cell_length_b 9.373267
_cell_length_c 28.762973
_cell_angle_alpha 90.000000
_cell_angle_beta 141.360629
_cell_angle_gamma 90.000000
_cell_volume 1512.845487
_symmetry_space_group_name_H-M "P 2/M"
_symmetry_group_IT_number 10
_symmetry_cell_setting 'monoclinic'
loop_
_space_group_symop_operation_xyz
x,y,z
-x,y,-z
-x,-y,-z
x,-y,z
loop_
_atom_site_type_symbol
_atom_site_label
_atom_site_fract_x
_atom_site_fract_y
_atom_site_fract_z
Si Si1 0.817972 0.334790 0.858023
Si Si2 0.472141 0.334790 0.858022
Si Si3 0.112896 0.834836 0.575627
Si Si4 0.823055 0.161216 1.000000
Si Si5 0.765239 0.834836 0.575627
Si Si6 0.405606 0.332735 0.293735
Si Si7 0.936931 0.332735 0.706265
O O1 0.893051 0.500000 0.877738
O O2 0.604974 0.303623 0.841990
O O3 0.731531 0.287048 0.786295
O O4 0.051855 0.242386 0.926737
O O5 0.495636 0.500000 0.877737
O O6 0.581828 0.242386 0.926736
O O7 0.199945 0.287047 0.786295
O O8 0.346256 0.747023 0.644010
O O9 0.000000 0.780286 0.500000
O O10 0.920486 0.806027 0.568194
O O11 0.184709 0.000000 0.589570
O O12 0.761308 0.000000 1.000000
O O13 0.000000 0.164030 0.000000
O O14 0.500000 0.780286 0.500000
O O15 0.873793 0.747023 0.644010
O O16 0.763138 0.000000 0.589569
O O17 0.458945 0.500000 0.306470
O O18 0.246221 0.286693 0.298488
O O19 0.926594 0.500000 0.693530
#
# Coordination Sequence:
#
# PCOD8065986 Si02
#       7
#     4   4   4   4   4   4   4
#     4   9  17  31  51  73  99 133 171 211 258 310
#     4   9  17  31  51  73  99 133 171 211 258 310
#     4  10  21  37  57  80 106 138 175 214 259 311
#     4   9  17  29  48  75 102 128 166 215 260 305
#     4  10  21  37  57  80 106 138 175 214 259 311
#     4  10  21  36  54  78 107 139 176 217 261 309
#     4  10  21  36  54  78 107 139 176 217 261 309
#
# _framework density 18.508168999999999
#
# number of rings (size 3 to 8) (size 9 to 14) (size 15 to 20)
#    0.000    2.429    0.000    2.143    0.000    6.857 
#    0.000    3.571    0.000    4.286    0.000    0.000 
#    0.000    0.000    0.000    0.000    0.000    0.000 
#
# Total GULP energy -347295.647596 kJ/mol
# GULP energy per Si atom -12403.415986 kJ/mol
# Density = 1.846604 g / cm^3
# Si number density = 18.508169 Si / 1000 Ang^3
#
#
#
# Elastic Constant Matrix: (Units=GPa)
#
#
# Indices 1 2 3 4 5 6 
#
# 1 69.6052 33.0480 52.5499 0.0000 2.5318 0.0000
# 2 33.0480 70.2516 71.7400 0.0000 1.9943 0.0000
# 3 52.5499 71.7400 160.5661 0.0000 2.1568 0.0000
# 4 0.0000 0.0000 0.0000 110.2024 0.0000 4.4715
# 5 2.5318 1.9943 2.1568 0.0000 33.0684 0.0000
# 6 0.0000 0.0000 0.0000 4.4715 0.0000 23.4098
#
#
#
# Elastic Compliance Matrix: (Units=1/GPa)
#
#
# Indices 1 2 3 4 5 6 
#
# 1 0.020026 -0.004991 -0.004311 0.000000 -0.000951 0.000000
# 2 -0.004991 0.027445 -0.010621 0.000000 -0.000580 0.000000
# 3 -0.004311 -0.010621 0.012382 0.000000 0.000163 0.000000
# 4 0.000000 0.000000 0.000000 0.009145 0.000000 -0.001747
# 5 -0.000951 -0.000580 0.000163 0.000000 0.030338 0.000000
# 6 0.000000 0.000000 0.000000 -0.001747 0.000000 0.043051
#
#
# Mechanical properties :
#
#
# Convention : Reuss Voigt Hill
#
# Bulk Modulus (GPa) = 49.98400 68.34431 59.16415
# Shear Modulus (GPa) = 26.46876 42.87513 34.67194
#
# Velocity S-wave (km/s) = 3.78579 4.81828 4.33290
# Velocity P-wave (km/s) = 6.79519 8.24385 7.55433
#
# Compressibility (1/GPa) = 0.02000640
#
# Stress axis : x y z
#
# Youngs Moduli (GPa) = 49.93519 36.43659 80.76114
#
# Poissons Ratio (x) = 0.18185 0.34819
# Poissons Ratio (y) = 0.24923 0.85776
# Poissons Ratio (z) = 0.21529 0.38699
#
# Static dielectric constant tensor:
#      x y z
#    x 3.349240 0.000000 0.011360 
#    y 0.000000 3.395720 0.000000 
#    z 0.011360 0.000000 3.569640 
# 
# 
# High freq. dielectric constant tensor:
#      x y z
#    x 1.709140 0.000000 0.001180 
#    y 0.000000 1.712220 0.000000 
#    z 0.001180 0.000000 1.732020 
# 
# From -- ./inp_files/91954.got.cif
#   From: 2010.06.25/outbox.cif.g09.slc.cpg/sg10_46_cif.got.tgz:91954.got - 2010.06.27 22:07:45.
