data_PCOD8065071
_publ_section_title
;
Structure prediction by ZEFSAII (Michael W. Deem and Ramdas Pophale) SiO2 
 PCOD8065071
Probable space group: P 2/M
;
_chemical_formula_sum "Si O2"
_cell_formula_units_Z 24
_cell_length_a 12.098156
_cell_length_b 12.105938
_cell_length_c 18.887496
_cell_angle_alpha 90.000000
_cell_angle_beta 153.096259
_cell_angle_gamma 90.000000
_cell_volume 1251.710268
_symmetry_space_group_name_H-M "P 2/M"
_symmetry_group_IT_number 10
_symmetry_cell_setting 'monoclinic'
loop_
_space_group_symop_operation_xyz
x,y,z
-x,y,-z
-x,-y,-z
x,-y,z
loop_
_atom_site_type_symbol
_atom_site_label
_atom_site_fract_x
_atom_site_fract_y
_atom_site_fract_z
Si Si1 0.091263 0.000000 0.781110
Si Si2 0.427959 0.626330 0.180416
Si Si3 0.052393 0.234727 0.333994
Si Si4 0.786775 0.203248 0.327626
Si Si5 0.022996 0.372278 0.839996
Si Si6 0.474108 0.000000 0.873211
Si Si7 0.472684 0.626026 0.366710
O O1 0.290402 0.000000 0.833590
O O2 0.919811 0.107763 0.676100
O O3 0.242294 0.000000 0.941185
O O4 0.486995 0.500000 0.197142
O O5 0.671545 0.691332 0.299643
O O6 0.364164 0.642885 0.226329
O O7 0.197536 0.667721 0.003145
O O8 0.912491 0.302675 0.193016
O O9 0.316655 0.286059 0.498686
O O10 0.887849 0.241721 0.309669
O O11 0.580256 0.109035 0.203735
O O12 0.000000 0.156795 0.500000
O O13 0.067212 0.500000 0.847943
O O14 0.742475 0.350680 0.700793
O O15 0.571388 0.500000 0.432261
#
# Coordination Sequence:
#
# PCOD8065071 Si02
#       7
#     2   4   4   4   4   2   4
#     4   9  20  36  55  83 111 143 178 228 278 328
#     4  10  21  36  56  83 116 149 180 225 279 326
#     4  11  21  36  58  83 114 143 180 231 281 326
#     4  11  21  36  56  85 112 145 182 228 280 332
#     4  10  21  37  58  82 109 149 195 226 261 324
#     4   9  19  36  58  77 109 148 187 220 265 330
#     4  10  20  37  58  81 112 150 189 226 266 322
#
# _framework density 19.173765
#
# number of rings (size 3 to 8) (size 9 to 14) (size 15 to 20)
#    0.000    1.833    1.667    2.750    0.000    7.000 
#    0.000    3.333    0.000    0.000    0.000    4.667 
#    0.000    0.000    0.000    0.000    0.000    0.000 
#
# Total GULP energy -297651.492976 kJ/mol
# GULP energy per Si atom -12402.145541 kJ/mol
# Density = 1.913013 g / cm^3
# Si number density = 19.173765 Si / 1000 Ang^3
#
#
#
# Elastic Constant Matrix: (Units=GPa)
#
#
# Indices 1 2 3 4 5 6 
#
# 1 70.5179 35.9779 12.2827 0.0000 -13.0333 0.0000
# 2 35.9779 98.2604 45.2538 0.0000 -3.4375 0.0000
# 3 12.2827 45.2538 92.8169 0.0000 -12.0297 0.0000
# 4 0.0000 0.0000 0.0000 34.6029 0.0000 -2.7677
# 5 -13.0333 -3.4375 -12.0297 0.0000 29.5177 0.0000
# 6 0.0000 0.0000 0.0000 -2.7677 0.0000 11.2194
#
#
#
# Elastic Compliance Matrix: (Units=1/GPa)
#
#
# Indices 1 2 3 4 5 6 
#
# 1 0.019388 -0.007906 0.002406 0.000000 0.008621 0.000000
# 2 -0.007906 0.016384 -0.007546 0.000000 -0.004658 0.000000
# 3 0.002406 -0.007546 0.014948 0.000000 0.006275 0.000000
# 4 0.000000 0.000000 0.000000 0.029481 0.000000 0.007273
# 5 0.008621 -0.004658 0.006275 0.000000 0.039700 0.000000
# 6 0.000000 0.000000 0.000000 0.007273 0.000000 0.090925
#
#
# Mechanical properties :
#
#
# Convention : Reuss Voigt Hill
#
# Bulk Modulus (GPa) = 40.60137 49.84712 45.22424
# Shear Modulus (GPa) = 20.39768 26.27337 23.33553
#
# Velocity S-wave (km/s) = 3.26518 3.70574 3.49242
# Velocity P-wave (km/s) = 5.95287 6.66063 6.31667
#
# Compressibility (1/GPa) = 0.02462971
#
# Stress axis : x y z
#
# Youngs Moduli (GPa) = 51.57723 61.03582 66.89956
#
# Poissons Ratio (x) = 0.48252 -0.16096
# Poissons Ratio (y) = 0.40775 0.50480
# Poissons Ratio (z) = -0.12409 0.46055
#
# Static dielectric constant tensor:
#      x y z
#    x 3.371880 0.000000 -0.290260 
#    y 0.000000 3.578140 0.000000 
#    z -0.290260 0.000000 3.620120 
# 
# 
# High freq. dielectric constant tensor:
#      x y z
#    x 1.730030 0.000000 -0.022290 
#    y 0.000000 1.743240 0.000000 
#    z -0.022290 0.000000 1.756390 
# 
# From -- ./inp_files/46536.got.cif
#   From: 2010.06.25/outbox.cif.g09.slc.cpg/sg10_24_cif.got.tgz:46536.got - 2010.06.27 22:07:45.
