data_PCOD8065893
_publ_section_title
;
Structure prediction by ZEFSAII (Michael W. Deem and Ramdas Pophale) SiO2 
 PCOD8065893
Probable space group: P 2/M
;
_chemical_formula_sum "Si O2"
_cell_formula_units_Z 32
_cell_length_a 31.547655
_cell_length_b 9.133554
_cell_length_c 12.702712
_cell_angle_alpha 90.000000
_cell_angle_beta 152.646259
_cell_angle_gamma 90.000000
_cell_volume 1681.793346
_symmetry_space_group_name_H-M "P 2/M"
_symmetry_group_IT_number 10
_symmetry_cell_setting 'monoclinic'
loop_
_space_group_symop_operation_xyz
x,y,z
-x,y,-z
-x,-y,-z
x,-y,z
loop_
_atom_site_type_symbol
_atom_site_label
_atom_site_fract_x
_atom_site_fract_y
_atom_site_fract_z
Si Si1 0.597773 0.171688 0.747712
Si Si2 0.353506 0.660537 0.947352
Si Si3 0.210738 0.171471 0.917226
Si Si4 0.068089 0.326332 0.450073
Si Si5 0.215883 0.172132 0.365666
Si Si6 0.149553 0.334459 0.414829
Si Si7 0.880386 0.830041 0.064440
Si Si8 0.596942 0.331780 0.173445
O O1 0.500000 0.245213 0.500000
O O2 0.617273 0.212492 0.910489
O O3 0.588245 0.000000 0.719106
O O4 0.682872 0.223502 0.861864
O O5 0.372107 0.500000 0.038215
O O6 0.247079 0.676201 0.686066
O O7 0.412118 0.681067 0.971490
O O8 0.149296 0.259052 0.698848
O O9 0.183810 0.206893 0.977648
O O10 0.199281 0.000000 0.866390
O O11 0.071825 0.500000 0.472142
O O12 0.077792 0.283690 0.347155
O O13 0.971793 0.265287 0.279133
O O14 0.148152 0.233415 0.307939
O O15 0.317770 0.239647 0.593968
O O16 0.224371 0.000000 0.400352
O O17 0.173435 0.214385 0.159661
O O18 0.128825 0.500000 0.331479
O O19 0.908835 0.000000 0.125475
O O20 0.612136 0.500000 0.242259
O O21 0.500000 0.267792 0.000000
#
# Coordination Sequence:
#
# PCOD8065893 Si02
#       8
#     4   4   4   4   4   4   4   4
#     4  10  21  35  54  82 110 142 184 227 275 331
#     4   9  17  33  54  76 105 140 178 224 274 325
#     4  10  21  39  59  78 112 155 187 226 284 341
#     4  11  22  37  60  87 110 142 192 241 281 332
#     4  10  21  36  56  83 114 147 189 235 277 330
#     4   9  19  36  57  80 111 145 179 228 285 336
#     4  10  23  40  55  79 117 156 187 227 286 342
#     4   9  19  36  57  80 110 148 186 227 282 340
#
# _framework density 19.027308000000001
#
# number of rings (size 3 to 8) (size 9 to 14) (size 15 to 20)
#    0.000    2.250    1.250    1.875    0.000    8.000 
#    0.000    3.750    0.000    0.000    0.000    0.000 
#    0.000    0.000    0.000    0.000    0.000    0.000 
#
# Total GULP energy -396755.185554 kJ/mol
# GULP energy per Si atom -12398.599549 kJ/mol
# Density = 1.898400 g / cm^3
# Si number density = 19.027308 Si / 1000 Ang^3
#
#
#
# Elastic Constant Matrix: (Units=GPa)
#
#
# Indices 1 2 3 4 5 6 
#
# 1 127.0579 50.8496 76.7260 0.0000 7.6959 0.0000
# 2 50.8496 56.1521 45.8842 0.0000 0.0728 0.0000
# 3 76.7260 45.8842 89.4789 0.0000 6.2933 0.0000
# 4 0.0000 0.0000 0.0000 2.6425 0.0000 -1.2848
# 5 7.6959 0.0728 6.2933 0.0000 31.3196 0.0000
# 6 0.0000 0.0000 0.0000 -1.2848 0.0000 27.4133
#
#
#
# Elastic Compliance Matrix: (Units=1/GPa)
#
#
# Indices 1 2 3 4 5 6 
#
# 1 0.017597 -0.006396 -0.011671 0.000000 -0.001964 0.000000
# 2 -0.006396 0.033284 -0.011856 0.000000 0.003877 0.000000
# 3 -0.011671 -0.011856 0.027447 0.000000 -0.002620 0.000000
# 4 0.000000 0.000000 0.000000 0.387260 0.000000 0.018150
# 5 -0.001964 0.003877 -0.002620 0.000000 0.032929 0.000000
# 6 0.000000 0.000000 0.000000 0.018150 0.000000 0.037329
#
#
# Mechanical properties :
#
#
# Convention : Reuss Voigt Hill
#
# Bulk Modulus (GPa) = 54.10620 68.84539 61.47579
# Shear Modulus (GPa) = 8.30769 18.89034 13.59902
#
# Velocity S-wave (km/s) = 2.09181 3.15429 2.67631
# Velocity P-wave (km/s) = 5.85935 7.03755 6.47530
#
# Compressibility (1/GPa) = 0.01848217
#
# Stress axis : x y z
#
# Youngs Moduli (GPa) = 56.82893 30.04490 36.43325
#
# Poissons Ratio (x) = 0.19215 0.42521
# Poissons Ratio (y) = 0.36345 0.43196
# Poissons Ratio (z) = 0.66325 0.35622
#
# Static dielectric constant tensor:
#      x y z
#    x 3.820720 0.000000 0.137800 
#    y 0.000000 3.425960 0.000000 
#    z 0.137800 0.000000 3.483390 
# 
# 
# High freq. dielectric constant tensor:
#      x y z
#    x 1.753640 0.000000 0.005570 
#    y 0.000000 1.732650 0.000000 
#    z 0.005570 0.000000 1.731090 
# 
# From -- ./inp_files/58301.got.cif
#   From: 2010.06.25/outbox.cif.g09.slc.cpg/sg10_30_cif.got.tgz:58301.got - 2010.06.27 22:07:45.
