data_PCOD8065047
_publ_section_title
;
Structure prediction by ZEFSAII (Michael W. Deem and Ramdas Pophale) SiO2 
 PCOD8065047
Probable space group: P 2/M
;
_chemical_formula_sum "Si O2"
_cell_formula_units_Z 32
_cell_length_a 29.999478
_cell_length_b 8.936435
_cell_length_c 12.538801
_cell_angle_alpha 90.000000
_cell_angle_beta 151.400793
_cell_angle_gamma 90.000000
_cell_volume 1609.085141
_symmetry_space_group_name_H-M "P 2/M"
_symmetry_group_IT_number 10
_symmetry_cell_setting 'monoclinic'
loop_
_space_group_symop_operation_xyz
x,y,z
-x,y,-z
-x,-y,-z
x,-y,z
loop_
_atom_site_type_symbol
_atom_site_label
_atom_site_fract_x
_atom_site_fract_y
_atom_site_fract_z
Si Si1 0.900321 0.176770 0.812561
Si Si2 0.032688 0.324784 0.449886
Si Si3 0.265932 0.824027 0.678794
Si Si4 0.679776 0.323895 0.612690
Si Si5 0.867942 0.176836 0.981055
Si Si6 0.392892 0.172170 0.751758
Si Si7 0.757174 0.322710 0.149525
Si Si8 0.596786 0.323264 0.658331
O O1 0.833785 0.225772 0.576953
O O2 0.910818 0.000000 0.837552
O O3 0.859425 0.227629 0.839944
O O4 0.000000 0.253034 0.000000
O O5 0.024979 0.500000 0.408173
O O6 0.138264 0.264911 0.655699
O O7 0.000000 0.288440 0.500000
O O8 0.965865 0.235369 0.230454
O O9 0.341665 0.773310 0.750908
O O10 0.282062 0.735880 0.821010
O O11 0.271810 0.000000 0.714001
O O12 0.694857 0.500000 0.637733
O O13 0.637327 0.266952 0.413366
O O14 0.609082 0.280455 0.559816
O O15 0.779372 0.251504 0.851995
O O16 0.863910 0.000000 0.988406
O O17 0.367087 0.000000 0.673059
O O18 0.500000 0.196696 0.000000
O O19 0.757586 0.500000 0.152289
O O20 0.685686 0.260611 0.910462
O O21 0.500000 0.253416 0.500000
O O22 0.593697 0.500000 0.666793
#
# Coordination Sequence:
#
# PCOD8065047 Si02
#       8
#     4   4   4   4   4   4   4   4
#     4   9  17  31  52  77 107 146 187 226 275 336
#     4  10  21  38  58  83 117 157 198 244 300 352
#     4  10  20  37  57  81 118 157 192 233 291 353
#     4  11  22  38  63  91 119 153 197 248 297 351
#     4  11  21  36  59  85 116 154 194 239 291 350
#     4  10  22  40  61  85 118 159 197 241 298 353
#     4  10  21  37  59  86 118 153 194 247 298 346
#     4   9  20  39  61  85 115 154 196 241 296 351
#
# _framework density 19.887077999999999
#
# number of rings (size 3 to 8) (size 9 to 14) (size 15 to 20)
#    0.000    2.000    1.250    2.250    1.750    4.500 
#    0.000    2.500    0.000    4.500    0.000    0.000 
#    0.000    0.000    0.000    0.000    0.000    0.000 
#
# Total GULP energy -396814.964893 kJ/mol
# GULP energy per Si atom -12400.467653 kJ/mol
# Density = 1.984181 g / cm^3
# Si number density = 19.887078 Si / 1000 Ang^3
#
#
#
# Elastic Constant Matrix: (Units=GPa)
#
#
# Indices 1 2 3 4 5 6 
#
# 1 137.2128 33.1813 59.7734 0.0000 9.3460 0.0000
# 2 33.1813 44.9268 30.7757 0.0000 -1.7498 0.0000
# 3 59.7734 30.7757 98.4214 0.0000 3.0636 0.0000
# 4 0.0000 0.0000 0.0000 10.8082 0.0000 0.4309
# 5 9.3460 -1.7498 3.0636 0.0000 38.3580 0.0000
# 6 0.0000 0.0000 0.0000 0.4309 0.0000 23.0302
#
#
#
# Elastic Compliance Matrix: (Units=1/GPa)
#
#
# Indices 1 2 3 4 5 6 
#
# 1 0.010750 -0.004599 -0.005015 0.000000 -0.002429 0.000000
# 2 -0.004599 0.030448 -0.006823 0.000000 0.003054 0.000000
# 3 -0.005015 -0.006823 0.015350 0.000000 -0.000315 0.000000
# 4 0.000000 0.000000 0.000000 0.092592 0.000000 -0.001732
# 5 -0.002429 0.003054 -0.000315 0.000000 0.026826 0.000000
# 6 0.000000 0.000000 0.000000 -0.001732 0.000000 0.043454
#
#
# Mechanical properties :
#
#
# Convention : Reuss Voigt Hill
#
# Bulk Modulus (GPa) = 42.24113 58.66909 50.45511
# Shear Modulus (GPa) = 19.21713 24.89464 22.05588
#
# Velocity S-wave (km/s) = 3.11193 3.54192 3.33386
# Velocity P-wave (km/s) = 5.84797 6.80383 6.34393
#
# Compressibility (1/GPa) = 0.02367361
#
# Stress axis : x y z
#
# Youngs Moduli (GPa) = 93.02136 32.84315 65.14842
#
# Poissons Ratio (x) = 0.15104 0.32674
# Poissons Ratio (y) = 0.42778 0.44450
# Poissons Ratio (z) = 0.46652 0.22409
#
# Static dielectric constant tensor:
#      x y z
#    x 3.841950 0.000000 0.176020 
#    y 0.000000 3.267890 0.000000 
#    z 0.176020 0.000000 3.813640 
# 
# 
# High freq. dielectric constant tensor:
#      x y z
#    x 1.791230 0.000000 0.005010 
#    y 0.000000 1.741800 0.000000 
#    z 0.005010 0.000000 1.787480 
# 
# From -- ./inp_files/58363.got.cif
#   From: 2010.06.25/outbox.cif.g09.slc.cpg/sg10_30_cif.got.tgz:58363.got - 2010.06.27 22:07:45.
