data_PCOD8065725
_publ_section_title
;
Structure prediction by ZEFSAII (Michael W. Deem and Ramdas Pophale) SiO2 
 PCOD8065725
Probable space group: P 2/M
;
_chemical_formula_sum "Si O2"
_cell_formula_units_Z 20
_cell_length_a 5.512279
_cell_length_b 21.810249
_cell_length_c 8.099661
_cell_angle_alpha 90.000000
_cell_angle_beta 65.186162
_cell_angle_gamma 90.000000
_cell_volume 883.872414
_symmetry_space_group_name_H-M "P 2/M"
_symmetry_group_IT_number 10
_symmetry_cell_setting 'monoclinic'
loop_
_space_group_symop_operation_xyz
x,y,z
-x,y,-z
-x,-y,-z
x,-y,z
loop_
_atom_site_type_symbol
_atom_site_label
_atom_site_fract_x
_atom_site_fract_y
_atom_site_fract_z
Si Si1 0.257858 0.760314 0.191218
Si Si2 0.486520 0.127676 0.306882
Si Si3 0.688933 0.000000 0.608071
Si Si4 0.858392 0.375038 0.704720
Si Si5 0.352941 0.429027 0.714680
Si Si6 0.000000 0.167242 0.000000
O O1 0.325575 0.810581 0.310626
O O2 0.155896 0.698259 0.302558
O O3 0.023021 0.789038 0.151437
O O4 0.500000 0.745136 0.000000
O O5 0.500000 0.126937 0.500000
O O6 0.358558 0.063767 0.280678
O O7 0.753226 0.125031 0.120079
O O8 0.500000 0.000000 0.500000
O O9 0.000000 0.000000 0.500000
O O10 0.553060 0.401652 0.799254
O O11 0.000000 0.400765 0.500000
O O12 0.055916 0.397059 0.798036
O O13 0.500000 0.416804 0.500000
O O14 0.306306 0.500000 0.765120
#
# Coordination Sequence:
#
# PCOD8065725 Si02
#       6
#     4   4   2   4   4   2
#     4  10  24  41  60  92 128 170 215 270 327 387
#     4  10  24  42  71  95 134 175 220 279 329 398
#     4  10  24  43  69 105 132 173 225 273 339 392
#     4  10  21  33  61  90 116 161 211 258 324 384
#     4   9  18  34  55  88 124 155 202 264 319 383
#     4  10  24  43  62  98 131 180 222 268 344 382
#
# _framework density 22.627699
#
# number of rings (size 3 to 8) (size 9 to 14) (size 15 to 20)
#    0.000    2.200    0.000    0.600   14.000    3.600 
#    0.000    4.500    0.000    3.600    0.000    0.000 
#    0.000    0.000    0.000    0.000    0.000    0.000 
#
# Total GULP energy -247770.360885 kJ/mol
# GULP energy per Si atom -12388.518044 kJ/mol
# Density = 2.257620 g / cm^3
# Si number density = 22.627699 Si / 1000 Ang^3
#
#
#
# Elastic Constant Matrix: (Units=GPa)
#
#
# Indices 1 2 3 4 5 6 
#
# 1 191.1189 89.4588 19.9303 0.0000 -7.8145 0.0000
# 2 89.4588 201.7739 26.4755 0.0000 -8.9234 0.0000
# 3 19.9303 26.4755 34.3222 0.0000 12.1239 0.0000
# 4 0.0000 0.0000 0.0000 1.5051 0.0000 -30.2748
# 5 -7.8145 -8.9234 12.1239 0.0000 17.5888 0.0000
# 6 0.0000 0.0000 0.0000 -30.2748 0.0000 10.4933
#
#
#
# Elastic Compliance Matrix: (Units=1/GPa)
#
#
# Indices 1 2 3 4 5 6 
#
# 1 0.006920 -0.002377 -0.003760 0.000000 0.004460 0.000000
# 2 -0.002377 0.007217 -0.006750 0.000000 0.007258 0.000000
# 3 -0.003760 -0.006750 0.050661 0.000000 -0.040015 0.000000
# 4 0.000000 0.000000 0.000000 -0.011649 0.000000 -0.033610
# 5 0.004460 0.007258 -0.040015 0.000000 0.090100 0.000000
# 6 0.000000 0.000000 0.000000 -0.033610 0.000000 -0.001671
#
#
# Mechanical properties :
#
#
# Convention : Reuss Voigt Hill
#
# Bulk Modulus (GPa) = 25.62605 77.66046 51.64326
# Shear Modulus (GPa) = 27.72258 25.34083 26.53171
#
# Velocity S-wave (km/s) = 3.50403 3.35013 3.42794
# Velocity P-wave (km/s) = 5.26504 7.02566 6.20808
#
# Compressibility (1/GPa) = 0.03902278
#
# Stress axis : x y z
#
# Youngs Moduli (GPa) = 144.51877 138.56659 19.73922
#
# Poissons Ratio (x) = 0.32942 0.07421
# Poissons Ratio (y) = 0.34357 0.13324
# Poissons Ratio (z) = 0.54332 0.93535
#
# Static dielectric constant tensor:
#      x y z
#    x 4.324810 0.000000 0.055130 
#    y 0.000000 4.233240 0.000000 
#    z 0.055130 0.000000 3.560150 
# 
# 
# High freq. dielectric constant tensor:
#      x y z
#    x 1.906020 0.000000 -0.004820 
#    y 0.000000 1.902000 0.000000 
#    z -0.004820 0.000000 1.863590 
# 
# From -- ./inp_files/15179.got.cif
#   From: 2010.06.25/outbox.cif.g09.slc.cpg/sg10_8_cif.got.tgz:15179.got - 2010.06.27 22:07:45.
