data_PCOD8065447
_publ_section_title
;
Structure prediction by ZEFSAII (Michael W. Deem and Ramdas Pophale) SiO2 
 PCOD8065447
Probable space group: P 2/M
;
_chemical_formula_sum "Si O2"
_cell_formula_units_Z 18
_cell_length_a 9.918806
_cell_length_b 19.600834
_cell_length_c 8.605941
_cell_angle_alpha 90.000000
_cell_angle_beta 29.985429
_cell_angle_gamma 90.000000
_cell_volume 836.201535
_symmetry_space_group_name_H-M "P 2/M"
_symmetry_group_IT_number 10
_symmetry_cell_setting 'monoclinic'
loop_
_space_group_symop_operation_xyz
x,y,z
-x,y,-z
-x,-y,-z
x,-y,z
loop_
_atom_site_type_symbol
_atom_site_label
_atom_site_fract_x
_atom_site_fract_y
_atom_site_fract_z
Si Si1 0.597861 0.579361 0.233383
Si Si2 0.745724 0.000000 0.142238
Si Si3 0.403464 0.856042 0.772752
Si Si4 0.098587 0.362602 0.571553
Si Si5 0.088298 0.205078 0.583287
O O1 0.500000 0.603647 0.500000
O O2 0.672857 0.500000 0.157088
O O3 0.365316 0.594210 0.340711
O O4 0.866238 0.621438 0.927557
O O5 0.500000 0.000000 0.500000
O O6 0.721802 0.931137 0.064188
O O7 0.000000 0.000000 0.000000
O O8 0.500000 0.847151 0.500000
O O9 0.658320 0.842209 0.627684
O O10 0.161460 0.803705 0.049025
O O11 0.000000 0.384635 0.500000
O O12 0.179848 0.283427 0.497041
O O13 0.000000 0.182737 0.500000
#
# Coordination Sequence:
#
# PCOD8065447 Si02
#       5
#     4   2   4   4   4
#     4  11  24  41  62  90 122 154 196 253 305 349
#     4  10  20  38  61  90 123 154 197 252 297 344
#     4  11  22  39  64  90 116 158 206 245 292 357
#     4  11  24  41  62  87 120 162 201 242 297 361
#     4  11  24  41  59  88 127 158 194 250 305 350
#
# _framework density 21.525912000000002
#
# number of rings (size 3 to 8) (size 9 to 14) (size 15 to 20)
#    0.000    1.111    0.000    7.333    0.000   13.333 
#    0.000    3.333    0.000    0.000    0.000    0.000 
#    0.000    0.000    0.000    0.000    0.000    0.000 
#
# Total GULP energy -223283.540462 kJ/mol
# GULP energy per Si atom -12404.641137 kJ/mol
# Density = 2.147692 g / cm^3
# Si number density = 21.525912 Si / 1000 Ang^3
#
#
#
# Elastic Constant Matrix: (Units=GPa)
#
#
# Indices 1 2 3 4 5 6 
#
# 1 96.7945 54.3496 17.1936 0.0000 -21.7773 0.0000
# 2 54.3496 71.9661 21.3676 0.0000 -4.4743 0.0000
# 3 17.1936 21.3676 97.5080 0.0000 -19.2150 0.0000
# 4 0.0000 0.0000 0.0000 19.0711 0.0000 -0.9824
# 5 -21.7773 -4.4743 -19.2150 0.0000 45.2219 0.0000
# 6 0.0000 0.0000 0.0000 -0.9824 0.0000 39.5787
#
#
#
# Elastic Compliance Matrix: (Units=1/GPa)
#
#
# Indices 1 2 3 4 5 6 
#
# 1 0.020942 -0.015708 0.001561 0.000000 0.009194 0.000000
# 2 -0.015708 0.026644 -0.004409 0.000000 -0.006802 0.000000
# 3 0.001561 -0.004409 0.012015 0.000000 0.005421 0.000000
# 4 0.000000 0.000000 0.000000 0.052503 0.000000 0.001303
# 5 0.009194 -0.006802 0.005421 0.000000 0.028171 0.000000
# 6 0.000000 0.000000 0.000000 0.001303 0.000000 0.025298
#
#
# Mechanical properties :
#
#
# Convention : Reuss Voigt Hill
#
# Bulk Modulus (GPa) = 44.46490 50.23224 47.34857
# Shear Modulus (GPa) = 23.78896 32.33153 28.06025
#
# Velocity S-wave (km/s) = 3.32796 3.87975 3.61440
# Velocity P-wave (km/s) = 5.95553 6.59214 6.28190
#
# Compressibility (1/GPa) = 0.02248965
#
# Stress axis : x y z
#
# Youngs Moduli (GPa) = 47.75054 37.53139 83.23116
#
# Poissons Ratio (x) = 0.58953 -0.12994
# Poissons Ratio (y) = 0.75005 0.36700
# Poissons Ratio (z) = -0.07455 0.16549
#
# Static dielectric constant tensor:
#      x y z
#    x 3.909570 0.000000 -0.047310 
#    y 0.000000 2.370470 0.000000 
#    z -0.047310 0.000000 3.996180 
# 
# 
# High freq. dielectric constant tensor:
#      x y z
#    x 1.845080 0.000000 -0.010960 
#    y 0.000000 1.847800 0.000000 
#    z -0.010960 0.000000 1.858820 
# 
# From -- ./inp_files/20035.got.cif
#   From: 2010.06.25/outbox.cif.g09.slc.cpg/sg10_11_cif.got.tgz:20035.got - 2010.06.27 22:07:45.
