data_PCOD8065792
_publ_section_title
;
Structure prediction by ZEFSAII (Michael W. Deem and Ramdas Pophale) SiO2 
 PCOD8065792
Probable space group: P 2/M
;
_chemical_formula_sum "Si O2"
_cell_formula_units_Z 32
_cell_length_a 12.818129
_cell_length_b 14.883491
_cell_length_c 17.838766
_cell_angle_alpha 90.000000
_cell_angle_beta 27.190235
_cell_angle_gamma 90.000000
_cell_volume 1555.104059
_symmetry_space_group_name_H-M "P 2/M"
_symmetry_group_IT_number 10
_symmetry_cell_setting 'monoclinic'
loop_
_space_group_symop_operation_xyz
x,y,z
-x,y,-z
-x,-y,-z
x,-y,z
loop_
_atom_site_type_symbol
_atom_site_label
_atom_site_fract_x
_atom_site_fract_y
_atom_site_fract_z
Si Si1 0.743075 0.604095 0.147169
Si Si2 0.450013 0.900071 0.221178
Si Si3 0.406276 0.677700 0.479729
Si Si4 0.078684 0.598850 0.214833
Si Si5 0.268759 0.099730 0.178877
Si Si6 0.394070 0.712690 0.910158
Si Si7 0.890841 0.654764 0.640555
Si Si8 0.822658 0.809383 0.479303
O O1 0.735859 0.500000 0.128714
O O2 0.596438 0.620386 0.315082
O O3 0.638683 0.661052 0.146431
O O4 0.000000 0.635657 0.000000
O O5 0.269222 0.901646 0.268691
O O6 0.635024 0.820219 0.087213
O O7 0.312682 0.882324 0.385504
O O8 0.565533 0.000000 0.153431
O O9 0.500000 0.706828 0.500000
O O10 0.346874 0.769525 0.474459
O O11 0.187245 0.614260 0.629207
O O12 0.145515 0.500000 0.140656
O O13 0.131286 0.596797 0.270071
O O14 0.215739 0.677539 0.085652
O O15 0.040789 0.148922 0.296606
O O16 0.263629 0.000000 0.147204
O O17 0.500000 0.148455 0.000000
O O18 0.646268 0.696990 0.780070
O O19 0.000000 0.599169 0.500000
O O20 0.082943 0.731354 0.527614
#
# Coordination Sequence:
#
# PCOD8065792 Si02
#       8
#     4   4   4   4   4   4   4   4
#     4  11  24  43  68  95 123 163 216 269 320 380
#     4  11  22  37  63  95 127 167 213 256 313 379
#     4  11  24  42  65  93 123 165 213 266 323 384
#     4  11  26  41  62  93 129 173 213 262 320 385
#     4  10  21  34  58  97 132 164 207 260 315 375
#     4  12  22  40  63  93 130 168 210 265 320 381
#     4  11  21  37  60  90 131 173 208 251 315 385
#     4  11  20  39  61  89 129 170 210 257 321 383
#
# _framework density 20.577400000000001
#
# number of rings (size 3 to 8) (size 9 to 14) (size 15 to 20)
#    0.000    1.000    3.750    3.375    3.500    4.750 
#    0.000    0.000    0.000    1.875    0.000    0.000 
#    0.000    0.000    0.000    0.000    0.000    0.000 
#
# Total GULP energy -396721.375693 kJ/mol
# GULP energy per Si atom -12397.542990 kJ/mol
# Density = 2.053057 g / cm^3
# Si number density = 20.577400 Si / 1000 Ang^3
#
#
#
# Elastic Constant Matrix: (Units=GPa)
#
#
# Indices 1 2 3 4 5 6 
#
# 1 121.8532 37.9281 38.5947 0.0000 -0.8475 0.0000
# 2 37.9281 129.6091 50.5610 0.0000 -0.4586 0.0000
# 3 38.5947 50.5610 131.1637 0.0000 9.7715 0.0000
# 4 0.0000 0.0000 0.0000 29.5510 0.0000 4.5759
# 5 -0.8475 -0.4586 9.7715 0.0000 31.2843 0.0000
# 6 0.0000 0.0000 0.0000 4.5759 0.0000 11.3937
#
#
#
# Elastic Compliance Matrix: (Units=1/GPa)
#
#
# Indices 1 2 3 4 5 6 
#
# 1 0.009487 -0.001952 -0.002105 0.000000 0.000886 0.000000
# 2 -0.001952 0.009531 -0.003180 0.000000 0.001080 0.000000
# 3 -0.002105 -0.003180 0.009703 0.000000 -0.003134 0.000000
# 4 0.000000 0.000000 0.000000 0.036084 0.000000 -0.014492
# 5 0.000886 0.001080 -0.003134 0.000000 0.032984 0.000000
# 6 0.000000 0.000000 0.000000 -0.014492 0.000000 0.093588
#
#
# Mechanical properties :
#
#
# Convention : Reuss Voigt Hill
#
# Bulk Modulus (GPa) = 70.19192 70.75485 70.47338
# Shear Modulus (GPa) = 23.74173 31.48196 27.61184
#
# Velocity S-wave (km/s) = 3.40041 3.91567 3.66711
# Velocity P-wave (km/s) = 7.04289 7.40964 7.22859
#
# Compressibility (1/GPa) = 0.01424665
#
# Stress axis : x y z
#
# Youngs Moduli (GPa) = 105.40666 104.91947 103.06205
#
# Poissons Ratio (x) = 0.20479 0.21696
# Poissons Ratio (y) = 0.20574 0.32776
# Poissons Ratio (z) = 0.22190 0.33366
#
# Static dielectric constant tensor:
#      x y z
#    x 3.657360 0.000000 0.115870 
#    y 0.000000 3.789230 0.000000 
#    z 0.115870 0.000000 3.831860 
# 
# 
# High freq. dielectric constant tensor:
#      x y z
#    x 1.787600 0.000000 0.019470 
#    y 0.000000 1.798840 0.000000 
#    z 0.019470 0.000000 1.812630 
# 
# From -- ./inp_files/77017.got.cif
#   From: 2010.06.25/outbox.cif.g09.slc.cpg/sg10_39_cif.got.tgz:77017.got - 2010.06.27 22:07:45.
