data_PCOD8065168
_publ_section_title
;
Structure prediction by ZEFSAII (Michael W. Deem and Ramdas Pophale) SiO2 
 PCOD8065168
Probable space group: P 2/M
;
_chemical_formula_sum "Si O2"
_cell_formula_units_Z 28
_cell_length_a 16.279169
_cell_length_b 8.735741
_cell_length_c 21.774287
_cell_angle_alpha 90.000000
_cell_angle_beta 26.569865
_cell_angle_gamma 90.000000
_cell_volume 1385.045022
_symmetry_space_group_name_H-M "P 2/M"
_symmetry_group_IT_number 10
_symmetry_cell_setting 'monoclinic'
loop_
_space_group_symop_operation_xyz
x,y,z
-x,y,-z
-x,-y,-z
x,-y,z
loop_
_atom_site_type_symbol
_atom_site_label
_atom_site_fract_x
_atom_site_fract_y
_atom_site_fract_z
Si Si1 0.323018 0.819024 0.476715
Si Si2 0.058069 0.319893 0.056386
Si Si3 0.806393 0.824962 0.678028
Si Si4 0.988774 0.319781 0.774961
Si Si5 0.705921 0.681046 0.213506
Si Si6 0.799145 0.320434 0.566792
Si Si7 0.289111 0.665021 0.143935
O O1 0.172724 0.758573 0.625497
O O2 0.529380 0.772113 0.357203
O O3 0.302929 0.740952 0.424046
O O4 0.302205 0.000000 0.485645
O O5 0.077965 0.500000 0.046472
O O6 0.060493 0.252938 0.124280
O O7 0.865324 0.275714 0.154614
O O8 0.227202 0.263286 0.899632
O O9 0.697198 0.725495 0.698902
O O10 0.716283 0.801556 0.803965
O O11 0.011619 0.767658 0.551693
O O12 0.801310 0.000000 0.661538
O O13 0.028412 0.500000 0.751989
O O14 0.812614 0.281097 0.850243
O O15 0.664167 0.500000 0.241184
O O16 0.825527 0.500000 0.543305
O O17 0.196723 0.500000 0.225562
O O18 0.500000 0.628912 0.000000
#
# Coordination Sequence:
#
# PCOD8065168 Si02
#       7
#     4   4   4   4   4   4   4
#     4  12  24  37  55  87 124 155 194 243 298 356
#     4   8  17  36  63  90 114 150 201 247 290 350
#     4  11  21  35  55  81 113 146 184 235 292 343
#     4  10  20  37  60  84 115 155 198 246 297 350
#     4   9  18  37  63  89 117 151 195 246 296 351
#     4  11  21  36  58  80 106 146 192 236 282 338
#     4  10  21  36  55  81 114 155 203 245 285 344
#
# _framework density 20.215949999999999
#
# number of rings (size 3 to 8) (size 9 to 14) (size 15 to 20)
#    0.000    1.857    1.429    5.571    0.000    2.000 
#    0.000    8.571    0.000    0.000    0.000    0.000 
#    0.000    0.000    0.000    0.000    0.000    0.000 
#
# Total GULP energy -346876.085994 kJ/mol
# GULP energy per Si atom -12388.431643 kJ/mol
# Density = 2.016994 g / cm^3
# Si number density = 20.215950 Si / 1000 Ang^3
#
#
#
# Elastic Constant Matrix: (Units=GPa)
#
#
# Indices 1 2 3 4 5 6 
#
# 1 288.6852 655.0980 182.5524 0.0000 -3.3339 0.0000
# 2 655.0980 2216.4511 462.8115 0.0000 -98.1441 0.0000
# 3 182.5524 462.8115 190.7303 0.0000 -16.6745 0.0000
# 4 0.0000 0.0000 0.0000 8.1689 0.0000 2.4483
# 5 -3.3339 -98.1441 -16.6745 0.0000 35.0165 0.0000
# 6 0.0000 0.0000 0.0000 2.4483 0.0000 20.6378
#
#
#
# Elastic Compliance Matrix: (Units=1/GPa)
#
#
# Indices 1 2 3 4 5 6 
#
# 1 0.018444 -0.004338 -0.008386 0.000000 -0.014395 0.000000
# 2 -0.004338 0.002026 -0.000317 0.000000 0.005114 0.000000
# 3 -0.008386 -0.000317 0.014495 0.000000 0.005215 0.000000
# 4 0.000000 0.000000 0.000000 0.126929 0.000000 -0.015058
# 5 -0.014395 0.005114 0.005215 0.000000 0.044005 0.000000
# 6 0.000000 0.000000 0.000000 -0.015058 0.000000 0.050241
#
#
# Mechanical properties :
#
#
# Convention : Reuss Voigt Hill
#
# Bulk Modulus (GPa) = 112.57546 588.53227 350.55386
# Shear Modulus (GPa) = 17.53262 105.79162 61.66212
#
# Velocity S-wave (km/s) = 2.94813 7.24185 5.52883
# Velocity P-wave (km/s) = 8.20951 19.01790 14.64713
#
# Compressibility (1/GPa) = 0.00888293
#
# Stress axis : x y z
#
# Youngs Moduli (GPa) = 54.21790 493.61497 68.98892
#
# Poissons Ratio (x) = 2.14112 0.57857
# Poissons Ratio (y) = 0.23518 0.02187
# Poissons Ratio (z) = 0.45469 0.15651
#
# Static dielectric constant tensor:
#      x y z
#    x 3.769080 0.000000 -0.154690 
#    y 0.000000 3.735800 0.000000 
#    z -0.154690 0.000000 3.251870 
# 
# 
# High freq. dielectric constant tensor:
#      x y z
#    x 1.796200 0.000000 0.009150 
#    y 0.000000 1.770370 0.000000 
#    z 0.009150 0.000000 1.782330 
# 
# From -- ./inp_files/84888.got.cif
#   From: 2010.06.25/outbox.cif.g09.slc.cpg/sg10_43_cif.got.tgz:84888.got - 2010.06.27 22:07:45.
