data_PCOD8065843
_publ_section_title
;
Structure prediction by ZEFSAII (Michael W. Deem and Ramdas Pophale) SiO2 
 PCOD8065843
Probable space group: P 2/M
;
_chemical_formula_sum "Si O2"
_cell_formula_units_Z 28
_cell_length_a 9.387239
_cell_length_b 7.734910
_cell_length_c 27.651356
_cell_angle_alpha 90.000000
_cell_angle_beta 134.484462
_cell_angle_gamma 90.000000
_cell_volume 1432.409967
_symmetry_space_group_name_H-M "P 2/M"
_symmetry_group_IT_number 10
_symmetry_cell_setting 'monoclinic'
loop_
_space_group_symop_operation_xyz
x,y,z
-x,y,-z
-x,-y,-z
x,-y,z
loop_
_atom_site_type_symbol
_atom_site_label
_atom_site_fract_x
_atom_site_fract_y
_atom_site_fract_z
Si Si1 0.341379 0.299500 0.330999
Si Si2 0.466254 0.000000 0.570122
Si Si3 0.263280 0.696448 0.205455
Si Si4 0.455628 0.703364 0.809985
Si Si5 0.518332 0.801588 0.932053
Si Si6 0.010331 0.698348 0.678016
Si Si7 0.823477 0.795636 0.081810
Si Si8 0.176402 0.000000 0.419790
O O1 0.413318 0.500000 0.349635
O O2 0.513198 0.175779 0.393662
O O3 0.296908 0.225664 0.266833
O O4 0.136590 0.278281 0.311781
O O5 0.249313 0.000000 0.492861
O O6 0.634682 0.000000 0.569841
O O7 0.331263 0.500000 0.225370
O O8 0.408146 0.785931 0.200216
O O9 0.035796 0.704599 0.134785
O O10 0.480057 0.500000 0.817978
O O11 0.536703 0.775308 0.879665
O O12 0.227296 0.757265 0.747749
O O13 0.311886 0.726767 0.905290
O O14 0.512365 0.000000 0.944828
O O15 0.714311 0.730206 0.006537
O O16 0.009148 0.500000 0.658716
O O17 0.950277 0.825416 0.619881
O O18 0.862038 0.000000 0.092473
#
# Coordination Sequence:
#
# PCOD8065843 Si02
#       8
#     4   2   4   4   4   4   4   2
#     4   9  18  33  53  77 106 140 176 216 263 313
#     4   9  18  32  53  83 110 133 170 217 263 314
#     4  10  21  35  51  74 104 137 174 217 263 310
#     4  10  21  35  51  74 104 137 174 217 263 310
#     4   9  19  35  53  74 101 134 173 217 264 313
#     4   9  18  33  53  77 106 140 176 216 263 313
#     4   9  19  35  53  74 101 134 173 217 264 313
#     4   9  18  32  53  83 110 133 170 217 263 314
#
# _framework density 19.547478000000002
#
# number of rings (size 3 to 8) (size 9 to 14) (size 15 to 20)
#    0.000    2.714    0.000    1.714    2.000    4.000 
#    0.000    7.143    0.000    1.714    0.000    4.000 
#    0.000    0.000    0.000    0.000    0.000    0.000 
#
# Total GULP energy -347055.698397 kJ/mol
# GULP energy per Si atom -12394.846371 kJ/mol
# Density = 1.950299 g / cm^3
# Si number density = 19.547478 Si / 1000 Ang^3
#
#
#
# Elastic Constant Matrix: (Units=GPa)
#
#
# Indices 1 2 3 4 5 6 
#
# 1 92.0398 25.4690 63.3029 0.0000 -16.1467 0.0000
# 2 25.4690 64.9223 45.0658 0.0000 -7.5896 0.0000
# 3 63.3029 45.0658 155.1495 0.0000 -25.2079 0.0000
# 4 0.0000 0.0000 0.0000 23.7556 0.0000 -1.4978
# 5 -16.1467 -7.5896 -25.2079 0.0000 10.9049 0.0000
# 6 0.0000 0.0000 0.0000 -1.4978 0.0000 14.2481
#
#
#
# Elastic Compliance Matrix: (Units=1/GPa)
#
#
# Indices 1 2 3 4 5 6 
#
# 1 0.016595 -0.002194 -0.003827 0.000000 0.014199 0.000000
# 2 -0.002194 0.019587 -0.004976 0.000000 -0.001119 0.000000
# 3 -0.003827 -0.004976 0.012762 0.000000 0.020371 0.000000
# 4 0.000000 0.000000 0.000000 0.042376 0.000000 0.004455
# 5 0.014199 -0.001119 0.020371 0.000000 0.159037 0.000000
# 6 0.000000 0.000000 0.000000 0.004455 0.000000 0.070653
#
#
# Mechanical properties :
#
#
# Convention : Reuss Voigt Hill
#
# Bulk Modulus (GPa) = 37.10512 64.42077 50.76294
# Shear Modulus (GPa) = 14.20507 21.66665 17.93586
#
# Velocity S-wave (km/s) = 2.69865 3.33289 3.03240
# Velocity P-wave (km/s) = 5.36037 6.91654 6.18757
#
# Compressibility (1/GPa) = 0.02695046
#
# Stress axis : x y z
#
# Youngs Moduli (GPa) = 60.25994 51.05418 78.35810
#
# Poissons Ratio (x) = 0.11201 0.29985
# Poissons Ratio (y) = 0.13221 0.38991
# Poissons Ratio (z) = 0.23059 0.25405
#
# Static dielectric constant tensor:
#      x y z
#    x 3.599880 0.000000 -0.119830 
#    y 0.000000 3.493360 0.000000 
#    z -0.119830 0.000000 3.655670 
# 
# 
# High freq. dielectric constant tensor:
#      x y z
#    x 1.740580 0.000000 -0.005410 
#    y 0.000000 1.756310 0.000000 
#    z -0.005410 0.000000 1.758870 
# 
# From -- ./inp_files/92151.got.cif
#   From: 2010.06.25/outbox.cif.g09.slc.cpg/sg10_47_cif.got.tgz:92151.got - 2010.06.27 22:07:45.
