data_PCOD8065435
_publ_section_title
;
Structure prediction by ZEFSAII (Michael W. Deem and Ramdas Pophale) SiO2 
 PCOD8065435
Probable space group: P 2/M
;
_chemical_formula_sum "Si O2"
_cell_formula_units_Z 32
_cell_length_a 14.843902
_cell_length_b 9.193021
_cell_length_c 11.701067
_cell_angle_alpha 90.000000
_cell_angle_beta 86.405272
_cell_angle_gamma 90.000000
_cell_volume 1593.589580
_symmetry_space_group_name_H-M "P 2/M"
_symmetry_group_IT_number 10
_symmetry_cell_setting 'monoclinic'
loop_
_space_group_symop_operation_xyz
x,y,z
-x,y,-z
-x,-y,-z
x,-y,z
loop_
_atom_site_type_symbol
_atom_site_label
_atom_site_fract_x
_atom_site_fract_y
_atom_site_fract_z
Si Si1 0.916393 0.835209 0.440677
Si Si2 0.716427 0.831032 0.468411
Si Si3 0.840314 0.334262 0.091267
Si Si4 0.173070 0.667211 0.166526
Si Si5 0.668814 0.328059 0.250098
Si Si6 0.512862 0.169032 0.131346
Si Si7 0.669923 0.833704 0.725318
Si Si8 0.990727 0.164578 0.187509
O O1 0.818309 0.766025 0.476171
O O2 0.930370 0.827388 0.305063
O O3 0.000000 0.755560 0.500000
O O4 0.913148 0.000000 0.487505
O O5 0.662911 0.742950 0.375732
O O6 0.660978 0.811514 0.589851
O O7 0.721405 0.000000 0.430789
O O8 0.869684 0.500000 0.111114
O O9 0.764484 0.285295 0.186796
O O10 0.930527 0.237542 0.093349
O O11 0.800661 0.313289 0.967994
O O12 0.158142 0.500000 0.200076
O O13 0.253310 0.729026 0.235020
O O14 0.082424 0.751649 0.204060
O O15 0.656516 0.500000 0.261392
O O16 0.592050 0.266642 0.174429
O O17 0.423453 0.209505 0.208526
O O18 0.538124 0.000000 0.144012
O O19 0.500000 0.209354 0.000000
O O20 0.696133 0.000000 0.752266
O O21 0.013056 0.000000 0.150002
#
# Coordination Sequence:
#
# PCOD8065435 Si02
#       8
#     4   4   4   4   4   4   4   4
#     4   9  17  31  53  80 111 149 193 242 290 336
#     4  10  20  38  61  85 118 156 197 245 297 349
#     4  10  22  39  56  80 118 158 196 240 293 352
#     4  11  23  38  57  82 118 160 194 238 299 355
#     4  11  23  39  62  89 120 158 200 245 294 356
#     4  10  22  41  65  93 122 152 193 246 301 355
#     4  10  22  40  63  89 116 151 196 246 293 348
#     4  11  21  34  56  85 114 151 200 246 291 346
#
# _framework density 20.080452000000001
#
# number of rings (size 3 to 8) (size 9 to 14) (size 15 to 20)
#    0.000    1.750    1.250    3.000    0.000    6.750 
#    0.000    2.500    0.000    1.875    0.000    0.000 
#    0.000    0.000    0.000    0.000    0.000    0.000 
#
# Total GULP energy -396908.756308 kJ/mol
# GULP energy per Si atom -12403.398635 kJ/mol
# Density = 2.003475 g / cm^3
# Si number density = 20.080452 Si / 1000 Ang^3
#
#
#
# Elastic Constant Matrix: (Units=GPa)
#
#
# Indices 1 2 3 4 5 6 
#
# 1 101.5665 61.3615 44.6626 0.0000 6.9831 0.0000
# 2 61.3615 103.1046 43.3051 0.0000 7.3172 0.0000
# 3 44.6626 43.3051 97.4741 0.0000 0.8622 0.0000
# 4 0.0000 0.0000 0.0000 24.8925 0.0000 -1.3233
# 5 6.9831 7.3172 0.8622 0.0000 38.0603 0.0000
# 6 0.0000 0.0000 0.0000 -1.3233 0.0000 4.3834
#
#
#
# Elastic Compliance Matrix: (Units=1/GPa)
#
#
# Indices 1 2 3 4 5 6 
#
# 1 0.016589 -0.008097 -0.003991 0.000000 -0.001397 0.000000
# 2 -0.008097 0.016059 -0.003411 0.000000 -0.001524 0.000000
# 3 -0.003991 -0.003411 0.013594 0.000000 0.001080 0.000000
# 4 0.000000 0.000000 0.000000 0.040828 0.000000 0.012325
# 5 -0.001397 -0.001524 0.001080 0.000000 0.026799 0.000000
# 6 0.000000 0.000000 0.000000 0.012325 0.000000 0.231853
#
#
# Mechanical properties :
#
#
# Convention : Reuss Voigt Hill
#
# Bulk Modulus (GPa) = 65.60547 66.75596 66.18071
# Shear Modulus (GPa) = 13.09583 23.65496 18.37540
#
# Velocity S-wave (km/s) = 2.55653 3.43594 3.02833
# Velocity P-wave (km/s) = 6.43869 7.00409 6.72733
#
# Compressibility (1/GPa) = 0.01524263
#
# Stress axis : x y z
#
# Youngs Moduli (GPa) = 60.28160 62.27206 73.56343
#
# Poissons Ratio (x) = 0.50423 0.29361
# Poissons Ratio (y) = 0.48811 0.25091
# Poissons Ratio (z) = 0.24060 0.21240
#
# Static dielectric constant tensor:
#      x y z
#    x 3.651630 0.000000 -0.103110 
#    y 0.000000 3.541560 0.000000 
#    z -0.103110 0.000000 3.706980 
# 
# 
# High freq. dielectric constant tensor:
#      x y z
#    x 1.784750 0.000000 -0.002170 
#    y 0.000000 1.767990 0.000000 
#    z -0.002170 0.000000 1.794900 
# 
# From -- ./inp_files/49840.got.cif
#   From: 2010.06.25/outbox.cif.g09.slc.cpg/sg10_25_cif.got.tgz:49840.got - 2010.06.27 22:07:45.
