data_PCOD8065156
_publ_section_title
;
Structure prediction by ZEFSAII (Michael W. Deem and Ramdas Pophale) SiO2 
 PCOD8065156
Probable space group: P 2/M
;
_chemical_formula_sum "Si O2"
_cell_formula_units_Z 32
_cell_length_a 11.175226
_cell_length_b 8.415155
_cell_length_c 25.287022
_cell_angle_alpha 90.000000
_cell_angle_beta 41.849929
_cell_angle_gamma 90.000000
_cell_volume 1586.574026
_symmetry_space_group_name_H-M "P 2/M"
_symmetry_group_IT_number 10
_symmetry_cell_setting 'monoclinic'
loop_
_space_group_symop_operation_xyz
x,y,z
-x,y,-z
-x,-y,-z
x,-y,z
loop_
_atom_site_type_symbol
_atom_site_label
_atom_site_fract_x
_atom_site_fract_y
_atom_site_fract_z
Si Si1 0.955732 0.684775 0.176615
Si Si2 0.382136 0.689145 0.490361
Si Si3 0.990615 0.688398 0.649643
Si Si4 0.447145 0.689431 0.673525
Si Si5 0.461583 0.314718 0.882269
Si Si6 0.915978 0.815708 0.972359
Si Si7 0.372034 0.311967 0.281013
Si Si8 0.816227 0.183611 0.808045
O O1 0.976360 0.500000 0.183306
O O2 0.101286 0.783065 0.161715
O O3 0.757866 0.746471 0.256942
O O4 0.987383 0.712971 0.104336
O O5 0.500000 0.756025 0.500000
O O6 0.390125 0.500000 0.487032
O O7 0.178136 0.748436 0.563954
O O8 0.461009 0.757638 0.409682
O O9 0.989684 0.500000 0.658657
O O10 0.833405 0.742377 0.661125
O O11 0.962161 0.767062 0.716092
O O12 0.456840 0.500000 0.671700
O O13 0.553891 0.761617 0.688838
O O14 0.412950 0.500000 0.899888
O O15 0.296252 0.214444 0.958580
O O16 0.505301 0.255152 0.808358
O O17 0.634438 0.284544 0.861979
O O18 0.954507 0.000000 0.949215
O O19 0.000000 0.758440 0.000000
O O20 0.379569 0.500000 0.281361
O O21 0.767105 0.000000 0.818711
#
# Coordination Sequence:
#
# PCOD8065156 Si02
#       8
#     4   4   4   4   4   4   4   4
#     4  11  22  37  58  81 107 143 188 233 276 325
#     4   9  16  26  44  73 108 143 181 227 274 319
#     4   9  17  31  52  78 108 142 181 223 269 327
#     4   9  17  29  49  78 108 138 177 228 279 321
#     4  10  20  37  60  84 110 142 185 230 273 325
#     4  11  24  40  58  84 118 151 183 222 271 325
#     4   8  15  28  48  77 108 136 172 221 271 319
#     4  11  22  37  57  81 111 144 179 223 280 338
#
# _framework density 20.169243999999999
#
# number of rings (size 3 to 8) (size 9 to 14) (size 15 to 20)
#    0.000    2.250    0.000    4.500    0.000    5.000 
#    0.000    5.000    0.000    4.875    0.000    3.500 
#    0.000    0.000    0.000    0.000    0.000    0.000 
#
# Total GULP energy -396875.184786 kJ/mol
# GULP energy per Si atom -12402.349525 kJ/mol
# Density = 2.012334 g / cm^3
# Si number density = 20.169244 Si / 1000 Ang^3
#
#
#
# Elastic Constant Matrix: (Units=GPa)
#
#
# Indices 1 2 3 4 5 6 
#
# 1 116.2010 12.0290 46.2433 0.0000 7.5317 0.0000
# 2 12.0290 33.7737 11.7450 0.0000 0.3203 0.0000
# 3 46.2433 11.7450 124.3793 0.0000 -8.1968 0.0000
# 4 0.0000 0.0000 0.0000 10.4198 0.0000 1.5993
# 5 7.5317 0.3203 -8.1968 0.0000 35.0105 0.0000
# 6 0.0000 0.0000 0.0000 1.5993 0.0000 19.0799
#
#
#
# Elastic Compliance Matrix: (Units=1/GPa)
#
#
# Indices 1 2 3 4 5 6 
#
# 1 0.010625 -0.002386 -0.003935 0.000000 -0.003185 0.000000
# 2 -0.002386 0.031182 -0.002075 0.000000 -0.000258 0.000000
# 3 -0.003935 -0.002075 0.009909 0.000000 0.003185 0.000000
# 4 0.000000 0.000000 0.000000 0.097222 0.000000 -0.008149
# 5 -0.003185 -0.000258 0.003185 0.000000 0.029996 0.000000
# 6 0.000000 0.000000 0.000000 -0.008149 0.000000 0.053094
#
#
# Mechanical properties :
#
#
# Convention : Reuss Voigt Hill
#
# Bulk Modulus (GPa) = 28.63203 46.04318 37.33760
# Shear Modulus (GPa) = 19.19673 26.52449 22.86061
#
# Velocity S-wave (km/s) = 3.08844 3.63036 3.37031
# Velocity P-wave (km/s) = 5.19083 6.36008 5.80497
#
# Compressibility (1/GPa) = 0.03492592
#
# Stress axis : x y z
#
# Youngs Moduli (GPa) = 94.11625 32.06934 100.92097
#
# Poissons Ratio (x) = 0.07651 0.39712
# Poissons Ratio (y) = 0.22453 0.20936
# Poissons Ratio (z) = 0.37035 0.06653
#
# Static dielectric constant tensor:
#      x y z
#    x 3.871200 0.000000 0.020170 
#    y 0.000000 3.202480 0.000000 
#    z 0.020170 0.000000 3.752300 
# 
# 
# High freq. dielectric constant tensor:
#      x y z
#    x 1.798840 0.000000 -0.003530 
#    y 0.000000 1.747980 0.000000 
#    z -0.003530 0.000000 1.789810 
# 
# From -- ./inp_files/88673.got.cif
#   From: 2010.06.25/outbox.cif.g09.slc.cpg/sg10_45_cif.got.tgz:88673.got - 2010.06.27 22:07:45.
