data_PCOD8065777
_publ_section_title
;
Structure prediction by ZEFSAII (Michael W. Deem and Ramdas Pophale) SiO2 
 PCOD8065777
Probable space group: P 2/M
;
_chemical_formula_sum "Si O2"
_cell_formula_units_Z 28
_cell_length_a 14.133791
_cell_length_b 13.055832
_cell_length_c 8.707681
_cell_angle_alpha 90.000000
_cell_angle_beta 69.481299
_cell_angle_gamma 90.000000
_cell_volume 1504.874660
_symmetry_space_group_name_H-M "P 2/M"
_symmetry_group_IT_number 10
_symmetry_cell_setting 'monoclinic'
loop_
_space_group_symop_operation_xyz
x,y,z
-x,y,-z
-x,-y,-z
x,-y,z
loop_
_atom_site_type_symbol
_atom_site_label
_atom_site_fract_x
_atom_site_fract_y
_atom_site_fract_z
Si Si1 0.959073 0.382698 0.680988
Si Si2 0.297118 0.883931 0.260006
Si Si3 0.785570 0.379449 0.999436
Si Si4 0.098562 0.119617 0.544447
Si Si5 0.915771 0.732208 0.164552
Si Si6 0.502961 0.884358 0.673294
Si Si7 0.400337 0.259226 0.965236
O O1 0.948111 0.500000 0.646986
O O2 0.000000 0.327032 0.500000
O O3 0.041012 0.365221 0.767358
O O4 0.850400 0.345835 0.810723
O O5 0.192518 0.843616 0.388729
O O6 0.381482 0.875812 0.342386
O O7 0.285860 0.000000 0.206366
O O8 0.327539 0.815134 0.100352
O O9 0.800836 0.500000 0.025744
O O10 0.819159 0.310049 0.126273
O O11 0.666661 0.358038 0.039903
O O12 0.106181 0.177287 0.702910
O O13 0.000000 0.145075 0.500000
O O14 0.105447 0.000000 0.580422
O O15 0.000000 0.775351 0.000000
O O16 0.500000 0.852624 0.500000
O O17 0.432194 0.803952 0.798475
O O18 0.462514 0.000000 0.725026
O O19 0.500000 0.295724 0.000000
#
# Coordination Sequence:
#
# PCOD8065777 Si02
#       7
#     4   4   4   4   4   4   4
#     4   9  18  34  57  83 107 137 184 235 274 320
#     4   9  19  35  55  80 110 144 182 225 269 322
#     4  10  22  38  56  83 113 143 183 235 289 328
#     4  10  22  37  54  82 120 153 181 219 267 332
#     4  10  21  34  55  79 109 151 183 224 270 329
#     4   9  18  34  57  84 110 138 181 234 274 318
#     4  10  21  36  57  81 106 148 186 227 280 337
#
# _framework density 18.606200999999999
#
# number of rings (size 3 to 8) (size 9 to 14) (size 15 to 20)
#    0.000    2.429    0.000    1.286    8.000    4.000 
#    0.000    0.714    0.000    0.429    0.000    0.000 
#    0.000    0.000    0.000    0.000    0.000    0.000 
#
# Total GULP energy -347038.093973 kJ/mol
# GULP energy per Si atom -12394.217642 kJ/mol
# Density = 1.856385 g / cm^3
# Si number density = 18.606201 Si / 1000 Ang^3
#
#
#
# Elastic Constant Matrix: (Units=GPa)
#
#
# Indices 1 2 3 4 5 6 
#
# 1 103.5972 41.1024 62.2765 0.0000 -12.6063 0.0000
# 2 41.1024 62.6846 43.4095 0.0000 -1.6737 0.0000
# 3 62.2765 43.4095 119.2085 0.0000 -1.9884 0.0000
# 4 0.0000 0.0000 0.0000 33.4600 0.0000 7.3008
# 5 -12.6063 -1.6737 -1.9884 0.0000 28.0066 0.0000
# 6 0.0000 0.0000 0.0000 7.3008 0.0000 32.7081
#
#
#
# Elastic Compliance Matrix: (Units=1/GPa)
#
#
# Indices 1 2 3 4 5 6 
#
# 1 0.016852 -0.006487 -0.006329 0.000000 0.006749 0.000000
# 2 -0.006487 0.023844 -0.005325 0.000000 -0.001873 0.000000
# 3 -0.006329 -0.005325 0.013598 0.000000 -0.002202 0.000000
# 4 0.000000 0.000000 0.000000 0.031417 0.000000 -0.007013
# 5 0.006749 -0.001873 -0.002202 0.000000 0.038475 0.000000
# 6 0.000000 0.000000 0.000000 -0.007013 0.000000 0.032139
#
#
# Mechanical properties :
#
#
# Convention : Reuss Voigt Hill
#
# Bulk Modulus (GPa) = 55.52013 64.34079 59.93046
# Shear Modulus (GPa) = 25.17482 28.08172 26.62827
#
# Velocity S-wave (km/s) = 3.68235 3.88914 3.78716
# Velocity P-wave (km/s) = 6.92705 7.40423 7.16961
#
# Compressibility (1/GPa) = 0.01801148
#
# Stress axis : x y z
#
# Youngs Moduli (GPa) = 59.33848 41.93915 73.54265
#
# Poissons Ratio (x) = 0.27206 0.46547
# Poissons Ratio (y) = 0.38493 0.39162
# Poissons Ratio (z) = 0.37557 0.22333
#
# Static dielectric constant tensor:
#      x y z
#    x 3.443520 0.000000 -0.121410 
#    y 0.000000 3.246420 0.000000 
#    z -0.121410 0.000000 3.633470 
# 
# 
# High freq. dielectric constant tensor:
#      x y z
#    x 1.717240 0.000000 -0.001630 
#    y 0.000000 1.712430 0.000000 
#    z -0.001630 0.000000 1.728340 
# 
# From -- ./inp_files/24880.got.cif
#   From: 2010.06.25/outbox.cif.g09.slc.cpg/sg10_13_cif.got.tgz:24880.got - 2010.06.27 22:07:45.
