data_PCOD8065846
_publ_section_title
;
Structure prediction by ZEFSAII (Michael W. Deem and Ramdas Pophale) SiO2 
 PCOD8065846
Probable space group: P 2/M
;
_chemical_formula_sum "Si O2"
_cell_formula_units_Z 32
_cell_length_a 9.295883
_cell_length_b 14.098601
_cell_length_c 27.014761
_cell_angle_alpha 90.000000
_cell_angle_beta 149.345718
_cell_angle_gamma 90.000000
_cell_volume 1805.160783
_symmetry_space_group_name_H-M "P 2/M"
_symmetry_group_IT_number 10
_symmetry_cell_setting 'monoclinic'
loop_
_space_group_symop_operation_xyz
x,y,z
-x,y,-z
-x,-y,-z
x,-y,z
loop_
_atom_site_type_symbol
_atom_site_label
_atom_site_fract_x
_atom_site_fract_y
_atom_site_fract_z
Si Si1 0.449669 0.265893 0.613365
Si Si2 0.118475 0.108764 0.280301
Si Si3 0.882844 0.265893 0.386635
Si Si4 0.783029 0.108764 0.280301
Si Si5 0.658652 0.768743 0.097477
Si Si6 0.976073 0.391359 0.757529
Si Si7 0.671269 0.231257 0.902523
Si Si8 0.311573 0.608641 0.757529
O O1 0.594087 0.166819 0.641189
O O2 0.360409 0.261027 0.644163
O O3 0.657661 0.354307 0.666687
O O4 0.184740 0.283651 0.500000
O O5 0.012741 0.122159 0.305096
O O6 0.881676 0.146952 0.172460
O O7 0.180817 0.000000 0.286008
O O8 0.888142 0.166819 0.358811
O O9 0.824225 0.354307 0.333313
O O10 0.480625 0.146952 0.172460
O O11 0.749220 0.000000 0.286007
O O12 0.418852 0.768811 0.067541
O O13 0.824280 0.668462 0.146488
O O14 0.500000 0.786927 0.000000
O O15 0.988712 0.500000 0.778325
O O16 0.080171 0.377210 0.732068
O O17 0.591841 0.331538 0.853512
O O18 0.000000 0.213073 0.000000
O O19 0.402913 0.500000 0.778325
#
# Coordination Sequence:
#
# PCOD8065846 Si02
#       8
#     4   4   4   4   4   4   4   4
#     4  10  21  35  51  75 106 134 162 204 256 303
#     4   9  19  36  55  74  99 133 172 210 246 291
#     4  10  21  35  51  75 106 134 162 204 256 303
#     4   9  19  36  55  74  99 133 172 210 246 291
#     4   9  18  32  50  74 103 132 164 204 249 296
#     4   9  19  36  55  74  99 133 172 210 246 291
#     4   9  18  32  50  74 103 132 164 204 249 296
#     4   9  19  36  55  74  99 133 172 210 246 291
#
# _framework density 17.726952000000001
#
# number of rings (size 3 to 8) (size 9 to 14) (size 15 to 20)
#    0.000    2.750    0.000    2.250    0.000    9.000 
#    0.000    5.000    0.000    0.000    0.000    0.000 
#    0.000    0.000    0.000    0.000    0.000    0.000 
#
# Total GULP energy -396835.774854 kJ/mol
# GULP energy per Si atom -12401.117964 kJ/mol
# Density = 1.768660 g / cm^3
# Si number density = 17.726952 Si / 1000 Ang^3
#
#
#
# Elastic Constant Matrix: (Units=GPa)
#
#
# Indices 1 2 3 4 5 6 
#
# 1 57.1045 5.6000 22.8101 0.0000 -1.2971 0.0000
# 2 5.6000 66.7518 -20.3732 0.0000 0.8553 0.0000
# 3 22.8101 -20.3732 44.8934 0.0000 1.6993 0.0000
# 4 0.0000 0.0000 0.0000 12.5474 0.0000 0.0330
# 5 -1.2971 0.8553 1.6993 0.0000 36.7454 0.0000
# 6 0.0000 0.0000 0.0000 0.0330 0.0000 13.5497
#
#
#
# Elastic Compliance Matrix: (Units=1/GPa)
#
#
# Indices 1 2 3 4 5 6 
#
# 1 0.024448 -0.006831 -0.015588 0.000000 0.001743 0.000000
# 2 -0.006831 0.019320 0.012286 0.000000 -0.001259 0.000000
# 3 -0.015588 0.012286 0.035865 0.000000 -0.002495 0.000000
# 4 0.000000 0.000000 0.000000 0.079699 0.000000 -0.000194
# 5 0.001743 -0.001259 -0.002495 0.000000 0.027420 0.000000
# 6 0.000000 0.000000 0.000000 -0.000194 0.000000 0.073803
#
#
# Mechanical properties :
#
#
# Convention : Reuss Voigt Hill
#
# Bulk Modulus (GPa) = 16.84421 20.53593 18.69007
# Shear Modulus (GPa) = 16.63296 23.28269 19.95783
#
# Velocity S-wave (km/s) = 3.06647 3.62803 3.35900
# Velocity P-wave (km/s) = 4.69684 5.39998 5.06064
#
# Compressibility (1/GPa) = 0.05936759
#
# Stress axis : x y z
#
# Youngs Moduli (GPa) = 40.90392 51.76027 27.88241
#
# Poissons Ratio (x) = 0.35356 0.43462
# Poissons Ratio (y) = 0.27940 -0.34256
# Poissons Ratio (z) = 0.63759 -0.63592
#
# Static dielectric constant tensor:
#      x y z
#    x 3.306930 0.000000 0.006680 
#    y 0.000000 3.553830 0.000000 
#    z 0.006680 0.000000 3.104230 
# 
# 
# High freq. dielectric constant tensor:
#      x y z
#    x 1.685560 0.000000 0.000200 
#    y 0.000000 1.690600 0.000000 
#    z 0.000200 0.000000 1.679580 
# 
# From -- ./inp_files/92359.got.cif
#   From: 2010.06.25/outbox.cif.g09.slc.cpg/sg10_47_cif.got.tgz:92359.got - 2010.06.27 22:07:45.
