data_PCOD8065533
_publ_section_title
;
Structure prediction by ZEFSAII (Michael W. Deem and Ramdas Pophale) SiO2 
 PCOD8065533
Probable space group: P 2/M
;
_chemical_formula_sum "Si O2"
_cell_formula_units_Z 20
_cell_length_a 12.298250
_cell_length_b 8.960758
_cell_length_c 12.383016
_cell_angle_alpha 90.000000
_cell_angle_beta 132.389444
_cell_angle_gamma 90.000000
_cell_volume 1007.886862
_symmetry_space_group_name_H-M "P 2/M"
_symmetry_group_IT_number 10
_symmetry_cell_setting 'monoclinic'
loop_
_space_group_symop_operation_xyz
x,y,z
-x,y,-z
-x,-y,-z
x,-y,z
loop_
_atom_site_type_symbol
_atom_site_label
_atom_site_fract_x
_atom_site_fract_y
_atom_site_fract_z
Si Si1 0.862767 0.829594 0.621873
Si Si2 0.156571 0.325338 0.764168
Si Si3 0.651777 0.674934 0.901292
Si Si4 0.841160 0.174225 0.854196
Si Si5 0.656086 0.828343 0.290253
O O1 0.819047 0.787081 0.714185
O O2 0.717183 0.809765 0.452462
O O3 0.986871 0.718719 0.661650
O O4 0.921908 0.000000 0.656144
O O5 0.169947 0.500000 0.748003
O O6 0.222953 0.233472 0.710350
O O7 0.239114 0.280981 0.929243
O O8 0.637949 0.500000 0.877402
O O9 0.711744 0.743049 0.830674
O O10 0.492672 0.737475 0.823527
O O11 0.825942 0.000000 0.868735
O O12 0.000000 0.233563 0.000000
O O13 0.624399 0.000000 0.241681
#
# Coordination Sequence:
#
# PCOD8065533 Si02
#       5
#     4   4   4   4   4
#     4  10  22  40  62  90 119 152 197 245 291 345
#     4  11  23  39  61  88 120 157 197 242 291 348
#     4  11  24  40  60  88 122 156 195 243 293 347
#     4  10  20  38  65  89 114 152 198 243 289 347
#     4  11  24  40  60  87 121 157 196 243 293 347
#
# _framework density 19.843496999999999
#
# number of rings (size 3 to 8) (size 9 to 14) (size 15 to 20)
#    0.000    1.400    2.000    3.000    0.000   10.800 
#    0.000    4.000    0.000    0.000    0.000    0.000 
#    0.000    0.000    0.000    0.000    0.000    0.000 
#
# Total GULP energy -248149.684889 kJ/mol
# GULP energy per Si atom -12407.484244 kJ/mol
# Density = 1.979833 g / cm^3
# Si number density = 19.843497 Si / 1000 Ang^3
#
#
#
# Elastic Constant Matrix: (Units=GPa)
#
#
# Indices 1 2 3 4 5 6 
#
# 1 63.8242 25.3350 28.4717 0.0000 -18.2402 0.0000
# 2 25.3350 57.5535 32.8244 0.0000 -8.5546 0.0000
# 3 28.4717 32.8244 33.1094 0.0000 2.2043 0.0000
# 4 0.0000 0.0000 0.0000 9.3539 0.0000 24.3623
# 5 -18.2402 -8.5546 2.2043 0.0000 32.3603 0.0000
# 6 0.0000 0.0000 0.0000 24.3623 0.0000 14.9651
#
#
#
# Elastic Compliance Matrix: (Units=1/GPa)
#
#
# Indices 1 2 3 4 5 6 
#
# 1 0.044544 0.019963 -0.060393 0.000000 0.034499 0.000000
# 2 0.019963 0.055608 -0.074362 0.000000 0.031018 0.000000
# 3 -0.060393 -0.074362 0.160159 0.000000 -0.064608 0.000000
# 4 0.000000 0.000000 0.000000 -0.032996 0.000000 0.053716
# 5 0.034499 0.031018 -0.064608 0.000000 0.062948 0.000000
# 6 0.000000 0.000000 0.000000 0.053716 0.000000 -0.020624
#
#
# Mechanical properties :
#
#
# Convention : Reuss Voigt Hill
#
# Bulk Modulus (GPa) = 32.54241 36.41658 34.47949
# Shear Modulus (GPa) = 9.81422 15.85961 12.83692
#
# Velocity S-wave (km/s) = 2.22633 2.83014 2.54620
# Velocity P-wave (km/s) = 4.80040 5.39178 5.10466
#
# Compressibility (1/GPa) = 0.03072913
#
# Stress axis : x y z
#
# Youngs Moduli (GPa) = 22.44974 17.98293 6.24378
#
# Poissons Ratio (x) = -0.35900 0.37708
# Poissons Ratio (y) = -0.44817 0.46430
# Poissons Ratio (z) = 1.35581 1.33724
#
# Static dielectric constant tensor:
#      x y z
#    x 3.544870 0.000000 -0.136380 
#    y 0.000000 3.597570 0.000000 
#    z -0.136380 0.000000 3.735850 
# 
# 
# High freq. dielectric constant tensor:
#      x y z
#    x 1.778300 0.000000 -0.007360 
#    y 0.000000 1.776810 0.000000 
#    z -0.007360 0.000000 1.782790 
# 
# From -- ./inp_files/22172.got.cif
#   From: 2010.06.25/outbox.cif.g09.slc.cpg/sg10_12_cif.got.tgz:22172.got - 2010.06.27 22:07:45.
