data_PCOD8065354
_publ_section_title
;
Structure prediction by ZEFSAII (Michael W. Deem and Ramdas Pophale) SiO2 
 PCOD8065354
Probable space group: P 2/M
;
_chemical_formula_sum "Si O2"
_cell_formula_units_Z 28
_cell_length_a 12.071330
_cell_length_b 9.444329
_cell_length_c 14.655458
_cell_angle_alpha 90.000000
_cell_angle_beta 54.396336
_cell_angle_gamma 90.000000
_cell_volume 1358.470176
_symmetry_space_group_name_H-M "P 2/M"
_symmetry_group_IT_number 10
_symmetry_cell_setting 'monoclinic'
loop_
_space_group_symop_operation_xyz
x,y,z
-x,y,-z
-x,-y,-z
x,-y,z
loop_
_atom_site_type_symbol
_atom_site_label
_atom_site_fract_x
_atom_site_fract_y
_atom_site_fract_z
Si Si1 0.763614 0.158889 0.449591
Si Si2 0.116578 0.840192 0.796538
Si Si3 0.270730 0.330591 0.863541
Si Si4 0.741875 0.840434 0.759561
Si Si5 0.464688 0.163127 0.299232
Si Si6 0.804134 0.840810 0.928625
Si Si7 0.001788 0.349424 0.395653
O O1 0.768847 0.179254 0.337506
O O2 0.616904 0.184747 0.566557
O O3 0.863005 0.269802 0.445362
O O4 0.812904 0.000000 0.449999
O O5 0.145567 0.728804 0.863141
O O6 0.964655 0.810738 0.829520
O O7 0.125163 0.000000 0.831739
O O8 0.271820 0.500000 0.861391
O O9 0.409063 0.268810 0.754905
O O10 0.253132 0.275135 0.974637
O O11 0.619738 0.793218 0.751489
O O12 0.709463 0.830757 0.883348
O O13 0.868904 0.741548 0.688196
O O14 0.783792 0.000000 0.712412
O O15 0.513620 0.000000 0.267243
O O16 0.789815 0.000000 0.976241
O O17 0.006300 0.500000 0.338756
O O18 0.000000 0.389913 0.500000
#
# Coordination Sequence:
#
# PCOD8065354 Si02
#       7
#     4   4   4   4   4   4   4
#     4  10  20  37  64  93 119 153 201 252 298 350
#     4  10  21  40  67  94 118 149 198 258 307 349
#     4  12  27  43  59  82 122 167 205 247 298 365
#     4  10  20  37  64  93 119 153 201 252 298 350
#     4  10  22  40  64  90 121 160 202 247 292 354
#     4  10  21  40  67  94 118 149 198 258 307 349
#     4  11  21  31  51  88 131 166 191 233 298 362
#
# _framework density 20.611421
#
# number of rings (size 3 to 8) (size 9 to 14) (size 15 to 20)
#    0.000    1.571    2.857    2.143    0.000    6.286 
#    0.000    5.714    0.000    0.000    0.000    0.000 
#    0.000    0.000    0.000    0.000    0.000    0.000 
#
# Total GULP energy -347042.174390 kJ/mol
# GULP energy per Si atom -12394.363371 kJ/mol
# Density = 2.056451 g / cm^3
# Si number density = 20.611421 Si / 1000 Ang^3
#
#
#
# Elastic Constant Matrix: (Units=GPa)
#
#
# Indices 1 2 3 4 5 6 
#
# 1 33.2890 15.3453 3.5460 0.0000 -1.4043 0.0000
# 2 15.3453 102.8650 27.1449 0.0000 -6.7950 0.0000
# 3 3.5460 27.1449 76.4428 0.0000 1.9888 0.0000
# 4 0.0000 0.0000 0.0000 44.8109 0.0000 -18.9993
# 5 -1.4043 -6.7950 1.9888 0.0000 28.6965 0.0000
# 6 0.0000 0.0000 0.0000 -18.9993 0.0000 28.0982
#
#
#
# Elastic Compliance Matrix: (Units=1/GPa)
#
#
# Indices 1 2 3 4 5 6 
#
# 1 0.032267 -0.004842 0.000212 0.000000 0.000418 0.000000
# 2 -0.004842 0.011684 -0.003997 0.000000 0.002807 0.000000
# 3 0.000212 -0.003997 0.014542 0.000000 -0.001944 0.000000
# 4 0.000000 0.000000 0.000000 0.031285 0.000000 0.021154
# 5 0.000418 0.002807 -0.001944 0.000000 0.035667 0.000000
# 6 0.000000 0.000000 0.000000 0.021154 0.000000 0.049893
#
#
# Mechanical properties :
#
#
# Convention : Reuss Voigt Hill
#
# Bulk Modulus (GPa) = 24.24960 33.85212 29.05086
# Shear Modulus (GPa) = 24.23187 31.42518 27.82852
#
# Velocity S-wave (km/s) = 3.43250 3.90891 3.67843
# Velocity P-wave (km/s) = 5.24405 6.06897 5.67153
#
# Compressibility (1/GPa) = 0.04123779
#
# Stress axis : x y z
#
# Youngs Moduli (GPa) = 30.99149 85.58673 68.76665
#
# Poissons Ratio (x) = 0.41439 -0.01456
# Poissons Ratio (y) = 0.15005 0.27489
# Poissons Ratio (z) = -0.00656 0.34213
#
# Static dielectric constant tensor:
#      x y z
#    x 3.671180 0.000000 0.127140 
#    y 0.000000 3.710090 0.000000 
#    z 0.127140 0.000000 3.797380 
# 
# 
# High freq. dielectric constant tensor:
#      x y z
#    x 1.794710 0.000000 0.009300 
#    y 0.000000 1.799960 0.000000 
#    z 0.009300 0.000000 1.808350 
# 
# From -- ./inp_files/63634.got.cif
#   From: 2010.06.25/outbox.cif.g09.slc.cpg/sg10_32_cif.got.tgz:63634.got - 2010.06.27 22:07:45.
