data_PCOD8065234
_publ_section_title
;
Structure prediction by ZEFSAII (Michael W. Deem and Ramdas Pophale) SiO2 
 PCOD8065234
Probable space group: P 2/M
;
_chemical_formula_sum "Si O2"
_cell_formula_units_Z 26
_cell_length_a 9.995455
_cell_length_b 13.071604
_cell_length_c 16.334565
_cell_angle_alpha 90.000000
_cell_angle_beta 140.823867
_cell_angle_gamma 90.000000
_cell_volume 1348.200015
_symmetry_space_group_name_H-M "P 2/M"
_symmetry_group_IT_number 10
_symmetry_cell_setting 'monoclinic'
loop_
_space_group_symop_operation_xyz
x,y,z
-x,y,-z
-x,-y,-z
x,-y,z
loop_
_atom_site_type_symbol
_atom_site_label
_atom_site_fract_x
_atom_site_fract_y
_atom_site_fract_z
Si Si1 0.898367 0.118626 0.680515
Si Si2 0.500000 0.257942 0.500000
Si Si3 0.715508 0.612190 0.151881
Si Si4 0.162651 0.882100 0.644314
Si Si5 0.498166 0.722619 0.188484
Si Si6 0.920786 0.736602 0.114121
Si Si7 0.322837 0.377893 0.263247
O O1 0.691607 0.185488 0.562084
O O2 0.073194 0.135682 0.693002
O O3 0.993600 0.153155 0.814254
O O4 0.833646 0.000000 0.656027
O O5 0.437894 0.332271 0.396721
O O6 0.812906 0.500000 0.211587
O O7 0.670757 0.660925 0.218197
O O8 0.885890 0.676097 0.182330
O O9 0.500000 0.605580 0.000000
O O10 0.389299 0.829028 0.736564
O O11 0.000000 0.838227 0.500000
O O12 0.207387 0.000000 0.647961
O O13 0.453660 0.652748 0.245322
O O14 0.287080 0.750328 0.038418
O O15 0.091190 0.672765 0.142889
O O16 0.303997 0.500000 0.260506
#
# Coordination Sequence:
#
# PCOD8065234 Si02
#       7
#     4   2   4   4   4   4   4
#     4  10  20  37  61  87 116 156 199 240 294 355
#     4  10  22  40  62  86 118 156 198 246 292 350
#     4   9  17  31  52  78 111 148 185 227 279 338
#     4  10  21  37  59  84 115 156 199 244 294 347
#     4  11  21  36  58  86 119 150 197 245 292 348
#     4  10  21  36  56  87 118 154 193 241 293 351
#     4  11  23  39  61  86 118 159 199 242 295 352
#
# _framework density 19.284972
#
# number of rings (size 3 to 8) (size 9 to 14) (size 15 to 20)
#    0.000    1.846    1.538    2.769    0.000    3.077 
#    0.000    4.615    0.000    6.462    0.000    0.000 
#    0.000    0.000    0.000    0.000    0.000    0.000 
#
# Total GULP energy -322411.747392 kJ/mol
# GULP energy per Si atom -12400.451823 kJ/mol
# Density = 1.924108 g / cm^3
# Si number density = 19.284972 Si / 1000 Ang^3
#
#
#
# Elastic Constant Matrix: (Units=GPa)
#
#
# Indices 1 2 3 4 5 6 
#
# 1 89.5684 38.7563 22.0958 0.0000 -3.6537 0.0000
# 2 38.7563 116.7816 51.8276 0.0000 3.5198 0.0000
# 3 22.0958 51.8276 105.7565 0.0000 2.4461 0.0000
# 4 0.0000 0.0000 0.0000 21.5020 0.0000 0.4929
# 5 -3.6537 3.5198 2.4461 0.0000 27.2637 0.0000
# 6 0.0000 0.0000 0.0000 0.4929 0.0000 32.2353
#
#
#
# Elastic Compliance Matrix: (Units=1/GPa)
#
#
# Indices 1 2 3 4 5 6 
#
# 1 0.013238 -0.004106 -0.000809 0.000000 0.002377 0.000000
# 2 -0.004106 0.012240 -0.005102 0.000000 -0.001673 0.000000
# 3 -0.000809 -0.005102 0.012137 0.000000 -0.000539 0.000000
# 4 0.000000 0.000000 0.000000 0.046524 0.000000 -0.000711
# 5 0.002377 -0.001673 -0.000539 0.000000 0.037262 0.000000
# 6 0.000000 0.000000 0.000000 -0.000711 0.000000 0.031033
#
#
# Mechanical properties :
#
#
# Convention : Reuss Voigt Hill
#
# Bulk Modulus (GPa) = 56.87514 59.71840 58.29677
# Shear Modulus (GPa) = 28.03834 29.49533 28.76684
#
# Velocity S-wave (km/s) = 3.81714 3.91506 3.86641
# Velocity P-wave (km/s) = 6.99881 7.17429 7.08709
#
# Compressibility (1/GPa) = 0.01758237
#
# Stress axis : x y z
#
# Youngs Moduli (GPa) = 75.54158 81.69710 82.39007
#
# Poissons Ratio (x) = 0.33545 0.06662
# Poissons Ratio (y) = 0.31017 0.42035
# Poissons Ratio (z) = 0.06108 0.41682
#
# Static dielectric constant tensor:
#      x y z
#    x 3.593150 0.000000 0.010640 
#    y 0.000000 3.620700 0.000000 
#    z 0.010640 0.000000 3.387550 
# 
# 
# High freq. dielectric constant tensor:
#      x y z
#    x 1.757810 0.000000 0.000390 
#    y 0.000000 1.754890 0.000000 
#    z 0.000390 0.000000 1.742890 
# 
# From -- ./inp_files/62101.got.cif
#   From: 2010.06.25/outbox.cif.g09.slc.cpg/sg10_32_cif.got.tgz:62101.got - 2010.06.27 22:07:45.
