data_PCOD8065364
_publ_section_title
;
Structure prediction by ZEFSAII (Michael W. Deem and Ramdas Pophale) SiO2 
 PCOD8065364
Probable space group: P 2/M
;
_chemical_formula_sum "Si O2"
_cell_formula_units_Z 32
_cell_length_a 5.220719
_cell_length_b 18.409747
_cell_length_c 15.406334
_cell_angle_alpha 90.000000
_cell_angle_beta 83.820974
_cell_angle_gamma 90.000000
_cell_volume 1472.132927
_symmetry_space_group_name_H-M "P 2/M"
_symmetry_group_IT_number 10
_symmetry_cell_setting 'monoclinic'
loop_
_space_group_symop_operation_xyz
x,y,z
-x,y,-z
-x,-y,-z
x,-y,z
loop_
_atom_site_type_symbol
_atom_site_label
_atom_site_fract_x
_atom_site_fract_y
_atom_site_fract_z
Si Si1 0.375581 0.580887 0.344516
Si Si2 0.279131 0.280127 0.446936
Si Si3 0.089908 0.418944 0.767853
Si Si4 0.962657 0.813255 0.679238
Si Si5 0.405722 0.081403 0.235231
Si Si6 0.013625 0.729557 0.839660
Si Si7 0.476037 0.804013 0.902473
Si Si8 0.676168 0.919641 0.410548
O O1 0.394434 0.500000 0.384212
O O2 0.375413 0.639012 0.421300
O O3 0.618798 0.594882 0.273596
O O4 0.107865 0.590104 0.303805
O O5 0.500000 0.245843 0.500000
O O6 0.266236 0.229973 0.361286
O O7 0.000000 0.283886 0.500000
O O8 0.063725 0.500000 0.809538
O O9 0.020348 0.358144 0.841960
O O10 0.867220 0.878565 0.744822
O O11 0.105093 0.757177 0.739569
O O12 0.129312 0.851699 0.597521
O O13 0.565238 0.125476 0.157026
O O14 0.528922 0.082765 0.325298
O O15 0.363065 0.000000 0.202587
O O16 0.723892 0.756345 0.867496
O O17 0.216679 0.756550 0.903806
O O18 0.500000 0.831144 0.000000
O O19 0.500000 0.906857 0.500000
O O20 0.809157 0.000000 0.414265
#
# Coordination Sequence:
#
# PCOD8065364 Si02
#       8
#     4   4   4   4   4   4   4   4
#     4  10  21  39  60  86 125 170 221 275 328 384
#     4  12  28  39  58  89 126 173 223 277 337 386
#     4  10  20  37  65  95 124 166 218 267 319 388
#     4  11  24  39  62  88 128 172 218 278 325 394
#     4  10  23  41  64  93 127 172 218 266 329 396
#     4  11  22  41  71  95 130 172 213 268 324 392
#     4  11  24  43  69 103 135 168 210 266 333 399
#     4  10  22  40  63  90 126 172 223 275 327 386
#
# _framework density 21.737168
#
# number of rings (size 3 to 8) (size 9 to 14) (size 15 to 20)
#    0.000    1.375    2.500    2.250    5.250    0.750 
#    0.000    1.875    0.000    5.625    0.000    0.000 
#    0.000    0.000    0.000    0.000    0.000    0.000 
#
# Total GULP energy -396721.191241 kJ/mol
# GULP energy per Si atom -12397.537226 kJ/mol
# Density = 2.168769 g / cm^3
# Si number density = 21.737168 Si / 1000 Ang^3
#
#
#
# Elastic Constant Matrix: (Units=GPa)
#
#
# Indices 1 2 3 4 5 6 
#
# 1 88.1980 29.8541 14.2209 0.0000 8.6736 0.0000
# 2 29.8541 142.4435 39.4113 0.0000 -2.3497 0.0000
# 3 14.2209 39.4113 96.3703 0.0000 11.0869 0.0000
# 4 0.0000 0.0000 0.0000 -226.8401 0.0000 80.6588
# 5 8.6736 -2.3497 11.0869 0.0000 30.7256 0.0000
# 6 0.0000 0.0000 0.0000 80.6588 0.0000 -2.4541
#
#
#
# Elastic Compliance Matrix: (Units=1/GPa)
#
#
# Indices 1 2 3 4 5 6 
#
# 1 0.012638 -0.002603 -0.000383 0.000000 -0.003628 0.000000
# 2 -0.002603 0.008554 -0.003416 0.000000 0.002621 0.000000
# 3 -0.000383 -0.003416 0.012361 0.000000 -0.004613 0.000000
# 4 0.000000 0.000000 0.000000 0.000413 0.000000 0.013558
# 5 -0.003628 0.002621 -0.004613 0.000000 0.035436 0.000000
# 6 0.000000 0.000000 0.000000 0.013558 0.000000 0.038130
#
#
# Mechanical properties :
#
#
# Convention : Reuss Voigt Hill
#
# Bulk Modulus (GPa) = 48.19350 54.88713 51.54031
# Shear Modulus (GPa) = 39.29278 -23.47869 7.90705
#
# Velocity S-wave (km/s) = 4.25624 -3.29008 1.90931
# Velocity P-wave (km/s) = 6.80979 3.29732 5.35003
#
# Compressibility (1/GPa) = 0.02074969
#
# Stress axis : x y z
#
# Youngs Moduli (GPa) = 79.12866 116.90307 80.90079
#
# Poissons Ratio (x) = 0.30424 0.03100
# Poissons Ratio (y) = 0.20593 0.27634
# Poissons Ratio (z) = 0.03032 0.39932
#
# Static dielectric constant tensor:
#      x y z
#    x 3.878960 0.000000 0.014370 
#    y 0.000000 4.446700 0.000000 
#    z 0.014370 0.000000 3.653110 
# 
# 
# High freq. dielectric constant tensor:
#      x y z
#    x 1.855390 0.000000 0.005430 
#    y 0.000000 1.874680 0.000000 
#    z 0.005430 0.000000 1.820390 
# 
# From -- ./inp_files/59434.got.cif
#   From: 2010.06.25/outbox.cif.g09.slc.cpg/sg10_30_cif.got.tgz:59434.got - 2010.06.27 22:07:45.
