data_PCOD8065879
_publ_section_title
;
Structure prediction by ZEFSAII (Michael W. Deem and Ramdas Pophale) SiO2 
 PCOD8065879
Probable space group: P 2/M
;
_chemical_formula_sum "Si O2"
_cell_formula_units_Z 32
_cell_length_a 27.324153
_cell_length_b 9.035572
_cell_length_c 22.066454
_cell_angle_alpha 90.000000
_cell_angle_beta 17.938549
_cell_angle_gamma 90.000000
_cell_volume 1677.958036
_symmetry_space_group_name_H-M "P 2/M"
_symmetry_group_IT_number 10
_symmetry_cell_setting 'monoclinic'
loop_
_space_group_symop_operation_xyz
x,y,z
-x,y,-z
-x,-y,-z
x,-y,z
loop_
_atom_site_type_symbol
_atom_site_label
_atom_site_fract_x
_atom_site_fract_y
_atom_site_fract_z
Si Si1 0.076620 0.172827 0.191672
Si Si2 0.372728 0.329677 0.890833
Si Si3 0.231892 0.171872 0.881927
Si Si4 0.166276 0.826161 0.335741
Si Si5 0.788605 0.324996 0.589159
Si Si6 0.551783 0.328907 0.063103
Si Si7 0.523845 0.672506 0.588836
Si Si8 0.842692 0.671796 0.150005
O O1 0.911651 0.255869 0.396850
O O2 0.055100 0.000000 0.230224
O O3 0.213006 0.232378 0.076150
O O4 0.123191 0.207523 0.067884
O O5 0.320380 0.500000 0.945667
O O6 0.463568 0.302214 0.846806
O O7 0.493778 0.283486 0.694459
O O8 0.403795 0.244608 0.685993
O O9 0.146586 0.237131 0.924137
O O10 0.258580 0.000000 0.841759
O O11 0.177224 0.739749 0.385427
O O12 0.000000 0.786258 0.500000
O O13 0.180970 0.000000 0.330999
O O14 0.308654 0.774625 0.125206
O O15 0.811168 0.500000 0.564135
O O16 0.611974 0.281704 0.775766
O O17 0.591960 0.500000 0.001169
O O18 0.496512 0.500000 0.610857
O O19 0.699124 0.721842 0.362803
O O20 0.830012 0.500000 0.148107
O O21 0.000000 0.711778 0.000000
#
# Coordination Sequence:
#
# PCOD8065879 Si02
#       8
#     4   4   4   4   4   4   4   4
#     4  10  21  37  56  81 111 142 181 225 269 322
#     4   9  18  35  58  81 107 141 180 223 270 319
#     4  10  21  36  55  79 108 143 182 225 271 322
#     4  11  24  40  59  83 111 145 184 225 268 317
#     4  11  23  38  58  84 113 145 181 223 271 322
#     4  10  22  38  57  84 114 143 179 222 268 321
#     4   9  18  34  56  80 106 140 182 224 268 320
#     4  10  21  35  53  79 110 143 181 227 275 324
#
# _framework density 19.070799000000001
#
# number of rings (size 3 to 8) (size 9 to 14) (size 15 to 20)
#    0.000    2.000    0.000    3.000    0.000   10.750 
#    0.000    2.500    0.000    3.000    0.000    0.000 
#    0.000    0.000    0.000    0.000    0.000    0.000 
#
# Total GULP energy -396937.187625 kJ/mol
# GULP energy per Si atom -12404.287113 kJ/mol
# Density = 1.902739 g / cm^3
# Si number density = 19.070799 Si / 1000 Ang^3
#
#
#
# Elastic Constant Matrix: (Units=GPa)
#
#
# Indices 1 2 3 4 5 6 
#
# 1 103.0860 48.3050 66.8341 0.0000 -1.9294 0.0000
# 2 48.3050 71.6321 52.5268 0.0000 -4.2054 0.0000
# 3 66.8341 52.5268 121.0824 0.0000 -9.6728 0.0000
# 4 0.0000 0.0000 0.0000 20.3382 0.0000 11.8447
# 5 -1.9294 -4.2054 -9.6728 0.0000 23.3829 0.0000
# 6 0.0000 0.0000 0.0000 11.8447 0.0000 21.1092
#
#
#
# Elastic Compliance Matrix: (Units=1/GPa)
#
#
# Indices 1 2 3 4 5 6 
#
# 1 0.017228 -0.006812 -0.006762 0.000000 -0.002601 0.000000
# 2 -0.006812 0.023166 -0.006207 0.000000 0.001037 0.000000
# 3 -0.006762 -0.006207 0.015047 0.000000 0.004550 0.000000
# 4 0.000000 0.000000 0.000000 0.073035 0.000000 -0.040981
# 5 -0.002601 0.001037 0.004550 0.000000 0.044621 0.000000
# 6 0.000000 0.000000 0.000000 -0.040981 0.000000 0.070368
#
#
# Mechanical properties :
#
#
# Convention : Reuss Voigt Hill
#
# Bulk Modulus (GPa) = 62.97290 70.12581 66.54935
# Shear Modulus (GPa) = 17.34182 21.50835 19.42509
#
# Velocity S-wave (km/s) = 3.01880 3.36194 3.19498
# Velocity P-wave (km/s) = 6.72630 7.20564 6.97009
#
# Compressibility (1/GPa) = 0.01587985
#
# Stress axis : x y z
#
# Youngs Moduli (GPa) = 58.04492 43.16657 66.45626
#
# Poissons Ratio (x) = 0.29404 0.44939
# Poissons Ratio (y) = 0.39539 0.41249
# Poissons Ratio (z) = 0.39251 0.26793
#
# Static dielectric constant tensor:
#      x y z
#    x 3.601890 0.000000 0.083680 
#    y 0.000000 3.536430 0.000000 
#    z 0.083680 0.000000 3.610980 
# 
# 
# High freq. dielectric constant tensor:
#      x y z
#    x 1.747680 0.000000 0.007260 
#    y 0.000000 1.742940 0.000000 
#    z 0.007260 0.000000 1.747360 
# 
# From -- ./inp_files/86773.got.cif
#   From: 2010.06.25/outbox.cif.g09.slc.cpg/sg10_44_cif.got.tgz:86773.got - 2010.06.27 22:07:45.
