data_PCOD8065247
_publ_section_title
;
Structure prediction by ZEFSAII (Michael W. Deem and Ramdas Pophale) SiO2 
 PCOD8065247
Probable space group: P 2/M
;
_chemical_formula_sum "Si O2"
_cell_formula_units_Z 24
_cell_length_a 12.272577
_cell_length_b 8.852027
_cell_length_c 12.408022
_cell_angle_alpha 90.000000
_cell_angle_beta 110.050353
_cell_angle_gamma 90.000000
_cell_volume 1266.274207
_symmetry_space_group_name_H-M "P 2/M"
_symmetry_group_IT_number 10
_symmetry_cell_setting 'monoclinic'
loop_
_space_group_symop_operation_xyz
x,y,z
-x,y,-z
-x,-y,-z
x,-y,z
loop_
_atom_site_type_symbol
_atom_site_label
_atom_site_fract_x
_atom_site_fract_y
_atom_site_fract_z
Si Si1 0.976396 0.173391 0.112746
Si Si2 0.770103 0.828086 0.727278
Si Si3 0.375712 0.823849 0.115141
Si Si4 0.370531 0.821638 0.725140
Si Si5 0.749797 0.677676 0.120758
Si Si6 0.374784 0.323143 0.499866
O O1 0.091757 0.190058 0.223141
O O2 0.879185 0.276512 0.132493
O O3 0.932573 0.000000 0.094438
O O4 0.000000 0.230748 0.000000
O O5 0.719069 0.784786 0.826509
O O6 0.721347 0.715347 0.621596
O O7 0.733862 0.000000 0.686612
O O8 0.500620 0.768747 0.198338
O O9 0.376220 0.000000 0.086215
O O10 0.344685 0.734061 0.997144
O O11 0.276909 0.749481 0.772747
O O12 0.342335 0.765717 0.596252
O O13 0.358019 0.000000 0.724689
O O14 0.741260 0.500000 0.127215
O O15 0.500000 0.269012 0.500000
O O16 0.373791 0.500000 0.523904
#
# Coordination Sequence:
#
# PCOD8065247 Si02
#       6
#     4   4   4   4   4   4
#     4  10  20  39  64  87 116 155 202 248 287 343
#     4  10  20  37  63  91 117 152 202 248 286 341
#     4  10  20  37  61  89 119 155 199 245 291 347
#     4  11  23  40  63  86 117 160 206 246 287 349
#     4  12  25  38  57  88 127 160 193 242 304 361
#     4  11  23  38  59  89 126 158 190 240 300 356
#
# _framework density 18.953240999999998
#
# number of rings (size 3 to 8) (size 9 to 14) (size 15 to 20)
#    0.000    1.333    3.333    3.000    0.000    5.667 
#    0.000    0.833    0.000    5.000    0.000    0.000 
#    0.000    0.000    0.000    0.000    0.000    0.000 
#
# Total GULP energy -297775.091814 kJ/mol
# GULP energy per Si atom -12407.295492 kJ/mol
# Density = 1.891010 g / cm^3
# Si number density = 18.953241 Si / 1000 Ang^3
#
#
#
# Elastic Constant Matrix: (Units=GPa)
#
#
# Indices 1 2 3 4 5 6 
#
# 1 73.8373 33.7892 31.2663 0.0000 -9.0726 0.0000
# 2 33.7892 84.6683 41.6833 0.0000 -9.8534 0.0000
# 3 31.2663 41.6833 95.7991 0.0000 -10.9553 0.0000
# 4 0.0000 0.0000 0.0000 12.7143 0.0000 -4.2799
# 5 -9.0726 -9.8534 -10.9553 0.0000 33.3307 0.0000
# 6 0.0000 0.0000 0.0000 -4.2799 0.0000 25.8653
#
#
#
# Elastic Compliance Matrix: (Units=1/GPa)
#
#
# Indices 1 2 3 4 5 6 
#
# 1 0.017539 -0.005154 -0.003232 0.000000 0.002188 0.000000
# 2 -0.005154 0.016729 -0.005395 0.000000 0.001770 0.000000
# 3 -0.003232 -0.005395 0.014087 0.000000 0.002156 0.000000
# 4 0.000000 0.000000 0.000000 0.083291 0.000000 0.013782
# 5 0.002188 0.001770 0.002156 0.000000 0.031830 0.000000
# 6 0.000000 0.000000 0.000000 0.013782 0.000000 0.040942
#
#
# Mechanical properties :
#
#
# Convention : Reuss Voigt Hill
#
# Bulk Modulus (GPa) = 48.08777 51.97583 50.03180
# Shear Modulus (GPa) = 20.92837 24.21978 22.57408
#
# Velocity S-wave (km/s) = 3.32657 3.57861 3.45489
# Velocity P-wave (km/s) = 6.33890 6.67518 6.50921
#
# Compressibility (1/GPa) = 0.02079531
#
# Stress axis : x y z
#
# Youngs Moduli (GPa) = 57.01553 59.77500 70.98727
#
# Poissons Ratio (x) = 0.30807 0.22940
# Poissons Ratio (y) = 0.29385 0.38296
# Poissons Ratio (z) = 0.18425 0.32247
#
# Static dielectric constant tensor:
#      x y z
#    x 3.494090 0.000000 -0.024450 
#    y 0.000000 3.371320 0.000000 
#    z -0.024450 0.000000 3.400030 
# 
# 
# High freq. dielectric constant tensor:
#      x y z
#    x 1.737520 0.000000 -0.001400 
#    y 0.000000 1.732700 0.000000 
#    z -0.001400 0.000000 1.737070 
# 
# From -- ./inp_files/45031.got.cif
#   From: 2010.06.25/outbox.cif.g09.slc.cpg/sg10_23_cif.got.tgz:45031.got - 2010.06.27 22:07:45.
