data_PCOD8065463
_publ_section_title
;
Structure prediction by ZEFSAII (Michael W. Deem and Ramdas Pophale) SiO2 
 PCOD8065463
Probable space group: P 2/M
;
_chemical_formula_sum "Si O2"
_cell_formula_units_Z 24
_cell_length_a 18.391464
_cell_length_b 14.949810
_cell_length_c 10.308415
_cell_angle_alpha 90.000000
_cell_angle_beta 25.855045
_cell_angle_gamma 90.000000
_cell_volume 1236.020922
_symmetry_space_group_name_H-M "P 2/M"
_symmetry_group_IT_number 10
_symmetry_cell_setting 'monoclinic'
loop_
_space_group_symop_operation_xyz
x,y,z
-x,y,-z
-x,-y,-z
x,-y,z
loop_
_atom_site_type_symbol
_atom_site_label
_atom_site_fract_x
_atom_site_fract_y
_atom_site_fract_z
Si Si1 0.512702 0.895567 0.330300
Si Si2 0.151810 0.901952 0.351132
Si Si3 0.878028 0.397898 0.581650
Si Si4 0.050562 0.753950 0.717886
Si Si5 0.268890 0.244503 0.618273
Si Si6 0.500343 0.602577 0.847712
O O1 0.500000 0.864433 0.500000
O O2 0.385056 0.841415 0.446477
O O3 0.469400 0.000000 0.387520
O O4 0.692940 0.870918 0.984873
O O5 0.108779 0.830755 0.528251
O O6 0.000000 0.910649 0.500000
O O7 0.186290 0.000000 0.359244
O O8 0.924168 0.500000 0.477356
O O9 0.912191 0.343703 0.396910
O O10 0.000000 0.361427 0.500000
O O11 0.681345 0.387543 0.928195
O O12 0.157302 0.770629 0.672924
O O13 0.852850 0.753661 0.062022
O O14 0.375224 0.335630 0.434802
O O15 0.562532 0.500000 0.738337
O O16 0.500000 0.632371 0.000000
#
# Coordination Sequence:
#
# PCOD8065463 Si02
#       6
#     4   4   4   4   4   4
#     4  10  22  40  62  88 118 154 198 249 302 357
#     4  10  21  38  61  84 112 154 197 239 296 361
#     4  10  21  38  61  87 117 156 201 248 299 356
#     4  11  23  38  56  86 121 157 197 245 301 354
#     4  11  24  37  58  88 119 156 201 248 296 358
#     4  10  20  38  62  86 116 157 201 245 296 354
#
# _framework density 19.417145999999999
#
# number of rings (size 3 to 8) (size 9 to 14) (size 15 to 20)
#    0.000    1.667    1.667    2.500    0.000    4.667 
#    0.000    5.000    0.000    3.500    0.000    0.000 
#    0.000    0.000    0.000    0.000    0.000    0.000 
#
# Total GULP energy -297583.287282 kJ/mol
# GULP energy per Si atom -12399.303637 kJ/mol
# Density = 1.937295 g / cm^3
# Si number density = 19.417146 Si / 1000 Ang^3
#
#
#
# Elastic Constant Matrix: (Units=GPa)
#
#
# Indices 1 2 3 4 5 6 
#
# 1 76.9623 40.7158 48.4578 0.0000 -4.5566 0.0000
# 2 40.7158 99.5654 70.3346 0.0000 11.2554 0.0000
# 3 48.4578 70.3346 163.1160 0.0000 6.4141 0.0000
# 4 0.0000 0.0000 0.0000 38.7866 0.0000 -10.8777
# 5 -4.5566 11.2554 6.4141 0.0000 36.9683 0.0000
# 6 0.0000 0.0000 0.0000 -10.8777 0.0000 43.5005
#
#
#
# Elastic Compliance Matrix: (Units=1/GPa)
#
#
# Indices 1 2 3 4 5 6 
#
# 1 0.018290 -0.005795 -0.003114 0.000000 0.004559 0.000000
# 2 -0.005795 0.016701 -0.005288 0.000000 -0.004882 0.000000
# 3 -0.003114 -0.005288 0.009351 0.000000 -0.000396 0.000000
# 4 0.000000 0.000000 0.000000 0.027727 0.000000 0.006933
# 5 0.004559 -0.004882 -0.000396 0.000000 0.029167 0.000000
# 6 0.000000 0.000000 0.000000 0.006933 0.000000 0.024722
#
#
# Mechanical properties :
#
#
# Convention : Reuss Voigt Hill
#
# Bulk Modulus (GPa) = 62.70229 73.18446 67.94338
# Shear Modulus (GPa) = 31.31532 35.86012 33.58772
#
# Velocity S-wave (km/s) = 4.02028 4.30214 4.16359
# Velocity P-wave (km/s) = 7.34252 7.90255 7.62768
#
# Compressibility (1/GPa) = 0.01594838
#
# Stress axis : x y z
#
# Youngs Moduli (GPa) = 54.67581 59.87837 106.93720
#
# Poissons Ratio (x) = 0.34699 0.33300
# Poissons Ratio (y) = 0.31684 0.56545
# Poissons Ratio (z) = 0.17026 0.31662
#
# Static dielectric constant tensor:
#      x y z
#    x 3.497540 0.000000 -0.149430 
#    y 0.000000 3.775020 0.000000 
#    z -0.149430 0.000000 3.621460 
# 
# 
# High freq. dielectric constant tensor:
#      x y z
#    x 1.748510 0.000000 -0.012830 
#    y 0.000000 1.765350 0.000000 
#    z -0.012830 0.000000 1.766470 
# 
# From -- ./inp_files/29311.got.cif
#   From: 2010.06.25/outbox.cif.g09.slc.cpg/sg10_15_cif.got.tgz:29311.got - 2010.06.27 22:07:45.
