data_PCOD8065381
_publ_section_title
;
Structure prediction by ZEFSAII (Michael W. Deem and Ramdas Pophale) SiO2 
 PCOD8065381
Probable space group: P 2/M
;
_chemical_formula_sum "Si O2"
_cell_formula_units_Z 28
_cell_length_a 18.954406
_cell_length_b 9.379311
_cell_length_c 21.479296
_cell_angle_alpha 90.000000
_cell_angle_beta 158.314895
_cell_angle_gamma 90.000000
_cell_volume 1410.982782
_symmetry_space_group_name_H-M "P 2/M"
_symmetry_group_IT_number 10
_symmetry_cell_setting 'monoclinic'
loop_
_space_group_symop_operation_xyz
x,y,z
-x,y,-z
-x,-y,-z
x,-y,z
loop_
_atom_site_type_symbol
_atom_site_label
_atom_site_fract_x
_atom_site_fract_y
_atom_site_fract_z
Si Si1 0.788648 0.150216 0.829900
Si Si2 0.093262 0.168786 0.285229
Si Si3 0.400090 0.331204 0.979378
Si Si4 0.964189 0.334293 0.638431
Si Si5 0.300589 0.166386 0.104625
Si Si6 0.589492 0.334614 0.261853
Si Si7 0.284290 0.344187 0.340327
O O1 0.724606 0.210323 0.844366
O O2 0.796679 0.276492 0.787875
O O3 0.672793 0.000000 0.719646
O O4 0.000000 0.093315 0.000000
O O5 0.256636 0.240087 0.376564
O O6 0.111439 0.236318 0.368023
O O7 0.128522 0.000000 0.317404
O O8 0.888565 0.208499 0.088577
O O9 0.414135 0.500000 0.988780
O O10 0.517774 0.274515 0.136139
O O11 0.500000 0.265207 0.000000
O O12 0.178246 0.283269 0.796715
O O13 0.965833 0.500000 0.660509
O O14 0.818039 0.312678 0.460207
O O15 0.479492 0.253104 0.225946
O O16 0.343164 0.000000 0.132042
O O17 0.535199 0.500000 0.222508
O O18 0.500000 0.364253 0.500000
O O19 0.191090 0.500000 0.277166
#
# Coordination Sequence:
#
# PCOD8065381 Si02
#       7
#     4   4   4   4   4   4   4
#     4  10  20  38  57  77 105 141 191 243 291 345
#     4  11  22  39  61  82 110 155 201 243 296 352
#     4   9  18  35  60  90 123 157 192 235 289 346
#     4  10  21  37  58  88 122 154 196 244 289 348
#     4  10  21  37  58  82 110 147 194 244 291 350
#     4  10  21  36  58  87 119 155 192 236 292 345
#     4  11  25  40  54  80 116 151 193 246 300 350
#
# _framework density 19.844325000000001
#
# number of rings (size 3 to 8) (size 9 to 14) (size 15 to 20)
#    0.000    1.857    2.857    0.857    2.000    3.714 
#    0.000    2.857    0.000    1.714    0.000    2.000 
#    0.000    0.000    0.000    0.000    0.000    0.000 
#
# Total GULP energy -346949.965803 kJ/mol
# GULP energy per Si atom -12391.070207 kJ/mol
# Density = 1.979916 g / cm^3
# Si number density = 19.844325 Si / 1000 Ang^3
#
#
#
# Elastic Constant Matrix: (Units=GPa)
#
#
# Indices 1 2 3 4 5 6 
#
# 1 151.6612 43.2664 56.6092 0.0000 0.8314 0.0000
# 2 43.2664 81.7491 35.7822 0.0000 0.5556 0.0000
# 3 56.6092 35.7822 102.7418 0.0000 -0.1424 0.0000
# 4 0.0000 0.0000 0.0000 21.6464 0.0000 -4.1544
# 5 0.8314 0.5556 -0.1424 0.0000 19.8870 0.0000
# 6 0.0000 0.0000 0.0000 -4.1544 0.0000 16.4615
#
#
#
# Elastic Compliance Matrix: (Units=1/GPa)
#
#
# Indices 1 2 3 4 5 6 
#
# 1 0.008894 -0.003020 -0.003849 0.000000 -0.000315 0.000000
# 2 -0.003020 0.015462 -0.003721 0.000000 -0.000332 0.000000
# 3 -0.003849 -0.003721 0.013150 0.000000 0.000359 0.000000
# 4 0.000000 0.000000 0.000000 0.048549 0.000000 0.012252
# 5 -0.000315 -0.000332 0.000359 0.000000 0.050309 0.000000
# 6 0.000000 0.000000 0.000000 0.012252 0.000000 0.063840
#
#
# Mechanical properties :
#
#
# Convention : Reuss Voigt Hill
#
# Bulk Modulus (GPa) = 61.25496 67.49642 64.37569
# Shear Modulus (GPa) = 22.04327 24.96526 23.50427
#
# Velocity S-wave (km/s) = 3.33650 3.55076 3.44529
# Velocity P-wave (km/s) = 6.76592 7.13423 6.95252
#
# Compressibility (1/GPa) = 0.01632521
#
# Stress axis : x y z
#
# Youngs Moduli (GPa) = 112.44042 64.67389 76.04355
#
# Poissons Ratio (x) = 0.19533 0.29268
# Poissons Ratio (y) = 0.33959 0.28299
# Poissons Ratio (z) = 0.43276 0.24068
#
# Static dielectric constant tensor:
#      x y z
#    x 3.675580 0.000000 -0.014550 
#    y 0.000000 3.758120 0.000000 
#    z -0.014550 0.000000 3.657910 
# 
# 
# High freq. dielectric constant tensor:
#      x y z
#    x 1.767050 0.000000 -0.001290 
#    y 0.000000 1.762870 0.000000 
#    z -0.001290 0.000000 1.774670 
# 
# From -- ./inp_files/37075.got.cif
#   From: 2010.06.25/outbox.cif.g09.slc.cpg/sg10_19_cif.got.tgz:37075.got - 2010.06.27 22:07:45.
