data_PCOD8065498
_publ_section_title
;
Structure prediction by ZEFSAII (Michael W. Deem and Ramdas Pophale) SiO2 
 PCOD8065498
Probable space group: P 2/M
;
_chemical_formula_sum "Si O2"
_cell_formula_units_Z 28
_cell_length_a 27.378036
_cell_length_b 8.678949
_cell_length_c 9.325902
_cell_angle_alpha 90.000000
_cell_angle_beta 141.960077
_cell_angle_gamma 90.000000
_cell_volume 1365.492438
_symmetry_space_group_name_H-M "P 2/M"
_symmetry_group_IT_number 10
_symmetry_cell_setting 'monoclinic'
loop_
_space_group_symop_operation_xyz
x,y,z
-x,y,-z
-x,-y,-z
x,-y,z
loop_
_atom_site_type_symbol
_atom_site_label
_atom_site_fract_x
_atom_site_fract_y
_atom_site_fract_z
Si Si1 0.481742 0.818165 0.295890
Si Si2 0.622437 0.318955 0.442598
Si Si3 0.206499 0.819108 0.658731
Si Si4 0.069851 0.680451 0.765691
Si Si5 0.963652 0.674882 0.762322
Si Si6 0.231798 0.318214 0.017812
Si Si7 0.659417 0.317774 0.204599
O O1 0.500000 0.758470 0.500000
O O2 0.549152 0.771311 0.339689
O O3 0.471480 0.000000 0.272386
O O4 0.400543 0.743725 0.054061
O O5 0.603488 0.500000 0.402719
O O6 0.698256 0.276236 0.712521
O O7 0.636296 0.262182 0.311438
O O8 0.114342 0.776054 0.435828
O O9 0.253174 0.743413 0.633230
O O10 0.216227 0.000000 0.670946
O O11 0.245669 0.761785 0.897393
O O12 0.085655 0.500000 0.809677
O O13 0.000000 0.727841 0.500000
O O14 0.037581 0.742361 0.842445
O O15 0.152418 0.754575 0.905838
O O16 0.941964 0.500000 0.662572
O O17 0.000000 0.678210 0.000000
O O18 0.225424 0.500000 0.976350
O O19 0.660860 0.500000 0.203529
#
# Coordination Sequence:
#
# PCOD8065498 Si02
#       7
#     4   4   4   4   4   4   4
#     4  11  24  42  65  93 127 163 199 238 295 365
#     4  10  23  40  64  95 123 154 200 255 302 351
#     4  12  25  40  58  86 126 165 203 246 304 367
#     4   9  16  31  58  88 114 147 197 253 301 345
#     4  10  21  37  62  88 116 156 206 257 305 356
#     4  10  20  38  63  89 119 156 204 255 301 354
#     4  11  24  42  65  92 123 157 204 254 300 353
#
# _framework density 20.505424000000001
#
# number of rings (size 3 to 8) (size 9 to 14) (size 15 to 20)
#    0.000    1.571    1.429    3.429    2.000    7.143 
#    0.000    1.429    0.000    0.000    0.000    0.000 
#    0.000    0.000    0.000    0.000    0.000    0.000 
#
# Total GULP energy -347179.823203 kJ/mol
# GULP energy per Si atom -12399.279400 kJ/mol
# Density = 2.045875 g / cm^3
# Si number density = 20.505424 Si / 1000 Ang^3
#
#
#
# Elastic Constant Matrix: (Units=GPa)
#
#
# Indices 1 2 3 4 5 6 
#
# 1 149.8807 32.7367 19.3016 0.0000 -6.3068 0.0000
# 2 32.7367 55.1252 19.6525 0.0000 -2.1225 0.0000
# 3 19.3016 19.6525 76.8694 0.0000 -5.8276 0.0000
# 4 0.0000 0.0000 0.0000 19.1212 0.0000 0.8337
# 5 -6.3068 -2.1225 -5.8276 0.0000 35.9382 0.0000
# 6 0.0000 0.0000 0.0000 0.8337 0.0000 15.3738
#
#
#
# Elastic Compliance Matrix: (Units=1/GPa)
#
#
# Indices 1 2 3 4 5 6 
#
# 1 0.007750 -0.004288 -0.000775 0.000000 0.000981 0.000000
# 2 -0.004288 0.022337 -0.004648 0.000000 -0.000187 0.000000
# 3 -0.000775 -0.004648 0.014540 0.000000 0.001947 0.000000
# 4 0.000000 0.000000 0.000000 0.052422 0.000000 -0.002843
# 5 0.000981 -0.000187 0.001947 0.000000 0.028302 0.000000
# 6 0.000000 0.000000 0.000000 -0.002843 0.000000 0.065200
#
#
# Mechanical properties :
#
#
# Convention : Reuss Voigt Hill
#
# Bulk Modulus (GPa) = 39.67720 47.25077 43.46399
# Shear Modulus (GPa) = 22.89641 28.09892 25.49767
#
# Velocity S-wave (km/s) = 3.34519 3.70579 3.53010
# Velocity P-wave (km/s) = 5.85764 6.43457 6.15287
#
# Compressibility (1/GPa) = 0.02520339
#
# Stress axis : x y z
#
# Youngs Moduli (GPa) = 129.03745 44.76894 68.77719
#
# Poissons Ratio (x) = 0.19197 0.05332
# Poissons Ratio (y) = 0.55332 0.31968
# Poissons Ratio (z) = 0.10004 0.20809
#
# Static dielectric constant tensor:
#      x y z
#    x 4.226860 0.000000 -0.030230 
#    y 0.000000 3.467040 0.000000 
#    z -0.030230 0.000000 3.785130 
# 
# 
# High freq. dielectric constant tensor:
#      x y z
#    x 1.827490 0.000000 -0.000090 
#    y 0.000000 1.772890 0.000000 
#    z -0.000090 0.000000 1.808230 
# 
# From -- ./inp_files/37327.got.cif
#   From: 2010.06.25/outbox.cif.g09.slc.cpg/sg10_19_cif.got.tgz:37327.got - 2010.06.27 22:07:45.
