data_PCOD8065112
_publ_section_title
;
Structure prediction by ZEFSAII (Michael W. Deem and Ramdas Pophale) SiO2 
 PCOD8065112
Probable space group: P 2/M
;
_chemical_formula_sum "Si O2"
_cell_formula_units_Z 32
_cell_length_a 8.640315
_cell_length_b 27.675447
_cell_length_c 14.206963
_cell_angle_alpha 90.000000
_cell_angle_beta 28.915980
_cell_angle_gamma 90.000000
_cell_volume 1642.652812
_symmetry_space_group_name_H-M "P 2/M"
_symmetry_group_IT_number 10
_symmetry_cell_setting 'monoclinic'
loop_
_space_group_symop_operation_xyz
x,y,z
-x,y,-z
-x,-y,-z
x,-y,z
loop_
_atom_site_type_symbol
_atom_site_label
_atom_site_fract_x
_atom_site_fract_y
_atom_site_fract_z
Si Si1 0.300321 0.188556 0.907377
Si Si2 0.378099 0.619666 0.299812
Si Si3 0.792253 0.943702 0.202220
Si Si4 0.278003 0.555735 0.028967
Si Si5 0.773723 0.874661 0.540365
Si Si6 0.758085 0.368223 0.289462
Si Si7 0.231229 0.703792 0.965073
Si Si8 0.159286 0.116908 0.150725
O O1 0.599984 0.171093 0.683411
O O2 0.353439 0.242217 0.921206
O O3 0.230813 0.157931 0.036793
O O4 0.000000 0.185170 0.000000
O O5 0.561824 0.620054 0.300264
O O6 0.448930 0.671790 0.215794
O O7 0.000000 0.611285 0.500000
O O8 0.536478 0.575583 0.160147
O O9 0.460612 0.916603 0.367090
O O10 0.961619 0.926128 0.207608
O O11 0.722739 0.000000 0.248996
O O12 0.000000 0.931115 0.000000
O O13 0.196497 0.500000 0.056019
O O14 0.943513 0.583423 0.221745
O O15 0.500000 0.564166 0.000000
O O16 0.000000 0.897594 0.500000
O O17 0.972359 0.859999 0.340396
O O18 0.500000 0.351349 0.500000
O O19 0.007726 0.323338 0.159685
O O20 0.000000 0.705467 0.000000
O O21 0.500000 0.094653 0.000000
#
# Coordination Sequence:
#
# PCOD8065112 Si02
#       8
#     4   4   4   4   4   4   4   4
#     4  11  21  42  62  90 123 159 201 257 304 364
#     4  10  20  37  59  84 117 158 194 247 296 355
#     4  11  23  43  67  93 125 162 203 251 305 364
#     4  10  21  37  59  86 117 156 200 250 303 354
#     4  12  23  40  66  88 124 165 198 252 305 358
#     4  10  20  38  59  86 119 157 199 246 298 357
#     4   8  19  38  59  82 118 153 197 246 300 353
#     4  12  23  41  63  91 124 160 204 248 305 360
#
# _framework density 19.480684
#
# number of rings (size 3 to 8) (size 9 to 14) (size 15 to 20)
#    0.000    1.500    3.750    2.250    0.000    3.500 
#    6.750    2.500    0.000    0.000    0.000    0.000 
#    0.000    0.000    0.000    0.000    0.000    0.000 
#
# Total GULP energy -396591.720777 kJ/mol
# GULP energy per Si atom -12393.491274 kJ/mol
# Density = 1.943635 g / cm^3
# Si number density = 19.480684 Si / 1000 Ang^3
#
#
#
# Elastic Constant Matrix: (Units=GPa)
#
#
# Indices 1 2 3 4 5 6 
#
# 1 102.1115 45.9760 39.6711 0.0000 -0.7739 0.0000
# 2 45.9760 122.8226 51.3116 0.0000 1.0057 0.0000
# 3 39.6711 51.3116 122.1911 0.0000 11.6713 0.0000
# 4 0.0000 0.0000 0.0000 13.3695 0.0000 2.5259
# 5 -0.7739 1.0057 11.6713 0.0000 42.6414 0.0000
# 6 0.0000 0.0000 0.0000 2.5259 0.0000 -4.4814
#
#
#
# Elastic Compliance Matrix: (Units=1/GPa)
#
#
# Indices 1 2 3 4 5 6 
#
# 1 0.012429 -0.003558 -0.002640 0.000000 0.001032 0.000000
# 2 -0.003558 0.010928 -0.003495 0.000000 0.000634 0.000000
# 3 -0.002640 -0.003495 0.010787 0.000000 -0.002918 0.000000
# 4 0.000000 0.000000 0.000000 0.067599 0.000000 0.038101
# 5 0.001032 0.000634 -0.002918 0.000000 0.024254 0.000000
# 6 0.000000 0.000000 0.000000 0.038101 0.000000 -0.201670
#
#
# Mechanical properties :
#
#
# Convention : Reuss Voigt Hill
#
# Bulk Modulus (GPa) = 67.75212 69.00472 68.37842
# Shear Modulus (GPa) = -97.33512 24.31701 -36.50906
#
# Velocity S-wave (km/s) = -7.07626 3.53691 -4.33380
# Velocity P-wave (km/s) = 5.64889 7.22348 3.18345
#
# Compressibility (1/GPa) = 0.01475969
#
# Stress axis : x y z
#
# Youngs Moduli (GPa) = 80.45982 91.50427 92.70386
#
# Poissons Ratio (x) = 0.32558 0.24469
# Poissons Ratio (y) = 0.28628 0.32396
# Poissons Ratio (z) = 0.21238 0.31977
#
# Static dielectric constant tensor:
#      x y z
#    x 3.686670 0.000000 -0.036300 
#    y 0.000000 3.738750 0.000000 
#    z -0.036300 0.000000 3.750360 
# 
# 
# High freq. dielectric constant tensor:
#      x y z
#    x 1.767540 0.000000 -0.003680 
#    y 0.000000 1.749980 0.000000 
#    z -0.003680 0.000000 1.768110 
# 
# From -- ./inp_files/62736.got.cif
#   From: 2010.06.25/outbox.cif.g09.slc.cpg/sg10_32_cif.got.tgz:62736.got - 2010.06.27 22:07:45.
