data_PCOD8065406
_publ_section_title
;
Structure prediction by ZEFSAII (Michael W. Deem and Ramdas Pophale) SiO2 
 PCOD8065406
Probable space group: P 2/M
;
_chemical_formula_sum "Si O2"
_cell_formula_units_Z 28
_cell_length_a 20.897286
_cell_length_b 7.788537
_cell_length_c 14.676322
_cell_angle_alpha 90.000000
_cell_angle_beta 33.057187
_cell_angle_gamma 90.000000
_cell_volume 1302.982332
_symmetry_space_group_name_H-M "P 2/M"
_symmetry_group_IT_number 10
_symmetry_cell_setting 'monoclinic'
loop_
_space_group_symop_operation_xyz
x,y,z
-x,y,-z
-x,-y,-z
x,-y,z
loop_
_atom_site_type_symbol
_atom_site_label
_atom_site_fract_x
_atom_site_fract_y
_atom_site_fract_z
Si Si1 0.683905 0.197146 0.218989
Si Si2 0.954333 0.500000 0.689038
Si Si3 0.388344 0.795764 0.068725
Si Si4 0.069204 0.807806 0.148800
Si Si5 0.347010 0.311821 0.546180
Si Si6 0.905768 0.196478 0.182708
Si Si7 0.798390 0.500000 0.696508
Si Si8 0.556258 0.808207 0.198363
O O1 0.631506 0.278272 0.372704
O O2 0.629456 0.284987 0.192436
O O3 0.645575 0.000000 0.266810
O O4 0.823859 0.221163 0.049472
O O5 0.092859 0.500000 0.503041
O O6 0.925680 0.672726 0.777089
O O7 0.861850 0.500000 0.718001
O O8 0.279002 0.673395 0.227657
O O9 0.353965 0.000000 0.114299
O O10 0.500000 0.761340 0.000000
O O11 0.424705 0.728239 0.924274
O O12 0.951148 0.787000 0.231672
O O13 0.077277 0.000000 0.181496
O O14 0.394247 0.500000 0.467674
O O15 0.211450 0.303992 0.683223
O O16 0.420073 0.188839 0.391685
O O17 0.877961 0.000000 0.188483
O O18 0.000000 0.274226 0.000000
O O19 0.603895 0.000000 0.132047
#
# Coordination Sequence:
#
# PCOD8065406 Si02
#       8
#     4   2   4   4   4   4   2   4
#     4  10  20  38  61  85 123 170 211 256 307 366
#     4  11  26  42  65  99 135 168 211 265 326 391
#     4  10  23  46  75  99 125 166 216 272 334 394
#     4  10  22  40  65  93 125 170 218 260 308 371
#     4  12  25  35  54  89 129 168 209 257 306 368
#     4  10  20  38  60  81 117 168 214 254 300 357
#     4  11  25  46  68  97 134 169 203 267 337 396
#     4  10  22  40  63  90 120 160 210 259 313 376
#
# _framework density 21.489163999999999
#
# number of rings (size 3 to 8) (size 9 to 14) (size 15 to 20)
#    0.000    1.571    1.429    2.786    3.000    6.000 
#    0.000    4.286    0.000    0.000    0.000    0.000 
#    0.000    0.000    0.000    0.000    0.000    0.000 
#
# Total GULP energy -347089.629959 kJ/mol
# GULP energy per Si atom -12396.058213 kJ/mol
# Density = 2.144025 g / cm^3
# Si number density = 21.489164 Si / 1000 Ang^3
#
#
#
# Elastic Constant Matrix: (Units=GPa)
#
#
# Indices 1 2 3 4 5 6 
#
# 1 80.7739 23.4703 15.5162 0.0000 -12.2902 0.0000
# 2 23.4703 93.4604 27.2628 0.0000 -1.8684 0.0000
# 3 15.5162 27.2628 75.0859 0.0000 -9.5129 0.0000
# 4 0.0000 0.0000 0.0000 14.7355 0.0000 4.4790
# 5 -12.2902 -1.8684 -9.5129 0.0000 34.9888 0.0000
# 6 0.0000 0.0000 0.0000 4.4790 0.0000 25.1185
#
#
#
# Elastic Compliance Matrix: (Units=1/GPa)
#
#
# Indices 1 2 3 4 5 6 
#
# 1 0.014206 -0.003118 -0.001235 0.000000 0.004488 0.000000
# 2 -0.003118 0.012662 -0.004149 0.000000 -0.001547 0.000000
# 3 -0.001235 -0.004149 0.015532 0.000000 0.003567 0.000000
# 4 0.000000 0.000000 0.000000 0.071753 0.000000 -0.012795
# 5 0.004488 -0.001547 0.003567 0.000000 0.031044 0.000000
# 6 0.000000 0.000000 0.000000 -0.012795 0.000000 0.042093
#
#
# Mechanical properties :
#
#
# Convention : Reuss Voigt Hill
#
# Bulk Modulus (GPa) = 39.37585 42.42431 40.90008
# Shear Modulus (GPa) = 23.50077 27.17327 25.33702
#
# Velocity S-wave (km/s) = 3.31057 3.55985 3.43747
# Velocity P-wave (km/s) = 5.74252 6.05655 5.90162
#
# Compressibility (1/GPa) = 0.02539628
#
# Stress axis : x y z
#
# Youngs Moduli (GPa) = 70.39180 78.97637 64.38401
#
# Poissons Ratio (x) = 0.24621 0.07952
# Poissons Ratio (y) = 0.21945 0.26714
# Poissons Ratio (z) = 0.08694 0.32769
#
# Static dielectric constant tensor:
#      x y z
#    x 4.001920 0.000000 -0.051770 
#    y 0.000000 3.770740 0.000000 
#    z -0.051770 0.000000 3.777470 
# 
# 
# High freq. dielectric constant tensor:
#      x y z
#    x 1.852050 0.000000 -0.009960 
#    y 0.000000 1.835640 0.000000 
#    z -0.009960 0.000000 1.836180 
# 
# From -- ./inp_files/70234.got.cif
#   From: 2010.06.25/outbox.cif.g09.slc.cpg/sg10_36_cif.got.tgz:70234.got - 2010.06.27 22:07:45.
