data_PCOD8065080
_publ_section_title
;
Structure prediction by ZEFSAII (Michael W. Deem and Ramdas Pophale) SiO2 
 PCOD8065080
Probable space group: P 2/M
;
_chemical_formula_sum "Si O2"
_cell_formula_units_Z 28
_cell_length_a 15.487309
_cell_length_b 19.062823
_cell_length_c 9.094104
_cell_angle_alpha 90.000000
_cell_angle_beta 30.449564
_cell_angle_gamma 90.000000
_cell_volume 1360.637081
_symmetry_space_group_name_H-M "P 2/M"
_symmetry_group_IT_number 10
_symmetry_cell_setting 'monoclinic'
loop_
_space_group_symop_operation_xyz
x,y,z
-x,y,-z
-x,-y,-z
x,-y,z
loop_
_atom_site_type_symbol
_atom_site_label
_atom_site_fract_x
_atom_site_fract_y
_atom_site_fract_z
Si Si1 0.937378 0.923450 0.250645
Si Si2 0.168471 0.923851 0.162766
Si Si3 0.719140 0.211136 0.537978
Si Si4 0.504118 0.578618 0.319653
Si Si5 0.336432 0.206804 0.048987
Si Si6 0.829648 0.666160 0.842530
Si Si7 0.830232 0.338016 0.190925
O O1 0.787022 0.867607 0.456037
O O2 0.099994 0.894254 0.106085
O O3 0.875566 0.000000 0.407356
O O4 0.000000 0.940240 0.000000
O O5 0.289692 0.872785 0.077162
O O6 0.000000 0.934630 0.500000
O O7 0.260689 0.000000 0.007635
O O8 0.708511 0.235809 0.722791
O O9 0.833037 0.261775 0.268359
O O10 0.536697 0.211475 0.726974
O O11 0.500000 0.576925 0.500000
O O12 0.496281 0.500000 0.266205
O O13 0.339332 0.621650 0.506341
O O14 0.679577 0.614103 0.007769
O O15 0.229557 0.254589 0.095547
O O16 0.000000 0.647494 0.500000
O O17 0.853832 0.663023 0.981463
O O18 0.000000 0.377548 0.000000
#
# Coordination Sequence:
#
# PCOD8065080 Si02
#       7
#     4   4   4   4   4   4   4
#     4  10  22  39  57  82 117 160 208 260 314 369
#     4  10  20  37  58  82 116 159 208 255 312 374
#     4  11  23  38  58  86 123 160 204 263 313 372
#     4   9  20  42  67  94 131 169 205 249 306 370
#     4  11  23  37  58  88 121 159 207 262 315 363
#     4  11  23  40  65  95 127 165 210 257 305 371
#     4  11  23  40  64  95 127 167 209 252 311 370
#
# _framework density 20.578596000000001
#
# number of rings (size 3 to 8) (size 9 to 14) (size 15 to 20)
#    0.000    1.571    2.857    1.714    4.000    1.143 
#    0.000    1.429    0.000    8.571    0.000    0.000 
#    0.000    0.000    0.000    0.000    0.000    0.000 
#
# Total GULP energy -346925.840752 kJ/mol
# GULP energy per Si atom -12390.208598 kJ/mol
# Density = 2.053176 g / cm^3
# Si number density = 20.578596 Si / 1000 Ang^3
#
#
#
# Elastic Constant Matrix: (Units=GPa)
#
#
# Indices 1 2 3 4 5 6 
#
# 1 113.2719 36.2456 50.8887 0.0000 -9.8913 0.0000
# 2 36.2456 111.3509 47.1873 0.0000 -13.8446 0.0000
# 3 50.8887 47.1873 114.0889 0.0000 -18.9992 0.0000
# 4 0.0000 0.0000 0.0000 -16.6837 0.0000 28.3404
# 5 -9.8913 -13.8446 -18.9992 0.0000 33.6680 0.0000
# 6 0.0000 0.0000 0.0000 28.3404 0.0000 -3.2451
#
#
#
# Elastic Compliance Matrix: (Units=1/GPa)
#
#
# Indices 1 2 3 4 5 6 
#
# 1 0.011357 -0.001869 -0.004266 0.000000 0.000161 0.000000
# 2 -0.001869 0.011338 -0.003500 0.000000 0.002138 0.000000
# 3 -0.004266 -0.003500 0.012877 0.000000 0.004574 0.000000
# 4 0.000000 0.000000 0.000000 0.004332 0.000000 0.037836
# 5 0.000161 0.002138 0.004574 0.000000 0.033210 0.000000
# 6 0.000000 0.000000 0.000000 0.037836 0.000000 0.022274
#
#
# Mechanical properties :
#
#
# Convention : Reuss Voigt Hill
#
# Bulk Modulus (GPa) = 61.33906 67.48389 64.41147
# Shear Modulus (GPa) = 41.63518 16.37385 29.00451
#
# Velocity S-wave (km/s) = 4.50291 2.82383 3.75834
# Velocity P-wave (km/s) = 7.54366 6.59518 7.08531
#
# Compressibility (1/GPa) = 0.01630283
#
# Stress axis : x y z
#
# Youngs Moduli (GPa) = 88.05211 88.19978 77.65733
#
# Poissons Ratio (x) = 0.16485 0.33128
# Poissons Ratio (y) = 0.16457 0.27177
# Poissons Ratio (z) = 0.37562 0.30867
#
# Static dielectric constant tensor:
#      x y z
#    x 2.911870 0.000000 -0.652430 
#    y 0.000000 3.891280 0.000000 
#    z -0.652430 0.000000 3.024480 
# 
# 
# High freq. dielectric constant tensor:
#      x y z
#    x 1.814980 0.000000 -0.002730 
#    y 0.000000 1.798800 0.000000 
#    z -0.002730 0.000000 1.792150 
# 
# From -- ./inp_files/30384.got.cif
#   From: 2010.06.25/outbox.cif.g09.slc.cpg/sg10_16_cif.got.tgz:30384.got - 2010.06.27 22:07:45.
