data_PCOD8065393
_publ_section_title
;
Structure prediction by ZEFSAII (Michael W. Deem and Ramdas Pophale) SiO2 
 PCOD8065393
Probable space group: P 2/M
;
_chemical_formula_sum "Si O2"
_cell_formula_units_Z 32
_cell_length_a 16.470373
_cell_length_b 13.814810
_cell_length_c 13.014694
_cell_angle_alpha 90.000000
_cell_angle_beta 144.116871
_cell_angle_gamma 90.000000
_cell_volume 1735.717678
_symmetry_space_group_name_H-M "P 2/M"
_symmetry_group_IT_number 10
_symmetry_cell_setting 'monoclinic'
loop_
_space_group_symop_operation_xyz
x,y,z
-x,y,-z
-x,-y,-z
x,-y,z
loop_
_atom_site_type_symbol
_atom_site_label
_atom_site_fract_x
_atom_site_fract_y
_atom_site_fract_z
Si Si1 0.423460 0.889564 0.029000
Si Si2 0.257249 0.390096 0.115644
Si Si3 0.673094 0.387181 0.580875
Si Si4 0.160558 0.103995 0.638127
Si Si5 0.046537 0.611067 0.246294
Si Si6 0.516105 0.716966 0.758369
Si Si7 0.391995 0.611130 0.812380
Si Si8 0.110603 0.300899 0.522612
O O1 0.472794 0.822491 0.176057
O O2 0.457806 0.000000 0.096574
O O3 0.500000 0.862904 0.000000
O O4 0.258132 0.876918 0.838410
O O5 0.276505 0.500000 0.097336
O O6 0.327817 0.375314 0.297859
O O7 0.328636 0.321754 0.102868
O O8 0.094817 0.364958 0.958684
O O9 0.631169 0.500000 0.510416
O O10 0.826233 0.362875 0.696385
O O11 0.569105 0.301891 0.434832
O O12 0.178295 0.193476 0.578453
O O13 0.000000 0.097517 0.500000
O O14 0.206552 0.000000 0.636043
O O15 0.054793 0.500000 0.289138
O O16 0.042698 0.673278 0.345774
O O17 0.420150 0.648510 0.728471
O O18 0.425492 0.500000 0.847241
O O19 0.233533 0.627553 0.681838
O O20 0.500000 0.664396 0.000000
O O21 0.000000 0.303297 0.500000
#
# Coordination Sequence:
#
# PCOD8065393 Si02
#       8
#     4   4   4   4   4   4   4   4
#     4  10  22  39  58  82 112 145 183 225 273 333
#     4  10  22  36  56  83 110 145 189 234 276 327
#     4  10  20  38  58  79 110 147 190 234 275 322
#     4   9  19  35  55  77 105 137 176 225 270 314
#     4  10  21  36  54  78 111 151 188 223 270 328
#     4  12  21  34  58  82 109 140 183 227 279 325
#     4  11  23  35  48  73 112 151 178 211 263 328
#     4  11  22  34  53  78 110 146 183 226 269 328
#
# _framework density 18.436178000000002
#
# number of rings (size 3 to 8) (size 9 to 14) (size 15 to 20)
#    0.000    1.625    1.250    4.125    5.250    3.500 
#    0.000    0.000    0.000    1.500    0.000    0.000 
#    0.000    3.000    0.000    0.000    0.000    0.000 
#
# Total GULP energy -396458.751768 kJ/mol
# GULP energy per Si atom -12389.335993 kJ/mol
# Density = 1.839422 g / cm^3
# Si number density = 18.436178 Si / 1000 Ang^3
#
#
#
# Elastic Constant Matrix: (Units=GPa)
#
#
# Indices 1 2 3 4 5 6 
#
# 1 71.1055 28.8844 13.6883 0.0000 7.9334 0.0000
# 2 28.8844 97.4818 39.0822 0.0000 -8.0763 0.0000
# 3 13.6883 39.0822 101.4301 0.0000 8.2423 0.0000
# 4 0.0000 0.0000 0.0000 26.5680 0.0000 -4.3430
# 5 7.9334 -8.0763 8.2423 0.0000 30.5423 0.0000
# 6 0.0000 0.0000 0.0000 -4.3430 0.0000 15.5411
#
#
#
# Elastic Compliance Matrix: (Units=1/GPa)
#
#
# Indices 1 2 3 4 5 6 
#
# 1 0.016968 -0.005682 0.000388 0.000000 -0.006015 0.000000
# 2 -0.005682 0.014693 -0.005450 0.000000 0.006832 0.000000
# 3 0.000388 -0.005450 0.012302 0.000000 -0.004862 0.000000
# 4 0.000000 0.000000 0.000000 0.039441 0.000000 0.011022
# 5 -0.006015 0.006832 -0.004862 0.000000 0.037422 0.000000
# 6 0.000000 0.000000 0.000000 0.011022 0.000000 0.067426
#
#
# Mechanical properties :
#
#
# Convention : Reuss Voigt Hill
#
# Bulk Modulus (GPa) = 44.49241 48.14747 46.31994
# Shear Modulus (GPa) = 23.01715 27.08778 25.05247
#
# Velocity S-wave (km/s) = 3.53721 3.83727 3.69029
# Velocity P-wave (km/s) = 6.39282 6.76796 6.58306
#
# Compressibility (1/GPa) = 0.02247575
#
# Stress axis : x y z
#
# Youngs Moduli (GPa) = 58.93475 68.06119 81.29085
#
# Poissons Ratio (x) = 0.38669 -0.03154
# Poissons Ratio (y) = 0.33484 0.44301
# Poissons Ratio (z) = -0.02287 0.37091
#
# Static dielectric constant tensor:
#      x y z
#    x 3.337610 0.000000 0.150300 
#    y 0.000000 3.700070 0.000000 
#    z 0.150300 0.000000 3.636290 
# 
# 
# High freq. dielectric constant tensor:
#      x y z
#    x 1.705390 0.000000 0.023930 
#    y 0.000000 1.695520 0.000000 
#    z 0.023930 0.000000 1.727730 
# 
# From -- ./inp_files/42990.got.cif
#   From: 2010.06.25/outbox.cif.g09.slc.cpg/sg10_22_cif.got.tgz:42990.got - 2010.06.27 22:07:45.
