data_PCOD8065824
_publ_section_title
;
Structure prediction by ZEFSAII (Michael W. Deem and Ramdas Pophale) SiO2 
 PCOD8065824
Probable space group: P 2/M
;
_chemical_formula_sum "Si O2"
_cell_formula_units_Z 24
_cell_length_a 18.672969
_cell_length_b 13.500246
_cell_length_c 5.067213
_cell_angle_alpha 90.000000
_cell_angle_beta 73.895999
_cell_angle_gamma 90.000000
_cell_volume 1227.266941
_symmetry_space_group_name_H-M "P 2/M"
_symmetry_group_IT_number 10
_symmetry_cell_setting 'monoclinic'
loop_
_space_group_symop_operation_xyz
x,y,z
-x,y,-z
-x,-y,-z
x,-y,z
loop_
_atom_site_type_symbol
_atom_site_label
_atom_site_fract_x
_atom_site_fract_y
_atom_site_fract_z
Si Si1 0.670991 0.888758 0.303576
Si Si2 0.043792 0.617899 0.204173
Si Si3 0.287600 0.694565 0.526603
Si Si4 0.450039 0.385548 0.302719
Si Si5 0.211438 0.386173 0.096959
Si Si6 0.579812 0.110885 0.909771
O O1 0.729295 0.806800 0.352871
O O2 0.640376 0.845253 0.054806
O O3 0.706650 0.000000 0.240597
O O4 0.604973 0.891225 0.583273
O O5 0.042260 0.500000 0.199245
O O6 0.000000 0.659716 0.500000
O O7 0.129018 0.654498 0.116165
O O8 0.000000 0.662365 0.000000
O O9 0.375808 0.681718 0.375288
O O10 0.262072 0.620458 0.783812
O O11 0.242410 0.677919 0.306116
O O12 0.500000 0.357687 0.500000
O O13 0.424338 0.500000 0.333978
O O14 0.500000 0.361995 0.000000
O O15 0.209779 0.500000 0.191143
O O16 0.567687 0.000000 0.034389
O O17 0.500000 0.167817 0.000000
#
# Coordination Sequence:
#
# PCOD8065824 Si02
#       6
#     4   4   4   4   4   4
#     4  10  21  35  50  71 101 133 170 222 272 320
#     4   9  17  31  52  79 111 142 165 192 244 314
#     4  12  23  36  54  77 105 141 185 224 269 317
#     4  10  21  36  51  67  93 133 180 226 265 302
#     4  11  22  36  56  82 112 142 173 212 256 311
#     4   9  17  31  50  69  91 122 161 212 277 334
#
# _framework density 19.555648999999999
#
# number of rings (size 3 to 8) (size 9 to 14) (size 15 to 20)
#    0.000    1.833    0.000    5.000    0.000    8.000 
#    0.000    0.000    0.000    0.000    0.000    0.000 
#    0.000   13.333    0.000    0.000    0.000    0.000 
#
# Total GULP energy -297537.535226 kJ/mol
# GULP energy per Si atom -12397.397301 kJ/mol
# Density = 1.951114 g / cm^3
# Si number density = 19.555649 Si / 1000 Ang^3
#
#
#
# Elastic Constant Matrix: (Units=GPa)
#
#
# Indices 1 2 3 4 5 6 
#
# 1 117.2337 36.3182 43.7361 0.0000 16.4790 0.0000
# 2 36.3182 61.8872 2.3038 0.0000 9.6007 0.0000
# 3 43.7361 2.3038 109.1196 0.0000 17.7567 0.0000
# 4 0.0000 0.0000 0.0000 14.7921 0.0000 10.0716
# 5 16.4790 9.6007 17.7567 0.0000 34.7748 0.0000
# 6 0.0000 0.0000 0.0000 10.0716 0.0000 10.9435
#
#
#
# Elastic Compliance Matrix: (Units=1/GPa)
#
#
# Indices 1 2 3 4 5 6 
#
# 1 0.012674 -0.007002 -0.004656 0.000000 -0.001696 0.000000
# 2 -0.007002 0.020768 0.003011 0.000000 -0.003953 0.000000
# 3 -0.004656 0.003011 0.011717 0.000000 -0.004608 0.000000
# 4 0.000000 0.000000 0.000000 0.181064 0.000000 -0.166637
# 5 -0.001696 -0.003953 -0.004608 0.000000 0.033004 0.000000
# 6 0.000000 0.000000 0.000000 -0.166637 0.000000 0.244739
#
#
# Mechanical properties :
#
#
# Convention : Reuss Voigt Hill
#
# Bulk Modulus (GPa) = 35.88573 50.32853 43.10713
# Shear Modulus (GPa) = 9.42421 25.82758 17.62590
#
# Velocity S-wave (km/s) = 2.19764 3.63812 3.00546
# Velocity P-wave (km/s) = 4.98296 6.59089 5.84250
#
# Compressibility (1/GPa) = 0.02786623
#
# Stress axis : x y z
#
# Youngs Moduli (GPa) = 78.89884 48.14985 85.34794
#
# Poissons Ratio (x) = 0.33713 0.39741
# Poissons Ratio (y) = 0.55242 -0.25700
# Poissons Ratio (z) = 0.36738 -0.14499
#
# Static dielectric constant tensor:
#      x y z
#    x 3.477500 0.000000 0.125440 
#    y 0.000000 3.643460 0.000000 
#    z 0.125440 0.000000 3.671800 
# 
# 
# High freq. dielectric constant tensor:
#      x y z
#    x 1.733170 0.000000 0.019260 
#    y 0.000000 1.739700 0.000000 
#    z 0.019260 0.000000 1.780910 
# 
# From -- ./inp_files/9203.got.cif
#   From: 2010.06.25/outbox.cif.g09.slc.cpg/sg10_5_cif.got.tgz:9203.got - 2010.06.27 22:07:45.
