data_PCOD8065895
_publ_section_title
;
Structure prediction by ZEFSAII (Michael W. Deem and Ramdas Pophale) SiO2 
 PCOD8065895
Probable space group: P 2/M
;
_chemical_formula_sum "Si O2"
_cell_formula_units_Z 30
_cell_length_a 17.574694
_cell_length_b 9.611037
_cell_length_c 28.507951
_cell_angle_alpha 90.000000
_cell_angle_beta 19.075781
_cell_angle_gamma 90.000000
_cell_volume 1573.731275
_symmetry_space_group_name_H-M "P 2/M"
_symmetry_group_IT_number 10
_symmetry_cell_setting 'monoclinic'
loop_
_space_group_symop_operation_xyz
x,y,z
-x,y,-z
-x,-y,-z
x,-y,z
loop_
_atom_site_type_symbol
_atom_site_label
_atom_site_fract_x
_atom_site_fract_y
_atom_site_fract_z
Si Si1 0.477399 0.840466 0.115558
Si Si2 0.013802 0.656357 0.692653
Si Si3 0.964084 0.836476 0.410206
Si Si4 0.228470 0.166668 0.971675
Si Si5 0.281128 0.165213 0.754165
Si Si6 0.638973 0.161067 0.466148
Si Si7 0.489336 0.163191 0.728936
Si Si8 0.500000 0.731919 0.000000
O O1 0.665276 0.770448 0.041428
O O2 0.217519 0.789609 0.281286
O O3 0.493816 0.000000 0.118036
O O4 0.526165 0.822116 0.032003
O O5 0.112977 0.500000 0.631432
O O6 0.734391 0.641844 0.860380
O O7 0.092998 0.746465 0.602085
O O8 0.131514 0.740066 0.667482
O O9 0.766359 0.804770 0.564101
O O10 0.961828 0.000000 0.397039
O O11 0.388004 0.225178 0.836117
O O12 0.223126 0.000000 0.975085
O O13 0.968709 0.226288 0.116028
O O14 0.474310 0.210443 0.604372
O O15 0.352590 0.225477 0.763545
O O16 0.267087 0.000000 0.764122
O O17 0.500000 0.187858 0.500000
O O18 0.716880 0.000000 0.424807
O O19 0.445681 0.000000 0.754331
#
# Coordination Sequence:
#
# PCOD8065895 Si02
#       8
#     4   4   4   4   4   4   4   2
#     4   9  18  30  46  73 105 137 173 217 265 314
#     4  11  22  37  56  78 104 137 178 221 263 316
#     4   9  17  32  52  75 104 135 170 213 262 313
#     4   9  17  26  42  74 108 136 170 212 262 311
#     4   9  16  28  45  70 105 137 168 205 254 311
#     4  10  21  35  55  81 109 140 175 218 266 315
#     4   9  15  26  46  71 103 139 169 209 261 313
#     4  10  22  36  52  72 101 142 181 218 263 318
#
# _framework density 19.062977
#
# number of rings (size 3 to 8) (size 9 to 14) (size 15 to 20)
#    0.000    2.533    1.333    1.200    1.867    4.000 
#    0.000    2.667    0.000    0.000    0.000   10.267 
#    0.000    0.000    0.000    0.000    0.000    0.000 
#
# Total GULP energy -371728.239742 kJ/mol
# GULP energy per Si atom -12390.941325 kJ/mol
# Density = 1.901959 g / cm^3
# Si number density = 19.062977 Si / 1000 Ang^3
#
#
#
# Elastic Constant Matrix: (Units=GPa)
#
#
# Indices 1 2 3 4 5 6 
#
# 1 128.5130 7.8526 51.9956 0.0000 -8.8620 0.0000
# 2 7.8526 41.3882 18.3610 0.0000 -8.8309 0.0000
# 3 51.9956 18.3610 107.0686 0.0000 -7.7676 0.0000
# 4 0.0000 0.0000 0.0000 10.0718 0.0000 -2.5139
# 5 -8.8620 -8.8309 -7.7676 0.0000 27.4811 0.0000
# 6 0.0000 0.0000 0.0000 -2.5139 0.0000 4.3304
#
#
#
# Elastic Compliance Matrix: (Units=1/GPa)
#
#
# Indices 1 2 3 4 5 6 
#
# 1 0.009791 0.000672 -0.004722 0.000000 0.002039 0.000000
# 2 0.000672 0.027708 -0.004509 0.000000 0.007846 0.000000
# 3 -0.004722 -0.004509 0.012446 0.000000 0.000546 0.000000
# 4 0.000000 0.000000 0.000000 0.116112 0.000000 0.067406
# 5 0.002039 0.007846 0.000546 0.000000 0.039722 0.000000
# 6 0.000000 0.000000 0.000000 0.067406 0.000000 0.270058
#
#
# Mechanical properties :
#
#
# Convention : Reuss Voigt Hill
#
# Bulk Modulus (GPa) = 30.46203 48.15423 39.30813
# Shear Modulus (GPa) = 9.92264 21.62737 15.77500
#
# Velocity S-wave (km/s) = 2.28396 3.37192 2.87979
# Velocity P-wave (km/s) = 4.79267 6.36202 5.63227
#
# Compressibility (1/GPa) = 0.03282776
#
# Stress axis : x y z
#
# Youngs Moduli (GPa) = 102.12958 36.09019 80.34725
#
# Poissons Ratio (x) = -0.02426 0.37943
# Poissons Ratio (y) = -0.06866 0.36228
# Poissons Ratio (z) = 0.48230 0.16273
#
# Static dielectric constant tensor:
#      x y z
#    x 3.804420 0.000000 -0.185460 
#    y 0.000000 2.802810 0.000000 
#    z -0.185460 0.000000 3.760480 
# 
# 
# High freq. dielectric constant tensor:
#      x y z
#    x 1.745780 0.000000 -0.012250 
#    y 0.000000 1.663090 0.000000 
#    z -0.012250 0.000000 1.756040 
# 
# From -- ./inp_files/95509.got.cif
#   From: 2010.06.25/outbox.cif.g09.slc.cpg/sg10_48_cif.got.tgz:95509.got - 2010.06.27 22:07:45.
