data_PCOD8065386
_publ_section_title
;
Structure prediction by ZEFSAII (Michael W. Deem and Ramdas Pophale) SiO2 
 PCOD8065386
Probable space group: P 2/M
;
_chemical_formula_sum "Si O2"
_cell_formula_units_Z 30
_cell_length_a 31.506043
_cell_length_b 10.935440
_cell_length_c 32.320946
_cell_angle_alpha 90.000000
_cell_angle_beta 9.149393
_cell_angle_gamma 90.000000
_cell_volume 1770.665469
_symmetry_space_group_name_H-M "P 2/M"
_symmetry_group_IT_number 10
_symmetry_cell_setting 'monoclinic'
loop_
_space_group_symop_operation_xyz
x,y,z
-x,y,-z
-x,-y,-z
x,-y,z
loop_
_atom_site_type_symbol
_atom_site_label
_atom_site_fract_x
_atom_site_fract_y
_atom_site_fract_z
Si Si1 0.072190 0.854143 0.306907
Si Si2 0.288742 0.500000 0.740535
Si Si3 0.720017 0.141266 0.369122
Si Si4 0.786685 0.145875 0.738131
Si Si5 0.166416 0.757462 0.881667
Si Si6 0.501032 0.854226 0.169426
Si Si7 0.348299 0.854030 0.885123
Si Si8 0.775541 0.145143 0.409165
O O1 0.785937 0.803810 0.568208
O O2 0.142225 0.802920 0.284923
O O3 0.072963 0.000000 0.306899
O O4 0.286469 0.803891 0.068031
O O5 0.500000 0.500000 0.500000
O O6 0.303758 0.623038 0.753508
O O7 0.000000 0.500000 0.000000
O O8 0.423465 0.153477 0.635010
O O9 0.707758 0.188147 0.428062
O O10 0.806263 0.000000 0.282796
O O11 0.954047 0.219498 0.122374
O O12 0.000000 0.195931 0.500000
O O13 0.787728 0.000000 0.737836
O O14 0.500000 0.195951 0.000000
O O15 0.000000 0.778476 0.000000
O O16 0.572895 0.803175 0.145600
O O17 0.502117 0.000000 0.168935
O O18 0.554499 0.801513 0.652964
O O19 0.350533 0.000000 0.883159
O O20 0.059596 0.802521 0.150438
O O21 0.776933 0.000000 0.409940
#
# Coordination Sequence:
#
# PCOD8065386 Si02
#       8
#     4   2   4   4   4   4   4   4
#     4   9  15  21  27  37  52  66  88 128 171 210
#     4  10  20  38  58  74  92 118 156 192 220 250
#     4  11  22  34  49  72 100 125 148 177 218 264
#     4   9  15  21  27  33  43  63  88 114 155 215
#     4  11  22  36  54  73  94 122 153 186 219 254
#     4   9  15  21  30  43  56  72  98 135 174 207
#     4   9  15  24  37  50  66  92 123 149 178 221
#     4   9  17  28  40  55  78 106 131 154 183 231
#
# _framework density 16.942782999999999
#
# number of rings (size 3 to 8) (size 9 to 14) (size 15 to 20)
#    0.000    2.400    0.000    4.800    0.000   10.133 
#    0.000    0.000    0.000    0.000    0.000    0.000 
#    0.000    0.000    0.000    0.000    0.000    0.000 
#
# Total GULP energy -371898.689289 kJ/mol
# GULP energy per Si atom -12396.622976 kJ/mol
# Density = 1.690422 g / cm^3
# Si number density = 16.942783 Si / 1000 Ang^3
#
#
#
# Elastic Constant Matrix: (Units=GPa)
#
#
# Indices 1 2 3 4 5 6 
#
# 1 137.8719 23.1214 71.7461 0.0000 8.9080 0.0000
# 2 23.1214 21.2117 16.4430 0.0000 4.6789 0.0000
# 3 71.7461 16.4430 166.9658 0.0000 10.4434 0.0000
# 4 0.0000 0.0000 0.0000 12.4756 0.0000 2.0703
# 5 8.9080 4.6789 10.4434 0.0000 41.3835 0.0000
# 6 0.0000 0.0000 0.0000 2.0703 0.0000 0.6830
#
#
#
# Elastic Compliance Matrix: (Units=1/GPa)
#
#
# Indices 1 2 3 4 5 6 
#
# 1 0.010657 -0.008663 -0.003703 0.000000 -0.000380 0.000000
# 2 -0.008663 0.058948 -0.001811 0.000000 -0.004343 0.000000
# 3 -0.003703 -0.001811 0.007819 0.000000 -0.000971 0.000000
# 4 0.000000 0.000000 0.000000 0.161294 0.000000 -0.488940
# 5 -0.000380 -0.004343 -0.000971 0.000000 0.024982 0.000000
# 6 0.000000 0.000000 0.000000 -0.488940 0.000000 2.946360
#
#
# Mechanical properties :
#
#
# Convention : Reuss Voigt Hill
#
# Bulk Modulus (GPa) = 20.37820 60.96338 40.67079
# Shear Modulus (GPa) = 1.53621 25.22435 13.38028
#
# Velocity S-wave (km/s) = 0.95324 3.86268 2.81327
# Velocity P-wave (km/s) = 3.64216 7.48022 5.88299
#
# Compressibility (1/GPa) = 0.04907205
#
# Stress axis : x y z
#
# Youngs Moduli (GPa) = 93.83374 16.96400 127.88702
#
# Poissons Ratio (x) = 0.14695 0.47351
# Poissons Ratio (y) = 0.81284 0.23164
# Poissons Ratio (z) = 0.34742 0.03073
#
# Static dielectric constant tensor:
#      x y z
#    x 3.372790 0.000000 0.018570 
#    y 0.000000 3.291100 0.000000 
#    z 0.018570 0.000000 3.429610 
# 
# 
# High freq. dielectric constant tensor:
#      x y z
#    x 1.666290 0.000000 0.001330 
#    y 0.000000 1.552150 0.000000 
#    z 0.001330 0.000000 1.680880 
# 
# From -- ./inp_files/96075.got.cif
#   From: 2010.06.25/outbox.cif.g09.slc.cpg/sg10_49_cif.got.tgz:96075.got - 2010.06.27 22:07:45.
