data_PCOD8065808
_publ_section_title
;
Structure prediction by ZEFSAII (Michael W. Deem and Ramdas Pophale) SiO2 
 PCOD8065808
Probable space group: P 2/M
;
_chemical_formula_sum "Si O2"
_cell_formula_units_Z 32
_cell_length_a 23.027319
_cell_length_b 8.636410
_cell_length_c 14.909651
_cell_angle_alpha 90.000000
_cell_angle_beta 39.364759
_cell_angle_gamma 90.000000
_cell_volume 1880.650438
_symmetry_space_group_name_H-M "P 2/M"
_symmetry_group_IT_number 10
_symmetry_cell_setting 'monoclinic'
loop_
_space_group_symop_operation_xyz
x,y,z
-x,y,-z
-x,-y,-z
x,-y,z
loop_
_atom_site_type_symbol
_atom_site_label
_atom_site_fract_x
_atom_site_fract_y
_atom_site_fract_z
Si Si1 0.387159 0.319271 0.491510
Si Si2 0.088558 0.820392 0.779182
Si Si3 0.378316 0.818923 0.204914
Si Si4 0.883529 0.180033 0.050002
Si Si5 0.701426 0.679562 0.213352
Si Si6 0.565814 0.318631 0.039777
Si Si7 0.577515 0.820131 0.213848
Si Si8 0.746973 0.319936 0.508411
O O1 0.411386 0.500000 0.456047
O O2 0.343488 0.275257 0.638493
O O3 0.479625 0.223671 0.371362
O O4 0.315798 0.269387 0.500361
O O5 0.112463 0.767620 0.851361
O O6 0.148133 0.721765 0.638212
O O7 0.111836 0.000000 0.738906
O O8 0.981772 0.788542 0.886740
O O9 0.459616 0.727710 0.157714
O O10 0.284066 0.774332 0.366503
O O11 0.397931 0.000000 0.188719
O O12 0.373123 0.769785 0.107127
O O13 0.809085 0.282476 0.087282
O O14 0.857388 0.000000 0.074373
O O15 0.686610 0.500000 0.208827
O O16 0.655880 0.782348 0.191334
O O17 0.576287 0.500000 0.011504
O O18 0.600712 0.274295 0.096275
O O19 0.578595 0.000000 0.189097
O O20 0.738542 0.500000 0.539423
#
# Coordination Sequence:
#
# PCOD8065808 Si02
#       8
#     4   4   4   4   4   4   4   4
#     4  10  21  35  49  70 104 140 176 215 253 298
#     4   9  18  32  51  74 103 135 169 213 261 307
#     4  11  21  34  53  77 103 133 169 211 256 307
#     4   9  18  33  51  73 101 134 172 215 260 305
#     4  11  22  36  52  72 101 139 178 218 258 302
#     4  11  21  36  54  74 101 134 169 212 258 304
#     4  12  24  36  52  74 100 137 179 217 255 304
#     4  11  20  32  51  77 106 139 172 210 257 307
#
# _framework density 17.015388999999999
#
# number of rings (size 3 to 8) (size 9 to 14) (size 15 to 20)
#    0.000    1.500    2.500    6.000    0.000    3.500 
#    0.000    1.250    0.000    0.000    0.000    0.875 
#    0.000    7.000    0.000    0.000    0.000    0.000 
#
# Total GULP energy -396952.890222 kJ/mol
# GULP energy per Si atom -12404.777819 kJ/mol
# Density = 1.697666 g / cm^3
# Si number density = 17.015389 Si / 1000 Ang^3
#
#
#
# Elastic Constant Matrix: (Units=GPa)
#
#
# Indices 1 2 3 4 5 6 
#
# 1 66.5863 22.2838 38.9577 0.0000 0.0832 0.0000
# 2 22.2838 70.0760 29.9437 0.0000 0.1383 0.0000
# 3 38.9577 29.9437 105.2416 0.0000 3.9770 0.0000
# 4 0.0000 0.0000 0.0000 30.1309 0.0000 -0.7634
# 5 0.0832 0.1383 3.9770 0.0000 23.2823 0.0000
# 6 0.0000 0.0000 0.0000 -0.7634 0.0000 24.1627
#
#
#
# Elastic Compliance Matrix: (Units=1/GPa)
#
#
# Indices 1 2 3 4 5 6 
#
# 1 0.019974 -0.003617 -0.006404 0.000000 0.001044 0.000000
# 2 -0.003617 0.016912 -0.003492 0.000000 0.000509 0.000000
# 3 -0.006404 -0.003492 0.012948 0.000000 -0.002168 0.000000
# 4 0.000000 0.000000 0.000000 0.033215 0.000000 0.001049
# 5 0.001044 0.000509 -0.002168 0.000000 0.043315 0.000000
# 6 0.000000 0.000000 0.000000 0.001049 0.000000 0.041419
#
#
# Mechanical properties :
#
#
# Convention : Reuss Voigt Hill
#
# Bulk Modulus (GPa) = 43.84594 47.14158 45.49376
# Shear Modulus (GPa) = 24.70205 25.56308 25.13256
#
# Velocity S-wave (km/s) = 3.81431 3.88022 3.84741
# Velocity P-wave (km/s) = 6.72480 6.91666 6.82141
#
# Compressibility (1/GPa) = 0.02280713
#
# Stress axis : x y z
#
# Youngs Moduli (GPa) = 50.06443 59.13096 77.23131
#
# Poissons Ratio (x) = 0.21389 0.49461
# Poissons Ratio (y) = 0.18109 0.26969
# Poissons Ratio (z) = 0.32062 0.20648
#
# Static dielectric constant tensor:
#      x y z
#    x 3.000000 0.000000 0.063840 
#    y 0.000000 3.189770 0.000000 
#    z 0.063840 0.000000 3.205770 
# 
# 
# High freq. dielectric constant tensor:
#      x y z
#    x 1.626890 0.000000 0.004760 
#    y 0.000000 1.666560 0.000000 
#    z 0.004760 0.000000 1.653290 
# 
# From -- ./inp_files/69977.got.cif
#   From: 2010.06.25/outbox.cif.g09.slc.cpg/sg10_35_cif.got.tgz:69977.got - 2010.06.27 22:07:45.
