data_PCOD8065791
_publ_section_title
;
Structure prediction by ZEFSAII (Michael W. Deem and Ramdas Pophale) SiO2 
 PCOD8065791
Probable space group: P 2/M
;
_chemical_formula_sum "Si O2"
_cell_formula_units_Z 24
_cell_length_a 25.424053
_cell_length_b 7.592100
_cell_length_c 18.519962
_cell_angle_alpha 90.000000
_cell_angle_beta 18.826306
_cell_angle_gamma 90.000000
_cell_volume 1153.575851
_symmetry_space_group_name_H-M "P 2/M"
_symmetry_group_IT_number 10
_symmetry_cell_setting 'monoclinic'
loop_
_space_group_symop_operation_xyz
x,y,z
-x,y,-z
-x,-y,-z
x,-y,z
loop_
_atom_site_type_symbol
_atom_site_label
_atom_site_fract_x
_atom_site_fract_y
_atom_site_fract_z
Si Si1 0.463806 0.794023 0.829383
Si Si2 0.089776 0.296585 0.559886
Si Si3 0.275521 0.703463 0.935724
Si Si4 0.681696 0.000000 0.235343
Si Si5 0.005585 0.000000 0.078166
Si Si6 0.830634 0.800878 0.695516
Si Si7 0.819447 0.300243 0.400952
O O1 0.416021 0.755291 0.809035
O O2 0.629102 0.692337 0.630854
O O3 0.493759 0.000000 0.802965
O O4 0.325870 0.713585 0.062440
O O5 0.131673 0.500000 0.499210
O O6 0.185624 0.202873 0.370092
O O7 0.153330 0.223261 0.553798
O O8 0.897642 0.258109 0.801446
O O9 0.289897 0.500000 0.893011
O O10 0.290314 0.822604 0.846040
O O11 0.500000 0.000000 0.500000
O O12 0.807808 0.000000 0.137844
O O13 0.914583 0.176001 0.222298
O O14 0.000000 0.000000 0.000000
O O15 0.000000 0.705610 0.500000
O O16 0.835013 0.000000 0.718521
O O17 0.889403 0.500000 0.304381
#
# Coordination Sequence:
#
# PCOD8065791 Si02
#       7
#     4   4   4   2   2   4   4
#     4  11  22  39  65  99 135 180 225 270 324 377
#     4  10  22  39  63  91 126 179 224 262 322 380
#     4  11  23  42  69  97 133 178 219 265 324 388
#     4  12  28  46  74 103 133 165 209 273 330 400
#     4  12  28  48  74  99 132 170 208 270 337 401
#     4  10  21  34  58  94 133 174 221 272 320 370
#     4  11  25  46  69  95 132 177 220 266 328 396
#
# _framework density 20.804874000000002
#
# number of rings (size 3 to 8) (size 9 to 14) (size 15 to 20)
#    0.000    1.167    5.000    0.500    4.667    3.000 
#    0.000    3.333    0.000    0.000    0.000    0.000 
#    0.000    0.000    0.000    0.000    0.000    0.000 
#
# Total GULP energy -297673.606752 kJ/mol
# GULP energy per Si atom -12403.066948 kJ/mol
# Density = 2.075752 g / cm^3
# Si number density = 20.804874 Si / 1000 Ang^3
#
#
#
# Elastic Constant Matrix: (Units=GPa)
#
#
# Indices 1 2 3 4 5 6 
#
# 1 151.1547 26.5171 48.5926 0.0000 -0.4698 0.0000
# 2 26.5171 90.7406 28.5355 0.0000 12.8040 0.0000
# 3 48.5926 28.5355 113.1681 0.0000 -4.4310 0.0000
# 4 0.0000 0.0000 0.0000 10.4863 0.0000 -6.4459
# 5 -0.4698 12.8040 -4.4310 0.0000 40.6488 0.0000
# 6 0.0000 0.0000 0.0000 -6.4459 0.0000 17.8595
#
#
#
# Elastic Compliance Matrix: (Units=1/GPa)
#
#
# Indices 1 2 3 4 5 6 
#
# 1 0.007823 -0.001368 -0.003007 0.000000 0.000194 0.000000
# 2 -0.001368 0.012936 -0.002847 0.000000 -0.004401 0.000000
# 3 -0.003007 -0.002847 0.010926 0.000000 0.002053 0.000000
# 4 0.000000 0.000000 0.000000 0.122552 0.000000 0.044232
# 5 0.000194 -0.004401 0.002053 0.000000 0.026213 0.000000
# 6 0.000000 0.000000 0.000000 0.044232 0.000000 0.071957
#
#
# Mechanical properties :
#
#
# Convention : Reuss Voigt Hill
#
# Bulk Modulus (GPa) = 57.99711 62.48376 60.24044
# Shear Modulus (GPa) = 18.34211 30.56013 24.45112
#
# Velocity S-wave (km/s) = 2.97244 3.83677 3.43192
# Velocity P-wave (km/s) = 6.30220 7.05168 6.68745
#
# Compressibility (1/GPa) = 0.01724224
#
# Stress axis : x y z
#
# Youngs Moduli (GPa) = 127.83093 77.30093 91.52816
#
# Poissons Ratio (x) = 0.10574 0.27518
# Poissons Ratio (y) = 0.17486 0.26057
# Poissons Ratio (z) = 0.38432 0.22007
#
# Static dielectric constant tensor:
#      x y z
#    x 3.790890 0.000000 -0.107000 
#    y 0.000000 3.774860 0.000000 
#    z -0.107000 0.000000 3.774370 
# 
# 
# High freq. dielectric constant tensor:
#      x y z
#    x 1.818020 0.000000 -0.009080 
#    y 0.000000 1.816860 0.000000 
#    z -0.009080 0.000000 1.804150 
# 
# From -- ./inp_files/80096.got.cif
#   From: 2010.06.25/outbox.cif.g09.slc.cpg/sg10_41_cif.got.tgz:80096.got - 2010.06.27 22:07:45.
