data_PCOD8065559
_publ_section_title
;
Structure prediction by ZEFSAII (Michael W. Deem and Ramdas Pophale) SiO2 
 PCOD8065559
Probable space group: P 2/M
;
_chemical_formula_sum "Si O2"
_cell_formula_units_Z 28
_cell_length_a 20.975735
_cell_length_b 9.170291
_cell_length_c 14.457591
_cell_angle_alpha 90.000000
_cell_angle_beta 29.304668
_cell_angle_gamma 90.000000
_cell_volume 1361.155296
_symmetry_space_group_name_H-M "P 2/M"
_symmetry_group_IT_number 10
_symmetry_cell_setting 'monoclinic'
loop_
_space_group_symop_operation_xyz
x,y,z
-x,y,-z
-x,-y,-z
x,-y,z
loop_
_atom_site_type_symbol
_atom_site_label
_atom_site_fract_x
_atom_site_fract_y
_atom_site_fract_z
Si Si1 0.986842 0.171608 0.238930
Si Si2 0.887525 0.336748 0.207390
Si Si3 0.897174 0.172576 0.555005
Si Si4 0.397123 0.171258 0.055568
Si Si5 0.383468 0.661375 0.550003
Si Si6 0.578718 0.169671 0.183880
Si Si7 0.751570 0.669173 0.093848
O O1 0.873988 0.231375 0.313725
O O2 0.951292 0.218571 0.387212
O O3 0.000550 0.000000 0.211655
O O4 0.119470 0.247773 0.037563
O O5 0.923730 0.500000 0.195241
O O6 0.758812 0.339539 0.311225
O O7 0.000000 0.272392 0.000000
O O8 0.749852 0.236950 0.751004
O O9 0.000000 0.237054 0.500000
O O10 0.889549 0.000000 0.577532
O O11 0.387980 0.000000 0.085900
O O12 0.500000 0.239245 0.000000
O O13 0.452328 0.206247 0.883543
O O14 0.448110 0.500000 0.453883
O O15 0.459062 0.786667 0.400271
O O16 0.366010 0.693071 0.682255
O O17 0.705050 0.260785 0.055995
O O18 0.610547 0.000000 0.156317
O O19 0.784086 0.500000 0.040070
#
# Coordination Sequence:
#
# PCOD8065559 Si02
#       7
#     4   4   4   4   4   4   4
#     4  11  22  34  59  93 118 144 192 250 296 329
#     4  10  20  39  59  79 114 161 200 227 280 359
#     4   9  18  34  56  83 117 153 190 237 296 357
#     4   9  19  36  57  82 117 157 193 235 296 364
#     4  10  22  39  59  81 113 161 201 227 277 360
#     4  11  23  37  60  90 116 144 193 252 295 329
#     4  11  22  40  61  82 117 162 196 223 283 365
#
# _framework density 20.570762999999999
#
# number of rings (size 3 to 8) (size 9 to 14) (size 15 to 20)
#    0.000    1.857    1.429    2.571    2.000    6.000 
#    0.000    0.000    0.000   11.143    0.000    0.000 
#    0.000    0.000    0.000    0.000    0.000    0.000 
#
# Total GULP energy -347164.116926 kJ/mol
# GULP energy per Si atom -12398.718462 kJ/mol
# Density = 2.052394 g / cm^3
# Si number density = 20.570763 Si / 1000 Ang^3
#
#
#
# Elastic Constant Matrix: (Units=GPa)
#
#
# Indices 1 2 3 4 5 6 
#
# 1 130.3180 39.3857 24.7533 0.0000 10.7487 0.0000
# 2 39.3857 68.7260 24.7296 0.0000 16.7804 0.0000
# 3 24.7533 24.7296 73.6062 0.0000 3.2776 0.0000
# 4 0.0000 0.0000 0.0000 6.0286 0.0000 -3.3280
# 5 10.7487 16.7804 3.2776 0.0000 31.1827 0.0000
# 6 0.0000 0.0000 0.0000 -3.3280 0.0000 29.0055
#
#
#
# Elastic Compliance Matrix: (Units=1/GPa)
#
#
# Indices 1 2 3 4 5 6 
#
# 1 0.009441 -0.004711 -0.001567 0.000000 -0.000554 0.000000
# 2 -0.004711 0.021400 -0.005189 0.000000 -0.009347 0.000000
# 3 -0.001567 -0.005189 0.015782 0.000000 0.001674 0.000000
# 4 0.000000 0.000000 0.000000 0.177092 0.000000 0.020319
# 5 -0.000554 -0.009347 0.001674 0.000000 0.037114 0.000000
# 6 0.000000 0.000000 0.000000 0.020319 0.000000 0.036808
#
#
# Mechanical properties :
#
#
# Convention : Reuss Voigt Hill
#
# Bulk Modulus (GPa) = 42.21726 50.04302 46.13014
# Shear Modulus (GPa) = 15.22227 25.49548 20.35887
#
# Velocity S-wave (km/s) = 2.72324 3.52434 3.14936
# Velocity P-wave (km/s) = 5.51865 6.39854 5.97482
#
# Compressibility (1/GPa) = 0.02368699
#
# Stress axis : x y z
#
# Youngs Moduli (GPa) = 105.92356 46.72982 63.36409
#
# Poissons Ratio (x) = 0.22014 0.09932
# Poissons Ratio (y) = 0.49900 0.32881
# Poissons Ratio (z) = 0.16603 0.24249
#
# Static dielectric constant tensor:
#      x y z
#    x 4.023360 0.000000 -0.117680 
#    y 0.000000 3.445080 0.000000 
#    z -0.117680 0.000000 3.712830 
# 
# 
# High freq. dielectric constant tensor:
#      x y z
#    x 1.827740 0.000000 -0.008250 
#    y 0.000000 1.768270 0.000000 
#    z -0.008250 0.000000 1.802340 
# 
# From -- ./inp_files/63683.got.cif
#   From: 2010.06.25/outbox.cif.g09.slc.cpg/sg10_32_cif.got.tgz:63683.got - 2010.06.27 22:07:45.
