data_PCOD8065583
_publ_section_title
;
Structure prediction by ZEFSAII (Michael W. Deem and Ramdas Pophale) SiO2 
 PCOD8065583
Probable space group: P 2/M
;
_chemical_formula_sum "Si O2"
_cell_formula_units_Z 20
_cell_length_a 9.334182
_cell_length_b 14.069928
_cell_length_c 7.563205
_cell_angle_alpha 90.000000
_cell_angle_beta 88.841328
_cell_angle_gamma 90.000000
_cell_volume 993.082210
_symmetry_space_group_name_H-M "P 2/M"
_symmetry_group_IT_number 10
_symmetry_cell_setting 'monoclinic'
loop_
_space_group_symop_operation_xyz
x,y,z
-x,y,-z
-x,-y,-z
x,-y,z
loop_
_atom_site_type_symbol
_atom_site_label
_atom_site_fract_x
_atom_site_fract_y
_atom_site_fract_z
Si Si1 0.561570 0.896677 0.226390
Si Si2 0.723622 0.896201 0.588935
Si Si3 0.162308 0.702004 0.497995
Si Si4 0.642252 0.611554 0.794815
Si Si5 0.659568 0.298330 0.157115
O O1 0.632826 0.892826 0.414168
O O2 0.390107 0.881647 0.249831
O O3 0.628123 0.812200 0.107520
O O4 0.591863 0.000000 0.136486
O O5 0.836232 0.809807 0.580294
O O6 0.800605 0.000000 0.606212
O O7 0.255163 0.634315 0.370848
O O8 0.218942 0.693541 0.696937
O O9 0.000000 0.665469 0.500000
O O10 0.623126 0.500000 0.813167
O O11 0.486635 0.656503 0.763186
O O12 0.710233 0.650258 0.976835
#
# Coordination Sequence:
#
# PCOD8065583 Si02
#       5
#     4   4   4   4   4
#     4   8  13  26  54  86 114 144 182 232 280 326
#     4   8  14  28  52  83 116 150 186 223 272 333
#     4  11  23  38  59  87 119 155 189 228 283 344
#     4  11  24  41  62  85 109 145 196 246 291 337
#     4  10  20  39  62  86 117 147 188 239 287 333
#
# _framework density 20.139317999999999
#
# number of rings (size 3 to 8) (size 9 to 14) (size 15 to 20)
#    0.000    2.400    2.000    3.000    0.000    4.000 
#    0.000    4.000    0.000    0.000    0.000    7.000 
#    0.000    0.000    0.000    0.000    0.000    0.000 
#
# Total GULP energy -247852.553613 kJ/mol
# GULP energy per Si atom -12392.627681 kJ/mol
# Density = 2.009348 g / cm^3
# Si number density = 20.139318 Si / 1000 Ang^3
#
#
#
# Elastic Constant Matrix: (Units=GPa)
#
#
# Indices 1 2 3 4 5 6 
#
# 1 74.5876 14.4089 31.3861 0.0000 11.5721 0.0000
# 2 14.4089 130.5550 19.9871 0.0000 5.9727 0.0000
# 3 31.3861 19.9871 63.0651 0.0000 14.4813 0.0000
# 4 0.0000 0.0000 0.0000 49.5932 0.0000 -12.9441
# 5 11.5721 5.9727 14.4813 0.0000 20.0889 0.0000
# 6 0.0000 0.0000 0.0000 -12.9441 0.0000 21.1811
#
#
#
# Elastic Compliance Matrix: (Units=1/GPa)
#
#
# Indices 1 2 3 4 5 6 
#
# 1 0.017332 -0.000573 -0.007419 0.000000 -0.004466 0.000000
# 2 -0.000573 0.008077 -0.002156 0.000000 -0.000517 0.000000
# 3 -0.007419 -0.002156 0.022893 0.000000 -0.011588 0.000000
# 4 0.000000 0.000000 0.000000 0.023991 0.000000 0.014661
# 5 -0.004466 -0.000517 -0.011588 0.000000 0.060859 0.000000
# 6 0.000000 0.000000 0.000000 0.014661 0.000000 0.056172
#
#
# Mechanical properties :
#
#
# Convention : Reuss Voigt Hill
#
# Bulk Modulus (GPa) = 35.70559 44.41912 40.06235
# Shear Modulus (GPa) = 22.83586 31.66765 27.25175
#
# Velocity S-wave (km/s) = 3.37099 3.96969 3.68253
# Velocity P-wave (km/s) = 5.73752 6.56620 6.16580
#
# Compressibility (1/GPa) = 0.02800682
#
# Stress axis : x y z
#
# Youngs Moduli (GPa) = 57.69521 123.81547 43.68142
#
# Poissons Ratio (x) = 0.07092 0.32407
# Poissons Ratio (y) = 0.03305 0.09417
# Poissons Ratio (z) = 0.42804 0.26693
#
# Static dielectric constant tensor:
#      x y z
#    x 3.187120 0.000000 0.017140 
#    y 0.000000 4.172880 0.000000 
#    z 0.017140 0.000000 3.529490 
# 
# 
# High freq. dielectric constant tensor:
#      x y z
#    x 1.736420 0.000000 0.006470 
#    y 0.000000 1.804720 0.000000 
#    z 0.006470 0.000000 1.782710 
# 
# From -- ./inp_files/18509.got.cif
#   From: 2010.06.25/outbox.cif.g09.slc.cpg/sg10_10_cif.got.tgz:18509.got - 2010.06.27 22:07:45.
