data_PCOD8065074
_publ_section_title
;
Structure prediction by ZEFSAII (Michael W. Deem and Ramdas Pophale) SiO2 
 PCOD8065074
Probable space group: P 2/M
;
_chemical_formula_sum "Si O2"
_cell_formula_units_Z 32
_cell_length_a 14.582869
_cell_length_b 9.075052
_cell_length_c 24.925662
_cell_angle_alpha 90.000000
_cell_angle_beta 29.161114
_cell_angle_gamma 90.000000
_cell_volume 1607.333111
_symmetry_space_group_name_H-M "P 2/M"
_symmetry_group_IT_number 10
_symmetry_cell_setting 'monoclinic'
loop_
_space_group_symop_operation_xyz
x,y,z
-x,y,-z
-x,-y,-z
x,-y,z
loop_
_atom_site_type_symbol
_atom_site_label
_atom_site_fract_x
_atom_site_fract_y
_atom_site_fract_z
Si Si1 0.465799 0.834263 0.781027
Si Si2 0.460054 0.325276 0.358310
Si Si3 0.631242 0.326569 0.384163
Si Si4 0.578337 0.826910 0.017506
Si Si5 0.003014 0.824293 0.169566
Si Si6 0.944854 0.670471 0.470665
Si Si7 0.939275 0.834394 0.976287
Si Si8 0.336885 0.330003 0.230977
O O1 0.413496 0.759144 0.750644
O O2 0.618108 0.734118 0.733115
O O3 0.541542 0.000000 0.733382
O O4 0.285747 0.837585 0.911904
O O5 0.480360 0.500000 0.341068
O O6 0.529885 0.275875 0.381189
O O7 0.246706 0.265771 0.457520
O O8 0.500000 0.275165 0.500000
O O9 0.666367 0.500000 0.367614
O O10 0.833167 0.248446 0.289134
O O11 0.444316 0.752673 0.129318
O O12 0.564796 0.000000 0.034561
O O13 0.500000 0.779839 0.000000
O O14 0.795269 0.773824 0.909951
O O15 0.987253 0.762129 0.116311
O O16 0.986131 0.000000 0.180091
O O17 0.907031 0.500000 0.501322
O O18 0.000000 0.744702 0.500000
O O19 0.111254 0.691522 0.341640
O O20 0.023101 0.000000 0.936486
O O21 0.000000 0.748874 0.000000
O O22 0.396096 0.500000 0.199047
#
# Coordination Sequence:
#
# PCOD8065074 Si02
#       8
#     4   4   4   4   4   4   4   4
#     4  11  20  33  55  83 118 152 187 235 290 344
#     4  10  20  37  58  81 113 153 197 241 288 344
#     4  10  23  41  60  84 115 151 192 244 295 336
#     4  10  22  41  62  85 117 155 192 237 291 340
#     4  10  20  38  61  84 113 151 191 231 284 347
#     4   9  17  32  54  79 111 153 192 229 284 348
#     4   9  17  30  51  79 110 145 183 223 276 339
#     4  11  21  35  58  85 115 153 195 236 283 342
#
# _framework density 19.908753999999998
#
# number of rings (size 3 to 8) (size 9 to 14) (size 15 to 20)
#    0.000    2.000    2.500    1.500    0.000    3.500 
#    0.000    3.125    0.000    2.625    0.000    0.000 
#    0.000    0.000    0.000    0.000    0.000    0.000 
#
# Total GULP energy -396685.788076 kJ/mol
# GULP energy per Si atom -12396.430877 kJ/mol
# Density = 1.986344 g / cm^3
# Si number density = 19.908754 Si / 1000 Ang^3
#
#
#
# Elastic Constant Matrix: (Units=GPa)
#
#
# Indices 1 2 3 4 5 6 
#
# 1 104.5984 28.8063 48.7592 0.0000 7.8449 0.0000
# 2 28.8063 31.2850 29.5318 0.0000 7.2673 0.0000
# 3 48.7592 29.5318 127.4870 0.0000 6.6748 0.0000
# 4 0.0000 0.0000 0.0000 27.1798 0.0000 -0.8404
# 5 7.8449 7.2673 6.6748 0.0000 32.5142 0.0000
# 6 0.0000 0.0000 0.0000 -0.8404 0.0000 18.2385
#
#
#
# Elastic Compliance Matrix: (Units=1/GPa)
#
#
# Indices 1 2 3 4 5 6 
#
# 1 0.013632 -0.009642 -0.002952 0.000000 -0.000528 0.000000
# 2 -0.009642 0.049507 -0.007402 0.000000 -0.007219 0.000000
# 3 -0.002952 -0.007402 0.010679 0.000000 0.000175 0.000000
# 4 0.000000 0.000000 0.000000 0.036845 0.000000 0.001698
# 5 -0.000528 -0.007219 0.000175 0.000000 0.032461 0.000000
# 6 0.000000 0.000000 0.000000 0.001698 0.000000 0.054907
#
#
# Mechanical properties :
#
#
# Convention : Reuss Voigt Hill
#
# Bulk Modulus (GPa) = 29.56520 53.06277 41.31398
# Shear Modulus (GPa) = 20.05632 26.00470 23.03051
#
# Velocity S-wave (km/s) = 3.17742 3.61805 3.40487
# Velocity P-wave (km/s) = 5.32390 6.64564 6.02115
#
# Compressibility (1/GPa) = 0.03382355
#
# Stress axis : x y z
#
# Youngs Moduli (GPa) = 73.35863 20.19927 93.64419
#
# Poissons Ratio (x) = 0.19476 0.27648
# Poissons Ratio (y) = 0.70732 0.69318
# Poissons Ratio (z) = 0.21659 0.14952
#
# Static dielectric constant tensor:
#      x y z
#    x 3.781660 0.000000 -0.061150 
#    y 0.000000 3.281690 0.000000 
#    z -0.061150 0.000000 3.612160 
# 
# 
# High freq. dielectric constant tensor:
#      x y z
#    x 1.777070 0.000000 -0.005830 
#    y 0.000000 1.742940 0.000000 
#    z -0.005830 0.000000 1.785610 
# 
# From -- ./inp_files/66626.got.cif
#   From: 2010.06.25/outbox.cif.g09.slc.cpg/sg10_34_cif.got.tgz:66626.got - 2010.06.27 22:07:45.
