data_PCOD8065323
_publ_section_title
;
Structure prediction by ZEFSAII (Michael W. Deem and Ramdas Pophale) SiO2 
 PCOD8065323
Probable space group: P 2/M
;
_chemical_formula_sum "Si O2"
_cell_formula_units_Z 20
_cell_length_a 12.187152
_cell_length_b 8.980922
_cell_length_c 12.475703
_cell_angle_alpha 90.000000
_cell_angle_beta 132.315017
_cell_angle_gamma 90.000000
_cell_volume 1009.717164
_symmetry_space_group_name_H-M "P 2/M"
_symmetry_group_IT_number 10
_symmetry_cell_setting 'monoclinic'
loop_
_space_group_symop_operation_xyz
x,y,z
-x,y,-z
-x,-y,-z
x,-y,z
loop_
_atom_site_type_symbol
_atom_site_label
_atom_site_fract_x
_atom_site_fract_y
_atom_site_fract_z
Si Si1 0.341336 0.176751 0.360309
Si Si2 0.673037 0.825359 0.890718
Si Si3 0.177775 0.324275 0.820346
Si Si4 0.656888 0.172208 0.254848
Si Si5 0.129150 0.174113 0.407516
O O1 0.500000 0.245134 0.500000
O O2 0.300611 0.228095 0.213780
O O3 0.213512 0.231937 0.356749
O O4 0.354131 0.000000 0.374824
O O5 0.506260 0.784233 0.813816
O O6 0.703660 0.000000 0.923493
O O7 0.789932 0.737253 0.039928
O O8 0.175217 0.500000 0.821408
O O9 0.305901 0.269484 0.824416
O O10 0.020870 0.264704 0.675733
O O11 0.769572 0.208653 0.424029
O O12 0.665583 0.000000 0.226975
O O13 0.091019 0.000000 0.374430
#
# Coordination Sequence:
#
# PCOD8065323 Si02
#       5
#     4   4   4   4   4
#     4   9  16  33  63  94 114 134 179 240 293 340
#     4  10  20  37  63  90 115 144 184 237 291 340
#     4  12  26  39  52  79 122 162 195 230 273 332
#     4  10  20  37  63  89 112 144 190 240 287 338
#     4  10  20  37  63  90 115 144 184 237 291 340
#
# _framework density 19.807525999999999
#
# number of rings (size 3 to 8) (size 9 to 14) (size 15 to 20)
#    0.000    1.800    2.000    3.000    0.000    7.200 
#    0.000    5.000    0.000    1.200    0.000    0.000 
#    0.000    0.000    0.000    0.000    0.000    0.000 
#
# Total GULP energy -248084.888861 kJ/mol
# GULP energy per Si atom -12404.244443 kJ/mol
# Density = 1.976244 g / cm^3
# Si number density = 19.807526 Si / 1000 Ang^3
#
#
#
# Elastic Constant Matrix: (Units=GPa)
#
#
# Indices 1 2 3 4 5 6 
#
# 1 62.9953 15.1240 5.4308 0.0000 -17.0353 0.0000
# 2 15.1240 58.5473 28.2928 0.0000 -3.2370 0.0000
# 3 5.4308 28.2928 81.7636 0.0000 -7.9492 0.0000
# 4 0.0000 0.0000 0.0000 -0.0351 0.0000 -0.7356
# 5 -17.0353 -3.2370 -7.9492 0.0000 37.4334 0.0000
# 6 0.0000 0.0000 0.0000 -0.7356 0.0000 0.1108
#
#
#
# Elastic Compliance Matrix: (Units=1/GPa)
#
#
# Indices 1 2 3 4 5 6 
#
# 1 0.019334 -0.005166 0.001343 0.000000 0.008637 0.000000
# 2 -0.005166 0.021893 -0.007430 0.000000 -0.002036 0.000000
# 3 0.001343 -0.007430 0.015019 0.000000 0.003158 0.000000
# 4 0.000000 0.000000 0.000000 -0.203259 0.000000 -1.349704
# 5 0.008637 -0.002036 0.003158 0.000000 0.031139 0.000000
# 6 0.000000 0.000000 0.000000 -1.349704 0.000000 0.064439
#
#
# Mechanical properties :
#
#
# Convention : Reuss Voigt Hill
#
# Bulk Modulus (GPa) = 29.63838 33.44460 31.54149
# Shear Modulus (GPa) = -282.78691 17.79904 -132.49394
#
# Velocity S-wave (km/s) = -11.96149 3.00092 -8.18755
# Velocity P-wave (km/s) = 13.25798 5.37855 8.56870
#
# Compressibility (1/GPa) = 0.03374004
#
# Stress axis : x y z
#
# Youngs Moduli (GPa) = 51.72134 45.67699 66.58069
#
# Poissons Ratio (x) = 0.23597 -0.08943
# Poissons Ratio (y) = 0.26719 0.49472
# Poissons Ratio (z) = -0.06947 0.33940
#
# Static dielectric constant tensor:
#      x y z
#    x 3.767870 0.000000 -0.124390 
#    y 0.000000 3.179160 0.000000 
#    z -0.124390 0.000000 3.727720 
# 
# 
# High freq. dielectric constant tensor:
#      x y z
#    x 1.782550 0.000000 -0.006000 
#    y 0.000000 1.727560 0.000000 
#    z -0.006000 0.000000 1.787460 
# 
# From -- ./inp_files/22145.got.cif
#   From: 2010.06.25/outbox.cif.g09.slc.cpg/sg10_12_cif.got.tgz:22145.got - 2010.06.27 22:07:45.
