data_PCOD8065781
_publ_section_title
;
Structure prediction by ZEFSAII (Michael W. Deem and Ramdas Pophale) SiO2 
 PCOD8065781
Probable space group: P 2/M
;
_chemical_formula_sum "Si O2"
_cell_formula_units_Z 22
_cell_length_a 8.069761
_cell_length_b 17.287549
_cell_length_c 13.308767
_cell_angle_alpha 90.000000
_cell_angle_beta 37.514137
_cell_angle_gamma 90.000000
_cell_volume 1130.625197
_symmetry_space_group_name_H-M "P 2/M"
_symmetry_group_IT_number 10
_symmetry_cell_setting 'monoclinic'
loop_
_space_group_symop_operation_xyz
x,y,z
-x,y,-z
-x,-y,-z
x,-y,z
loop_
_atom_site_type_symbol
_atom_site_label
_atom_site_fract_x
_atom_site_fract_y
_atom_site_fract_z
Si Si1 0.425490 0.586277 0.832918
Si Si2 0.294731 0.000000 0.011597
Si Si3 0.690850 0.733237 0.625097
Si Si4 0.073665 0.415013 0.803742
Si Si5 0.500000 0.689007 0.500000
Si Si6 0.680243 0.000000 0.315962
Si Si7 0.691051 0.130178 0.151595
O O1 0.554065 0.500000 0.789220
O O2 0.652460 0.650791 0.700331
O O3 0.236969 0.581877 0.827457
O O4 0.237241 0.610401 0.019714
O O5 0.353990 0.923351 0.921635
O O6 0.500000 0.000000 0.000000
O O7 0.991566 0.000000 0.200454
O O8 0.595760 0.736028 0.553067
O O9 0.504177 0.797001 0.767168
O O10 0.000000 0.757170 0.500000
O O11 0.066366 0.500000 0.757231
O O12 0.225583 0.359400 0.653102
O O13 0.500000 0.000000 0.500000
O O14 0.622466 0.921521 0.282133
O O15 0.000000 0.161324 0.000000
#
# Coordination Sequence:
#
# PCOD8065781 Si02
#       7
#     4   2   4   4   2   2   4
#     4   8  16  32  55  79 112 157 200 244 300 353
#     4   9  19  41  64  94 116 153 196 230 290 357
#     4  11  24  39  56  87 122 153 203 248 295 350
#     4   8  14  29  54  81 104 145 202 244 296 360
#     4  10  21  34  56  79 116 154 190 244 306 339
#     4   9  19  37  64  90 116 152 189 229 288 355
#     4   9  21  40  61  84 122 158 190 236 292 352
#
# _framework density 19.458259999999999
#
# number of rings (size 3 to 8) (size 9 to 14) (size 15 to 20)
#    0.000    2.909    0.000    2.455    6.364    2.545 
#    3.273    2.727    0.000    2.182    0.000    0.000 
#    0.000    0.000    0.000    0.000    0.000    0.000 
#
# Total GULP energy -272556.977499 kJ/mol
# GULP energy per Si atom -12388.953523 kJ/mol
# Density = 1.941397 g / cm^3
# Si number density = 19.458260 Si / 1000 Ang^3
#
#
#
# Elastic Constant Matrix: (Units=GPa)
#
#
# Indices 1 2 3 4 5 6 
#
# 1 88.2457 32.7573 50.1148 0.0000 -12.1421 0.0000
# 2 32.7573 108.8280 65.5755 0.0000 -12.9353 0.0000
# 3 50.1148 65.5755 130.4752 0.0000 3.6512 0.0000
# 4 0.0000 0.0000 0.0000 23.3903 0.0000 -9.6290
# 5 -12.1421 -12.9353 3.6512 0.0000 23.0448 0.0000
# 6 0.0000 0.0000 0.0000 -9.6290 0.0000 5.7265
#
#
#
# Elastic Compliance Matrix: (Units=1/GPa)
#
#
# Indices 1 2 3 4 5 6 
#
# 1 0.016399 0.000284 -0.006717 0.000000 0.009864 0.000000
# 2 0.000284 0.015074 -0.007961 0.000000 0.009872 0.000000
# 3 -0.006717 -0.007961 0.014534 0.000000 -0.010311 0.000000
# 4 0.000000 0.000000 0.000000 0.138903 0.000000 0.233562
# 5 0.009864 0.009872 -0.010311 0.000000 0.055766 0.000000
# 6 0.000000 0.000000 0.000000 0.233562 0.000000 0.567356
#
#
# Mechanical properties :
#
#
# Convention : Reuss Voigt Hill
#
# Bulk Modulus (GPa) = 58.08087 69.38267 63.73177
# Shear Modulus (GPa) = 5.93429 22.37241 14.15335
#
# Velocity S-wave (km/s) = 1.74825 3.39450 2.69991
# Velocity P-wave (km/s) = 5.83000 7.14829 6.52254
#
# Compressibility (1/GPa) = 0.01721737
#
# Stress axis : x y z
#
# Youngs Moduli (GPa) = 60.98084 66.33978 68.80293
#
# Poissons Ratio (x) = -0.01885 0.46218
# Poissons Ratio (y) = -0.01733 0.54777
# Poissons Ratio (z) = 0.40963 0.52816
#
# Static dielectric constant tensor:
#      x y z
#    x 3.127160 0.000000 0.104900 
#    y 0.000000 3.666240 0.000000 
#    z 0.104900 0.000000 3.901450 
# 
# 
# High freq. dielectric constant tensor:
#      x y z
#    x 1.726060 0.000000 0.005340 
#    y 0.000000 1.754330 0.000000 
#    z 0.005340 0.000000 1.766750 
# 
# From -- ./inp_files/62208.got.cif
#   From: 2010.06.25/outbox.cif.g09.slc.cpg/sg10_32_cif.got.tgz:62208.got - 2010.06.27 22:07:45.
