data_PCOD8065274
_publ_section_title
;
Structure prediction by ZEFSAII (Michael W. Deem and Ramdas Pophale) SiO2 
 PCOD8065274
Probable space group: P 2/M
;
_chemical_formula_sum "Si O2"
_cell_formula_units_Z 28
_cell_length_a 9.312977
_cell_length_b 8.914588
_cell_length_c 26.986657
_cell_angle_alpha 90.000000
_cell_angle_beta 141.154141
_cell_angle_gamma 90.000000
_cell_volume 1405.283373
_symmetry_space_group_name_H-M "P 2/M"
_symmetry_group_IT_number 10
_symmetry_cell_setting 'monoclinic'
loop_
_space_group_symop_operation_xyz
x,y,z
-x,y,-z
-x,-y,-z
x,-y,z
loop_
_atom_site_type_symbol
_atom_site_label
_atom_site_fract_x
_atom_site_fract_y
_atom_site_fract_z
Si Si1 0.771223 0.671860 0.960584
Si Si2 0.037288 0.678701 0.233677
Si Si3 0.745697 0.329120 0.065767
Si Si4 0.708241 0.676111 0.520789
Si Si5 0.325789 0.825721 0.797585
Si Si6 0.186969 0.174193 0.652341
Si Si7 0.554706 0.323968 0.369508
O O1 0.732582 0.500000 0.933293
O O2 0.548251 0.762595 0.885082
O O3 0.839476 0.681377 0.036168
O O4 0.000000 0.744220 0.000000
O O5 0.036402 0.500000 0.238206
O O6 0.920218 0.742459 0.151934
O O7 0.902857 0.744956 0.244318
O O8 0.296222 0.738418 0.301503
O O9 0.708429 0.500000 0.073860
O O10 0.500000 0.245614 0.000000
O O11 0.500000 0.731709 0.500000
O O12 0.744615 0.500000 0.538403
O O13 0.663875 0.715704 0.451612
O O14 0.938747 0.759357 0.598179
O O15 0.343294 0.798320 0.743174
O O16 0.306855 0.000000 0.805081
O O17 0.302425 0.248886 0.635848
O O18 0.158717 0.000000 0.633158
O O19 0.558780 0.500000 0.360150
#
# Coordination Sequence:
#
# PCOD8065274 Si02
#       7
#     4   4   4   4   4   4   4
#     4  10  21  36  59  86 112 148 196 243 291 345
#     4  10  20  37  62  87 115 150 193 243 293 344
#     4   9  16  31  55  85 114 140 183 242 287 335
#     4  10  21  40  65  93 120 147 189 242 292 343
#     4  11  24  40  56  81 119 158 197 239 287 345
#     4  11  25  41  58  84 121 162 197 233 283 347
#     4  10  22  38  62  93 119 149 190 241 295 343
#
# _framework density 19.924806
#
# number of rings (size 3 to 8) (size 9 to 14) (size 15 to 20)
#    0.000    1.857    1.429    2.143    2.000    6.857 
#    0.000    1.429    0.000    0.000    0.000    0.000 
#    0.000    0.000    0.000    0.000    0.000    0.000 
#
# Total GULP energy -347150.294894 kJ/mol
# GULP energy per Si atom -12398.224818 kJ/mol
# Density = 1.987946 g / cm^3
# Si number density = 19.924806 Si / 1000 Ang^3
#
#
#
# Elastic Constant Matrix: (Units=GPa)
#
#
# Indices 1 2 3 4 5 6 
#
# 1 127.0688 34.0122 27.1282 0.0000 6.3099 0.0000
# 2 34.0122 49.9818 31.2033 0.0000 -1.1602 0.0000
# 3 27.1282 31.2033 85.5450 0.0000 0.1274 0.0000
# 4 0.0000 0.0000 0.0000 10.8261 0.0000 -10.5393
# 5 6.3099 -1.1602 0.1274 0.0000 38.3168 0.0000
# 6 0.0000 0.0000 0.0000 -10.5393 0.0000 10.7902
#
#
#
# Elastic Compliance Matrix: (Units=1/GPa)
#
#
# Indices 1 2 3 4 5 6 
#
# 1 0.009793 -0.006175 -0.000851 0.000000 -0.001797 0.000000
# 2 -0.006175 0.029826 -0.008924 0.000000 0.001950 0.000000
# 3 -0.000851 -0.008924 0.015215 0.000000 -0.000181 0.000000
# 4 0.000000 0.000000 0.000000 1.880489 0.000000 1.836766
# 5 -0.001797 0.001950 -0.000181 0.000000 0.026454 0.000000
# 6 0.000000 0.000000 0.000000 1.836766 0.000000 1.886737
#
#
# Mechanical properties :
#
#
# Convention : Reuss Voigt Hill
#
# Bulk Modulus (GPa) = 43.60163 49.69812 46.64988
# Shear Modulus (GPa) = 1.28599 23.33674 12.31136
#
# Velocity S-wave (km/s) = 0.80425 3.42605 2.48844
# Velocity P-wave (km/s) = 4.77420 6.37553 5.63207
#
# Compressibility (1/GPa) = 0.02293492
#
# Stress axis : x y z
#
# Youngs Moduli (GPa) = 102.10920 33.52818 65.72527
#
# Poissons Ratio (x) = 0.20704 0.05591
# Poissons Ratio (y) = 0.63052 0.58652
# Poissons Ratio (z) = 0.08686 0.29920
#
# Static dielectric constant tensor:
#      x y z
#    x 3.717340 0.000000 0.004690 
#    y 0.000000 3.364580 0.000000 
#    z 0.004690 0.000000 3.858270 
# 
# 
# High freq. dielectric constant tensor:
#      x y z
#    x 1.790810 0.000000 -0.003260 
#    y 0.000000 1.746630 0.000000 
#    z -0.003260 0.000000 1.792070 
# 
# From -- ./inp_files/91990.got.cif
#   From: 2010.06.25/outbox.cif.g09.slc.cpg/sg10_46_cif.got.tgz:91990.got - 2010.06.27 22:07:45.
