data_PCOD8065174
_publ_section_title
;
Structure prediction by ZEFSAII (Michael W. Deem and Ramdas Pophale) SiO2 
 PCOD8065174
Probable space group: P 2/M
;
_chemical_formula_sum "Si O2"
_cell_formula_units_Z 28
_cell_length_a 20.427495
_cell_length_b 9.220481
_cell_length_c 23.355772
_cell_angle_alpha 90.000000
_cell_angle_beta 160.652693
_cell_angle_gamma 90.000000
_cell_volume 1457.390340
_symmetry_space_group_name_H-M "P 2/M"
_symmetry_group_IT_number 10
_symmetry_cell_setting 'monoclinic'
loop_
_space_group_symop_operation_xyz
x,y,z
-x,y,-z
-x,-y,-z
x,-y,z
loop_
_atom_site_type_symbol
_atom_site_label
_atom_site_fract_x
_atom_site_fract_y
_atom_site_fract_z
Si Si1 0.703694 0.663565 0.632841
Si Si2 0.464518 0.171907 0.097404
Si Si3 0.440886 0.831444 0.585894
Si Si4 0.110286 0.332015 0.749236
Si Si5 0.202527 0.154215 0.194236
Si Si6 0.306148 0.169805 0.598348
Si Si7 0.207203 0.334293 0.698743
O O1 0.500000 0.684257 0.500000
O O2 0.763829 0.500000 0.671608
O O3 0.715912 0.742444 0.581750
O O4 0.853818 0.738043 0.800540
O O5 0.550093 0.212883 0.230661
O O6 0.621932 0.227947 0.181222
O O7 0.435533 0.000000 0.066608
O O8 0.252962 0.249634 0.912226
O O9 0.653319 0.783088 0.736215
O O10 0.425898 0.788361 0.639824
O O11 0.395091 0.000000 0.540618
O O12 0.088910 0.500000 0.750179
O O13 0.206052 0.320390 0.765849
O O14 0.895382 0.259946 0.568479
O O15 0.292816 0.000000 0.291652
O O16 0.000000 0.115179 0.000000
O O17 0.251592 0.000000 0.556190
O O18 0.253435 0.500000 0.718103
O O19 0.000000 0.284005 0.500000
#
# Coordination Sequence:
#
# PCOD8065174 Si02
#       7
#     4   4   4   4   4   4   4
#     4   9  17  30  50  75 103 134 170 216 268 317
#     4  11  23  38  59  87 119 151 191 242 294 346
#     4   9  18  35  56  76 104 143 183 223 270 329
#     4  11  23  39  61  85 114 151 194 241 290 347
#     4   9  17  31  53  81 108 138 182 227 270 325
#     4  10  22  40  59  81 114 155 194 236 287 343
#     4  10  20  37  60  85 113 151 195 240 292 344
#
# _framework density 19.212423000000001
#
# number of rings (size 3 to 8) (size 9 to 14) (size 15 to 20)
#    0.000    2.143    1.429    1.714    0.000    6.286 
#    2.571    0.000    0.000    0.000    0.000    0.000 
#    0.000    0.000    0.000    0.000    0.000    0.000 
#
# Total GULP energy -347012.250185 kJ/mol
# GULP energy per Si atom -12393.294649 kJ/mol
# Density = 1.916869 g / cm^3
# Si number density = 19.212423 Si / 1000 Ang^3
#
#
#
# Elastic Constant Matrix: (Units=GPa)
#
#
# Indices 1 2 3 4 5 6 
#
# 1 110.7175 51.9491 41.1862 0.0000 -19.4453 0.0000
# 2 51.9491 96.8577 54.3836 0.0000 -15.8475 0.0000
# 3 41.1862 54.3836 107.3413 0.0000 -23.2511 0.0000
# 4 0.0000 0.0000 0.0000 19.6367 0.0000 4.5857
# 5 -19.4453 -15.8475 -23.2511 0.0000 22.2692 0.0000
# 6 0.0000 0.0000 0.0000 4.5857 0.0000 10.3265
#
#
#
# Elastic Compliance Matrix: (Units=1/GPa)
#
#
# Indices 1 2 3 4 5 6 
#
# 1 0.013068 -0.005468 -0.000795 0.000000 0.006690 0.000000
# 2 -0.005468 0.016920 -0.006332 0.000000 0.000654 0.000000
# 3 -0.000795 -0.006332 0.015123 0.000000 0.010590 0.000000
# 4 0.000000 0.000000 0.000000 0.056817 0.000000 -0.025231
# 5 0.006690 0.000654 0.010590 0.000000 0.062269 0.000000
# 6 0.000000 0.000000 0.000000 -0.025231 0.000000 0.108043
#
#
# Mechanical properties :
#
#
# Convention : Reuss Voigt Hill
#
# Bulk Modulus (GPa) = 50.19969 67.77271 58.98620
# Shear Modulus (GPa) = 16.44355 21.60633 19.02494
#
# Velocity S-wave (km/s) = 2.92872 3.35715 3.15022
# Velocity P-wave (km/s) = 6.13368 7.09784 6.63330
#
# Compressibility (1/GPa) = 0.01992044
#
# Stress axis : x y z
#
# Youngs Moduli (GPa) = 76.52077 59.10191 66.12419
#
# Poissons Ratio (x) = 0.32319 0.05254
# Poissons Ratio (y) = 0.41844 0.41873
# Poissons Ratio (z) = 0.06080 0.37426
#
# Static dielectric constant tensor:
#      x y z
#    x 3.531700 0.000000 -0.199810 
#    y 0.000000 3.550430 0.000000 
#    z -0.199810 0.000000 3.448320 
# 
# 
# High freq. dielectric constant tensor:
#      x y z
#    x 1.740250 0.000000 -0.016290 
#    y 0.000000 1.751290 0.000000 
#    z -0.016290 0.000000 1.738910 
# 
# From -- ./inp_files/90370.got.cif
#   From: 2010.06.25/outbox.cif.g09.slc.cpg/sg10_46_cif.got.tgz:90370.got - 2010.06.27 22:07:45.
