data_PCOD8065743
_publ_section_title
;
Structure prediction by ZEFSAII (Michael W. Deem and Ramdas Pophale) SiO2 
 PCOD8065743
Probable space group: P 2/M
;
_chemical_formula_sum "Si O2"
_cell_formula_units_Z 32
_cell_length_a 12.320613
_cell_length_b 8.984465
_cell_length_c 28.817297
_cell_angle_alpha 90.000000
_cell_angle_beta 148.769082
_cell_angle_gamma 90.000000
_cell_volume 1653.929195
_symmetry_space_group_name_H-M "P 2/M"
_symmetry_group_IT_number 10
_symmetry_cell_setting 'monoclinic'
loop_
_space_group_symop_operation_xyz
x,y,z
-x,y,-z
-x,-y,-z
x,-y,z
loop_
_atom_site_type_symbol
_atom_site_label
_atom_site_fract_x
_atom_site_fract_y
_atom_site_fract_z
Si Si1 0.289022 0.838391 0.894511
Si Si2 0.347500 0.175437 0.736298
Si Si3 0.492667 0.673660 0.604577
Si Si4 0.067881 0.177809 0.900298
Si Si5 0.074358 0.326340 0.395424
Si Si6 0.466695 0.177810 0.099705
Si Si7 0.597692 0.175436 0.736298
Si Si8 0.712332 0.168361 0.606165
O O1 0.353220 0.756285 0.869679
O O2 0.125499 0.756284 0.869680
O O3 0.193447 0.000000 0.846725
O O4 0.500000 0.861693 0.000000
O O5 0.481619 0.231324 0.829605
O O6 0.477458 0.221332 0.738728
O O7 0.127141 0.258478 0.653310
O O8 0.305721 0.000000 0.723304
O O9 0.540775 0.500000 0.624264
O O10 0.268615 0.707303 0.500001
O O11 0.486109 0.741513 0.653314
O O12 0.678411 0.750047 0.642833
O O13 0.836805 0.231317 0.829608
O O14 0.080363 0.000000 0.902314
O O15 0.235409 0.235510 0.000001
O O16 0.043705 0.500000 0.375734
O O17 0.107082 0.249959 0.357168
O O18 0.471108 0.000000 0.097690
O O19 0.587486 0.000000 0.723298
O O20 0.500000 0.175989 0.500000
O O21 0.783486 0.000000 0.641741
#
# Coordination Sequence:
#
# PCOD8065743 Si02
#       8
#     4   4   4   4   4   4   4   4
#     4   7  10  19  38  65  95 125 158 197 245 304
#     4  10  21  34  49  74 105 138 182 230 269 308
#     4  10  21  37  56  77 104 139 176 214 260 317
#     4   8  14  26  45  70 101 134 168 213 269 323
#     4  10  21  37  56  77 104 139 176 214 260 317
#     4   8  14  26  45  70 101 134 168 213 269 323
#     4  10  21  34  49  74 105 138 182 230 269 308
#     4   9  17  32  57  86 111 133 162 206 261 317
#
# _framework density 19.347867000000001
#
# number of rings (size 3 to 8) (size 9 to 14) (size 15 to 20)
#    0.000    3.000    0.000    2.625    0.000    5.500 
#    0.000    7.500    0.000    0.750    0.000    1.750 
#    0.000    5.000    0.000    0.000    0.000    0.000 
#
# Total GULP energy -396571.616064 kJ/mol
# GULP energy per Si atom -12392.863002 kJ/mol
# Density = 1.930383 g / cm^3
# Si number density = 19.347867 Si / 1000 Ang^3
#
#
#
# Elastic Constant Matrix: (Units=GPa)
#
#
# Indices 1 2 3 4 5 6 
#
# 1 192.8962 59.4385 76.9104 0.0000 2.9657 0.0000
# 2 59.4385 60.0987 39.1963 0.0000 1.3620 0.0000
# 3 76.9104 39.1963 86.7109 0.0000 4.1811 0.0000
# 4 0.0000 0.0000 0.0000 10.8997 0.0000 0.5856
# 5 2.9657 1.3620 4.1811 0.0000 35.8851 0.0000
# 6 0.0000 0.0000 0.0000 0.5856 0.0000 19.6038
#
#
#
# Elastic Compliance Matrix: (Units=1/GPa)
#
#
# Indices 1 2 3 4 5 6 
#
# 1 0.009065 -0.005276 -0.005661 0.000000 0.000111 0.000000
# 2 -0.005276 0.026671 -0.007390 0.000000 0.000285 0.000000
# 3 -0.005661 -0.007390 0.019971 0.000000 -0.001578 0.000000
# 4 0.000000 0.000000 0.000000 0.091893 0.000000 -0.002745
# 5 0.000111 0.000285 -0.001578 0.000000 0.028031 0.000000
# 6 0.000000 0.000000 0.000000 -0.002745 0.000000 0.051092
#
#
# Mechanical properties :
#
#
# Convention : Reuss Voigt Hill
#
# Bulk Modulus (GPa) = 52.48764 76.75513 64.62139
# Shear Modulus (GPa) = 18.53718 24.22176 21.37947
#
# Velocity S-wave (km/s) = 3.09868 3.54207 3.32777
# Velocity P-wave (km/s) = 6.32374 7.51569 6.94533
#
# Compressibility (1/GPa) = 0.01905210
#
# Stress axis : x y z
#
# Youngs Moduli (GPa) = 110.31003 37.49417 50.07385
#
# Poissons Ratio (x) = 0.19782 0.28347
# Poissons Ratio (y) = 0.58201 0.37005
# Poissons Ratio (z) = 0.62448 0.27708
#
# Static dielectric constant tensor:
#      x y z
#    x 3.802390 0.000000 0.021340 
#    y 0.000000 3.088160 0.000000 
#    z 0.021340 0.000000 3.485250 
# 
# 
# High freq. dielectric constant tensor:
#      x y z
#    x 1.762010 0.000000 0.000810 
#    y 0.000000 1.702750 0.000000 
#    z 0.000810 0.000000 1.750020 
# 
# From -- ./inp_files/95027.got.cif
#   From: 2010.06.25/outbox.cif.g09.slc.cpg/sg10_48_cif.got.tgz:95027.got - 2010.06.27 22:07:45.
