data_PCOD8065740
_publ_section_title
;
Structure prediction by ZEFSAII (Michael W. Deem and Ramdas Pophale) SiO2 
 PCOD8065740
Probable space group: P 2/M
;
_chemical_formula_sum "Si O2"
_cell_formula_units_Z 28
_cell_length_a 12.488075
_cell_length_b 8.944409
_cell_length_c 16.018429
_cell_angle_alpha 90.000000
_cell_angle_beta 123.032534
_cell_angle_gamma 90.000000
_cell_volume 1500.024061
_symmetry_space_group_name_H-M "P 2/M"
_symmetry_group_IT_number 10
_symmetry_cell_setting 'monoclinic'
loop_
_space_group_symop_operation_xyz
x,y,z
-x,y,-z
-x,-y,-z
x,-y,z
loop_
_atom_site_type_symbol
_atom_site_label
_atom_site_fract_x
_atom_site_fract_y
_atom_site_fract_z
Si Si1 0.197449 0.676436 0.084441
Si Si2 0.828498 0.326618 0.516095
Si Si3 0.576736 0.171718 0.448330
Si Si4 0.997159 0.677304 0.134360
Si Si5 0.475880 0.323792 0.245756
Si Si6 0.044302 0.176212 0.707845
Si Si7 0.256439 0.329049 0.707381
O O1 0.190474 0.500000 0.080351
O O2 0.122292 0.728953 0.135570
O O3 0.344056 0.731618 0.147533
O O4 0.127437 0.732472 0.970632
O O5 0.843753 0.500000 0.545028
O O6 0.707769 0.262222 0.514700
O O7 0.808598 0.301581 0.409632
O O8 0.955205 0.240832 0.597144
O O9 0.500000 0.190709 0.500000
O O10 0.489796 0.237287 0.338067
O O11 0.609257 0.000000 0.442411
O O12 0.995461 0.500000 0.149381
O O13 0.000884 0.761295 0.223083
O O14 0.475088 0.500000 0.265698
O O15 0.593510 0.286167 0.233826
O O16 0.189219 0.225930 0.748166
O O17 0.034745 0.000000 0.705399
O O18 0.239495 0.500000 0.728369
#
# Coordination Sequence:
#
# PCOD8065740 Si02
#       7
#     4   4   4   4   4   4   4
#     4   8  16  34  60  85 106 134 178 227 272 318
#     4  10  21  37  57  78 103 141 186 227 267 312
#     4  10  21  34  48  76 116 147 176 214 259 320
#     4   9  18  35  58  83 109 138 177 224 270 320
#     4   9  18  34  57  81 104 138 183 225 269 319
#     4  12  24  35  52  79 112 144 180 221 271 328
#     4   9  19  36  55  77 105 139 183 227 267 317
#
# _framework density 18.666366
#
# number of rings (size 3 to 8) (size 9 to 14) (size 15 to 20)
#    0.000    2.429    0.000    4.286    2.000    5.714 
#    0.000    2.857    0.000    4.286    0.000    0.000 
#    0.000    0.000    0.000    0.000    0.000    0.000 
#
# Total GULP energy -347191.001237 kJ/mol
# GULP energy per Si atom -12399.678616 kJ/mol
# Density = 1.862388 g / cm^3
# Si number density = 18.666366 Si / 1000 Ang^3
#
#
#
# Elastic Constant Matrix: (Units=GPa)
#
#
# Indices 1 2 3 4 5 6 
#
# 1 101.5112 37.9091 42.8831 0.0000 16.5070 0.0000
# 2 37.9091 81.9975 22.5706 0.0000 -0.5563 0.0000
# 3 42.8831 22.5706 56.7545 0.0000 16.4651 0.0000
# 4 0.0000 0.0000 0.0000 2.6062 0.0000 3.9067
# 5 16.5070 -0.5563 16.4651 0.0000 28.5479 0.0000
# 6 0.0000 0.0000 0.0000 3.9067 0.0000 16.2909
#
#
#
# Elastic Compliance Matrix: (Units=1/GPa)
#
#
# Indices 1 2 3 4 5 6 
#
# 1 0.016249 -0.005058 -0.009021 0.000000 -0.004291 0.000000
# 2 -0.005058 0.015679 -0.004024 0.000000 0.005551 0.000000
# 3 -0.009021 -0.004024 0.029478 0.000000 -0.011864 0.000000
# 4 0.000000 0.000000 0.000000 0.599044 0.000000 -0.143655
# 5 -0.004291 0.005551 -0.011864 0.000000 0.044461 0.000000
# 6 0.000000 0.000000 0.000000 -0.143655 0.000000 0.095833
#
#
# Mechanical properties :
#
#
# Convention : Reuss Voigt Hill
#
# Bulk Modulus (GPa) = 39.68282 49.66544 44.67413
# Shear Modulus (GPa) = 5.91471 18.61571 12.26521
#
# Velocity S-wave (km/s) = 1.78200 3.16141 2.56613
# Velocity P-wave (km/s) = 5.05363 6.32382 5.72407
#
# Compressibility (1/GPa) = 0.02519982
#
# Stress axis : x y z
#
# Youngs Moduli (GPa) = 61.54336 63.77843 33.92363
#
# Poissons Ratio (x) = 0.32260 0.30602
# Poissons Ratio (y) = 0.31129 0.13651
# Poissons Ratio (z) = 0.55518 0.25665
#
# Static dielectric constant tensor:
#      x y z
#    x 3.712070 0.000000 0.324980 
#    y 0.000000 3.290440 0.000000 
#    z 0.324980 0.000000 3.510870 
# 
# 
# High freq. dielectric constant tensor:
#      x y z
#    x 1.735430 0.000000 0.007740 
#    y 0.000000 1.708180 0.000000 
#    z 0.007740 0.000000 1.710130 
# 
# From -- ./inp_files/49351.got.cif
#   From: 2010.06.25/outbox.cif.g09.slc.cpg/sg10_25_cif.got.tgz:49351.got - 2010.06.27 22:07:45.
