data_PCOD8065500
_publ_section_title
;
Structure prediction by ZEFSAII (Michael W. Deem and Ramdas Pophale) SiO2 
 PCOD8065500
Probable space group: P 2/M
;
_chemical_formula_sum "Si O2"
_cell_formula_units_Z 32
_cell_length_a 11.379872
_cell_length_b 14.513431
_cell_length_c 14.588779
_cell_angle_alpha 90.000000
_cell_angle_beta 39.017031
_cell_angle_gamma 90.000000
_cell_volume 1516.902219
_symmetry_space_group_name_H-M "P 2/M"
_symmetry_group_IT_number 10
_symmetry_cell_setting 'monoclinic'
loop_
_space_group_symop_operation_xyz
x,y,z
-x,y,-z
-x,-y,-z
x,-y,z
loop_
_atom_site_type_symbol
_atom_site_label
_atom_site_fract_x
_atom_site_fract_y
_atom_site_fract_z
Si Si1 0.791934 0.603121 0.143685
Si Si2 0.328916 0.768264 0.672141
Si Si3 0.469184 0.109106 0.747684
Si Si4 0.901801 0.106797 0.467851
Si Si5 0.888924 0.394970 0.476618
Si Si6 0.587688 0.224769 0.038825
Si Si7 0.476358 0.399073 0.197755
Si Si8 0.999531 0.755201 0.736720
O O1 0.802989 0.500000 0.178463
O O2 0.676870 0.665746 0.283638
O O3 0.683989 0.603565 0.112996
O O4 0.000000 0.642182 0.000000
O O5 0.500000 0.779252 0.500000
O O6 0.345901 0.843540 0.743109
O O7 0.136665 0.782888 0.735610
O O8 0.684650 0.133379 0.599008
O O9 0.414654 0.149361 0.879552
O O10 0.431746 0.000000 0.769816
O O11 0.010518 0.155810 0.320942
O O12 0.000000 0.142172 0.500000
O O13 0.934089 0.000000 0.433736
O O14 0.944030 0.500000 0.419091
O O15 0.669771 0.384853 0.630822
O O16 0.934085 0.333857 0.360678
O O17 0.000000 0.361792 0.500000
O O18 0.458764 0.314938 0.137504
O O19 0.500000 0.180005 0.000000
O O20 0.796296 0.261914 0.900355
O O21 0.439582 0.500000 0.173553
#
# Coordination Sequence:
#
# PCOD8065500 Si02
#       8
#     4   4   4   4   4   4   4   4
#     4  10  21  39  64  91 128 174 214 256 310 374
#     4  12  24  41  66  95 130 168 216 268 318 382
#     4  11  25  46  68  92 130 171 212 266 330 390
#     4  10  21  41  68  93 121 161 211 267 323 378
#     4  10  21  39  63  92 129 172 218 267 319 377
#     4  12  25  41  65  96 130 167 212 265 326 390
#     4  10  20  38  63  89 126 170 211 256 315 382
#     4  12  24  37  63  96 128 164 211 265 314 386
#
# _framework density 21.095624000000001
#
# number of rings (size 3 to 8) (size 9 to 14) (size 15 to 20)
#    0.000    1.125    2.500    4.125    0.000    3.000 
#    0.000    0.625    0.000    0.000    0.000    0.000 
#    0.000    0.000    0.000    0.000    0.000    0.000 
#
# Total GULP energy -396849.603994 kJ/mol
# GULP energy per Si atom -12401.550125 kJ/mol
# Density = 2.104761 g / cm^3
# Si number density = 21.095624 Si / 1000 Ang^3
#
#
#
# Elastic Constant Matrix: (Units=GPa)
#
#
# Indices 1 2 3 4 5 6 
#
# 1 116.1263 49.3821 22.3222 0.0000 9.3757 0.0000
# 2 49.3821 119.0186 51.7670 0.0000 17.6871 0.0000
# 3 22.3222 51.7670 88.7354 0.0000 5.8235 0.0000
# 4 0.0000 0.0000 0.0000 52.3465 0.0000 -5.5247
# 5 9.3757 17.6871 5.8235 0.0000 37.3905 0.0000
# 6 0.0000 0.0000 0.0000 -5.5247 0.0000 23.3318
#
#
#
# Elastic Compliance Matrix: (Units=1/GPa)
#
#
# Indices 1 2 3 4 5 6 
#
# 1 0.010471 -0.004186 -0.000151 0.000000 -0.000622 0.000000
# 2 -0.004186 0.013678 -0.006639 0.000000 -0.004387 0.000000
# 3 -0.000151 -0.006639 0.015126 0.000000 0.000822 0.000000
# 4 0.000000 0.000000 0.000000 0.019593 0.000000 0.004639
# 5 -0.000622 -0.004387 0.000822 0.000000 0.028848 0.000000
# 6 0.000000 0.000000 0.000000 0.004639 0.000000 0.043959
#
#
# Mechanical properties :
#
#
# Convention : Reuss Voigt Hill
#
# Bulk Modulus (GPa) = 57.72534 63.42477 60.57505
# Shear Modulus (GPa) = 31.36728 35.97436 33.67082
#
# Velocity S-wave (km/s) = 3.86023 4.13401 3.99946
# Velocity P-wave (km/s) = 6.87689 7.27443 7.07845
#
# Compressibility (1/GPa) = 0.01732341
#
# Stress axis : x y z
#
# Youngs Moduli (GPa) = 95.50405 73.10757 66.10932
#
# Poissons Ratio (x) = 0.30606 0.00998
# Poissons Ratio (y) = 0.39982 0.43889
# Poissons Ratio (z) = 0.01441 0.48535
#
# Static dielectric constant tensor:
#      x y z
#    x 4.048330 0.000000 0.067730 
#    y 0.000000 3.846510 0.000000 
#    z 0.067730 0.000000 4.013860 
# 
# 
# High freq. dielectric constant tensor:
#      x y z
#    x 1.833610 0.000000 -0.009660 
#    y 0.000000 1.830550 0.000000 
#    z -0.009660 0.000000 1.823170 
# 
# From -- ./inp_files/65062.got.cif
#   From: 2010.06.25/outbox.cif.g09.slc.cpg/sg10_33_cif.got.tgz:65062.got - 2010.06.27 22:07:45.
