data_PCOD8065514
_publ_section_title
;
Structure prediction by ZEFSAII (Michael W. Deem and Ramdas Pophale) SiO2 
 PCOD8065514
Probable space group: P 2/M
;
_chemical_formula_sum "Si O2"
_cell_formula_units_Z 28
_cell_length_a 12.118118
_cell_length_b 11.074987
_cell_length_c 23.408054
_cell_angle_alpha 90.000000
_cell_angle_beta 29.914174
_cell_angle_gamma 90.000000
_cell_volume 1566.696884
_symmetry_space_group_name_H-M "P 2/M"
_symmetry_group_IT_number 10
_symmetry_cell_setting 'monoclinic'
loop_
_space_group_symop_operation_xyz
x,y,z
-x,y,-z
-x,-y,-z
x,-y,z
loop_
_atom_site_type_symbol
_atom_site_label
_atom_site_fract_x
_atom_site_fract_y
_atom_site_fract_z
Si Si1 0.630780 0.640759 0.617467
Si Si2 0.815815 0.000000 0.406678
Si Si3 0.896399 0.360549 0.986652
Si Si4 0.196157 0.746548 0.759750
Si Si5 0.603932 0.361352 0.761314
Si Si6 0.745310 0.638669 0.381601
Si Si7 0.970084 0.251018 0.384772
Si Si8 0.693446 0.000000 0.332375
O O1 0.688719 0.500000 0.583496
O O2 0.409713 0.670216 0.682177
O O3 0.591995 0.674775 0.700454
O O4 0.832835 0.722197 0.504067
O O5 0.941641 0.115535 0.375289
O O6 0.825511 0.000000 0.333315
O O7 0.566010 0.000000 0.539820
O O8 0.960836 0.500000 0.946630
O O9 0.993390 0.277944 0.893030
O O10 0.634547 0.341250 0.103744
O O11 0.000000 0.317909 0.000000
O O12 0.129553 0.704976 0.726055
O O13 0.244325 0.888138 0.735746
O O14 0.680774 0.500000 0.733213
O O15 0.772288 0.274191 0.718760
O O16 0.500000 0.697287 0.500000
O O17 0.720542 0.500000 0.376915
O O18 0.886642 0.654644 0.375010
#
# Coordination Sequence:
#
# PCOD8065514 Si02
#       8
#     4   2   4   4   4   4   4   2
#     4  11  20  34  60  91 123 153 186 244 307 360
#     4  11  22  40  59  82 118 168 196 236 297 350
#     4  10  20  38  64  89 118 156 196 244 295 349
#     4  12  21  36  60  89 118 150 203 243 291 348
#     4  10  22  39  60  88 124 160 192 237 302 359
#     4  11  20  31  54  88 118 143 186 251 303 351
#     4  12  22  37  57  87 123 158 197 239 294 362
#     4  11  22  40  59  85 118 159 200 248 291 340
#
# _framework density 17.871995999999999
#
# number of rings (size 3 to 8) (size 9 to 14) (size 15 to 20)
#    0.000    1.000    5.714    3.000    0.000    1.143 
#    0.000    3.929    0.000    3.429    0.000    0.000 
#    0.000    0.000    0.000    0.000    0.000    0.000 
#
# Total GULP energy -347339.804148 kJ/mol
# GULP energy per Si atom -12404.993005 kJ/mol
# Density = 1.783132 g / cm^3
# Si number density = 17.871996 Si / 1000 Ang^3
#
#
#
# Elastic Constant Matrix: (Units=GPa)
#
#
# Indices 1 2 3 4 5 6 
#
# 1 70.9589 37.6193 39.4198 0.0000 2.0393 0.0000
# 2 37.6193 88.2562 38.9040 0.0000 2.1053 0.0000
# 3 39.4198 38.9040 106.7803 0.0000 9.3270 0.0000
# 4 0.0000 0.0000 0.0000 23.0444 0.0000 -5.0493
# 5 2.0393 2.1053 9.3270 0.0000 28.9492 0.0000
# 6 0.0000 0.0000 0.0000 -5.0493 0.0000 20.6402
#
#
#
# Elastic Compliance Matrix: (Units=1/GPa)
#
#
# Indices 1 2 3 4 5 6 
#
# 1 0.020379 -0.006385 -0.005260 0.000000 0.000724 0.000000
# 2 -0.006385 0.015510 -0.003328 0.000000 0.000394 0.000000
# 3 -0.005260 -0.003328 0.012827 0.000000 -0.003520 0.000000
# 4 0.000000 0.000000 0.000000 0.045852 0.000000 0.011217
# 5 0.000724 0.000394 -0.003520 0.000000 0.035598 0.000000
# 6 0.000000 0.000000 0.000000 0.011217 0.000000 0.051193
#
#
# Mechanical properties :
#
#
# Convention : Reuss Voigt Hill
#
# Bulk Modulus (GPa) = 53.27873 55.32019 54.29946
# Shear Modulus (GPa) = 22.98190 24.53026 23.75608
#
# Velocity S-wave (km/s) = 3.58986 3.70882 3.64982
# Velocity P-wave (km/s) = 6.85994 7.02575 6.94334
#
# Compressibility (1/GPa) = 0.01876922
#
# Stress axis : x y z
#
# Youngs Moduli (GPa) = 49.06962 64.47462 77.96101
#
# Poissons Ratio (x) = 0.41168 0.41009
# Poissons Ratio (y) = 0.31332 0.25946
# Poissons Ratio (z) = 0.25812 0.21458
#
# Static dielectric constant tensor:
#      x y z
#    x 3.299780 0.000000 0.108990 
#    y 0.000000 3.232930 0.000000 
#    z 0.108990 0.000000 3.258490 
# 
# 
# High freq. dielectric constant tensor:
#      x y z
#    x 1.692610 0.000000 0.010970 
#    y 0.000000 1.682570 0.000000 
#    z 0.010970 0.000000 1.681890 
# 
# From -- ./inp_files/83958.got.cif
#   From: 2010.06.25/outbox.cif.g09.slc.cpg/sg10_42_cif.got.tgz:83958.got - 2010.06.27 22:07:45.
