data_PCOD8065876
_publ_section_title
;
Structure prediction by ZEFSAII (Michael W. Deem and Ramdas Pophale) SiO2 
 PCOD8065876
Probable space group: P 2/M
;
_chemical_formula_sum "Si O2"
_cell_formula_units_Z 28
_cell_length_a 19.918517
_cell_length_b 9.010266
_cell_length_c 22.910069
_cell_angle_alpha 90.000000
_cell_angle_beta 20.044738
_cell_angle_gamma 90.000000
_cell_volume 1409.299366
_symmetry_space_group_name_H-M "P 2/M"
_symmetry_group_IT_number 10
_symmetry_cell_setting 'monoclinic'
loop_
_space_group_symop_operation_xyz
x,y,z
-x,y,-z
-x,-y,-z
x,-y,z
loop_
_atom_site_type_symbol
_atom_site_label
_atom_site_fract_x
_atom_site_fract_y
_atom_site_fract_z
Si Si1 0.954247 0.839212 0.476108
Si Si2 0.396364 0.170859 0.523376
Si Si3 0.666548 0.837585 0.904815
Si Si4 0.057537 0.176029 0.100699
Si Si5 0.644470 0.336340 0.658569
Si Si6 0.395493 0.677718 0.754244
Si Si7 0.256478 0.666099 0.043454
O O1 0.821574 0.756979 0.537977
O O2 0.000000 0.753559 0.500000
O O3 0.157083 0.867364 0.281112
O O4 0.856288 0.000000 0.570338
O O5 0.500000 0.194535 0.500000
O O6 0.522007 0.266933 0.374817
O O7 0.171115 0.222961 0.715523
O O8 0.403302 0.000000 0.497251
O O9 0.740579 0.728512 0.894239
O O10 0.596893 0.000000 0.986396
O O11 0.500000 0.763432 0.000000
O O12 0.130524 0.229016 0.104275
O O13 0.083208 0.000000 0.073625
O O14 0.183624 0.252671 0.945380
O O15 0.725614 0.500000 0.579215
O O16 0.554909 0.269602 0.672037
O O17 0.479994 0.339825 0.841876
O O18 0.369995 0.500000 0.775133
O O19 0.165548 0.500000 0.117024
#
# Coordination Sequence:
#
# PCOD8065876 Si02
#       7
#     4   4   4   4   4   4   4
#     4  10  21  35  53  78 106 142 187 235 286 340
#     4  10  23  42  64  92 125 162 206 254 304 364
#     4  10  21  36  54  78 109 146 191 239 291 350
#     4  10  21  39  64  91 121 160 205 251 303 360
#     4   9  20  37  55  79 109 145 186 231 285 346
#     4  10  22  40  62  91 126 162 202 248 306 367
#     4  10  21  37  57  82 113 148 190 239 295 355
#
# _framework density 19.868030000000001
#
# number of rings (size 3 to 8) (size 9 to 14) (size 15 to 20)
#    0.000    2.143    0.000    3.000    2.000    7.714 
#    0.000    2.857    0.000    0.000    0.000    0.000 
#    0.000    0.000    0.000    0.000    0.000    0.000 
#
# Total GULP energy -347024.715893 kJ/mol
# GULP energy per Si atom -12393.739853 kJ/mol
# Density = 1.982281 g / cm^3
# Si number density = 19.868030 Si / 1000 Ang^3
#
#
#
# Elastic Constant Matrix: (Units=GPa)
#
#
# Indices 1 2 3 4 5 6 
#
# 1 100.1049 36.7813 59.2966 0.0000 2.7010 0.0000
# 2 36.7813 81.5343 47.3258 0.0000 2.4120 0.0000
# 3 59.2966 47.3258 113.1049 0.0000 -5.1098 0.0000
# 4 0.0000 0.0000 0.0000 13.3507 0.0000 9.7929
# 5 2.7010 2.4120 -5.1098 0.0000 35.5944 0.0000
# 6 0.0000 0.0000 0.0000 9.7929 0.0000 22.4178
#
#
#
# Elastic Compliance Matrix: (Units=1/GPa)
#
#
# Indices 1 2 3 4 5 6 
#
# 1 0.015124 -0.002790 -0.006850 0.000000 -0.001942 0.000000
# 2 -0.002790 0.016869 -0.005675 0.000000 -0.001746 0.000000
# 3 -0.006850 -0.005675 0.014945 0.000000 0.003050 0.000000
# 4 0.000000 0.000000 0.000000 0.110220 0.000000 -0.048148
# 5 -0.001942 -0.001746 0.003050 0.000000 0.028798 0.000000
# 6 0.000000 0.000000 0.000000 -0.048148 0.000000 0.065640
#
#
# Mechanical properties :
#
#
# Convention : Reuss Voigt Hill
#
# Bulk Modulus (GPa) = 61.31284 64.61682 62.96483
# Shear Modulus (GPa) = 17.38164 24.36195 20.87180
#
# Velocity S-wave (km/s) = 2.96100 3.50550 3.24469
# Velocity P-wave (km/s) = 6.52818 6.99845 6.76740
#
# Compressibility (1/GPa) = 0.01630980
#
# Stress axis : x y z
#
# Youngs Moduli (GPa) = 66.11940 59.28158 66.91420
#
# Poissons Ratio (x) = 0.16537 0.45833
# Poissons Ratio (y) = 0.18444 0.37972
# Poissons Ratio (z) = 0.45289 0.33640
#
# Static dielectric constant tensor:
#      x y z
#    x 3.191870 0.000000 -0.522590 
#    y 0.000000 3.716610 0.000000 
#    z -0.522590 0.000000 3.066170 
# 
# 
# High freq. dielectric constant tensor:
#      x y z
#    x 1.776270 0.000000 0.000710 
#    y 0.000000 1.770730 0.000000 
#    z 0.000710 0.000000 1.779430 
# 
# From -- ./inp_files/90375.got.cif
#   From: 2010.06.25/outbox.cif.g09.slc.cpg/sg10_46_cif.got.tgz:90375.got - 2010.06.27 22:07:45.
