data_PCOD8065027
_publ_section_title
;
Structure prediction by ZEFSAII (Michael W. Deem and Ramdas Pophale) SiO2 
 PCOD8065027
Probable space group: P 2/M
;
_chemical_formula_sum "Si O2"
_cell_formula_units_Z 26
_cell_length_a 13.366039
_cell_length_b 11.814295
_cell_length_c 9.029635
_cell_angle_alpha 90.000000
_cell_angle_beta 58.916847
_cell_angle_gamma 90.000000
_cell_volume 1221.144301
_symmetry_space_group_name_H-M "P 2/M"
_symmetry_group_IT_number 10
_symmetry_cell_setting 'monoclinic'
loop_
_space_group_symop_operation_xyz
x,y,z
-x,y,-z
-x,-y,-z
x,-y,z
loop_
_atom_site_type_symbol
_atom_site_label
_atom_site_fract_x
_atom_site_fract_y
_atom_site_fract_z
Si Si1 0.031399 0.633104 0.814251
Si Si2 0.218334 0.239558 0.516585
Si Si3 0.112804 0.000000 0.307483
Si Si4 0.606787 0.631102 0.030155
Si Si5 0.499394 0.000000 0.179424
Si Si6 0.247181 0.000000 0.483381
Si Si7 0.489791 0.775327 0.334380
Si Si8 0.842127 0.245155 0.769620
O O1 0.031783 0.500000 0.813244
O O2 0.162710 0.673519 0.674824
O O3 0.938727 0.674084 0.765138
O O4 0.000000 0.680796 0.000000
O O5 0.194105 0.112366 0.599368
O O6 0.356569 0.253290 0.390358
O O7 0.150215 0.253076 0.413808
O O8 0.126020 0.884069 0.201656
O O9 0.000000 0.000000 0.500000
O O10 0.226179 0.000000 0.323509
O O11 0.645921 0.500000 0.997326
O O12 0.562828 0.664842 0.228369
O O13 0.500000 0.654781 0.000000
O O14 0.714613 0.712466 0.912179
O O15 0.551285 0.880353 0.196837
O O16 0.385511 0.000000 0.372967
O O17 0.500000 0.000000 0.000000
O O18 0.500000 0.796269 0.500000
#
# Coordination Sequence:
#
# PCOD8065027 Si02
#       8
#     4   4   2   4   2   2   4   4
#     4  11  26  44  64  91 126 169 219 277 334 390
#     4  10  21  41  65  92 127 169 217 270 329 393
#     4  10  20  36  64  99 126 159 206 267 331 393
#     4  11  24  42  64  96 135 175 230 280 321 393
#     4  10  21  37  67  94 130 172 218 269 322 385
#     4   8  18  35  59  93 123 158 201 260 316 380
#     4  11  24  40  64  97 137 177 219 270 336 401
#     4  11  22  42  69  97 127 168 218 272 335 395
#
# _framework density 21.291505000000001
#
# number of rings (size 3 to 8) (size 9 to 14) (size 15 to 20)
#    0.000    1.538    1.538    3.462    6.462    2.769 
#    0.000    1.923    0.000    0.000    0.000    0.000 
#    0.000    0.000    0.000    0.000    0.000    0.000 
#
# Total GULP energy -322133.478292 kJ/mol
# GULP energy per Si atom -12389.749165 kJ/mol
# Density = 2.124304 g / cm^3
# Si number density = 21.291505 Si / 1000 Ang^3
#
#
#
# Elastic Constant Matrix: (Units=GPa)
#
#
# Indices 1 2 3 4 5 6 
#
# 1 62.5749 35.5460 27.0400 0.0000 -6.4865 0.0000
# 2 35.5460 122.2093 73.0276 0.0000 -13.7632 0.0000
# 3 27.0400 73.0276 112.8756 0.0000 -0.8550 0.0000
# 4 0.0000 0.0000 0.0000 38.5399 0.0000 -6.6378
# 5 -6.4865 -13.7632 -0.8550 0.0000 34.3134 0.0000
# 6 0.0000 0.0000 0.0000 -6.6378 0.0000 25.2279
#
#
#
# Elastic Compliance Matrix: (Units=1/GPa)
#
#
# Indices 1 2 3 4 5 6 
#
# 1 0.019437 -0.004348 -0.001829 0.000000 0.001884 0.000000
# 2 -0.004348 0.015284 -0.008808 0.000000 0.005089 0.000000
# 3 -0.001829 -0.008808 0.014969 0.000000 -0.003506 0.000000
# 4 0.000000 0.000000 0.000000 0.027179 0.000000 0.007151
# 5 0.001884 0.005089 -0.003506 0.000000 0.031453 0.000000
# 6 0.000000 0.000000 0.000000 0.007151 0.000000 0.041520
#
#
# Mechanical properties :
#
#
# Convention : Reuss Voigt Hill
#
# Bulk Modulus (GPa) = 50.71056 63.20965 56.96010
# Shear Modulus (GPa) = 26.82614 30.41933 28.62274
#
# Velocity S-wave (km/s) = 3.55342 3.78393 3.67048
# Velocity P-wave (km/s) = 6.38003 6.98877 6.69133
#
# Compressibility (1/GPa) = 0.01971976
#
# Stress axis : x y z
#
# Youngs Moduli (GPa) = 51.44958 65.42801 66.80298
#
# Poissons Ratio (x) = 0.28451 0.12215
# Poissons Ratio (y) = 0.22373 0.58841
# Poissons Ratio (z) = 0.09408 0.57630
#
# Static dielectric constant tensor:
#      x y z
#    x 3.825500 0.000000 -0.099870 
#    y 0.000000 4.248300 0.000000 
#    z -0.099870 0.000000 3.678120 
# 
# 
# High freq. dielectric constant tensor:
#      x y z
#    x 1.826760 0.000000 -0.014300 
#    y 0.000000 1.849350 0.000000 
#    z -0.014300 0.000000 1.816910 
# 
# From -- ./inp_files/28154.got.cif
#   From: 2010.06.25/outbox.cif.g09.slc.cpg/sg10_15_cif.got.tgz:28154.got - 2010.06.27 22:07:45.
