data_PCOD8065182
_publ_section_title
;
Structure prediction by ZEFSAII (Michael W. Deem and Ramdas Pophale) SiO2 
 PCOD8065182
Probable space group: P 2/M
;
_chemical_formula_sum "Si O2"
_cell_formula_units_Z 28
_cell_length_a 9.033791
_cell_length_b 13.802096
_cell_length_c 10.844507
_cell_angle_alpha 90.000000
_cell_angle_beta 72.796811
_cell_angle_gamma 90.000000
_cell_volume 1291.657451
_symmetry_space_group_name_H-M "P 2/M"
_symmetry_group_IT_number 10
_symmetry_cell_setting 'monoclinic'
loop_
_space_group_symop_operation_xyz
x,y,z
-x,y,-z
-x,-y,-z
x,-y,z
loop_
_atom_site_type_symbol
_atom_site_label
_atom_site_fract_x
_atom_site_fract_y
_atom_site_fract_z
Si Si1 0.655722 0.735765 0.534566
Si Si2 0.161948 0.608510 0.904002
Si Si3 0.674224 0.263440 0.966253
Si Si4 0.269099 0.611499 0.269931
Si Si5 0.090923 0.394978 0.638494
Si Si6 0.938665 0.113087 0.875906
Si Si7 0.883762 0.887021 0.418212
O O1 0.500000 0.713648 0.500000
O O2 0.630999 0.690793 0.676577
O O3 0.810260 0.683379 0.453158
O O4 0.712771 0.845889 0.498985
O O5 0.207028 0.500000 0.939037
O O6 0.139129 0.608942 0.766409
O O7 0.287994 0.691093 0.908470
O O8 0.000000 0.643382 0.000000
O O9 0.700769 0.359072 0.877430
O O10 0.781682 0.174042 0.899339
O O11 0.500000 0.223911 0.000000
O O12 0.323773 0.500000 0.277759
O O13 0.088300 0.624454 0.342899
O O14 0.135457 0.500000 0.572814
O O15 0.054474 0.146074 0.734743
O O16 0.898206 0.000000 0.868963
O O17 0.000000 0.132287 0.000000
O O18 0.000000 0.857961 0.500000
O O19 0.856400 0.000000 0.419795
#
# Coordination Sequence:
#
# PCOD8065182 Si02
#       7
#     4   4   4   4   4   4   4
#     4  12  26  39  60  93 129 163 205 255 328 378
#     4  10  20  37  60  87 116 159 213 256 298 362
#     4  12  25  37  61  94 130 167 201 253 326 381
#     4  11  24  43  63  89 125 170 220 264 305 366
#     4  10  21  39  62  83 114 164 215 258 298 358
#     4  10  23  43  69  97 125 164 216 268 317 378
#     4  10  22  44  72  95 121 165 218 266 314 381
#
# _framework density 21.677575999999998
#
# number of rings (size 3 to 8) (size 9 to 14) (size 15 to 20)
#    0.000    1.286    1.429    4.286    4.000    4.000 
#    0.000    0.000    0.000    5.143    0.000    0.000 
#    0.000    0.000    0.000    0.000    0.000    0.000 
#
# Total GULP energy -346960.364965 kJ/mol
# GULP energy per Si atom -12391.441606 kJ/mol
# Density = 2.162824 g / cm^3
# Si number density = 21.677576 Si / 1000 Ang^3
#
#
#
# Elastic Constant Matrix: (Units=GPa)
#
#
# Indices 1 2 3 4 5 6 
#
# 1 100.9032 46.3197 18.8203 0.0000 15.9857 0.0000
# 2 46.3197 85.5776 29.2242 0.0000 2.4737 0.0000
# 3 18.8203 29.2242 69.3991 0.0000 15.6413 0.0000
# 4 0.0000 0.0000 0.0000 25.6692 0.0000 2.7674
# 5 15.9857 2.4737 15.6413 0.0000 24.8182 0.0000
# 6 0.0000 0.0000 0.0000 2.7674 0.0000 28.7830
#
#
#
# Elastic Compliance Matrix: (Units=1/GPa)
#
#
# Indices 1 2 3 4 5 6 
#
# 1 0.015036 -0.008436 0.001711 0.000000 -0.009922 0.000000
# 2 -0.008436 0.018530 -0.007371 0.000000 0.008232 0.000000
# 3 0.001711 -0.007371 0.019968 0.000000 -0.012952 0.000000
# 4 0.000000 0.000000 0.000000 0.039365 0.000000 -0.003785
# 5 -0.009922 0.008232 -0.012952 0.000000 0.054027 0.000000
# 6 0.000000 0.000000 0.000000 -0.003785 0.000000 0.035107
#
#
# Mechanical properties :
#
#
# Convention : Reuss Voigt Hill
#
# Bulk Modulus (GPa) = 39.45776 49.40093 44.42935
# Shear Modulus (GPa) = 22.86533 26.62180 24.74357
#
# Velocity S-wave (km/s) = 3.25128 3.50820 3.38218
# Velocity P-wave (km/s) = 5.68648 6.26485 5.98266
#
# Compressibility (1/GPa) = 0.02534356
#
# Stress axis : x y z
#
# Youngs Moduli (GPa) = 66.50837 53.96556 50.07898
#
# Poissons Ratio (x) = 0.45524 -0.08569
# Poissons Ratio (y) = 0.56105 0.36912
# Poissons Ratio (z) = -0.11380 0.39777
#
# Static dielectric constant tensor:
#      x y z
#    x 3.722650 0.000000 0.235860 
#    y 0.000000 4.370170 0.000000 
#    z 0.235860 0.000000 4.572420 
# 
# 
# High freq. dielectric constant tensor:
#      x y z
#    x 1.834660 0.000000 0.020940 
#    y 0.000000 1.858720 0.000000 
#    z 0.020940 0.000000 1.861760 
# 
# From -- ./inp_files/42675.got.cif
#   From: 2010.06.25/outbox.cif.g09.slc.cpg/sg10_22_cif.got.tgz:42675.got - 2010.06.27 22:07:45.
