data_PCOD8065285
_publ_section_title
;
Structure prediction by ZEFSAII (Michael W. Deem and Ramdas Pophale) SiO2 
 PCOD8065285
Probable space group: P 2/M
;
_chemical_formula_sum "Si O2"
_cell_formula_units_Z 32
_cell_length_a 12.273911
_cell_length_b 13.517230
_cell_length_c 16.683018
_cell_angle_alpha 90.000000
_cell_angle_beta 36.775005
_cell_angle_gamma 90.000000
_cell_volume 1657.050917
_symmetry_space_group_name_H-M "P 2/M"
_symmetry_group_IT_number 10
_symmetry_cell_setting 'monoclinic'
loop_
_space_group_symop_operation_xyz
x,y,z
-x,y,-z
-x,-y,-z
x,-y,z
loop_
_atom_site_type_symbol
_atom_site_label
_atom_site_fract_x
_atom_site_fract_y
_atom_site_fract_z
Si Si1 0.923772 0.887053 0.129891
Si Si2 0.109067 0.614075 0.654212
Si Si3 0.667316 0.274408 0.347220
Si Si4 0.841163 0.232851 0.757890
Si Si5 0.875775 0.890390 0.495386
Si Si6 0.589401 0.774573 0.754786
Si Si7 0.451626 0.386926 0.343554
Si Si8 0.723733 0.886079 0.973129
O O1 0.751879 0.821542 0.255602
O O2 0.077413 0.877180 0.106644
O O3 0.856263 0.000000 0.161582
O O4 0.000000 0.849143 0.000000
O O5 0.074734 0.500000 0.695332
O O6 0.183323 0.667819 0.689289
O O7 0.247762 0.625153 0.498250
O O8 0.914326 0.661792 0.746031
O O9 0.500000 0.237087 0.500000
O O10 0.598169 0.350750 0.321524
O O11 0.723035 0.251284 0.748744
O O12 0.715785 0.176318 0.895891
O O13 0.018991 0.165881 0.637047
O O14 0.689061 0.835380 0.625736
O O15 0.000000 0.896197 0.500000
O O16 0.829979 0.000000 0.490775
O O17 0.525240 0.672043 0.753304
O O18 0.420781 0.840799 0.880605
O O19 0.495103 0.500000 0.297870
O O20 0.671749 0.000000 0.985950
#
# Coordination Sequence:
#
# PCOD8065285 Si02
#       8
#     4   4   4   4   4   4   4   4
#     4  10  21  38  60  87 122 160 193 234 295 356
#     4  10  20  37  62  89 116 152 198 248 300 349
#     4  10  20  38  64  89 116 148 196 249 294 347
#     4  11  21  37  57  87 119 157 196 243 294 349
#     4   9  18  33  54  81 114 149 192 243 288 338
#     4  11  22  36  58  86 120 155 200 242 290 350
#     4  10  21  38  62  90 118 152 196 249 303 351
#     4  11  23  39  60  86 121 164 200 236 290 357
#
# _framework density 19.311416000000001
#
# number of rings (size 3 to 8) (size 9 to 14) (size 15 to 20)
#    0.000    1.750    2.500    2.250    0.000    4.250 
#    0.000    2.500    0.000    3.000    0.000    0.000 
#    0.000    0.000    0.000    0.000    0.000    0.000 
#
# Total GULP energy -396948.986034 kJ/mol
# GULP energy per Si atom -12404.655814 kJ/mol
# Density = 1.926746 g / cm^3
# Si number density = 19.311416 Si / 1000 Ang^3
#
#
#
# Elastic Constant Matrix: (Units=GPa)
#
#
# Indices 1 2 3 4 5 6 
#
# 1 67.3907 31.3995 10.6244 0.0000 7.6574 0.0000
# 2 31.3995 129.1611 51.8010 0.0000 2.7748 0.0000
# 3 10.6244 51.8010 84.5087 0.0000 8.2632 0.0000
# 4 0.0000 0.0000 0.0000 33.8568 0.0000 2.6640
# 5 7.6574 2.7748 8.2632 0.0000 25.9474 0.0000
# 6 0.0000 0.0000 0.0000 2.6640 0.0000 26.0273
#
#
#
# Elastic Compliance Matrix: (Units=1/GPa)
#
#
# Indices 1 2 3 4 5 6 
#
# 1 0.017353 -0.004551 0.001095 0.000000 -0.004983 0.000000
# 2 -0.004551 0.011481 -0.006685 0.000000 0.002244 0.000000
# 3 0.001095 -0.006685 0.016261 0.000000 -0.004787 0.000000
# 4 0.000000 0.000000 0.000000 0.029776 0.000000 -0.003048
# 5 -0.004983 0.002244 -0.004787 0.000000 0.041295 0.000000
# 6 0.000000 0.000000 0.000000 -0.003048 0.000000 0.038733
#
#
# Mechanical properties :
#
#
# Convention : Reuss Voigt Hill
#
# Bulk Modulus (GPa) = 40.29970 52.07892 46.18931
# Shear Modulus (GPa) = 27.25516 29.64868 28.45192
#
# Velocity S-wave (km/s) = 3.76087 3.92253 3.84255
# Velocity P-wave (km/s) = 6.30654 6.89503 6.60734
#
# Compressibility (1/GPa) = 0.02481408
#
# Stress axis : x y z
#
# Youngs Moduli (GPa) = 57.62792 87.09725 61.49614
#
# Poissons Ratio (x) = 0.39635 -0.06734
# Poissons Ratio (y) = 0.26224 0.41110
# Poissons Ratio (z) = -0.06311 0.58225
#
# Static dielectric constant tensor:
#      x y z
#    x 3.428130 0.000000 0.051400 
#    y 0.000000 3.578080 0.000000 
#    z 0.051400 0.000000 3.420260 
# 
# 
# High freq. dielectric constant tensor:
#      x y z
#    x 1.753170 0.000000 0.003060 
#    y 0.000000 1.752880 0.000000 
#    z 0.003060 0.000000 1.741080 
# 
# From -- ./inp_files/76965.got.cif
#   From: 2010.06.25/outbox.cif.g09.slc.cpg/sg10_39_cif.got.tgz:76965.got - 2010.06.27 22:07:45.
