data_PCOD8065703
_publ_section_title
;
Structure prediction by ZEFSAII (Michael W. Deem and Ramdas Pophale) SiO2 
 PCOD8065703
Probable space group: P 2/M
;
_chemical_formula_sum "Si O2"
_cell_formula_units_Z 26
_cell_length_a 9.243371
_cell_length_b 19.366121
_cell_length_c 9.387683
_cell_angle_alpha 90.000000
_cell_angle_beta 47.665991
_cell_angle_gamma 90.000000
_cell_volume 1242.258273
_symmetry_space_group_name_H-M "P 2/M"
_symmetry_group_IT_number 10
_symmetry_cell_setting 'monoclinic'
loop_
_space_group_symop_operation_xyz
x,y,z
-x,y,-z
-x,-y,-z
x,-y,z
loop_
_atom_site_type_symbol
_atom_site_label
_atom_site_fract_x
_atom_site_fract_y
_atom_site_fract_z
Si Si1 0.510283 0.864273 0.154343
Si Si2 0.500000 0.358806 0.500000
Si Si3 0.557708 0.294596 0.757871
Si Si4 0.090011 0.421088 0.789612
Si Si5 0.066036 0.173479 0.111123
Si Si6 0.176681 0.684467 0.174016
Si Si7 0.859540 0.079354 0.462947
O O1 0.439690 0.786039 0.212521
O O2 0.368460 0.910666 0.345447
O O3 0.500000 0.891214 0.000000
O O4 0.736242 0.870036 0.049751
O O5 0.563115 0.309046 0.587077
O O6 0.320381 0.408755 0.651813
O O7 0.753047 0.322245 0.707974
O O8 0.363906 0.330480 0.949684
O O9 0.049802 0.500000 0.773082
O O10 0.990310 0.372544 0.737692
O O11 0.000000 0.401569 0.000000
O O12 0.094606 0.239472 0.193653
O O13 0.907800 0.124424 0.291498
O O14 0.000000 0.199973 0.000000
O O15 0.000000 0.102583 0.500000
O O16 0.896034 0.000000 0.399740
#
# Coordination Sequence:
#
# PCOD8065703 Si02
#       7
#     4   2   4   4   4   4   4
#     4  11  21  42  64  93 130 170 216 274 325 373
#     4  12  25  40  66 100 127 166 214 270 323 382
#     4  10  21  39  66  97 129 159 220 271 318 384
#     4  11  24  43  65  94 134 173 213 264 323 383
#     4  11  24  41  67  97 133 168 217 274 326 383
#     4  10  20  43  65  93 127 173 213 265 323 380
#     4  11  24  41  66  99 129 173 225 262 322 396
#
# _framework density 20.929625000000001
#
# number of rings (size 3 to 8) (size 9 to 14) (size 15 to 20)
#    0.000    1.231    6.154    0.692    4.308    2.462 
#    0.000    4.615    0.000    0.000    0.000    0.000 
#    0.000    0.000    0.000    0.000    0.000    0.000 
#
# Total GULP energy -322446.880512 kJ/mol
# GULP energy per Si atom -12401.803097 kJ/mol
# Density = 2.088199 g / cm^3
# Si number density = 20.929625 Si / 1000 Ang^3
#
#
#
# Elastic Constant Matrix: (Units=GPa)
#
#
# Indices 1 2 3 4 5 6 
#
# 1 126.2195 39.3008 53.2664 0.0000 7.6135 0.0000
# 2 39.3008 80.2220 38.7618 0.0000 1.3427 0.0000
# 3 53.2664 38.7618 105.7737 0.0000 -0.6277 0.0000
# 4 0.0000 0.0000 0.0000 16.9174 0.0000 -3.4717
# 5 7.6135 1.3427 -0.6277 0.0000 44.3959 0.0000
# 6 0.0000 0.0000 0.0000 -3.4717 0.0000 23.1510
#
#
#
# Elastic Compliance Matrix: (Units=1/GPa)
#
#
# Indices 1 2 3 4 5 6 
#
# 1 0.010844 -0.003206 -0.004297 0.000000 -0.001823 0.000000
# 2 -0.003206 0.016108 -0.004289 0.000000 0.000002 0.000000
# 3 -0.004297 -0.004289 0.013196 0.000000 0.001053 0.000000
# 4 0.000000 0.000000 0.000000 0.060987 0.000000 0.009146
# 5 -0.001823 0.000002 0.001053 0.000000 0.022852 0.000000
# 6 0.000000 0.000000 0.000000 0.009146 0.000000 0.044566
#
#
# Mechanical properties :
#
#
# Convention : Reuss Voigt Hill
#
# Bulk Modulus (GPa) = 60.36672 63.87478 62.12075
# Shear Modulus (GPa) = 25.29613 28.95195 27.12404
#
# Velocity S-wave (km/s) = 3.48030 3.72331 3.60386
# Velocity P-wave (km/s) = 6.71233 7.00494 6.86019
#
# Compressibility (1/GPa) = 0.01656542
#
# Stress axis : x y z
#
# Youngs Moduli (GPa) = 92.21414 62.08071 75.78095
#
# Poissons Ratio (x) = 0.19902 0.32564
# Poissons Ratio (y) = 0.29562 0.32499
# Poissons Ratio (z) = 0.39625 0.26623
#
# Static dielectric constant tensor:
#      x y z
#    x 3.894780 0.000000 -0.181510 
#    y 0.000000 3.453800 0.000000 
#    z -0.181510 0.000000 3.908740 
# 
# 
# High freq. dielectric constant tensor:
#      x y z
#    x 1.824130 0.000000 -0.010270 
#    y 0.000000 1.796700 0.000000 
#    z -0.010270 0.000000 1.823530 
# 
# From -- ./inp_files/20434.got.cif
#   From: 2010.06.25/outbox.cif.g09.slc.cpg/sg10_11_cif.got.tgz:20434.got - 2010.06.27 22:07:45.
