data_PCOD8065417
_publ_section_title
;
Structure prediction by ZEFSAII (Michael W. Deem and Ramdas Pophale) SiO2 
 PCOD8065417
Probable space group: P 2/M
;
_chemical_formula_sum "Si O2"
_cell_formula_units_Z 28
_cell_length_a 9.453834
_cell_length_b 11.164944
_cell_length_c 14.844133
_cell_angle_alpha 90.000000
_cell_angle_beta 63.419966
_cell_angle_gamma 90.000000
_cell_volume 1401.223942
_symmetry_space_group_name_H-M "P 2/M"
_symmetry_group_IT_number 10
_symmetry_cell_setting 'monoclinic'
loop_
_space_group_symop_operation_xyz
x,y,z
-x,y,-z
-x,-y,-z
x,-y,z
loop_
_atom_site_type_symbol
_atom_site_label
_atom_site_fract_x
_atom_site_fract_y
_atom_site_fract_z
Si Si1 0.067693 0.240878 0.746083
Si Si2 0.369514 0.127027 0.711763
Si Si3 0.855354 0.362517 0.096402
Si Si4 0.466441 0.366768 0.405301
Si Si5 0.724264 0.136719 0.876843
Si Si6 0.395525 0.191849 0.897820
Si Si7 0.886720 0.636520 0.456882
O O1 0.187472 0.131269 0.730235
O O2 0.114544 0.341224 0.806295
O O3 0.103409 0.289223 0.637007
O O4 0.886655 0.201355 0.805073
O O5 0.456145 0.251786 0.663990
O O6 0.376025 0.106864 0.817156
O O7 0.439206 0.000000 0.651697
O O8 0.851065 0.500000 0.075698
O O9 0.686969 0.316195 0.107404
O O10 0.000000 0.301277 0.000000
O O11 0.500000 0.358792 0.500000
O O12 0.524564 0.500000 0.352843
O O13 0.280649 0.355745 0.445944
O O14 0.581284 0.208844 0.868970
O O15 0.726025 0.000000 0.841413
O O16 0.696998 0.134636 0.991691
O O17 0.933414 0.500000 0.420509
O O18 0.000000 0.693138 0.500000
#
# Coordination Sequence:
#
# PCOD8065417 Si02
#       7
#     4   4   4   4   4   4   4
#     4  11  22  38  62  90 122 162 205 251 308 370
#     4  11  23  38  62  95 125 158 206 257 308 365
#     4  10  20  38  60  88 124 158 198 251 306 364
#     4  10  21  41  65  88 117 159 204 249 305 368
#     4  11  22  40  61  84 122 164 204 249 303 367
#     4  10  22  40  61  87 119 164 207 247 301 367
#     4  10  22  41  63  88 118 158 207 255 304 370
#
# _framework density 19.982530000000001
#
# number of rings (size 3 to 8) (size 9 to 14) (size 15 to 20)
#    0.000    1.571    2.857    2.571    2.000    2.571 
#    0.000    5.000    0.000    2.143    0.000    0.000 
#    0.000    0.000    0.000    0.000    0.000    0.000 
#
# Total GULP energy -346904.690307 kJ/mol
# GULP energy per Si atom -12389.453225 kJ/mol
# Density = 1.993705 g / cm^3
# Si number density = 19.982530 Si / 1000 Ang^3
#
#
#
# Elastic Constant Matrix: (Units=GPa)
#
#
# Indices 1 2 3 4 5 6 
#
# 1 146.2721 51.6984 41.8082 0.0000 -1.2135 0.0000
# 2 51.6984 134.0513 46.7728 0.0000 -7.4944 0.0000
# 3 41.8082 46.7728 79.0792 0.0000 3.2555 0.0000
# 4 0.0000 0.0000 0.0000 12.2371 0.0000 -16.6106
# 5 -1.2135 -7.4944 3.2555 0.0000 35.9449 0.0000
# 6 0.0000 0.0000 0.0000 -16.6106 0.0000 -7.5195
#
#
#
# Elastic Compliance Matrix: (Units=1/GPa)
#
#
# Indices 1 2 3 4 5 6 
#
# 1 0.008523 -0.002149 -0.003241 0.000000 0.000133 0.000000
# 2 -0.002149 0.010166 -0.004979 0.000000 0.002498 0.000000
# 3 -0.003241 -0.004979 0.017416 0.000000 -0.002725 0.000000
# 4 0.000000 0.000000 0.000000 0.020437 0.000000 -0.045146
# 5 0.000133 0.002498 -0.002725 0.000000 0.028592 0.000000
# 6 0.000000 0.000000 0.000000 -0.045146 0.000000 -0.033259
#
#
# Mechanical properties :
#
#
# Convention : Reuss Voigt Hill
#
# Bulk Modulus (GPa) = 65.07343 71.10681 68.09012
# Shear Modulus (GPa) = 64.32020 22.74071 43.53046
#
# Velocity S-wave (km/s) = 5.67962 3.37713 4.67242
# Velocity P-wave (km/s) = 8.69751 7.13221 7.95346
#
# Compressibility (1/GPa) = 0.01536725
#
# Stress axis : x y z
#
# Youngs Moduli (GPa) = 117.32291 98.37052 57.41798
#
# Poissons Ratio (x) = 0.21140 0.18607
# Poissons Ratio (y) = 0.25213 0.28590
# Poissons Ratio (z) = 0.38021 0.48982
#
# Static dielectric constant tensor:
#      x y z
#    x 3.828620 0.000000 0.108280 
#    y 0.000000 3.565700 0.000000 
#    z 0.108280 0.000000 3.173410 
# 
# 
# High freq. dielectric constant tensor:
#      x y z
#    x 1.793430 0.000000 0.000410 
#    y 0.000000 1.770890 0.000000 
#    z 0.000410 0.000000 1.773310 
# 
# From -- ./inp_files/61133.got.cif
#   From: 2010.06.25/outbox.cif.g09.slc.cpg/sg10_31_cif.got.tgz:61133.got - 2010.06.27 22:07:45.
