data_PCOD8065319
_publ_section_title
;
Structure prediction by ZEFSAII (Michael W. Deem and Ramdas Pophale) SiO2 
 PCOD8065319
Probable space group: P 2/M
;
_chemical_formula_sum "Si O2"
_cell_formula_units_Z 28
_cell_length_a 7.919029
_cell_length_b 9.068302
_cell_length_c 27.481602
_cell_angle_alpha 90.000000
_cell_angle_beta 43.948507
_cell_angle_gamma 90.000000
_cell_volume 1369.640803
_symmetry_space_group_name_H-M "P 2/M"
_symmetry_group_IT_number 10
_symmetry_cell_setting 'monoclinic'
loop_
_space_group_symop_operation_xyz
x,y,z
-x,y,-z
-x,-y,-z
x,-y,z
loop_
_atom_site_type_symbol
_atom_site_label
_atom_site_fract_x
_atom_site_fract_y
_atom_site_fract_z
Si Si1 0.959082 0.671974 0.152986
Si Si2 0.103285 0.334481 0.281940
Si Si3 0.703600 0.174293 0.845703
Si Si4 0.592633 0.670580 0.429247
Si Si5 0.253953 0.826160 0.426062
Si Si6 0.211164 0.330473 0.917313
Si Si7 0.443781 0.666078 0.297434
O O1 0.028030 0.500000 0.136969
O O2 0.892381 0.728701 0.112713
O O3 0.730309 0.701430 0.236368
O O4 0.190795 0.761200 0.125544
O O5 0.080463 0.500000 0.265002
O O6 0.111591 0.220695 0.235770
O O7 0.349054 0.317882 0.261970
O O8 0.880164 0.302833 0.364718
O O9 0.437875 0.236586 0.889299
O O10 0.690376 0.000000 0.852641
O O11 0.500000 0.733401 0.500000
O O12 0.519460 0.500000 0.439315
O O13 0.473249 0.761089 0.411093
O O14 0.293425 0.776787 0.362469
O O15 0.000000 0.764969 0.500000
O O16 0.261175 0.000000 0.427319
O O17 0.296844 0.500000 0.893977
O O18 0.000000 0.313155 0.000000
O O19 0.399238 0.500000 0.325981
#
# Coordination Sequence:
#
# PCOD8065319 Si02
#       7
#     4   4   4   4   4   4   4
#     4  10  21  40  66  94 124 161 209 260 308 364
#     4  10  20  38  62  88 118 154 205 259 308 364
#     4  12  25  39  61  94 133 171 205 251 312 379
#     4  10  21  37  59  84 110 147 199 259 311 361
#     4  11  24  38  52  77 116 157 196 244 305 375
#     4  10  22  44  72  97 124 163 213 265 312 365
#     4  10  20  37  63  88 113 152 201 259 308 353
#
# _framework density 20.443317
#
# number of rings (size 3 to 8) (size 9 to 14) (size 15 to 20)
#    0.000    1.571    1.429    3.429    0.000    9.143 
#    0.000    2.857    0.000    0.000    0.000    0.000 
#    0.000    0.000    0.000    0.000    0.000    0.000 
#
# Total GULP energy -347299.352943 kJ/mol
# GULP energy per Si atom -12403.548319 kJ/mol
# Density = 2.039679 g / cm^3
# Si number density = 20.443317 Si / 1000 Ang^3
#
#
#
# Elastic Constant Matrix: (Units=GPa)
#
#
# Indices 1 2 3 4 5 6 
#
# 1 138.3052 60.3997 40.4153 0.0000 -2.9556 0.0000
# 2 60.3997 92.4787 38.3206 0.0000 -4.7352 0.0000
# 3 40.4153 38.3206 88.2818 0.0000 3.3345 0.0000
# 4 0.0000 0.0000 0.0000 13.5092 0.0000 -15.2456
# 5 -2.9556 -4.7352 3.3345 0.0000 24.9885 0.0000
# 6 0.0000 0.0000 0.0000 -15.2456 0.0000 1.7390
#
#
#
# Elastic Compliance Matrix: (Units=1/GPa)
#
#
# Indices 1 2 3 4 5 6 
#
# 1 0.010466 -0.005879 -0.002255 0.000000 0.000425 0.000000
# 2 -0.005879 0.016760 -0.004701 0.000000 0.003108 0.000000
# 3 -0.002255 -0.004701 0.014517 0.000000 -0.003095 0.000000
# 4 0.000000 0.000000 0.000000 -0.008323 0.000000 -0.072968
# 5 0.000425 0.003108 -0.003095 0.000000 0.041071 0.000000
# 6 0.000000 0.000000 0.000000 -0.072968 0.000000 -0.064657
#
#
# Mechanical properties :
#
#
# Convention : Reuss Voigt Hill
#
# Bulk Modulus (GPa) = 62.21866 66.37076 64.29471
# Shear Modulus (GPa) = 122.36154 20.04269 71.20211
#
# Velocity S-wave (km/s) = 7.74493 3.13454 5.90802
# Velocity P-wave (km/s) = 10.51092 6.75549 8.83505
#
# Compressibility (1/GPa) = 0.01607235
#
# Stress axis : x y z
#
# Youngs Moduli (GPa) = 95.54663 59.66485 68.88320
#
# Poissons Ratio (x) = 0.35079 0.15536
# Poissons Ratio (y) = 0.56175 0.32382
# Poissons Ratio (z) = 0.21549 0.28048
#
# Static dielectric constant tensor:
#      x y z
#    x 3.752180 0.000000 0.001030 
#    y 0.000000 3.485060 0.000000 
#    z 0.001030 0.000000 3.736030 
# 
# 
# High freq. dielectric constant tensor:
#      x y z
#    x 1.810140 0.000000 -0.001590 
#    y 0.000000 1.776130 0.000000 
#    z -0.001590 0.000000 1.803490 
# 
# From -- ./inp_files/86458.got.cif
#   From: 2010.06.25/outbox.cif.g09.slc.cpg/sg10_44_cif.got.tgz:86458.got - 2010.06.27 22:07:45.
