data_PCOD8065269
_publ_section_title
;
Structure prediction by ZEFSAII (Michael W. Deem and Ramdas Pophale) SiO2 
 PCOD8065269
Probable space group: P 2/M
;
_chemical_formula_sum "Si O2"
_cell_formula_units_Z 28
_cell_length_a 28.965051
_cell_length_b 8.872332
_cell_length_c 9.149021
_cell_angle_alpha 90.000000
_cell_angle_beta 142.072059
_cell_angle_gamma 90.000000
_cell_volume 1445.202409
_symmetry_space_group_name_H-M "P 2/M"
_symmetry_group_IT_number 10
_symmetry_cell_setting 'monoclinic'
loop_
_space_group_symop_operation_xyz
x,y,z
-x,y,-z
-x,-y,-z
x,-y,z
loop_
_atom_site_type_symbol
_atom_site_label
_atom_site_fract_x
_atom_site_fract_y
_atom_site_fract_z
Si Si1 0.213550 0.825506 0.946519
Si Si2 0.792570 0.824452 0.403000
Si Si3 0.072000 0.322396 0.091606
Si Si4 0.497820 0.826999 0.166499
Si Si5 0.930914 0.174850 0.224906
Si Si6 0.637210 0.325157 0.009891
Si Si7 0.632737 0.325286 0.660958
O O1 0.189469 0.786434 0.720793
O O2 0.145169 0.785295 0.880676
O O3 0.237256 0.000000 0.016757
O O4 0.282922 0.722964 0.169707
O O5 0.852667 0.745270 0.654706
O O6 0.796175 0.000000 0.445069
O O7 0.710268 0.766774 0.241447
O O8 0.077395 0.500000 0.117570
O O9 0.063453 0.276273 0.903090
O O10 0.000000 0.260249 0.000000
O O11 0.432206 0.724091 0.065665
O O12 0.577090 0.775085 0.427754
O O13 0.483369 0.000000 0.174203
O O14 0.500000 0.804669 0.000000
O O15 0.000000 0.218223 0.500000
O O16 0.933879 0.000000 0.187205
O O17 0.654046 0.500000 0.077316
O O18 0.616642 0.292412 0.790556
O O19 0.621332 0.500000 0.593768
#
# Coordination Sequence:
#
# PCOD8065269 Si02
#       7
#     4   4   4   4   4   4   4
#     4   9  19  36  59  86 113 143 183 231 280 332
#     4  10  20  37  62  87 112 146 187 230 278 331
#     4  11  24  39  56  82 116 152 189 231 280 333
#     4  11  24  39  56  81 113 149 190 234 278 327
#     4  10  21  38  60  85 113 147 189 235 281 332
#     4  10  21  38  60  86 115 146 184 229 279 336
#     4  10  21  37  59  85 112 146 186 228 278 336
#
# _framework density 19.374447
#
# number of rings (size 3 to 8) (size 9 to 14) (size 15 to 20)
#    0.000    1.857    0.000    3.429    0.000    9.429 
#    0.000    1.429    0.000    0.000    0.000    0.000 
#    0.000    0.000    0.000    0.000    0.000    0.000 
#
# Total GULP energy -347371.415982 kJ/mol
# GULP energy per Si atom -12406.121999 kJ/mol
# Density = 1.933035 g / cm^3
# Si number density = 19.374447 Si / 1000 Ang^3
#
#
#
# Elastic Constant Matrix: (Units=GPa)
#
#
# Indices 1 2 3 4 5 6 
#
# 1 105.3150 38.5424 49.4429 0.0000 7.5833 0.0000
# 2 38.5424 62.3453 41.8514 0.0000 -5.4046 0.0000
# 3 49.4429 41.8514 122.2157 0.0000 -0.5201 0.0000
# 4 0.0000 0.0000 0.0000 31.6475 0.0000 1.9228
# 5 7.5833 -5.4046 -0.5201 0.0000 19.0048 0.0000
# 6 0.0000 0.0000 0.0000 1.9228 0.0000 32.3114
#
#
#
# Elastic Compliance Matrix: (Units=1/GPa)
#
#
# Indices 1 2 3 4 5 6 
#
# 1 0.014286 -0.007286 -0.003318 0.000000 -0.007863 0.000000
# 2 -0.007286 0.025186 -0.005635 0.000000 0.009915 0.000000
# 3 -0.003318 -0.005635 0.011454 0.000000 0.000035 0.000000
# 4 0.000000 0.000000 0.000000 0.031713 0.000000 -0.001887
# 5 -0.007863 0.009915 0.000035 0.000000 0.058577 0.000000
# 6 0.000000 0.000000 0.000000 -0.001887 0.000000 0.031061
#
#
# Mechanical properties :
#
#
# Convention : Reuss Voigt Hill
#
# Bulk Modulus (GPa) = 54.20452 61.06105 57.63278
# Shear Modulus (GPa) = 23.70757 27.26204 25.48480
#
# Velocity S-wave (km/s) = 3.50187 3.75522 3.63075
# Velocity P-wave (km/s) = 6.66249 7.09838 6.88389
#
# Compressibility (1/GPa) = 0.01844865
#
# Stress axis : x y z
#
# Youngs Moduli (GPa) = 70.00082 39.70441 87.30387
#
# Poissons Ratio (x) = 0.28928 0.28965
# Poissons Ratio (y) = 0.51002 0.49195
# Poissons Ratio (z) = 0.23225 0.22373
#
# Static dielectric constant tensor:
#      x y z
#    x 3.575040 0.000000 0.063250 
#    y 0.000000 3.588880 0.000000 
#    z 0.063250 0.000000 3.577300 
# 
# 
# High freq. dielectric constant tensor:
#      x y z
#    x 1.757420 0.000000 0.007330 
#    y 0.000000 1.761570 0.000000 
#    z 0.007330 0.000000 1.763300 
# 
# From -- ./inp_files/36819.got.cif
#   From: 2010.06.25/outbox.cif.g09.slc.cpg/sg10_19_cif.got.tgz:36819.got - 2010.06.27 22:07:45.
