data_PCOD8065467
_publ_section_title
;
Structure prediction by ZEFSAII (Michael W. Deem and Ramdas Pophale) SiO2 
 PCOD8065467
Probable space group: P 2/M
;
_chemical_formula_sum "Si O2"
_cell_formula_units_Z 28
_cell_length_a 28.976077
_cell_length_b 9.100509
_cell_length_c 9.698224
_cell_angle_alpha 90.000000
_cell_angle_beta 146.725806
_cell_angle_gamma 90.000000
_cell_volume 1403.104275
_symmetry_space_group_name_H-M "P 2/M"
_symmetry_group_IT_number 10
_symmetry_cell_setting 'monoclinic'
loop_
_space_group_symop_operation_xyz
x,y,z
-x,y,-z
-x,-y,-z
x,-y,z
loop_
_atom_site_type_symbol
_atom_site_label
_atom_site_fract_x
_atom_site_fract_y
_atom_site_fract_z
Si Si1 0.630737 0.330356 0.482067
Si Si2 0.183556 0.671527 0.968519
Si Si3 0.126375 0.828340 0.569031
Si Si4 0.807875 0.831512 0.565451
Si Si5 0.935159 0.169271 0.123815
Si Si6 0.502852 0.173810 0.667606
Si Si7 0.361808 0.328516 0.810651
O O1 0.614300 0.500000 0.479935
O O2 0.579841 0.230581 0.461273
O O3 0.602001 0.299667 0.252887
O O4 0.728856 0.289919 0.738568
O O5 0.169412 0.500000 0.920653
O O6 0.185232 0.741107 0.821419
O O7 0.105853 0.737822 0.857407
O O8 0.161262 0.787230 0.507598
O O9 0.030066 0.776074 0.339917
O O10 0.134346 0.000000 0.619386
O O11 0.733706 0.724276 0.424387
O O12 0.776466 0.000000 0.494091
O O13 0.886973 0.805112 0.861205
O O14 0.932239 0.000000 0.162240
O O15 0.500000 0.220474 0.500000
O O16 0.507665 0.000000 0.695133
O O17 0.585006 0.242381 0.942856
O O18 0.365413 0.500000 0.854982
#
# Coordination Sequence:
#
# PCOD8065467 Si02
#       7
#     4   4   4   4   4   4   4
#     4  10  23  43  64  89 122 162 203 244 295 358
#     4  11  23  39  59  88 124 161 205 251 299 356
#     4  10  22  38  58  87 123 161 205 255 305 358
#     4  10  21  38  62  90 121 158 204 254 303 355
#     4  10  20  38  62  87 118 161 207 252 306 359
#     4  11  26  44  65  96 127 154 193 245 297 354
#     4  11  23  42  66  91 123 160 201 245 296 358
#
# _framework density 19.955752
#
# number of rings (size 3 to 8) (size 9 to 14) (size 15 to 20)
#    0.000    1.571    1.429    2.571    2.000    9.714 
#    0.000    0.000    0.000    2.571    0.000    0.000 
#    0.000    0.000    0.000    0.000    0.000    0.000 
#
# Total GULP energy -347342.615868 kJ/mol
# GULP energy per Si atom -12405.093424 kJ/mol
# Density = 1.991033 g / cm^3
# Si number density = 19.955752 Si / 1000 Ang^3
#
#
#
# Elastic Constant Matrix: (Units=GPa)
#
#
# Indices 1 2 3 4 5 6 
#
# 1 101.7207 45.9051 32.4185 0.0000 -15.2163 0.0000
# 2 45.9051 72.7874 41.5658 0.0000 -10.2163 0.0000
# 3 32.4185 41.5658 92.2822 0.0000 -18.9547 0.0000
# 4 0.0000 0.0000 0.0000 25.7682 0.0000 -10.6236
# 5 -15.2163 -10.2163 -18.9547 0.0000 36.9355 0.0000
# 6 0.0000 0.0000 0.0000 -10.6236 0.0000 9.4591
#
#
#
# Elastic Compliance Matrix: (Units=1/GPa)
#
#
# Indices 1 2 3 4 5 6 
#
# 1 0.014192 -0.008115 -0.000660 0.000000 0.003263 0.000000
# 2 -0.008115 0.023166 -0.007774 0.000000 -0.000925 0.000000
# 3 -0.000660 -0.007774 0.015730 0.000000 0.005650 0.000000
# 4 0.000000 0.000000 0.000000 0.072272 0.000000 0.081169
# 5 0.003263 -0.000925 0.005650 0.000000 0.031062 0.000000
# 6 0.000000 0.000000 0.000000 0.081169 0.000000 0.196881
#
#
# Mechanical properties :
#
#
# Convention : Reuss Voigt Hill
#
# Bulk Modulus (GPa) = 50.02458 56.28544 53.15501
# Shear Modulus (GPa) = 12.72056 24.22595 18.47326
#
# Velocity S-wave (km/s) = 2.52749 3.48801 3.04585
# Velocity P-wave (km/s) = 5.79998 6.66993 6.25011
#
# Compressibility (1/GPa) = 0.01999017
#
# Stress axis : x y z
#
# Youngs Moduli (GPa) = 70.46392 43.16636 63.57241
#
# Poissons Ratio (x) = 0.35032 0.04195
# Poissons Ratio (y) = 0.57185 0.49418
# Poissons Ratio (z) = 0.04650 0.33556
#
# Static dielectric constant tensor:
#      x y z
#    x 3.697930 0.000000 -0.127510 
#    y 0.000000 3.570190 0.000000 
#    z -0.127510 0.000000 3.827040 
# 
# 
# High freq. dielectric constant tensor:
#      x y z
#    x 1.786690 0.000000 -0.004830 
#    y 0.000000 1.774390 0.000000 
#    z -0.004830 0.000000 1.793460 
# 
# From -- ./inp_files/36993.got.cif
#   From: 2010.06.25/outbox.cif.g09.slc.cpg/sg10_19_cif.got.tgz:36993.got - 2010.06.27 22:07:45.
