data_PCOD8065094
_publ_section_title
;
Structure prediction by ZEFSAII (Michael W. Deem and Ramdas Pophale) SiO2 
 PCOD8065094
Probable space group: P 2/M
;
_chemical_formula_sum "Si O2"
_cell_formula_units_Z 32
_cell_length_a 20.289956
_cell_length_b 13.476230
_cell_length_c 12.953608
_cell_angle_alpha 90.000000
_cell_angle_beta 27.829678
_cell_angle_gamma 90.000000
_cell_volume 1653.532631
_symmetry_space_group_name_H-M "P 2/M"
_symmetry_group_IT_number 10
_symmetry_cell_setting 'monoclinic'
loop_
_space_group_symop_operation_xyz
x,y,z
-x,y,-z
-x,-y,-z
x,-y,z
loop_
_atom_site_type_symbol
_atom_site_label
_atom_site_fract_x
_atom_site_fract_y
_atom_site_fract_z
Si Si1 0.680777 0.615637 0.161469
Si Si2 0.554693 0.881893 0.037687
Si Si3 0.938979 0.787854 0.322931
Si Si4 0.872910 0.112832 0.610359
Si Si5 0.032208 0.616056 0.335572
Si Si6 0.374728 0.615697 0.536211
Si Si7 0.123259 0.110883 0.912272
Si Si8 0.693683 0.788296 0.499100
O O1 0.654253 0.500000 0.190636
O O2 0.532643 0.661071 0.329791
O O3 0.711863 0.640361 0.238654
O O4 0.806742 0.648111 0.911315
O O5 0.456897 0.828789 0.256742
O O6 0.545433 0.000000 0.062914
O O7 0.500000 0.850632 0.000000
O O8 0.714304 0.842085 0.839936
O O9 0.919037 0.879584 0.427975
O O10 0.804149 0.791313 0.437614
O O11 0.939571 0.684652 0.387279
O O12 0.081643 0.811759 0.061178
O O13 0.000000 0.166666 0.500000
O O14 0.864440 0.000000 0.658336
O O15 0.004716 0.500000 0.346742
O O16 0.000000 0.637114 0.500000
O O17 0.368528 0.500000 0.517269
O O18 0.308196 0.673465 0.532391
O O19 0.263936 0.146718 0.659621
O O20 0.147797 0.000000 0.923108
O O21 0.000000 0.108978 0.000000
#
# Coordination Sequence:
#
# PCOD8065094 Si02
#       8
#     4   4   4   4   4   4   4   4
#     4   8  16  35  57  76  99 137 188 229 272 326
#     4  10  20  37  59  79 107 146 185 231 279 328
#     4  11  21  34  53  79 112 148 183 226 279 337
#     4  10  21  37  58  83 108 141 189 237 281 331
#     4  10  21  36  54  76 105 143 186 229 273 327
#     4   9  18  33  56  81 107 139 179 231 277 325
#     4   9  19  34  53  78 108 142 180 225 272 326
#     4  11  21  33  54  84 114 143 187 223 276 343
#
# _framework density 19.352506000000002
#
# number of rings (size 3 to 8) (size 9 to 14) (size 15 to 20)
#    0.000    2.250    1.250    2.625    0.000    3.500 
#    0.000    0.000    0.000    4.875    0.000    7.875 
#    0.000    0.000    0.000    0.000    0.000    0.000 
#
# Total GULP energy -396526.551917 kJ/mol
# GULP energy per Si atom -12391.454747 kJ/mol
# Density = 1.930846 g / cm^3
# Si number density = 19.352506 Si / 1000 Ang^3
#
#
#
# Elastic Constant Matrix: (Units=GPa)
#
#
# Indices 1 2 3 4 5 6 
#
# 1 99.6183 32.2923 57.1073 0.0000 2.6033 0.0000
# 2 32.2923 68.5932 34.3808 0.0000 5.2335 0.0000
# 3 57.1073 34.3808 159.0020 0.0000 12.8543 0.0000
# 4 0.0000 0.0000 0.0000 23.8848 0.0000 7.9911
# 5 2.6033 5.2335 12.8543 0.0000 29.7315 0.0000
# 6 0.0000 0.0000 0.0000 7.9911 0.0000 26.6444
#
#
#
# Elastic Compliance Matrix: (Units=1/GPa)
#
#
# Indices 1 2 3 4 5 6 
#
# 1 0.013826 -0.004563 -0.004089 0.000000 0.001361 0.000000
# 2 -0.004563 0.017913 -0.002085 0.000000 -0.001852 0.000000
# 3 -0.004089 -0.002085 0.008445 0.000000 -0.002926 0.000000
# 4 0.000000 0.000000 0.000000 0.046537 0.000000 -0.013957
# 5 0.001361 -0.001852 -0.002926 0.000000 0.035107 0.000000
# 6 0.000000 0.000000 0.000000 -0.013957 0.000000 0.041717
#
#
# Mechanical properties :
#
#
# Convention : Reuss Voigt Hill
#
# Bulk Modulus (GPa) = 53.44596 63.86379 58.65487
# Shear Modulus (GPa) = 26.14290 29.61435 27.87862
#
# Velocity S-wave (km/s) = 3.67942 3.91610 3.79960
# Velocity P-wave (km/s) = 6.76224 7.31571 7.04441
#
# Compressibility (1/GPa) = 0.01871049
#
# Stress axis : x y z
#
# Youngs Moduli (GPa) = 72.32696 55.82472 118.41058
#
# Poissons Ratio (x) = 0.25475 0.48419
# Poissons Ratio (y) = 0.33005 0.24684
# Poissons Ratio (z) = 0.29575 0.11637
#
# Static dielectric constant tensor:
#      x y z
#    x 3.460800 0.000000 -0.047660 
#    y 0.000000 3.373570 0.000000 
#    z -0.047660 0.000000 4.067580 
# 
# 
# High freq. dielectric constant tensor:
#      x y z
#    x 1.737710 0.000000 0.009470 
#    y 0.000000 1.741140 0.000000 
#    z 0.009470 0.000000 1.763660 
# 
# From -- ./inp_files/53985.got.cif
#   From: 2010.06.25/outbox.cif.g09.slc.cpg/sg10_27_cif.got.tgz:53985.got - 2010.06.27 22:07:45.
