data_PCOD8065572
_publ_section_title
;
Structure prediction by ZEFSAII (Michael W. Deem and Ramdas Pophale) SiO2 
 PCOD8065572
Probable space group: P 2/M
;
_chemical_formula_sum "Si O2"
_cell_formula_units_Z 28
_cell_length_a 12.447811
_cell_length_b 8.894847
_cell_length_c 16.612318
_cell_angle_alpha 90.000000
_cell_angle_beta 120.643605
_cell_angle_gamma 90.000000
_cell_volume 1582.483074
_symmetry_space_group_name_H-M "P 2/M"
_symmetry_group_IT_number 10
_symmetry_cell_setting 'monoclinic'
loop_
_space_group_symop_operation_xyz
x,y,z
-x,y,-z
-x,-y,-z
x,-y,z
loop_
_atom_site_type_symbol
_atom_site_label
_atom_site_fract_x
_atom_site_fract_y
_atom_site_fract_z
Si Si1 0.387266 0.176042 0.288141
Si Si2 0.058105 0.326641 0.896978
Si Si3 0.109370 0.324874 0.601150
Si Si4 0.252349 0.675870 0.385556
Si Si5 0.804155 0.326446 0.891229
Si Si6 0.017075 0.823241 0.720639
Si Si7 0.641895 0.326811 0.400545
O O1 0.335526 0.263129 0.345301
O O2 0.310910 0.223069 0.179357
O O3 0.530577 0.220236 0.329018
O O4 0.374185 0.000000 0.297737
O O5 0.079662 0.500000 0.882978
O O6 0.916599 0.301627 0.871759
O O7 0.083831 0.225550 0.828976
O O8 0.153483 0.276789 0.003458
O O9 0.091720 0.500000 0.614484
O O10 0.240908 0.289869 0.610645
O O11 0.000000 0.270220 0.500000
O O12 0.103870 0.231441 0.681062
O O13 0.229842 0.500000 0.364315
O O14 0.118666 0.751981 0.338359
O O15 0.325704 0.710620 0.495178
O O16 0.762948 0.500000 0.875306
O O17 0.003235 0.000000 0.713124
O O18 0.601283 0.500000 0.376357
#
# Coordination Sequence:
#
# PCOD8065572 Si02
#       7
#     4   4   4   4   4   4   4
#     4  12  24  35  52  83 119 149 177 221 283 335
#     4   9  18  34  57  82 107 143 185 227 268 320
#     4  10  20  39  61  80 103 143 195 234 266 314
#     4  11  21  37  57  78 108 149 193 228 263 319
#     4   9  18  34  57  81 107 143 187 225 266 322
#     4  12  23  33  53  86 119 146 174 222 288 333
#     4  10  22  39  59  78 103 148 196 230 265 317
#
# _framework density 17.693712000000001
#
# number of rings (size 3 to 8) (size 9 to 14) (size 15 to 20)
#    0.000    1.571    2.857    4.286    0.000    4.286 
#    0.000    1.429    0.000    0.857    0.000    6.000 
#    0.000    0.000    0.000    0.000    0.000    0.000 
#
# Total GULP energy -347324.561923 kJ/mol
# GULP energy per Si atom -12404.448640 kJ/mol
# Density = 1.765344 g / cm^3
# Si number density = 17.693712 Si / 1000 Ang^3
#
#
#
# Elastic Constant Matrix: (Units=GPa)
#
#
# Indices 1 2 3 4 5 6 
#
# 1 82.5561 42.9159 54.0050 0.0000 2.0087 0.0000
# 2 42.9159 100.7042 66.1622 0.0000 -1.5299 0.0000
# 3 54.0050 66.1622 114.5545 0.0000 2.9463 0.0000
# 4 0.0000 0.0000 0.0000 6.8270 0.0000 -0.1584
# 5 2.0087 -1.5299 2.9463 0.0000 19.4443 0.0000
# 6 0.0000 0.0000 0.0000 -0.1584 0.0000 20.1111
#
#
#
# Elastic Compliance Matrix: (Units=1/GPa)
#
#
# Indices 1 2 3 4 5 6 
#
# 1 0.018242 -0.003483 -0.006558 0.000000 -0.001165 0.000000
# 2 -0.003483 0.016806 -0.008140 0.000000 0.002916 0.000000
# 3 -0.006558 -0.008140 0.016586 0.000000 -0.002476 0.000000
# 4 0.000000 0.000000 0.000000 0.146504 0.000000 0.001154
# 5 -0.001165 0.002916 -0.002476 0.000000 0.052154 0.000000
# 6 0.000000 0.000000 0.000000 0.001154 0.000000 0.049733
#
#
# Mechanical properties :
#
#
# Convention : Reuss Voigt Hill
#
# Bulk Modulus (GPa) = 65.47662 69.33123 67.40392
# Shear Modulus (GPa) = 14.64222 18.25860 16.45041
#
# Velocity S-wave (km/s) = 2.87982 3.21585 3.05246
# Velocity P-wave (km/s) = 6.93857 7.28410 7.11343
#
# Compressibility (1/GPa) = 0.01527263
#
# Stress axis : x y z
#
# Youngs Moduli (GPa) = 54.81817 59.50111 60.29090
#
# Poissons Ratio (x) = 0.20723 0.39542
# Poissons Ratio (y) = 0.19092 0.49075
# Poissons Ratio (z) = 0.35952 0.48433
#
# Static dielectric constant tensor:
#      x y z
#    x 3.154610 0.000000 -0.030490 
#    y 0.000000 3.206630 0.000000 
#    z -0.030490 0.000000 3.443370 
# 
# 
# High freq. dielectric constant tensor:
#      x y z
#    x 1.665710 0.000000 -0.000250 
#    y 0.000000 1.681240 0.000000 
#    z -0.000250 0.000000 1.691510 
# 
# From -- ./inp_files/49148.got.cif
#   From: 2010.06.25/outbox.cif.g09.slc.cpg/sg10_25_cif.got.tgz:49148.got - 2010.06.27 22:07:45.
