data_PCOD8065159
_publ_section_title
;
Structure prediction by ZEFSAII (Michael W. Deem and Ramdas Pophale) SiO2 
 PCOD8065159
Probable space group: P 2/M
;
_chemical_formula_sum "Si O2"
_cell_formula_units_Z 24
_cell_length_a 12.005094
_cell_length_b 11.735578
_cell_length_c 18.030301
_cell_angle_alpha 90.000000
_cell_angle_beta 29.783530
_cell_angle_gamma 90.000000
_cell_volume 1261.794425
_symmetry_space_group_name_H-M "P 2/M"
_symmetry_group_IT_number 10
_symmetry_cell_setting 'monoclinic'
loop_
_space_group_symop_operation_xyz
x,y,z
-x,y,-z
-x,-y,-z
x,-y,z
loop_
_atom_site_type_symbol
_atom_site_label
_atom_site_fract_x
_atom_site_fract_y
_atom_site_fract_z
Si Si1 0.928135 0.261981 0.341790
Si Si2 0.255999 0.500000 0.550445
Si Si3 0.946884 0.261793 0.161033
Si Si4 0.632865 0.869153 0.131195
Si Si5 0.512075 0.868515 0.366880
Si Si6 0.661085 0.867751 0.838965
Si Si7 0.759874 0.500000 0.264127
O O1 0.876311 0.388907 0.401673
O O2 0.019239 0.264477 0.205156
O O3 0.702876 0.189271 0.473247
O O4 0.114699 0.206892 0.286634
O O5 0.510905 0.500000 0.371917
O O6 0.266959 0.500000 0.632420
O O7 0.729586 0.184228 0.278733
O O8 0.895804 0.388387 0.159775
O O9 0.148416 0.210022 0.996651
O O10 0.509434 0.850076 0.280084
O O11 0.459386 0.834395 0.167653
O O12 0.711445 0.000000 0.075342
O O13 0.507110 0.000000 0.391129
O O14 0.730796 0.000000 0.800634
O O15 0.500000 0.837363 0.000000
#
# Coordination Sequence:
#
# PCOD8065159 Si02
#       7
#     4   2   4   4   4   4   2
#     4  11  21  36  61  85 109 148 195 234 274 331
#     4   9  18  36  55  83 116 146 179 237 292 319
#     4  11  20  36  59  84 113 149 190 228 281 335
#     4  10  22  39  56  80 121 156 179 226 288 336
#     4  11  23  35  54  86 118 148 184 231 287 338
#     4  10  20  37  60  84 111 147 190 232 277 331
#     4   9  18  34  57  82 113 150 185 228 283 332
#
# _framework density 19.020530000000001
#
# number of rings (size 3 to 8) (size 9 to 14) (size 15 to 20)
#    0.000    1.667    3.333    2.000    0.000    4.667 
#    0.000    6.250    0.000    1.000    0.000    0.000 
#    0.000    0.000    0.000    0.000    0.000    0.000 
#
# Total GULP energy -297706.615972 kJ/mol
# GULP energy per Si atom -12404.442332 kJ/mol
# Density = 1.897724 g / cm^3
# Si number density = 19.020530 Si / 1000 Ang^3
#
#
#
# Elastic Constant Matrix: (Units=GPa)
#
#
# Indices 1 2 3 4 5 6 
#
# 1 62.9482 21.3050 5.1564 0.0000 -11.6589 0.0000
# 2 21.3050 120.1891 20.9364 0.0000 -12.0804 0.0000
# 3 5.1564 20.9364 32.6766 0.0000 -7.6618 0.0000
# 4 0.0000 0.0000 0.0000 50.7340 0.0000 -29.7991
# 5 -11.6589 -12.0804 -7.6618 0.0000 28.0098 0.0000
# 6 0.0000 0.0000 0.0000 -29.7991 0.0000 45.5586
#
#
#
# Elastic Compliance Matrix: (Units=1/GPa)
#
#
# Indices 1 2 3 4 5 6 
#
# 1 0.017927 -0.002590 0.000340 0.000000 0.006438 0.000000
# 2 -0.002590 0.009915 -0.005550 0.000000 0.001680 0.000000
# 3 0.000340 -0.005550 0.035878 0.000000 0.007562 0.000000
# 4 0.000000 0.000000 0.000000 0.032007 0.000000 0.020935
# 5 0.006438 0.001680 0.007562 0.000000 0.041175 0.000000
# 6 0.000000 0.000000 0.000000 0.020935 0.000000 0.035643
#
#
# Mechanical properties :
#
#
# Convention : Reuss Voigt Hill
#
# Bulk Modulus (GPa) = 20.78106 34.51215 27.64660
# Shear Modulus (GPa) = 24.48749 36.08822 30.28786
#
# Velocity S-wave (km/s) = 3.59196 4.36056 3.99479
# Velocity P-wave (km/s) = 5.30587 6.59824 5.98703
#
# Compressibility (1/GPa) = 0.04812075
#
# Stress axis : x y z
#
# Youngs Moduli (GPa) = 55.78115 100.85748 27.87189
#
# Poissons Ratio (x) = 0.26122 -0.00948
# Poissons Ratio (y) = 0.14447 0.15469
# Poissons Ratio (z) = -0.01897 0.55977
#
# Static dielectric constant tensor:
#      x y z
#    x 3.384650 0.000000 -0.044870 
#    y 0.000000 3.703530 0.000000 
#    z -0.044870 0.000000 3.399250 
# 
# 
# High freq. dielectric constant tensor:
#      x y z
#    x 1.728500 0.000000 -0.005050 
#    y 0.000000 1.743360 0.000000 
#    z -0.005050 0.000000 1.733610 
# 
# From -- ./inp_files/41955.got.cif
#   From: 2010.06.25/outbox.cif.g09.slc.cpg/sg10_21_cif.got.tgz:41955.got - 2010.06.27 22:07:45.
