data_PCOD8065837
_publ_section_title
;
Structure prediction by ZEFSAII (Michael W. Deem and Ramdas Pophale) SiO2 
 PCOD8065837
Probable space group: P 2/M
;
_chemical_formula_sum "Si O2"
_cell_formula_units_Z 28
_cell_length_a 24.186180
_cell_length_b 9.721341
_cell_length_c 21.841540
_cell_angle_alpha 90.000000
_cell_angle_beta 17.420021
_cell_angle_gamma 90.000000
_cell_volume 1537.414980
_symmetry_space_group_name_H-M "P 2/M"
_symmetry_group_IT_number 10
_symmetry_cell_setting 'monoclinic'
loop_
_space_group_symop_operation_xyz
x,y,z
-x,y,-z
-x,-y,-z
x,-y,z
loop_
_atom_site_type_symbol
_atom_site_label
_atom_site_fract_x
_atom_site_fract_y
_atom_site_fract_z
Si Si1 0.371648 0.157660 0.305762
Si Si2 0.995940 0.652547 0.435879
Si Si3 0.572250 0.652545 0.859568
Si Si4 0.950904 0.842344 0.726502
Si Si5 0.549227 0.337045 0.352334
Si Si6 0.610239 0.841706 0.169220
Si Si7 0.204849 0.662560 0.795155
O O1 0.482282 0.248158 0.138729
O O2 0.450660 0.191623 0.288928
O O3 0.154313 0.190781 0.537018
O O4 0.410110 0.000000 0.247420
O O5 0.087798 0.500000 0.339086
O O6 0.789940 0.641723 0.630195
O O7 0.000000 0.715325 0.500000
O O8 0.103324 0.751832 0.275664
O O9 0.485329 0.500000 0.941552
O O10 0.500000 0.715323 0.000000
O O11 0.932349 0.000000 0.725169
O O12 0.809702 0.808401 0.929884
O O13 0.555235 0.500000 0.334305
O O14 0.581324 0.258392 0.256001
O O15 0.711909 0.291860 0.227280
O O16 0.348911 0.291878 0.590284
O O17 0.599081 0.000000 0.202682
O O18 0.189215 0.500000 0.810794
O O19 0.000000 0.727519 0.000000
#
# Coordination Sequence:
#
# PCOD8065837 Si02
#       7
#     4   4   4   4   4   4   4
#     4   9  19  35  50  66  92 127 165 202 242 294
#     4   9  18  31  47  69  94 119 152 200 255 303
#     4   9  18  31  47  69  94 119 152 200 255 303
#     4   9  19  35  50  66  92 127 165 202 242 294
#     4   9  18  32  52  80 104 130 172 206 236 288
#     4  10  21  35  51  72 102 136 166 204 252 292
#     4   8  15  31  54  78 108 138 164 202 244 282
#
# _framework density 18.212389000000002
#
# number of rings (size 3 to 8) (size 9 to 14) (size 15 to 20)
#    0.000    3.000    0.000    0.857    2.000    2.857 
#    0.000    1.429    0.000    0.857    0.000    0.000 
#    0.000    0.000    0.000    0.000    0.000    0.000 
#
# Total GULP energy -347070.726218 kJ/mol
# GULP energy per Si atom -12395.383079 kJ/mol
# Density = 1.817094 g / cm^3
# Si number density = 18.212389 Si / 1000 Ang^3
#
#
#
# Elastic Constant Matrix: (Units=GPa)
#
#
# Indices 1 2 3 4 5 6 
#
# 1 136.9248 69.9646 71.4087 0.0000 20.1558 0.0000
# 2 69.9646 74.1451 48.5648 0.0000 20.2195 0.0000
# 3 71.4087 48.5648 108.5045 0.0000 6.6482 0.0000
# 4 0.0000 0.0000 0.0000 13.2692 0.0000 0.6441
# 5 20.1558 20.2195 6.6482 0.0000 34.8329 0.0000
# 6 0.0000 0.0000 0.0000 0.6441 0.0000 13.9507
#
#
#
# Elastic Compliance Matrix: (Units=1/GPa)
#
#
# Indices 1 2 3 4 5 6 
#
# 1 0.016129 -0.011091 -0.005538 0.000000 -0.001838 0.000000
# 2 -0.011091 0.030473 -0.005716 0.000000 -0.010180 0.000000
# 3 -0.005538 -0.005716 0.015197 0.000000 0.003622 0.000000
# 4 0.000000 0.000000 0.000000 0.075532 0.000000 -0.003487
# 5 -0.001838 -0.010180 0.003622 0.000000 0.034990 0.000000
# 6 0.000000 0.000000 0.000000 -0.003487 0.000000 0.071842
#
#
# Mechanical properties :
#
#
# Convention : Reuss Voigt Hill
#
# Bulk Modulus (GPa) = 58.44939 77.71673 68.08306
# Shear Modulus (GPa) = 16.97460 21.05299 19.01379
#
# Velocity S-wave (km/s) = 3.05624 3.40365 3.23461
# Velocity P-wave (km/s) = 6.67960 7.62965 7.17037
#
# Compressibility (1/GPa) = 0.01710882
#
# Stress axis : x y z
#
# Youngs Moduli (GPa) = 61.99853 32.81586 65.80033
#
# Poissons Ratio (x) = 0.36397 0.36441
# Poissons Ratio (y) = 0.68764 0.37612
# Poissons Ratio (z) = 0.34336 0.18758
#
# Static dielectric constant tensor:
#      x y z
#    x 3.346070 0.000000 -0.185660 
#    y 0.000000 3.390230 0.000000 
#    z -0.185660 0.000000 3.542430 
# 
# 
# High freq. dielectric constant tensor:
#      x y z
#    x 1.701970 0.000000 -0.007850 
#    y 0.000000 1.685240 0.000000 
#    z -0.007850 0.000000 1.710270 
# 
# From -- ./inp_files/86431.got.cif
#   From: 2010.06.25/outbox.cif.g09.slc.cpg/sg10_44_cif.got.tgz:86431.got - 2010.06.27 22:07:45.
