data_PCOD8065589
_publ_section_title
;
Structure prediction by ZEFSAII (Michael W. Deem and Ramdas Pophale) SiO2 
 PCOD8065589
Probable space group: P 2/M
;
_chemical_formula_sum "Si O2"
_cell_formula_units_Z 28
_cell_length_a 9.714247
_cell_length_b 9.073339
_cell_length_c 27.343591
_cell_angle_alpha 90.000000
_cell_angle_beta 142.330915
_cell_angle_gamma 90.000000
_cell_volume 1472.801219
_symmetry_space_group_name_H-M "P 2/M"
_symmetry_group_IT_number 10
_symmetry_cell_setting 'monoclinic'
loop_
_space_group_symop_operation_xyz
x,y,z
-x,y,-z
-x,-y,-z
x,-y,z
loop_
_atom_site_type_symbol
_atom_site_label
_atom_site_fract_x
_atom_site_fract_y
_atom_site_fract_z
Si Si1 0.613166 0.670844 0.187697
Si Si2 0.755082 0.328453 0.063428
Si Si3 0.798062 0.173532 0.977946
Si Si4 0.139740 0.661826 0.490046
Si Si5 0.691702 0.326120 0.320020
Si Si6 0.974483 0.330476 0.763262
Si Si7 0.483099 0.173930 0.353930
O O1 0.549101 0.500000 0.163184
O O2 0.436180 0.764952 0.107784
O O3 0.607040 0.719158 0.242584
O O4 0.861570 0.699918 0.236262
O O5 0.764576 0.500000 0.052823
O O6 0.897753 0.289797 0.151112
O O7 0.500000 0.276893 0.000000
O O8 0.858763 0.237816 0.047913
O O9 0.776610 0.000000 0.975687
O O10 0.000000 0.223818 0.000000
O O11 0.237484 0.500000 0.503450
O O12 0.343255 0.775754 0.554718
O O13 0.000000 0.647708 0.500000
O O14 0.957827 0.717105 0.398607
O O15 0.663694 0.500000 0.321768
O O16 0.540701 0.242505 0.317349
O O17 0.894065 0.500000 0.741446
O O18 0.761837 0.224708 0.697719
O O19 0.493100 0.000000 0.352073
#
# Coordination Sequence:
#
# PCOD8065589 Si02
#       7
#     4   4   4   4   4   4   4
#     4  10  21  40  62  83 108 143 188 232 278 326
#     4  10  20  39  63  84 105 141 192 235 273 320
#     4  11  25  40  55  82 119 150 180 223 277 334
#     4   8  15  32  56  81 110 142 183 230 274 320
#     4   9  19  36  60  86 110 142 184 233 281 323
#     4  10  21  38  59  82 110 143 185 234 276 322
#     4  11  22  34  54  84 116 149 185 222 270 333
#
# _framework density 19.011392000000001
#
# number of rings (size 3 to 8) (size 9 to 14) (size 15 to 20)
#    0.000    2.143    1.429    2.571    2.000    5.714 
#    0.000    0.714    0.000    4.286    0.000    0.000 
#    0.000    0.000    0.000    0.000    0.000    0.000 
#
# Total GULP energy -347223.838323 kJ/mol
# GULP energy per Si atom -12400.851369 kJ/mol
# Density = 1.896812 g / cm^3
# Si number density = 19.011392 Si / 1000 Ang^3
#
#
#
# Elastic Constant Matrix: (Units=GPa)
#
#
# Indices 1 2 3 4 5 6 
#
# 1 65.0336 27.7931 2.9430 0.0000 7.1307 0.0000
# 2 27.7931 65.6286 16.8527 0.0000 9.3962 0.0000
# 3 2.9430 16.8527 50.1390 0.0000 12.0271 0.0000
# 4 0.0000 0.0000 0.0000 9.9810 0.0000 6.5098
# 5 7.1307 9.3962 12.0271 0.0000 28.5908 0.0000
# 6 0.0000 0.0000 0.0000 6.5098 0.0000 16.3445
#
#
#
# Elastic Compliance Matrix: (Units=1/GPa)
#
#
# Indices 1 2 3 4 5 6 
#
# 1 0.019144 -0.008284 0.002395 0.000000 -0.003059 0.000000
# 2 -0.008284 0.020577 -0.005899 0.000000 -0.002215 0.000000
# 3 0.002395 -0.005899 0.023874 0.000000 -0.008701 0.000000
# 4 0.000000 0.000000 0.000000 0.135350 0.000000 -0.053908
# 5 -0.003059 -0.002215 -0.008701 0.000000 0.040128 0.000000
# 6 0.000000 0.000000 0.000000 -0.053908 0.000000 0.082653
#
#
# Mechanical properties :
#
#
# Convention : Reuss Voigt Hill
#
# Bulk Modulus (GPa) = 24.98834 30.66432 27.82633
# Shear Modulus (GPa) = 13.94145 19.86410 16.90278
#
# Velocity S-wave (km/s) = 2.71093 3.23592 2.98499
# Velocity P-wave (km/s) = 4.79283 5.48872 5.15254
#
# Compressibility (1/GPa) = 0.04001866
#
# Stress axis : x y z
#
# Youngs Moduli (GPa) = 52.23526 48.59681 41.88660
#
# Poissons Ratio (x) = 0.40259 -0.10030
# Poissons Ratio (y) = 0.43273 0.24708
# Poissons Ratio (z) = -0.12509 0.28667
#
# Static dielectric constant tensor:
#      x y z
#    x 3.404000 0.000000 -0.068330 
#    y 0.000000 3.337250 0.000000 
#    z -0.068330 0.000000 3.848580 
# 
# 
# High freq. dielectric constant tensor:
#      x y z
#    x 1.727320 0.000000 0.001080 
#    y 0.000000 1.725590 0.000000 
#    z 0.001080 0.000000 1.748320 
# 
# From -- ./inp_files/37007.got.cif
#   From: 2010.06.25/outbox.cif.g09.slc.cpg/sg10_19_cif.got.tgz:37007.got - 2010.06.27 22:07:45.
