data_PCOD8065340
_publ_section_title
;
Structure prediction by ZEFSAII (Michael W. Deem and Ramdas Pophale) SiO2 
 PCOD8065340
Probable space group: P 2/M
;
_chemical_formula_sum "Si O2"
_cell_formula_units_Z 22
_cell_length_a 10.577123
_cell_length_b 13.645702
_cell_length_c 11.692706
_cell_angle_alpha 90.000000
_cell_angle_beta 141.755502
_cell_angle_gamma 90.000000
_cell_volume 1044.677208
_symmetry_space_group_name_H-M "P 2/M"
_symmetry_group_IT_number 10
_symmetry_cell_setting 'monoclinic'
loop_
_space_group_symop_operation_xyz
x,y,z
-x,y,-z
-x,-y,-z
x,-y,z
loop_
_atom_site_type_symbol
_atom_site_label
_atom_site_fract_x
_atom_site_fract_y
_atom_site_fract_z
Si Si1 0.838280 0.809985 0.225617
Si Si2 0.754847 0.887851 0.410962
Si Si3 0.000000 0.261473 0.000000
Si Si4 0.699597 0.889404 0.900002
Si Si5 0.270635 0.388079 0.358582
Si Si6 0.019598 0.608551 0.649115
O O1 0.752083 0.832729 0.288605
O O2 0.826253 0.692369 0.195149
O O3 0.078412 0.840076 0.386342
O O4 0.706081 0.869575 0.040525
O O5 0.532309 0.878361 0.309449
O O6 0.814886 0.000000 0.431809
O O7 0.831516 0.191401 0.932818
O O8 0.895823 0.327946 0.830836
O O9 0.777774 0.000000 0.930749
O O10 0.500000 0.346599 0.500000
O O11 0.264360 0.500000 0.310503
O O12 0.200788 0.381683 0.442586
O O13 0.111098 0.500000 0.739255
O O14 0.000000 0.625158 0.500000
#
# Coordination Sequence:
#
# PCOD8065340 Si02
#       6
#     4   4   2   4   4   4
#     4  11  19  37  62  84 116 158 197 246 307 362
#     4  10  21  36  59  88 116 154 205 249 299 365
#     4  12  24  38  64  88 122 164 206 248 302 366
#     4  11  24  39  56  85 122 159 202 252 299 354
#     4  10  23  43  66  91 122 163 208 251 302 367
#     4  10  20  37  63  93 123 155 196 252 310 363
#
# _framework density 21.059137
#
# number of rings (size 3 to 8) (size 9 to 14) (size 15 to 20)
#    0.000    1.455    3.636    3.273    2.545    1.455 
#    0.000    0.000    0.000    8.727    0.000    0.000 
#    0.000    0.000    0.000    0.000    0.000    0.000 
#
# Total GULP energy -272706.099428 kJ/mol
# GULP energy per Si atom -12395.731792 kJ/mol
# Density = 2.101121 g / cm^3
# Si number density = 21.059137 Si / 1000 Ang^3
#
#
#
# Elastic Constant Matrix: (Units=GPa)
#
#
# Indices 1 2 3 4 5 6 
#
# 1 95.3398 39.5918 35.1866 0.0000 6.3848 0.0000
# 2 39.5918 135.2317 24.4973 0.0000 10.9608 0.0000
# 3 35.1866 24.4973 73.2528 0.0000 10.2606 0.0000
# 4 0.0000 0.0000 0.0000 21.1558 0.0000 11.8557
# 5 6.3848 10.9608 10.2606 0.0000 25.2416 0.0000
# 6 0.0000 0.0000 0.0000 11.8557 0.0000 30.0078
#
#
#
# Elastic Compliance Matrix: (Units=1/GPa)
#
#
# Indices 1 2 3 4 5 6 
#
# 1 0.013823 -0.003034 -0.005641 0.000000 0.000114 0.000000
# 2 -0.003034 0.008688 -0.001089 0.000000 -0.002562 0.000000
# 3 -0.005641 -0.001089 0.017453 0.000000 -0.005195 0.000000
# 4 0.000000 0.000000 0.000000 0.060710 0.000000 -0.023986
# 5 0.000114 -0.002562 -0.005195 0.000000 0.042813 0.000000
# 6 0.000000 0.000000 0.000000 -0.023986 0.000000 0.042801
#
#
# Mechanical properties :
#
#
# Convention : Reuss Voigt Hill
#
# Bulk Modulus (GPa) = 48.93545 55.81953 52.37749
# Shear Modulus (GPa) = 23.51521 28.91762 26.21641
#
# Velocity S-wave (km/s) = 3.34522 3.70964 3.53213
# Velocity P-wave (km/s) = 6.18129 6.70166 6.44672
#
# Compressibility (1/GPa) = 0.02043508
#
# Stress axis : x y z
#
# Youngs Moduli (GPa) = 72.34233 115.10060 57.29727
#
# Poissons Ratio (x) = 0.34926 0.32322
# Poissons Ratio (y) = 0.21951 0.06240
# Poissons Ratio (z) = 0.40809 0.12535
#
# Static dielectric constant tensor:
#      x y z
#    x 3.796710 0.000000 0.078570 
#    y 0.000000 4.148440 0.000000 
#    z 0.078570 0.000000 3.656310 
# 
# 
# High freq. dielectric constant tensor:
#      x y z
#    x 1.825300 0.000000 0.003300 
#    y 0.000000 1.849700 0.000000 
#    z 0.003300 0.000000 1.791740 
# 
# From -- ./inp_files/47251.got.cif
#   From: 2010.06.25/outbox.cif.g09.slc.cpg/sg10_24_cif.got.tgz:47251.got - 2010.06.27 22:07:45.
