data_PCOD8065842
_publ_section_title
;
Structure prediction by ZEFSAII (Michael W. Deem and Ramdas Pophale) SiO2 
 PCOD8065842
Probable space group: P 2/M
;
_chemical_formula_sum "Si O2"
_cell_formula_units_Z 28
_cell_length_a 9.061090
_cell_length_b 9.527301
_cell_length_c 29.370815
_cell_angle_alpha 90.000000
_cell_angle_beta 141.353446
_cell_angle_gamma 90.000000
_cell_volume 1583.466134
_symmetry_space_group_name_H-M "P 2/M"
_symmetry_group_IT_number 10
_symmetry_cell_setting 'monoclinic'
loop_
_space_group_symop_operation_xyz
x,y,z
-x,y,-z
-x,-y,-z
x,-y,z
loop_
_atom_site_type_symbol
_atom_site_label
_atom_site_fract_x
_atom_site_fract_y
_atom_site_fract_z
Si Si1 0.295731 0.655096 0.988987
Si Si2 0.605291 0.838034 0.700158
Si Si3 0.776984 0.662515 0.569157
Si Si4 0.005639 0.161576 0.861553
Si Si5 0.105269 0.338432 0.302550
Si Si6 0.067085 0.836668 0.567431
Si Si7 0.716999 0.339808 0.142972
O O1 0.184756 0.500000 0.963208
O O2 0.077538 0.760163 0.926049
O O3 0.500000 0.668460 0.000000
O O4 0.432226 0.687004 0.070141
O O5 0.721720 0.746511 0.688639
O O6 0.336126 0.791278 0.641835
O O7 0.733420 0.817393 0.780326
O O8 0.622979 0.000000 0.688810
O O9 0.500000 0.690027 0.500000
O O10 0.839509 0.500000 0.576795
O O11 0.873998 0.717275 0.641136
O O12 0.897819 0.750306 0.559026
O O13 0.157567 0.225246 0.857644
O O14 0.071261 0.000000 0.883884
O O15 0.188160 0.500000 0.320242
O O16 0.829142 0.322401 0.220368
O O17 0.000000 0.797955 0.500000
O O18 0.026894 0.000000 0.567764
O O19 0.767862 0.500000 0.137647
#
# Coordination Sequence:
#
# PCOD8065842 Si02
#       7
#     4   4   4   4   4   4   4
#     4   8  13  21  33  52  81 115 149 183 220 264
#     4   9  18  31  46  68  96 123 155 194 231 269
#     4  10  21  35  51  74 100 122 149 189 234 277
#     4   9  15  22  35  57  86 116 145 184 229 266
#     4   9  17  30  48  69  94 125 157 188 229 279
#     4  10  21  36  53  72  94 123 158 191 225 271
#     4   8  14  24  37  55  83 118 151 183 220 264
#
# _framework density 17.682728999999998
#
# number of rings (size 3 to 8) (size 9 to 14) (size 15 to 20)
#    0.000    3.000    0.000    2.143    0.000    4.857 
#    0.000    0.000    0.000    0.000    0.000    1.000 
#    0.000    8.000    0.000    0.000    0.000    0.000 
#
# Total GULP energy -346900.723530 kJ/mol
# GULP energy per Si atom -12389.311555 kJ/mol
# Density = 1.764248 g / cm^3
# Si number density = 17.682729 Si / 1000 Ang^3
#
#
#
# Elastic Constant Matrix: (Units=GPa)
#
#
# Indices 1 2 3 4 5 6 
#
# 1 65.3696 39.2698 46.7499 0.0000 -3.8319 0.0000
# 2 39.2698 80.5424 60.4294 0.0000 1.1678 0.0000
# 3 46.7499 60.4294 169.3702 0.0000 -6.6709 0.0000
# 4 0.0000 0.0000 0.0000 27.1954 0.0000 -0.5257
# 5 -3.8319 1.1678 -6.6709 0.0000 17.7511 0.0000
# 6 0.0000 0.0000 0.0000 -0.5257 0.0000 23.9301
#
#
#
# Elastic Compliance Matrix: (Units=1/GPa)
#
#
# Indices 1 2 3 4 5 6 
#
# 1 0.023167 -0.009143 -0.002956 0.000000 0.004492 0.000000
# 2 -0.009143 0.020772 -0.005095 0.000000 -0.005255 0.000000
# 3 -0.002956 -0.005095 0.008654 0.000000 0.002949 0.000000
# 4 0.000000 0.000000 0.000000 0.036786 0.000000 0.000808
# 5 0.004492 -0.005255 0.002949 0.000000 0.058758 0.000000
# 6 0.000000 0.000000 0.000000 0.000808 0.000000 0.041806
#
#
# Mechanical properties :
#
#
# Convention : Reuss Voigt Hill
#
# Bulk Modulus (GPa) = 54.92464 67.57560 61.25012
# Shear Modulus (GPa) = 21.70139 25.03087 23.36613
#
# Velocity S-wave (km/s) = 3.50703 3.76647 3.63906
# Velocity P-wave (km/s) = 6.89403 7.56397 7.23676
#
# Compressibility (1/GPa) = 0.01820676
#
# Stress axis : x y z
#
# Youngs Moduli (GPa) = 43.16426 48.14097 115.55516
#
# Poissons Ratio (x) = 0.44016 0.34153
# Poissons Ratio (y) = 0.39466 0.58870
# Poissons Ratio (z) = 0.12757 0.24526
#
# Static dielectric constant tensor:
#      x y z
#    x 2.646010 0.000000 -0.083810 
#    y 0.000000 3.315620 0.000000 
#    z -0.083810 0.000000 4.178550 
# 
# 
# High freq. dielectric constant tensor:
#      x y z
#    x 1.610300 0.000000 -0.005020 
#    y 0.000000 1.685680 0.000000 
#    z -0.005020 0.000000 1.720420 
# 
# From -- ./inp_files/86449.got.cif
#   From: 2010.06.25/outbox.cif.g09.slc.cpg/sg10_44_cif.got.tgz:86449.got - 2010.06.27 22:07:45.
