data_PCOD8065929
_publ_section_title
;
Structure prediction by ZEFSAII (Michael W. Deem and Ramdas Pophale) SiO2 
 PCOD8065929
Probable space group: P 2/M
;
_chemical_formula_sum "Si O2"
_cell_formula_units_Z 32
_cell_length_a 22.798133
_cell_length_b 13.410711
_cell_length_c 9.353901
_cell_angle_alpha 90.000000
_cell_angle_beta 146.391869
_cell_angle_gamma 90.000000
_cell_volume 1582.957036
_symmetry_space_group_name_H-M "P 2/M"
_symmetry_group_IT_number 10
_symmetry_cell_setting 'monoclinic'
loop_
_space_group_symop_operation_xyz
x,y,z
-x,y,-z
-x,-y,-z
x,-y,z
loop_
_atom_site_type_symbol
_atom_site_label
_atom_site_fract_x
_atom_site_fract_y
_atom_site_fract_z
Si Si1 0.897078 0.197789 0.377918
Si Si2 0.251580 0.884354 0.314579
Si Si3 0.771894 0.612279 0.046897
Si Si4 0.320411 0.886495 0.145569
Si Si5 0.597243 0.289791 0.865296
Si Si6 0.383029 0.615050 0.511428
Si Si7 0.986574 0.116373 0.137658
Si Si8 0.381423 0.749564 0.770046
O O1 0.865741 0.311776 0.276862
O O2 0.800730 0.123618 0.150807
O O3 0.000000 0.163061 0.500000
O O4 0.927657 0.184649 0.606129
O O5 0.300078 0.832314 0.551577
O O6 0.254372 0.000000 0.355165
O O7 0.321582 0.857531 0.316561
O O8 0.130288 0.850932 0.046450
O O9 0.815752 0.500000 0.151714
O O10 0.671241 0.626304 0.945943
O O11 0.728062 0.632089 0.797095
O O12 0.396606 0.814140 0.210246
O O13 0.358409 0.000000 0.198865
O O14 0.644605 0.276340 0.119962
O O15 0.475644 0.324409 0.617486
O O16 0.415803 0.500000 0.580308
O O17 0.370438 0.651267 0.648625
O O18 0.008015 0.000000 0.212451
O O19 0.000000 0.141791 0.000000
O O20 0.500000 0.793363 0.000000
#
# Coordination Sequence:
#
# PCOD8065929 Si02
#       8
#     4   4   4   4   4   4   4   4
#     4  11  21  36  60  85 113 152 192 246 288 339
#     4  10  21  38  58  81 117 159 195 235 283 344
#     4  10  22  38  59  87 116 150 192 241 295 350
#     4  10  21  37  59  87 119 155 197 238 288 348
#     4  10  21  35  60  90 117 153 191 245 290 344
#     4  10  21  40  64  86 113 151 196 241 291 351
#     4  10  22  37  59  87 114 151 198 239 283 340
#     4  10  22  37  57  86 117 150 191 237 292 345
#
# _framework density 20.215330999999999
#
# number of rings (size 3 to 8) (size 9 to 14) (size 15 to 20)
#    0.000    1.875    1.250    2.625    3.500    6.250 
#    0.000    1.875    0.000   16.125    0.000    0.000 
#    0.000    0.000    0.000    0.000    0.000    0.000 
#
# Total GULP energy -396832.301275 kJ/mol
# GULP energy per Si atom -12401.009415 kJ/mol
# Density = 2.016932 g / cm^3
# Si number density = 20.215331 Si / 1000 Ang^3
#
#
#
# Elastic Constant Matrix: (Units=GPa)
#
#
# Indices 1 2 3 4 5 6 
#
# 1 70.2608 29.6705 14.1070 0.0000 -12.9912 0.0000
# 2 29.6705 101.0378 39.5576 0.0000 -4.5181 0.0000
# 3 14.1070 39.5576 104.0942 0.0000 -14.9909 0.0000
# 4 0.0000 0.0000 0.0000 32.2087 0.0000 4.1018
# 5 -12.9912 -4.5181 -14.9909 0.0000 26.8921 0.0000
# 6 0.0000 0.0000 0.0000 4.1018 0.0000 17.0423
#
#
#
# Elastic Compliance Matrix: (Units=1/GPa)
#
#
# Indices 1 2 3 4 5 6 
#
# 1 0.017756 -0.005130 0.000711 0.000000 0.008113 0.000000
# 2 -0.005130 0.013117 -0.004707 0.000000 -0.002898 0.000000
# 3 0.000711 -0.004707 0.012215 0.000000 0.006362 0.000000
# 4 0.000000 0.000000 0.000000 0.032029 0.000000 -0.007709
# 5 0.008113 -0.002898 0.006362 0.000000 0.044164 0.000000
# 6 0.000000 0.000000 0.000000 -0.007709 0.000000 0.060533
#
#
# Mechanical properties :
#
#
# Convention : Reuss Voigt Hill
#
# Bulk Modulus (GPa) = 40.26167 49.11813 44.68990
# Shear Modulus (GPa) = 24.23127 28.03246 26.13186
#
# Velocity S-wave (km/s) = 3.46592 3.72787 3.59928
# Velocity P-wave (km/s) = 5.99804 6.54825 6.27917
#
# Compressibility (1/GPa) = 0.02483752
#
# Stress axis : x y z
#
# Youngs Moduli (GPa) = 56.31830 76.23729 81.86531
#
# Poissons Ratio (x) = 0.39110 -0.05824
# Poissons Ratio (y) = 0.28891 0.38533
# Poissons Ratio (z) = -0.04007 0.35884
#
# Static dielectric constant tensor:
#      x y z
#    x 3.645520 0.000000 -0.154140 
#    y 0.000000 3.541390 0.000000 
#    z -0.154140 0.000000 3.733980 
# 
# 
# High freq. dielectric constant tensor:
#      x y z
#    x 1.782900 0.000000 -0.011940 
#    y 0.000000 1.780930 0.000000 
#    z -0.011940 0.000000 1.796680 
# 
# From -- ./inp_files/36375.got.cif
#   From: 2010.06.25/outbox.cif.g09.slc.cpg/sg10_19_cif.got.tgz:36375.got - 2010.06.27 22:07:45.
