data_PCOD8065091
_publ_section_title
;
Structure prediction by ZEFSAII (Michael W. Deem and Ramdas Pophale) SiO2 
 PCOD8065091
Probable space group: P 2/M
;
_chemical_formula_sum "Si O2"
_cell_formula_units_Z 28
_cell_length_a 14.802603
_cell_length_b 7.690970
_cell_length_c 21.052300
_cell_angle_alpha 90.000000
_cell_angle_beta 146.925965
_cell_angle_gamma 90.000000
_cell_volume 1307.947878
_symmetry_space_group_name_H-M "P 2/M"
_symmetry_group_IT_number 10
_symmetry_cell_setting 'monoclinic'
loop_
_space_group_symop_operation_xyz
x,y,z
-x,y,-z
-x,-y,-z
x,-y,z
loop_
_atom_site_type_symbol
_atom_site_label
_atom_site_fract_x
_atom_site_fract_y
_atom_site_fract_z
Si Si1 0.551886 0.795700 0.603017
Si Si2 0.319455 0.794570 0.903925
Si Si3 0.922666 0.203122 0.343505
Si Si4 0.345998 0.303611 0.725112
Si Si5 0.169338 0.500000 0.030983
Si Si6 0.289814 0.204439 0.555065
Si Si7 0.315676 0.807462 0.041508
Si Si8 0.789931 0.500000 0.794685
O O1 0.500000 0.754924 0.500000
O O2 0.394139 0.747507 0.553876
O O3 0.704197 0.673434 0.714921
O O4 0.601923 0.000000 0.640003
O O5 0.192526 0.711893 0.778743
O O6 0.331167 0.000000 0.900834
O O7 0.500000 0.709901 0.000000
O O8 0.251715 0.751552 0.934332
O O9 0.837925 0.241838 0.361962
O O10 0.104932 0.285519 0.443002
O O11 0.941017 0.000000 0.343714
O O12 0.375539 0.500000 0.763273
O O13 0.374048 0.287051 0.666349
O O14 0.483544 0.187866 0.841878
O O15 0.255511 0.674503 0.058436
O O16 0.204635 0.500000 0.126227
O O17 0.984341 0.500000 0.893211
O O18 0.283537 0.000000 0.561501
O O19 0.250633 0.000000 0.020822
#
# Coordination Sequence:
#
# PCOD8065091 Si02
#       8
#     4   4   4   4   2   4   4   2
#     4  10  23  45  73 100 127 165 216 271 333 398
#     4   9  17  33  58  84 117 165 210 249 300 358
#     4  10  20  37  58  86 125 168 215 260 306 367
#     4  12  23  36  56  87 130 170 214 260 304 372
#     4  11  26  44  63 101 131 164 219 265 318 401
#     4  10  22  38  61  91 121 161 211 260 315 378
#     4  11  22  40  65  91 127 170 212 260 312 369
#     4  11  25  46  70  93 134 169 203 269 339 390
#
# _framework density 21.407579999999999
#
# number of rings (size 3 to 8) (size 9 to 14) (size 15 to 20)
#    0.000    1.571    2.143    2.786    1.000    5.714 
#    1.286    5.357    0.000    0.000    0.000    0.000 
#    0.000    0.000    0.000    0.000    0.000    0.000 
#
# Total GULP energy -347121.434721 kJ/mol
# GULP energy per Si atom -12397.194097 kJ/mol
# Density = 2.135886 g / cm^3
# Si number density = 21.407580 Si / 1000 Ang^3
#
#
#
# Elastic Constant Matrix: (Units=GPa)
#
#
# Indices 1 2 3 4 5 6 
#
# 1 104.5144 26.6634 46.5886 0.0000 -3.4919 0.0000
# 2 26.6634 80.6856 31.9538 0.0000 -0.2934 0.0000
# 3 46.5886 31.9538 110.3055 0.0000 -3.2798 0.0000
# 4 0.0000 0.0000 0.0000 44.3945 0.0000 -19.3467
# 5 -3.4919 -0.2934 -3.2798 0.0000 35.5748 0.0000
# 6 0.0000 0.0000 0.0000 -19.3467 0.0000 35.1302
#
#
#
# Elastic Compliance Matrix: (Units=1/GPa)
#
#
# Indices 1 2 3 4 5 6 
#
# 1 0.012155 -0.002248 -0.004460 0.000000 0.000763 0.000000
# 2 -0.002248 0.014418 -0.003239 0.000000 -0.000400 0.000000
# 3 -0.004460 -0.003239 0.011907 0.000000 0.000633 0.000000
# 4 0.000000 0.000000 0.000000 0.029638 0.000000 0.016322
# 5 0.000763 -0.000400 0.000633 0.000000 0.028240 0.000000
# 6 0.000000 0.000000 0.000000 0.016322 0.000000 0.037454
#
#
# Mechanical properties :
#
#
# Convention : Reuss Voigt Hill
#
# Bulk Modulus (GPa) = 53.80447 56.21300 55.00874
# Shear Modulus (GPa) = 31.26925 35.70655 33.48790
#
# Velocity S-wave (km/s) = 3.82601 4.08847 3.95942
# Velocity P-wave (km/s) = 6.68623 6.97158 6.83040
#
# Compressibility (1/GPa) = 0.01858582
#
# Stress axis : x y z
#
# Youngs Moduli (GPa) = 82.27006 69.35805 83.98685
#
# Poissons Ratio (x) = 0.15590 0.37458
# Poissons Ratio (y) = 0.18492 0.27205
# Poissons Ratio (z) = 0.36692 0.22467
#
# Static dielectric constant tensor:
#      x y z
#    x 3.867060 0.000000 0.017610 
#    y 0.000000 3.655770 0.000000 
#    z 0.017610 0.000000 4.147190 
# 
# 
# High freq. dielectric constant tensor:
#      x y z
#    x 1.836820 0.000000 -0.010670 
#    y 0.000000 1.831490 0.000000 
#    z -0.010670 0.000000 1.843760 
# 
# From -- ./inp_files/85039.got.cif
#   From: 2010.06.25/outbox.cif.g09.slc.cpg/sg10_43_cif.got.tgz:85039.got - 2010.06.27 22:07:45.
