data_PCOD8065970
_publ_section_title
;
Structure prediction by ZEFSAII (Michael W. Deem and Ramdas Pophale) SiO2 
 PCOD8065970
Probable space group: P 2/M
;
_chemical_formula_sum "Si O2"
_cell_formula_units_Z 16
_cell_length_a 8.197641
_cell_length_b 13.809318
_cell_length_c 7.046514
_cell_angle_alpha 90.000000
_cell_angle_beta 107.441861
_cell_angle_gamma 90.000000
_cell_volume 761.015756
_symmetry_space_group_name_H-M "P 2/M"
_symmetry_group_IT_number 10
_symmetry_cell_setting 'monoclinic'
loop_
_space_group_symop_operation_xyz
x,y,z
-x,y,-z
-x,-y,-z
x,-y,z
loop_
_atom_site_type_symbol
_atom_site_label
_atom_site_fract_x
_atom_site_fract_y
_atom_site_fract_z
Si Si1 0.508979 0.894562 0.278600
Si Si2 0.182358 0.223527 0.115266
Si Si3 0.300433 0.609181 0.893591
Si Si4 0.679042 0.720339 0.455447
O O1 0.500000 0.906496 0.500000
O O2 0.330088 0.856180 0.128021
O O3 0.653520 0.812051 0.299078
O O4 0.552630 0.000000 0.202939
O O5 0.180321 0.255653 0.336477
O O6 0.199420 0.320406 0.997589
O O7 0.000000 0.175535 0.000000
O O8 0.238968 0.500000 0.912201
O O9 0.262550 0.632413 0.657865
O O10 0.500000 0.621881 0.000000
O O11 0.500000 0.696771 0.500000
#
# Coordination Sequence:
#
# PCOD8065970 Si02
#       4
#     4   4   4   4
#     4   8  15  31  55  79 104 138 177 213 258 313
#     4  10  21  36  53  79 113 140 171 218 267 310
#     4  11  21  35  57  81 103 136 185 222 255 314
#     4   9  18  35  54  79 106 139 175 217 262 306
#
# _framework density 21.024532000000001
#
# number of rings (size 3 to 8) (size 9 to 14) (size 15 to 20)
#    0.000    3.000    5.000    0.000    0.000    3.500 
#    0.000    3.750    0.000    0.000    0.000   17.500 
#    0.000    0.000    0.000    0.000    0.000    0.000 
#
# Total GULP energy -198229.925591 kJ/mol
# GULP energy per Si atom -12389.370349 kJ/mol
# Density = 2.097668 g / cm^3
# Si number density = 21.024532 Si / 1000 Ang^3
#
#
#
# Elastic Constant Matrix: (Units=GPa)
#
#
# Indices 1 2 3 4 5 6 
#
# 1 27.8871 24.1625 25.5918 0.0000 14.7894 0.0000
# 2 24.1625 114.7991 22.9210 0.0000 -5.3280 0.0000
# 3 25.5918 22.9210 122.0668 0.0000 13.9358 0.0000
# 4 0.0000 0.0000 0.0000 -7.2897 0.0000 7.6404
# 5 14.7894 -5.3280 13.9358 0.0000 31.9279 0.0000
# 6 0.0000 0.0000 0.0000 7.6404 0.0000 5.4508
#
#
#
# Elastic Compliance Matrix: (Units=1/GPa)
#
#
# Indices 1 2 3 4 5 6 
#
# 1 0.075620 -0.015670 -0.009066 0.000000 -0.033686 0.000000
# 2 -0.015670 0.012471 -0.000129 0.000000 0.009396 0.000000
# 3 -0.009066 -0.000129 0.010146 0.000000 -0.000250 0.000000
# 4 0.000000 0.000000 0.000000 -0.055558 0.000000 0.077876
# 5 -0.033686 0.009396 -0.000250 0.000000 0.048602 0.000000
# 6 0.000000 0.000000 0.000000 0.077876 0.000000 0.074301
#
#
# Mechanical properties :
#
#
# Convention : Reuss Voigt Hill
#
# Bulk Modulus (GPa) = 20.61538 45.56706 33.09122
# Shear Modulus (GPa) = 21.60012 18.82299 20.21155
#
# Velocity S-wave (km/s) = 3.20875 2.99538 3.10390
# Velocity P-wave (km/s) = 4.85333 5.80374 5.34968
#
# Compressibility (1/GPa) = 0.04850747
#
# Stress axis : x y z
#
# Youngs Moduli (GPa) = 13.22396 80.18721 98.56284
#
# Poissons Ratio (x) = 1.25650 0.89357
# Poissons Ratio (y) = 0.20721 0.01273
# Poissons Ratio (z) = 0.11989 0.01036
#
# Static dielectric constant tensor:
#      x y z
#    x 3.279670 0.000000 0.044000 
#    y 0.000000 4.482890 0.000000 
#    z 0.044000 0.000000 3.990870 
# 
# 
# High freq. dielectric constant tensor:
#      x y z
#    x 1.767750 0.000000 -0.005860 
#    y 0.000000 1.819210 0.000000 
#    z -0.005860 0.000000 1.841220 
# 
# From -- ./inp_files/17657.got.cif
#   From: 2010.06.25/outbox.cif.g09.slc.cpg/sg10_9_cif.got.tgz:17657.got - 2010.06.27 22:07:45.
