data_PCOD8065073
_publ_section_title
;
Structure prediction by ZEFSAII (Michael W. Deem and Ramdas Pophale) SiO2 
 PCOD8065073
Probable space group: P 2/M
;
_chemical_formula_sum "Si O2"
_cell_formula_units_Z 28
_cell_length_a 12.068742
_cell_length_b 8.754478
_cell_length_c 15.121434
_cell_angle_alpha 90.000000
_cell_angle_beta 120.078296
_cell_angle_gamma 90.000000
_cell_volume 1382.524021
_symmetry_space_group_name_H-M "P 2/M"
_symmetry_group_IT_number 10
_symmetry_cell_setting 'monoclinic'
loop_
_space_group_symop_operation_xyz
x,y,z
-x,y,-z
-x,-y,-z
x,-y,z
loop_
_atom_site_type_symbol
_atom_site_label
_atom_site_fract_x
_atom_site_fract_y
_atom_site_fract_z
Si Si1 0.762822 0.827546 0.713255
Si Si2 0.622302 0.318524 0.807809
Si Si3 0.121813 0.320528 0.995461
Si Si4 0.920438 0.180523 0.383178
Si Si5 0.011639 0.676135 0.772179
Si Si6 0.390449 0.827500 0.512728
Si Si7 0.637430 0.181775 0.304227
O O1 0.642331 0.758658 0.719371
O O2 0.736422 0.827523 0.597642
O O3 0.882793 0.716390 0.774763
O O4 0.792078 0.000000 0.757126
O O5 0.617702 0.500000 0.799192
O O6 0.486415 0.257815 0.793073
O O7 0.741623 0.258474 0.914701
O O8 0.116562 0.500000 0.009147
O O9 0.119555 0.284491 0.888922
O O10 0.000000 0.247502 0.000000
O O11 0.980648 0.226356 0.313750
O O12 0.773273 0.239979 0.320498
O O13 0.000000 0.246998 0.500000
O O14 0.922087 0.000000 0.392434
O O15 0.013345 0.500000 0.745657
O O16 0.500000 0.740307 0.500000
O O17 0.360874 0.752419 0.594827
O O18 0.438984 0.000000 0.551636
O O19 0.627481 0.000000 0.292741
#
# Coordination Sequence:
#
# PCOD8065073 Si02
#       7
#     4   4   4   4   4   4   4
#     4  11  20  33  55  83 116 151 190 233 288 352
#     4  11  21  35  56  83 116 151 190 237 292 348
#     4   9  18  36  58  81 116 158 193 231 292 357
#     4  10  22  42  65  86 115 158 199 234 285 354
#     4  11  22  38  61  86 114 150 197 248 291 337
#     4   9  16  29  51  77 107 145 184 219 271 346
#     4  10  20  37  58  81 113 152 192 237 287 343
#
# _framework density 20.252811999999999
#
# number of rings (size 3 to 8) (size 9 to 14) (size 15 to 20)
#    0.000    1.857    2.857    2.143    0.000    3.143 
#    0.000    7.857    0.000    4.286    0.000    0.000 
#    0.000    0.000    0.000    0.000    0.000    0.000 
#
# Total GULP energy -346973.607848 kJ/mol
# GULP energy per Si atom -12391.914566 kJ/mol
# Density = 2.020672 g / cm^3
# Si number density = 20.252812 Si / 1000 Ang^3
#
#
#
# Elastic Constant Matrix: (Units=GPa)
#
#
# Indices 1 2 3 4 5 6 
#
# 1 103.6251 21.4750 35.3235 0.0000 20.1707 0.0000
# 2 21.4750 32.4674 25.0654 0.0000 5.8879 0.0000
# 3 35.3235 25.0654 93.1419 0.0000 15.9223 0.0000
# 4 0.0000 0.0000 0.0000 22.6618 0.0000 6.4882
# 5 20.1707 5.8879 15.9223 0.0000 33.7507 0.0000
# 6 0.0000 0.0000 0.0000 6.4882 0.0000 13.6614
#
#
#
# Elastic Compliance Matrix: (Units=1/GPa)
#
#
# Indices 1 2 3 4 5 6 
#
# 1 0.012680 -0.005558 -0.002375 0.000000 -0.005488 0.000000
# 2 -0.005558 0.041439 -0.009111 0.000000 0.000391 0.000000
# 3 -0.002375 -0.009111 0.014765 0.000000 -0.003957 0.000000
# 4 0.000000 0.000000 0.000000 0.051072 0.000000 -0.024256
# 5 -0.005488 0.000391 -0.003957 0.000000 0.034707 0.000000
# 6 0.000000 0.000000 0.000000 -0.024256 0.000000 0.084719
#
#
# Mechanical properties :
#
#
# Convention : Reuss Voigt Hill
#
# Bulk Modulus (GPa) = 28.73820 43.66249 36.20035
# Shear Modulus (GPa) = 17.53967 23.83948 20.68958
#
# Velocity S-wave (km/s) = 2.94604 3.43460 3.19966
# Velocity P-wave (km/s) = 5.07866 6.11017 5.61814
#
# Compressibility (1/GPa) = 0.03479689
#
# Stress axis : x y z
#
# Youngs Moduli (GPa) = 78.86553 24.13179 67.72724
#
# Poissons Ratio (x) = 0.13413 0.16084
# Poissons Ratio (y) = 0.43835 0.61703
# Poissons Ratio (z) = 0.18729 0.21985
#
# Static dielectric constant tensor:
#      x y z
#    x 3.723010 0.000000 0.218430 
#    y 0.000000 3.252210 0.000000 
#    z 0.218430 0.000000 3.811740 
# 
# 
# High freq. dielectric constant tensor:
#      x y z
#    x 1.783630 0.000000 0.015710 
#    y 0.000000 1.754990 0.000000 
#    z 0.015710 0.000000 1.794660 
# 
# From -- ./inp_files/49371.got.cif
#   From: 2010.06.25/outbox.cif.g09.slc.cpg/sg10_25_cif.got.tgz:49371.got - 2010.06.27 22:07:45.
