data_PCOD8065445
_publ_section_title
;
Structure prediction by ZEFSAII (Michael W. Deem and Ramdas Pophale) SiO2 
 PCOD8065445
Probable space group: P 2/M
;
_chemical_formula_sum "Si O2"
_cell_formula_units_Z 24
_cell_length_a 14.541274
_cell_length_b 8.832077
_cell_length_c 9.580388
_cell_angle_alpha 90.000000
_cell_angle_beta 72.058653
_cell_angle_gamma 90.000000
_cell_volume 1170.574152
_symmetry_space_group_name_H-M "P 2/M"
_symmetry_group_IT_number 10
_symmetry_cell_setting 'monoclinic'
loop_
_space_group_symop_operation_xyz
x,y,z
-x,y,-z
-x,-y,-z
x,-y,z
loop_
_atom_site_type_symbol
_atom_site_label
_atom_site_fract_x
_atom_site_fract_y
_atom_site_fract_z
Si Si1 0.590982 0.322238 0.552912
Si Si2 0.784825 0.172393 0.389542
Si Si3 0.105241 0.679133 0.899934
Si Si4 0.214608 0.180277 0.091386
Si Si5 0.096074 0.172431 0.398303
Si Si6 0.587480 0.821982 0.858643
O O1 0.500000 0.279410 0.500000
O O2 0.606164 0.500000 0.558732
O O3 0.682080 0.253925 0.427232
O O4 0.577130 0.257524 0.714332
O O5 0.869773 0.253979 0.263021
O O6 0.815524 0.180300 0.536071
O O7 0.774376 0.000000 0.342413
O O8 0.106790 0.500000 0.892621
O O9 0.192066 0.738113 0.957155
O O10 0.000000 0.738356 0.000000
O O11 0.132987 0.243083 0.236509
O O12 0.317609 0.232005 0.102783
O O13 0.211193 0.000000 0.073647
O O14 0.000000 0.258109 0.500000
O O15 0.067051 0.000000 0.379788
O O16 0.590409 0.000000 0.827308
O O17 0.500000 0.775154 0.000000
#
# Coordination Sequence:
#
# PCOD8065445 Si02
#       6
#     4   4   4   4   4   4
#     4  11  25  43  63  92 128 165 204 250 311 379
#     4  11  22  40  66  92 121 161 207 259 310 359
#     4  11  25  42  59  88 131 172 208 250 305 368
#     4  10  20  38  61  89 122 157 204 256 306 360
#     4   9  17  32  58  89 117 146 190 248 302 355
#     4  10  22  41  65  94 123 156 205 259 308 364
#
# _framework density 20.502758
#
# number of rings (size 3 to 8) (size 9 to 14) (size 15 to 20)
#    0.000    1.667    1.667    2.500    2.333    5.000 
#    0.000    0.000    0.000    3.500    0.000    0.000 
#    0.000    0.000    0.000    0.000    0.000    0.000 
#
# Total GULP energy -297612.897227 kJ/mol
# GULP energy per Si atom -12400.537384 kJ/mol
# Density = 2.045609 g / cm^3
# Si number density = 20.502758 Si / 1000 Ang^3
#
#
#
# Elastic Constant Matrix: (Units=GPa)
#
#
# Indices 1 2 3 4 5 6 
#
# 1 99.7736 32.6836 18.7284 0.0000 -10.7691 0.0000
# 2 32.6836 65.7401 26.4987 0.0000 -2.7196 0.0000
# 3 18.7284 26.4987 81.9697 0.0000 -9.5713 0.0000
# 4 0.0000 0.0000 0.0000 29.8405 0.0000 -2.5229
# 5 -10.7691 -2.7196 -9.5713 0.0000 41.0207 0.0000
# 6 0.0000 0.0000 0.0000 -2.5229 0.0000 21.5732
#
#
#
# Elastic Compliance Matrix: (Units=1/GPa)
#
#
# Indices 1 2 3 4 5 6 
#
# 1 0.012320 -0.005756 -0.000638 0.000000 0.002704 0.000000
# 2 -0.005756 0.020181 -0.005375 0.000000 -0.001427 0.000000
# 3 -0.000638 -0.005375 0.014415 0.000000 0.002839 0.000000
# 4 0.000000 0.000000 0.000000 0.033846 0.000000 0.003958
# 5 0.002704 -0.001427 0.002839 0.000000 0.025656 0.000000
# 6 0.000000 0.000000 0.000000 0.003958 0.000000 0.046817
#
#
# Mechanical properties :
#
#
# Convention : Reuss Voigt Hill
#
# Bulk Modulus (GPa) = 42.77905 44.81164 43.79535
# Shear Modulus (GPa) = 27.09072 29.79175 28.44123
#
# Velocity S-wave (km/s) = 3.63894 3.81604 3.72854
# Velocity P-wave (km/s) = 6.21017 6.42807 6.32006
#
# Compressibility (1/GPa) = 0.02337593
#
# Stress axis : x y z
#
# Youngs Moduli (GPa) = 81.16994 49.55233 69.37322
#
# Poissons Ratio (x) = 0.28521 0.04429
# Poissons Ratio (y) = 0.46720 0.37291
# Poissons Ratio (z) = 0.05182 0.26637
#
# Static dielectric constant tensor:
#      x y z
#    x 3.878070 0.000000 -0.164950 
#    y 0.000000 3.463590 0.000000 
#    z -0.164950 0.000000 3.767980 
# 
# 
# High freq. dielectric constant tensor:
#      x y z
#    x 1.814270 0.000000 -0.006010 
#    y 0.000000 1.776880 0.000000 
#    z -0.006010 0.000000 1.814950 
# 
# From -- ./inp_files/27007.got.cif
#   From: 2010.06.25/outbox.cif.g09.slc.cpg/sg10_14_cif.got.tgz:27007.got - 2010.06.27 22:07:45.
