data_PCOD8065835
_publ_section_title
;
Structure prediction by ZEFSAII (Michael W. Deem and Ramdas Pophale) SiO2 
 PCOD8065835
Probable space group: P 2/M
;
_chemical_formula_sum "Si O2"
_cell_formula_units_Z 32
_cell_length_a 12.333238
_cell_length_b 8.986707
_cell_length_c 23.205902
_cell_angle_alpha 90.000000
_cell_angle_beta 134.888123
_cell_angle_gamma 90.000000
_cell_volume 1822.248116
_symmetry_space_group_name_H-M "P 2/M"
_symmetry_group_IT_number 10
_symmetry_cell_setting 'monoclinic'
loop_
_space_group_symop_operation_xyz
x,y,z
-x,y,-z
-x,-y,-z
x,-y,z
loop_
_atom_site_type_symbol
_atom_site_label
_atom_site_fract_x
_atom_site_fract_y
_atom_site_fract_z
Si Si1 0.141870 0.324729 0.015562
Si Si2 0.072230 0.824828 0.289070
Si Si3 0.203929 0.827580 0.513117
Si Si4 0.670136 0.323064 0.812302
Si Si5 0.889717 0.830028 0.332263
Si Si6 0.672663 0.323990 0.329781
Si Si7 0.325911 0.331930 0.452273
Si Si8 0.956295 0.677054 0.842011
O O1 0.151795 0.500000 0.016601
O O2 0.104420 0.271185 0.936289
O O3 0.289278 0.264318 0.106868
O O4 0.000000 0.272656 0.000000
O O5 0.230937 0.749342 0.366785
O O6 0.019658 0.761539 0.208463
O O7 0.941833 0.787023 0.287273
O O8 0.100535 0.000000 0.296254
O O9 0.228273 0.751521 0.583415
O O10 0.315475 0.752286 0.508836
O O11 0.029485 0.804673 0.428664
O O12 0.246692 0.000000 0.533532
O O13 0.669813 0.500000 0.813629
O O14 0.502066 0.263869 0.732784
O O15 0.797076 0.272039 0.813001
O O16 0.749245 0.724387 0.297954
O O17 0.834037 0.000000 0.313940
O O18 0.678965 0.500000 0.338788
O O19 0.500000 0.331391 0.500000
O O20 0.264192 0.500000 0.436142
O O21 0.954797 0.500000 0.831269
#
# Coordination Sequence:
#
# PCOD8065835 Si02
#       8
#     4   4   4   4   4   4   4   4
#     4   7  11  24  47  72  98 130 161 191 236 294
#     4  10  21  35  51  72  99 131 166 204 247 296
#     4  10  21  36  52  70  96 132 170 205 246 297
#     4   8  16  29  46  75 108 129 153 198 252 294
#     4   9  20  38  52  64  91 132 173 210 247 288
#     4  11  21  31  50  77 102 127 163 212 254 293
#     4  10  21  35  51  71  99 131 164 206 247 285
#     4   9  16  29  53  78 100 129 165 199 237 295
#
# _framework density 17.560725000000001
#
# number of rings (size 3 to 8) (size 9 to 14) (size 15 to 20)
#    0.000    2.750    0.000    4.125    1.750    5.500 
#    0.000    0.625    0.000    5.625    0.000    5.250 
#    0.000    0.000    0.000    0.000    0.000    0.000 
#
# Total GULP energy -396532.650897 kJ/mol
# GULP energy per Si atom -12391.645341 kJ/mol
# Density = 1.752076 g / cm^3
# Si number density = 17.560725 Si / 1000 Ang^3
#
#
#
# Elastic Constant Matrix: (Units=GPa)
#
#
# Indices 1 2 3 4 5 6 
#
# 1 77.0702 34.6911 48.0280 0.0000 -11.4729 0.0000
# 2 34.6911 71.2039 34.3546 0.0000 -7.4363 0.0000
# 3 48.0280 34.3546 101.6264 0.0000 -25.6708 0.0000
# 4 0.0000 0.0000 0.0000 -3.7388 0.0000 1.4135
# 5 -11.4729 -7.4363 -25.6708 0.0000 22.5825 0.0000
# 6 0.0000 0.0000 0.0000 1.4135 0.0000 19.6581
#
#
#
# Elastic Compliance Matrix: (Units=1/GPa)
#
#
# Indices 1 2 3 4 5 6 
#
# 1 0.020554 -0.006358 -0.007653 0.000000 -0.000351 0.000000
# 2 -0.006358 0.018775 -0.003642 0.000000 -0.001188 0.000000
# 3 -0.007653 -0.003642 0.018802 0.000000 0.016285 0.000000
# 4 0.000000 0.000000 0.000000 -0.260386 0.000000 0.018723
# 5 -0.000351 -0.001188 0.016285 0.000000 0.062225 0.000000
# 6 0.000000 0.000000 0.000000 0.018723 0.000000 0.049524
#
#
# Mechanical properties :
#
#
# Convention : Reuss Voigt Hill
#
# Bulk Modulus (GPa) = 43.81327 53.78309 48.79818
# Shear Modulus (GPa) = -105.06056 16.55547 -44.25254
#
# Velocity S-wave (km/s) = -7.74318 3.07376 -5.02538
# Velocity P-wave (km/s) = 7.41207 6.57957 2.41330
#
# Compressibility (1/GPa) = 0.02282414
#
# Stress axis : x y z
#
# Youngs Moduli (GPa) = 48.65205 53.26173 53.18713
#
# Poissons Ratio (x) = 0.33866 0.40704
# Poissons Ratio (y) = 0.30935 0.19371
# Poissons Ratio (z) = 0.37233 0.19398
#
# Static dielectric constant tensor:
#      x y z
#    x 3.241650 0.000000 -0.066960 
#    y 0.000000 3.122250 0.000000 
#    z -0.066960 0.000000 3.600040 
# 
# 
# High freq. dielectric constant tensor:
#      x y z
#    x 1.662290 0.000000 -0.010580 
#    y 0.000000 1.662230 0.000000 
#    z -0.010580 0.000000 1.679800 
# 
# From -- ./inp_files/83599.got.cif
#   From: 2010.06.25/outbox.cif.g09.slc.cpg/sg10_42_cif.got.tgz:83599.got - 2010.06.27 22:07:45.
