data_PCOD8065003
_publ_section_title
;
Structure prediction by ZEFSAII (Michael W. Deem and Ramdas Pophale) SiO2 
 PCOD8065003
Probable space group: P 2/M
;
_chemical_formula_sum "Si O2"
_cell_formula_units_Z 32
_cell_length_a 9.259288
_cell_length_b 13.809145
_cell_length_c 15.048761
_cell_angle_alpha 90.000000
_cell_angle_beta 126.297898
_cell_angle_gamma 90.000000
_cell_volume 1550.790841
_symmetry_space_group_name_H-M "P 2/M"
_symmetry_group_IT_number 10
_symmetry_cell_setting 'monoclinic'
loop_
_space_group_symop_operation_xyz
x,y,z
-x,y,-z
-x,-y,-z
x,-y,z
loop_
_atom_site_type_symbol
_atom_site_label
_atom_site_fract_x
_atom_site_fract_y
_atom_site_fract_z
Si Si1 0.212809 0.606558 0.581308
Si Si2 0.695878 0.116240 0.782746
Si Si3 0.810877 0.268374 0.957855
Si Si4 0.340342 0.804713 0.596758
Si Si5 0.249372 0.891958 0.392541
Si Si6 0.143580 0.889509 0.679207
Si Si7 0.543281 0.390049 0.160886
Si Si8 0.317479 0.773099 0.902186
O O1 0.253913 0.500000 0.555098
O O2 0.317092 0.690622 0.566355
O O3 0.295158 0.612717 0.709535
O O4 0.000000 0.625100 0.500000
O O5 0.808444 0.168415 0.900318
O O6 0.496924 0.160114 0.719910
O O7 0.763380 0.154408 0.710065
O O8 0.705511 0.000000 0.798943
O O9 0.641307 0.337710 0.873715
O O10 0.817575 0.238208 0.064225
O O11 0.000000 0.319884 0.000000
O O12 0.384898 0.848373 0.515569
O O13 0.169630 0.841343 0.591716
O O14 0.065006 0.883031 0.377654
O O15 0.313284 0.000000 0.398756
O O16 0.240000 0.833434 0.793452
O O17 0.211573 0.000000 0.702717
O O18 0.495163 0.500000 0.117748
O O19 0.625968 0.335124 0.106955
O O20 0.500000 0.827190 0.000000
#
# Coordination Sequence:
#
# PCOD8065003 Si02
#       8
#     4   4   4   4   4   4   4   4
#     4  10  20  36  62  92 120 151 189 234 296 364
#     4  11  23  40  58  83 119 162 206 236 285 351
#     4  11  23  40  61  87 119 156 203 252 295 340
#     4  12  20  35  60  89 117 151 190 245 293 347
#     4  10  22  36  55  83 117 158 197 234 283 354
#     4  11  21  34  53  84 119 148 191 243 295 345
#     4  10  21  41  65  89 119 152 194 245 299 360
#     4  10  21  37  56  84 114 151 199 241 297 352
#
# _framework density 20.634633000000001
#
# number of rings (size 3 to 8) (size 9 to 14) (size 15 to 20)
#    0.000    1.375    2.500    4.125    0.000    5.500 
#    0.000    0.000    0.000    2.250    0.000    0.000 
#    0.000    0.000    0.000    0.000    0.000    0.000 
#
# Total GULP energy -396498.366570 kJ/mol
# GULP energy per Si atom -12390.573955 kJ/mol
# Density = 2.058767 g / cm^3
# Si number density = 20.634633 Si / 1000 Ang^3
#
#
#
# Elastic Constant Matrix: (Units=GPa)
#
#
# Indices 1 2 3 4 5 6 
#
# 1 94.7060 26.3466 29.5420 0.0000 -16.6847 0.0000
# 2 26.3466 109.8286 36.1172 0.0000 -8.0654 0.0000
# 3 29.5420 36.1172 88.3671 0.0000 -6.8023 0.0000
# 4 0.0000 0.0000 0.0000 23.1747 0.0000 0.4642
# 5 -16.6847 -8.0654 -6.8023 0.0000 34.9442 0.0000
# 6 0.0000 0.0000 0.0000 0.4642 0.0000 20.8940
#
#
#
# Elastic Compliance Matrix: (Units=1/GPa)
#
#
# Indices 1 2 3 4 5 6 
#
# 1 0.012944 -0.001656 -0.003253 0.000000 0.005165 0.000000
# 2 -0.001656 0.010821 -0.003795 0.000000 0.000968 0.000000
# 3 -0.003253 -0.003795 0.013977 0.000000 0.000292 0.000000
# 4 0.000000 0.000000 0.000000 0.043170 0.000000 -0.000959
# 5 0.005165 0.000968 0.000292 0.000000 0.031364 0.000000
# 6 0.000000 0.000000 0.000000 -0.000959 0.000000 0.047882
#
#
# Mechanical properties :
#
#
# Convention : Reuss Voigt Hill
#
# Bulk Modulus (GPa) = 49.17505 52.99036 51.08271
# Shear Modulus (GPa) = 27.12315 29.19563 28.15939
#
# Velocity S-wave (km/s) = 3.62946 3.76558 3.69815
# Velocity P-wave (km/s) = 6.43794 6.68148 6.56084
#
# Compressibility (1/GPa) = 0.02033551
#
# Stress axis : x y z
#
# Youngs Moduli (GPa) = 77.25361 92.40961 71.54431
#
# Poissons Ratio (x) = 0.15305 0.23273
# Poissons Ratio (y) = 0.12794 0.27149
# Poissons Ratio (z) = 0.25130 0.35067
#
# Static dielectric constant tensor:
#      x y z
#    x 3.756830 0.000000 0.046380 
#    y 0.000000 3.868630 0.000000 
#    z 0.046380 0.000000 3.920730 
# 
# 
# High freq. dielectric constant tensor:
#      x y z
#    x 1.804280 0.000000 0.005180 
#    y 0.000000 1.794760 0.000000 
#    z 0.005180 0.000000 1.822200 
# 
# From -- ./inp_files/61881.got.cif
#   From: 2010.06.25/outbox.cif.g09.slc.cpg/sg10_31_cif.got.tgz:61881.got - 2010.06.27 22:07:45.
