data_PCOD8065735
_publ_section_title
;
Structure prediction by ZEFSAII (Michael W. Deem and Ramdas Pophale) SiO2 
 PCOD8065735
Probable space group: P 2/M
;
_chemical_formula_sum "Si O2"
_cell_formula_units_Z 28
_cell_length_a 19.298850
_cell_length_b 8.551982
_cell_length_c 14.367099
_cell_angle_alpha 90.000000
_cell_angle_beta 41.170734
_cell_angle_gamma 90.000000
_cell_volume 1560.969723
_symmetry_space_group_name_H-M "P 2/M"
_symmetry_group_IT_number 10
_symmetry_cell_setting 'monoclinic'
loop_
_space_group_symop_operation_xyz
x,y,z
-x,y,-z
-x,-y,-z
x,-y,z
loop_
_atom_site_type_symbol
_atom_site_label
_atom_site_fract_x
_atom_site_fract_y
_atom_site_fract_z
Si Si1 0.885074 0.315601 0.514950
Si Si2 0.608564 0.818330 0.490383
Si Si3 0.014900 0.817835 0.877235
Si Si4 0.122508 0.685128 0.271989
Si Si5 0.612920 0.681431 0.288891
Si Si6 0.802543 0.818131 0.986881
Si Si7 0.789067 0.683317 0.423556
O O1 0.895199 0.500000 0.499403
O O2 0.838111 0.269224 0.663530
O O3 0.812050 0.254067 0.505062
O O4 0.003280 0.251493 0.382105
O O5 0.644060 0.724621 0.362769
O O6 0.489800 0.776887 0.639806
O O7 0.686019 0.775165 0.495653
O O8 0.616955 0.000000 0.458632
O O9 0.111987 0.717077 0.742445
O O10 0.040479 0.000000 0.836660
O O11 0.910645 0.767103 0.927191
O O12 0.000000 0.777224 0.000000
O O13 0.131359 0.500000 0.245324
O O14 0.193460 0.777256 0.126358
O O15 0.585357 0.500000 0.311113
O O16 0.708519 0.719297 0.124870
O O17 0.779646 0.000000 0.025457
O O18 0.765283 0.500000 0.446200
#
# Coordination Sequence:
#
# PCOD8065735 Si02
#       7
#     4   4   4   4   4   4   4
#     4   8  16  30  52  77 105 139 180 224 264 309
#     4  11  22  38  57  79 109 142 174 218 271 318
#     4  10  21  34  47  69 106 146 176 209 263 322
#     4   9  16  32  53  75 104 143 182 219 264 315
#     4  11  22  38  59  81 103 137 185 226 257 308
#     4  11  21  33  51  79 112 143 175 218 272 321
#     4  11  20  33  54  80 106 138 181 223 261 312
#
# _framework density 17.937567999999999
#
# number of rings (size 3 to 8) (size 9 to 14) (size 15 to 20)
#    0.000    1.857    1.429    6.000    0.000    2.000 
#    0.000    2.857    0.000    0.857    0.000    6.000 
#    0.000    0.000    0.000    0.000    0.000    0.000 
#
# Total GULP energy -347245.515402 kJ/mol
# GULP energy per Si atom -12401.625550 kJ/mol
# Density = 1.789674 g / cm^3
# Si number density = 17.937568 Si / 1000 Ang^3
#
#
#
# Elastic Constant Matrix: (Units=GPa)
#
#
# Indices 1 2 3 4 5 6 
#
# 1 127.0923 20.2650 51.1848 0.0000 6.5523 0.0000
# 2 20.2650 53.3687 15.5848 0.0000 -0.4758 0.0000
# 3 51.1848 15.5848 70.6530 0.0000 6.3474 0.0000
# 4 0.0000 0.0000 0.0000 21.6221 0.0000 -6.0459
# 5 6.5523 -0.4758 6.3474 0.0000 25.0753 0.0000
# 6 0.0000 0.0000 0.0000 -6.0459 0.0000 20.3914
#
#
#
# Elastic Compliance Matrix: (Units=1/GPa)
#
#
# Indices 1 2 3 4 5 6 
#
# 1 0.011340 -0.002078 -0.007661 0.000000 -0.001063 0.000000
# 2 -0.002078 0.020466 -0.003165 0.000000 0.001732 0.000000
# 3 -0.007661 -0.003165 0.020698 0.000000 -0.003298 0.000000
# 4 0.000000 0.000000 0.000000 0.050430 0.000000 0.014952
# 5 -0.001063 0.001732 -0.003298 0.000000 0.041025 0.000000
# 6 0.000000 0.000000 0.000000 0.014952 0.000000 0.053473
#
#
# Mechanical properties :
#
#
# Convention : Reuss Voigt Hill
#
# Bulk Modulus (GPa) = 37.45843 47.24258 42.35050
# Shear Modulus (GPa) = 21.53874 24.35641 22.94757
#
# Velocity S-wave (km/s) = 3.46896 3.68889 3.58061
# Velocity P-wave (km/s) = 6.08054 6.67370 6.38401
#
# Compressibility (1/GPa) = 0.02669626
#
# Stress axis : x y z
#
# Youngs Moduli (GPa) = 88.18349 48.86089 48.31326
#
# Poissons Ratio (x) = 0.10154 0.37014
# Poissons Ratio (y) = 0.18326 0.15289
# Poissons Ratio (z) = 0.67560 0.15462
#
# Static dielectric constant tensor:
#      x y z
#    x 3.591660 0.000000 0.133960 
#    y 0.000000 3.212290 0.000000 
#    z 0.133960 0.000000 3.177030 
# 
# 
# High freq. dielectric constant tensor:
#      x y z
#    x 1.692820 0.000000 0.009750 
#    y 0.000000 1.690400 0.000000 
#    z 0.009750 0.000000 1.680660 
# 
# From -- ./inp_files/68564.got.cif
#   From: 2010.06.25/outbox.cif.g09.slc.cpg/sg10_35_cif.got.tgz:68564.got - 2010.06.27 22:07:45.
