data_PCOD8065827
_publ_section_title
;
Structure prediction by ZEFSAII (Michael W. Deem and Ramdas Pophale) SiO2 
 PCOD8065827
Probable space group: P 2/M
;
_chemical_formula_sum "Si O2"
_cell_formula_units_Z 24
_cell_length_a 25.183596
_cell_length_b 9.355266
_cell_length_c 9.176424
_cell_angle_alpha 90.000000
_cell_angle_beta 41.503645
_cell_angle_gamma 90.000000
_cell_volume 1432.660062
_symmetry_space_group_name_H-M "P 2/M"
_symmetry_group_IT_number 10
_symmetry_cell_setting 'monoclinic'
loop_
_space_group_symop_operation_xyz
x,y,z
-x,y,-z
-x,-y,-z
x,-y,z
loop_
_atom_site_type_symbol
_atom_site_label
_atom_site_fract_x
_atom_site_fract_y
_atom_site_fract_z
Si Si1 0.284228 0.665720 0.272091
Si Si2 0.744047 0.160361 0.409432
Si Si3 0.150577 0.338694 0.328260
Si Si4 0.000744 0.335936 0.165681
Si Si5 0.414199 0.837941 0.132559
Si Si6 0.130862 0.167629 0.079313
O O1 0.297596 0.500000 0.277620
O O2 0.229293 0.732285 0.515535
O O3 0.238916 0.690145 0.212663
O O4 0.371312 0.745303 0.092081
O O5 0.646120 0.165636 0.602698
O O6 0.772177 0.000000 0.394141
O O7 0.784569 0.203947 0.173663
O O8 0.144953 0.500000 0.277989
O O9 0.087530 0.316994 0.587429
O O10 0.133150 0.229562 0.235869
O O11 0.029880 0.500000 0.117741
O O12 0.059835 0.236032 0.133895
O O13 0.000000 0.285065 0.000000
O O14 0.426432 0.000000 0.050441
O O15 0.500000 0.770914 0.000000
O O16 0.115006 0.000000 0.124829
#
# Coordination Sequence:
#
# PCOD8065827 Si02
#       6
#     4   4   4   4   4   4
#     4   9  17  30  51  76  99 125 164 207 246 286
#     4   8  17  32  48  71 100 127 161 201 245 295
#     4  10  21  35  50  71 101 135 168 203 244 297
#     4  10  21  37  55  72  96 131 171 208 247 295
#     4   8  15  30  52  75 101 130 160 199 247 296
#     4  11  22  34  50  73 102 133 167 208 248 290
#
# _framework density 16.752054999999999
#
# number of rings (size 3 to 8) (size 9 to 14) (size 15 to 20)
#    1.000    1.667    0.000    2.000    0.000    7.333 
#    0.000    0.000    0.000    1.000    0.000    7.000 
#    0.000    0.000    0.000    0.000    0.000    0.000 
#
# Total GULP energy -297355.943861 kJ/mol
# GULP energy per Si atom -12389.830994 kJ/mol
# Density = 1.671393 g / cm^3
# Si number density = 16.752055 Si / 1000 Ang^3
#
#
#
# Elastic Constant Matrix: (Units=GPa)
#
#
# Indices 1 2 3 4 5 6 
#
# 1 121.1895 66.8656 44.8963 0.0000 -2.3912 0.0000
# 2 66.8656 93.1683 30.1054 0.0000 3.0941 0.0000
# 3 44.8963 30.1054 44.6467 0.0000 0.2554 0.0000
# 4 0.0000 0.0000 0.0000 16.7739 0.0000 -9.2139
# 5 -2.3912 3.0941 0.2554 0.0000 28.4084 0.0000
# 6 0.0000 0.0000 0.0000 -9.2139 0.0000 13.7973
#
#
#
# Elastic Compliance Matrix: (Units=1/GPa)
#
#
# Indices 1 2 3 4 5 6 
#
# 1 0.017523 -0.008902 -0.011633 0.000000 0.002549 0.000000
# 2 -0.008902 0.018302 -0.003374 0.000000 -0.002712 0.000000
# 3 -0.011633 -0.003374 0.036377 0.000000 -0.000939 0.000000
# 4 0.000000 0.000000 0.000000 0.094155 0.000000 0.062877
# 5 0.002549 -0.002712 -0.000939 0.000000 0.035719 0.000000
# 6 0.000000 0.000000 0.000000 0.062877 0.000000 0.114467
#
#
# Mechanical properties :
#
#
# Convention : Reuss Voigt Hill
#
# Bulk Modulus (GPa) = 41.01061 60.30433 50.65747
# Shear Modulus (GPa) = 13.42321 19.60506 16.51414
#
# Velocity S-wave (km/s) = 2.83377 3.42469 3.14315
# Velocity P-wave (km/s) = 5.93642 7.19127 6.59376
#
# Compressibility (1/GPa) = 0.02438394
#
# Stress axis : x y z
#
# Youngs Moduli (GPa) = 57.06843 54.63819 27.49006
#
# Poissons Ratio (x) = 0.48637 0.31979
# Poissons Ratio (y) = 0.50800 0.09276
# Poissons Ratio (z) = 0.66388 0.18437
#
# Static dielectric constant tensor:
#      x y z
#    x 2.974440 0.000000 -0.106650 
#    y 0.000000 3.207040 0.000000 
#    z -0.106650 0.000000 3.104210 
# 
# 
# High freq. dielectric constant tensor:
#      x y z
#    x 1.629250 0.000000 -0.009730 
#    y 0.000000 1.653240 0.000000 
#    z -0.009730 0.000000 1.627830 
# 
# From -- ./inp_files/35639.got.cif
#   From: 2010.06.25/outbox.cif.g09.slc.cpg/sg10_18_cif.got.tgz:35639.got - 2010.06.27 22:07:45.
