data_PCOD8065603
_publ_section_title
;
Structure prediction by ZEFSAII (Michael W. Deem and Ramdas Pophale) SiO2 
 PCOD8065603
Probable space group: P 2/M
;
_chemical_formula_sum "Si O2"
_cell_formula_units_Z 20
_cell_length_a 9.301415
_cell_length_b 11.265042
_cell_length_c 12.966726
_cell_angle_alpha 90.000000
_cell_angle_beta 132.183173
_cell_angle_gamma 90.000000
_cell_volume 1006.772761
_symmetry_space_group_name_H-M "P 2/M"
_symmetry_group_IT_number 10
_symmetry_cell_setting 'monoclinic'
loop_
_space_group_symop_operation_xyz
x,y,z
-x,y,-z
-x,-y,-z
x,-y,z
loop_
_atom_site_type_symbol
_atom_site_label
_atom_site_fract_x
_atom_site_fract_y
_atom_site_fract_z
Si Si1 0.181129 0.751143 0.511194
Si Si2 0.143214 0.776071 0.978884
Si Si3 0.944362 0.000000 0.592008
Si Si4 0.559701 0.362317 0.748172
Si Si5 0.278804 0.000000 0.925899
Si Si6 0.851754 0.633426 0.712920
O O1 0.374924 0.725153 0.669887
O O2 0.182623 0.650334 0.424685
O O3 0.000000 0.738067 0.500000
O O4 0.182964 0.880187 0.454705
O O5 0.290717 0.677039 0.091669
O O6 0.000000 0.819982 0.000000
O O7 0.024069 0.719132 0.828724
O O8 0.254093 0.887143 0.986479
O O9 0.000000 0.000000 0.500000
O O10 0.131221 0.000000 0.757337
O O11 0.503502 0.500000 0.739093
O O12 0.654773 0.341975 0.681547
O O13 0.500000 0.000000 0.000000
O O14 0.920040 0.500000 0.767361
#
# Coordination Sequence:
#
# PCOD8065603 Si02
#       6
#     4   4   2   4   2   4
#     4  11  23  39  61  85 123 160 203 251 298 355
#     4  10  22  40  64  91 123 156 201 251 298 356
#     4  10  24  43  60  85 121 159 204 245 297 360
#     4  10  22  39  62  92 123 158 200 243 301 364
#     4  12  25  41  67  90 120 162 202 250 307 355
#     4  10  20  39  63  88 121 161 199 248 304 356
#
# _framework density 19.865455000000001
#
# number of rings (size 3 to 8) (size 9 to 14) (size 15 to 20)
#    0.000    1.600    2.000    2.100    5.600    5.600 
#    0.000    3.000    0.000    3.600    0.000    0.000 
#    0.000    0.000    0.000    0.000    0.000    0.000 
#
# Total GULP energy -248000.212764 kJ/mol
# GULP energy per Si atom -12400.010638 kJ/mol
# Density = 1.982024 g / cm^3
# Si number density = 19.865455 Si / 1000 Ang^3
#
#
#
# Elastic Constant Matrix: (Units=GPa)
#
#
# Indices 1 2 3 4 5 6 
#
# 1 91.1607 53.7791 32.2525 0.0000 15.0957 0.0000
# 2 53.7791 120.4363 29.4176 0.0000 17.6456 0.0000
# 3 32.2525 29.4176 80.7847 0.0000 8.8208 0.0000
# 4 0.0000 0.0000 0.0000 33.1587 0.0000 3.9733
# 5 15.0957 17.6456 8.8208 0.0000 35.0984 0.0000
# 6 0.0000 0.0000 0.0000 3.9733 0.0000 25.7345
#
#
#
# Elastic Compliance Matrix: (Units=1/GPa)
#
#
# Indices 1 2 3 4 5 6 
#
# 1 0.016381 -0.005871 -0.004066 0.000000 -0.003072 0.000000
# 2 -0.005871 0.011755 -0.001611 0.000000 -0.002980 0.000000
# 3 -0.004066 -0.001611 0.014713 0.000000 -0.001139 0.000000
# 4 0.000000 0.000000 0.000000 0.030726 0.000000 -0.004744
# 5 -0.003072 -0.002980 -0.001139 0.000000 0.031597 0.000000
# 6 0.000000 0.000000 0.000000 -0.004744 0.000000 0.039591
#
#
# Mechanical properties :
#
#
# Convention : Reuss Voigt Hill
#
# Bulk Modulus (GPa) = 50.63033 58.14225 54.38629
# Shear Modulus (GPa) = 28.66251 30.59381 29.62816
#
# Velocity S-wave (km/s) = 3.80258 3.92861 3.86611
# Velocity P-wave (km/s) = 6.69488 7.06471 6.88228
#
# Compressibility (1/GPa) = 0.01975101
#
# Stress axis : x y z
#
# Youngs Moduli (GPa) = 61.04770 85.07030 67.96664
#
# Poissons Ratio (x) = 0.49947 0.27638
# Poissons Ratio (y) = 0.35843 0.10951
# Poissons Ratio (z) = 0.24825 0.13706
#
# Static dielectric constant tensor:
#      x y z
#    x 3.499130 0.000000 -0.012380 
#    y 0.000000 3.926190 0.000000 
#    z -0.012380 0.000000 3.587530 
# 
# 
# High freq. dielectric constant tensor:
#      x y z
#    x 1.760090 0.000000 -0.000520 
#    y 0.000000 1.785840 0.000000 
#    z -0.000520 0.000000 1.785160 
# 
# From -- ./inp_files/17876.got.cif
#   From: 2010.06.25/outbox.cif.g09.slc.cpg/sg10_9_cif.got.tgz:17876.got - 2010.06.27 22:07:45.
