data_PCOD8065276
_publ_section_title
;
Structure prediction by ZEFSAII (Michael W. Deem and Ramdas Pophale) SiO2 
 PCOD8065276
Probable space group: P 2/M
;
_chemical_formula_sum "Si O2"
_cell_formula_units_Z 32
_cell_length_a 23.467463
_cell_length_b 8.654642
_cell_length_c 14.485742
_cell_angle_alpha 90.000000
_cell_angle_beta 148.222525
_cell_angle_gamma 90.000000
_cell_volume 1549.368386
_symmetry_space_group_name_H-M "P 2/M"
_symmetry_group_IT_number 10
_symmetry_cell_setting 'monoclinic'
loop_
_space_group_symop_operation_xyz
x,y,z
-x,y,-z
-x,-y,-z
x,-y,z
loop_
_atom_site_type_symbol
_atom_site_label
_atom_site_fract_x
_atom_site_fract_y
_atom_site_fract_z
Si Si1 0.502735 0.180575 0.776255
Si Si2 0.995034 0.183490 0.389069
Si Si3 0.270930 0.321562 0.468068
Si Si4 0.392641 0.675434 0.910643
Si Si5 0.826252 0.816930 0.007648
Si Si6 0.583981 0.816813 0.689461
Si Si7 0.194555 0.819698 0.542518
Si Si8 0.100988 0.320419 0.080408
O O1 0.377561 0.218302 0.620017
O O2 0.537619 0.233794 0.723410
O O3 0.520675 0.000000 0.818229
O O4 0.582234 0.276027 0.950855
O O5 0.098013 0.243333 0.473497
O O6 0.000000 0.253652 0.500000
O O7 0.887888 0.238564 0.185808
O O8 0.997796 0.000000 0.399775
O O9 0.303706 0.500000 0.525037
O O10 0.191879 0.273286 0.442675
O O11 0.210803 0.291430 0.288857
O O12 0.349378 0.500000 0.848032
O O13 0.305476 0.791199 0.749082
O O14 0.500000 0.695071 0.000000
O O15 0.822744 0.000000 0.001013
O O16 0.704535 0.747774 0.840786
O O17 0.891039 0.763767 0.006453
O O18 0.500000 0.746032 0.500000
O O19 0.589304 0.000000 0.686752
O O20 0.181304 0.000000 0.502567
O O21 0.081637 0.500000 0.034298
O O22 0.000000 0.253422 0.000000
#
# Coordination Sequence:
#
# PCOD8065276 Si02
#       8
#     4   4   4   4   4   4   4   4
#     4  11  22  36  60  89 115 149 196 241 285 348
#     4   9  20  37  59  87 117 150 193 245 299 349
#     4  11  22  37  57  83 118 156 187 234 298 350
#     4  11  23  39  58  83 120 159 190 235 296 352
#     4  10  20  37  62  87 116 153 193 244 298 345
#     4   9  19  35  57  88 121 151 188 237 293 344
#     4  11  22  36  60  88 114 149 197 245 290 346
#     4  10  22  39  59  83 115 155 194 235 288 349
#
# _framework density 20.653579000000001
#
# number of rings (size 3 to 8) (size 9 to 14) (size 15 to 20)
#    0.000    1.750    1.250    3.000    1.750    2.750 
#    0.000    1.875    0.000    5.250    0.000    0.000 
#    0.000    0.000    0.000    0.000    0.000    0.000 
#
# Total GULP energy -396878.552469 kJ/mol
# GULP energy per Si atom -12402.454765 kJ/mol
# Density = 2.060657 g / cm^3
# Si number density = 20.653579 Si / 1000 Ang^3
#
#
#
# Elastic Constant Matrix: (Units=GPa)
#
#
# Indices 1 2 3 4 5 6 
#
# 1 144.5343 19.1961 56.1164 0.0000 -12.3744 0.0000
# 2 19.1961 25.2714 22.5382 0.0000 -0.6846 0.0000
# 3 56.1164 22.5382 116.8929 0.0000 -13.8777 0.0000
# 4 0.0000 0.0000 0.0000 41.3832 0.0000 -4.2533
# 5 -12.3744 -0.6846 -13.8777 0.0000 39.5250 0.0000
# 6 0.0000 0.0000 0.0000 -4.2533 0.0000 11.7358
#
#
#
# Elastic Compliance Matrix: (Units=1/GPa)
#
#
# Indices 1 2 3 4 5 6 
#
# 1 0.008840 -0.003684 -0.003352 0.000000 0.001527 0.000000
# 2 -0.003684 0.049563 -0.008163 0.000000 -0.003161 0.000000
# 3 -0.003352 -0.008163 0.012101 0.000000 0.003058 0.000000
# 4 0.000000 0.000000 0.000000 0.025099 0.000000 0.009097
# 5 0.001527 -0.003161 0.003058 0.000000 0.026797 0.000000
# 6 0.000000 0.000000 0.000000 0.009097 0.000000 0.088506
#
#
# Mechanical properties :
#
#
# Convention : Reuss Voigt Hill
#
# Bulk Modulus (GPa) = 24.93389 53.59997 39.26693
# Shear Modulus (GPa) = 19.63287 31.11868 25.37577
#
# Velocity S-wave (km/s) = 3.08649 3.88583 3.50900
# Velocity P-wave (km/s) = 4.98001 6.79273 5.95574
#
# Compressibility (1/GPa) = 0.04010606
#
# Stress axis : x y z
#
# Youngs Moduli (GPa) = 113.11762 20.17620 82.63654
#
# Poissons Ratio (x) = 0.07433 0.27703
# Poissons Ratio (y) = 0.41672 0.67457
# Poissons Ratio (z) = 0.37921 0.16470
#
# Static dielectric constant tensor:
#      x y z
#    x 3.824520 0.000000 -0.112010 
#    y 0.000000 3.395330 0.000000 
#    z -0.112010 0.000000 3.917550 
# 
# 
# High freq. dielectric constant tensor:
#      x y z
#    x 1.817030 0.000000 -0.005610 
#    y 0.000000 1.777670 0.000000 
#    z -0.005610 0.000000 1.822690 
# 
# From -- ./inp_files/71708.got.cif
#   From: 2010.06.25/outbox.cif.g09.slc.cpg/sg10_36_cif.got.tgz:71708.got - 2010.06.27 22:07:45.
