data_PCOD8065633
_publ_section_title
;
Structure prediction by ZEFSAII (Michael W. Deem and Ramdas Pophale) SiO2 
 PCOD8065633
Probable space group: P 2/M
;
_chemical_formula_sum "Si O2"
_cell_formula_units_Z 28
_cell_length_a 8.115841
_cell_length_b 22.232216
_cell_length_c 12.948754
_cell_angle_alpha 90.000000
_cell_angle_beta 148.451407
_cell_angle_gamma 90.000000
_cell_volume 1222.446471
_symmetry_space_group_name_H-M "P 2/M"
_symmetry_group_IT_number 10
_symmetry_cell_setting 'monoclinic'
loop_
_space_group_symop_operation_xyz
x,y,z
-x,y,-z
-x,-y,-z
x,-y,z
loop_
_atom_site_type_symbol
_atom_site_label
_atom_site_fract_x
_atom_site_fract_y
_atom_site_fract_z
Si Si1 0.164205 0.433863 0.372457
Si Si2 0.754643 0.568754 0.960367
Si Si3 0.331704 0.933036 0.122356
Si Si4 0.216749 0.142494 0.522444
Si Si5 0.803339 0.169872 0.107865
Si Si6 0.683457 0.342665 0.373187
Si Si7 0.340544 0.756819 0.307224
O O1 0.500000 0.438246 0.500000
O O2 0.080696 0.500000 0.373704
O O3 0.165258 0.383266 0.457901
O O4 0.908806 0.414731 0.151254
O O5 0.633641 0.500000 0.893280
O O6 0.462368 0.613804 0.791284
O O7 0.000000 0.579543 0.000000
O O8 0.617377 0.920361 0.356152
O O9 0.386511 0.000000 0.106549
O O10 0.338387 0.884286 0.035045
O O11 0.000000 0.929028 0.000000
O O12 0.506658 0.187315 0.668231
O O13 0.000000 0.165472 0.500000
O O14 0.038159 0.139836 0.317489
O O15 0.977365 0.222677 0.134351
O O16 0.500000 0.200787 0.000000
O O17 0.401838 0.299631 0.264424
O O18 0.000000 0.308074 0.500000
O O19 0.500000 0.739607 0.500000
#
# Coordination Sequence:
#
# PCOD8065633 Si02
#       7
#     4   4   4   4   4   4   4
#     4  10  20  39  69  96 132 177 221 280 342 404
#     4  10  21  40  67 100 131 177 231 272 340 417
#     4  11  24  43  70 105 140 179 225 276 337 400
#     4  11  22  43  69  97 138 182 225 270 331 399
#     4  11  23  45  71 101 135 179 226 279 336 407
#     4  12  25  43  65 100 139 177 227 286 338 401
#     4  10  24  45  69  93 132 179 230 284 334 396
#
# _framework density 22.904889000000001
#
# number of rings (size 3 to 8) (size 9 to 14) (size 15 to 20)
#    0.000    1.286    4.286    1.286    0.000    2.857 
#    2.571    2.857    0.000    0.000    0.000    0.000 
#    0.000    0.000    0.000    0.000    0.000    0.000 
#
# Total GULP energy -347044.647733 kJ/mol
# GULP energy per Si atom -12394.451705 kJ/mol
# Density = 2.285276 g / cm^3
# Si number density = 22.904889 Si / 1000 Ang^3
#
#
#
# Elastic Constant Matrix: (Units=GPa)
#
#
# Indices 1 2 3 4 5 6 
#
# 1 94.6532 46.1705 41.4960 0.0000 22.8034 0.0000
# 2 46.1705 111.1317 59.3625 0.0000 3.4216 0.0000
# 3 41.4960 59.3625 122.2860 0.0000 8.3097 0.0000
# 4 0.0000 0.0000 0.0000 -37.6633 0.0000 -2.0852
# 5 22.8034 3.4216 8.3097 0.0000 44.0348 0.0000
# 6 0.0000 0.0000 0.0000 -2.0852 0.0000 -2.1516
#
#
#
# Elastic Compliance Matrix: (Units=1/GPa)
#
#
# Indices 1 2 3 4 5 6 
#
# 1 0.015879 -0.005076 -0.002424 0.000000 -0.007371 0.000000
# 2 -0.005076 0.013772 -0.005135 0.000000 0.002527 0.000000
# 3 -0.002424 -0.005135 0.011528 0.000000 -0.000521 0.000000
# 4 0.000000 0.000000 0.000000 -0.028056 0.000000 0.027190
# 5 -0.007371 0.002527 -0.000521 0.000000 0.026429 0.000000
# 6 0.000000 0.000000 0.000000 0.027190 0.000000 -0.491113
#
#
# Mechanical properties :
#
#
# Convention : Reuss Voigt Hill
#
# Bulk Modulus (GPa) = 62.84913 69.12543 65.98728
# Shear Modulus (GPa) = -11.87676 12.91343 0.51833
#
# Velocity S-wave (km/s) = -2.27959 2.37699 0.47622
# Velocity P-wave (km/s) = 4.53542 6.14641 5.40131
#
# Compressibility (1/GPa) = 0.01591112
#
# Stress axis : x y z
#
# Youngs Moduli (GPa) = 62.97642 72.61067 86.74468
#
# Poissons Ratio (x) = 0.36854 0.21023
# Poissons Ratio (y) = 0.31964 0.44543
# Poissons Ratio (z) = 0.15263 0.37285
#
# Static dielectric constant tensor:
#      x y z
#    x 4.314350 0.000000 0.044900 
#    y 0.000000 4.095210 0.000000 
#    z 0.044900 0.000000 4.254470 
# 
# 
# High freq. dielectric constant tensor:
#      x y z
#    x 1.908420 0.000000 0.004250 
#    y 0.000000 1.886180 0.000000 
#    z 0.004250 0.000000 1.912990 
# 
# From -- ./inp_files/62606.got.cif
#   From: 2010.06.25/outbox.cif.g09.slc.cpg/sg10_32_cif.got.tgz:62606.got - 2010.06.27 22:07:45.
