data_PCOD8065051
_publ_section_title
;
Structure prediction by ZEFSAII (Michael W. Deem and Ramdas Pophale) SiO2 
 PCOD8065051
Probable space group: P 2/M
;
_chemical_formula_sum "Si O2"
_cell_formula_units_Z 28
_cell_length_a 10.440988
_cell_length_b 7.905056
_cell_length_c 31.757143
_cell_angle_alpha 90.000000
_cell_angle_beta 34.720325
_cell_angle_gamma 90.000000
_cell_volume 1492.917960
_symmetry_space_group_name_H-M "P 2/M"
_symmetry_group_IT_number 10
_symmetry_cell_setting 'monoclinic'
loop_
_space_group_symop_operation_xyz
x,y,z
-x,y,-z
-x,-y,-z
x,-y,z
loop_
_atom_site_type_symbol
_atom_site_label
_atom_site_fract_x
_atom_site_fract_y
_atom_site_fract_z
Si Si1 0.456218 0.312322 0.917513
Si Si2 0.054292 0.500000 0.417534
Si Si3 0.057471 0.191803 0.077011
Si Si4 0.892078 0.804113 0.844010
Si Si5 0.606528 0.808731 0.317181
Si Si6 0.641962 0.500000 0.582467
Si Si7 0.307563 0.808731 0.317182
Si Si8 0.387878 0.195887 0.844008
O O1 0.373835 0.500000 0.950466
O O2 0.707039 0.289354 0.866508
O O3 0.460423 0.289354 0.866507
O O4 0.279188 0.190678 0.988324
O O5 0.195195 0.500000 0.421922
O O6 0.110167 0.671166 0.376599
O O7 0.789099 0.500000 0.500001
O O8 0.103402 0.276641 0.110129
O O9 0.845949 0.276641 0.110130
O O10 0.983674 0.000000 0.106530
O O11 0.129072 0.775874 0.757245
O O12 0.825177 0.000000 0.864263
O O13 0.506838 0.671166 0.376598
O O14 0.502285 0.783726 0.299086
O O15 0.556597 0.000000 0.347073
O O16 0.415291 0.775872 0.242756
O O17 0.208033 0.000000 0.347074
O O18 0.353515 0.000000 0.864261
#
# Coordination Sequence:
#
# PCOD8065051 Si02
#       8
#     4   2   4   4   4   2   4   4
#     4  12  26  36  46  78 114 141 180 229 280 324
#     4   9  18  30  48  81 116 146 173 210 271 327
#     4  10  20  38  60  76  98 139 187 232 279 326
#     4  10  20  37  58  77 101 142 188 228 274 324
#     4   9  17  32  54  80 106 141 185 223 266 325
#     4   9  18  30  48  81 116 146 173 210 271 327
#     4   9  17  32  54  80 106 141 185 223 266 325
#     4  10  20  37  58  77 101 142 188 228 274 324
#
# _framework density 18.755216000000001
#
# number of rings (size 3 to 8) (size 9 to 14) (size 15 to 20)
#    0.000    2.143    1.429    2.143    2.000    5.143 
#    0.000    2.857    0.000    0.000    0.000    2.000 
#    0.000    4.571    0.000    0.000    0.000    0.000 
#
# Total GULP energy -347188.073255 kJ/mol
# GULP energy per Si atom -12399.574045 kJ/mol
# Density = 1.871253 g / cm^3
# Si number density = 18.755216 Si / 1000 Ang^3
#
#
#
# Elastic Constant Matrix: (Units=GPa)
#
#
# Indices 1 2 3 4 5 6 
#
# 1 111.4640 31.2588 45.7887 0.0000 3.1346 0.0000
# 2 31.2588 93.1951 53.7076 0.0000 -1.2412 0.0000
# 3 45.7887 53.7076 121.1429 0.0000 -3.6675 0.0000
# 4 0.0000 0.0000 0.0000 25.2256 0.0000 -0.9452
# 5 3.1346 -1.2412 -3.6675 0.0000 4.8902 0.0000
# 6 0.0000 0.0000 0.0000 -0.9452 0.0000 8.1343
#
#
#
# Elastic Compliance Matrix: (Units=1/GPa)
#
#
# Indices 1 2 3 4 5 6 
#
# 1 0.011330 -0.001731 -0.003835 0.000000 -0.010578 0.000000
# 2 -0.001731 0.014683 -0.005842 0.000000 0.000455 0.000000
# 3 -0.003835 -0.005842 0.012610 0.000000 0.010433 0.000000
# 4 0.000000 0.000000 0.000000 0.039816 0.000000 0.004627
# 5 -0.010578 0.000455 0.010433 0.000000 0.219211 0.000000
# 6 0.000000 0.000000 0.000000 0.004627 0.000000 0.123474
#
#
# Mechanical properties :
#
#
# Convention : Reuss Voigt Hill
#
# Bulk Modulus (GPa) = 63.26073 65.25691 64.25882
# Shear Modulus (GPa) = 11.13068 20.65315 15.89192
#
# Velocity S-wave (km/s) = 2.43877 3.32203 2.91406
# Velocity P-wave (km/s) = 6.46011 7.04159 6.75711
#
# Compressibility (1/GPa) = 0.01580760
#
# Stress axis : x y z
#
# Youngs Moduli (GPa) = 88.26225 68.10443 79.30179
#
# Poissons Ratio (x) = 0.11788 0.30414
# Poissons Ratio (y) = 0.15277 0.46326
# Poissons Ratio (z) = 0.33851 0.39785
#
# Static dielectric constant tensor:
#      x y z
#    x 3.241480 0.000000 -0.005890 
#    y 0.000000 3.470420 0.000000 
#    z -0.005890 0.000000 3.348110 
# 
# 
# High freq. dielectric constant tensor:
#      x y z
#    x 1.699150 0.000000 -0.001110 
#    y 0.000000 1.729360 0.000000 
#    z -0.001110 0.000000 1.719230 
# 
# From -- ./inp_files/70240.got.cif
#   From: 2010.06.25/outbox.cif.g09.slc.cpg/sg10_36_cif.got.tgz:70240.got - 2010.06.27 22:07:45.
