data_PCOD8065151
_publ_section_title
;
Structure prediction by ZEFSAII (Michael W. Deem and Ramdas Pophale) SiO2 
 PCOD8065151
Probable space group: P 2/M
;
_chemical_formula_sum "Si O2"
_cell_formula_units_Z 24
_cell_length_a 12.196473
_cell_length_b 8.601382
_cell_length_c 24.633942
_cell_angle_alpha 90.000000
_cell_angle_beta 151.930353
_cell_angle_gamma 90.000000
_cell_volume 1216.009899
_symmetry_space_group_name_H-M "P 2/M"
_symmetry_group_IT_number 10
_symmetry_cell_setting 'monoclinic'
loop_
_space_group_symop_operation_xyz
x,y,z
-x,y,-z
-x,-y,-z
x,-y,z
loop_
_atom_site_type_symbol
_atom_site_label
_atom_site_fract_x
_atom_site_fract_y
_atom_site_fract_z
Si Si1 0.776533 0.317366 0.432590
Si Si2 0.828434 0.181791 0.996136
Si Si3 0.160697 0.819322 0.310919
Si Si4 0.669772 0.179956 0.497009
Si Si5 0.277071 0.319083 0.937356
Si Si6 0.694311 0.683843 0.826768
O O1 0.780151 0.500000 0.426378
O O2 0.786840 0.277788 0.500477
O O3 0.542751 0.250972 0.302938
O O4 0.000000 0.243047 0.500000
O O5 0.694146 0.274142 0.890239
O O6 0.807530 0.000000 0.975293
O O7 0.712670 0.221723 0.002845
O O8 0.098520 0.231171 0.114824
O O9 0.180965 0.787626 0.383881
O O10 0.401925 0.768662 0.388007
O O11 0.955653 0.714683 0.198057
O O12 0.107928 0.000000 0.276336
O O13 0.678870 0.000000 0.485559
O O14 0.285335 0.500000 0.955577
O O15 0.500000 0.267260 0.000000
O O16 0.724718 0.500000 0.832857
#
# Coordination Sequence:
#
# PCOD8065151 Si02
#       6
#     4   4   4   4   4   4
#     4  10  22  37  53  78 112 147 181 220 266 316
#     4  11  22  37  59  84 110 141 183 231 275 324
#     4   9  19  37  59  83 110 139 176 224 274 322
#     4   9  19  36  58  83 110 140 176 222 272 321
#     4  11  24  39  55  79 112 148 184 224 273 327
#     4  10  20  37  60  83 111 145 183 227 272 321
#
# _framework density 19.736681999999998
#
# number of rings (size 3 to 8) (size 9 to 14) (size 15 to 20)
#    0.000    2.000    0.000    5.500    0.000    8.333 
#    0.000    6.667    0.000    0.000    0.000    0.000 
#    0.000    0.000    0.000    0.000    0.000    0.000 
#
# Total GULP energy -297690.870767 kJ/mol
# GULP energy per Si atom -12403.786282 kJ/mol
# Density = 1.969176 g / cm^3
# Si number density = 19.736682 Si / 1000 Ang^3
#
#
#
# Elastic Constant Matrix: (Units=GPa)
#
#
# Indices 1 2 3 4 5 6 
#
# 1 133.9388 14.8389 32.3244 0.0000 -1.5224 0.0000
# 2 14.8389 37.5742 3.7114 0.0000 3.5008 0.0000
# 3 32.3244 3.7114 36.1561 0.0000 -5.0324 0.0000
# 4 0.0000 0.0000 0.0000 19.2869 0.0000 -8.0329
# 5 -1.5224 3.5008 -5.0324 0.0000 20.2110 0.0000
# 6 0.0000 0.0000 0.0000 -8.0329 0.0000 31.3615
#
#
#
# Elastic Compliance Matrix: (Units=1/GPa)
#
#
# Indices 1 2 3 4 5 6 
#
# 1 0.009870 -0.002961 -0.008645 0.000000 -0.000896 0.000000
# 2 -0.002961 0.028386 -0.001018 0.000000 -0.005393 0.000000
# 3 -0.008645 -0.001018 0.036697 0.000000 0.008662 0.000000
# 4 0.000000 0.000000 0.000000 0.058041 0.000000 0.014866
# 5 -0.000896 -0.005393 0.008662 0.000000 0.052501 0.000000
# 6 0.000000 0.000000 0.000000 0.014866 0.000000 0.035694
#
#
# Mechanical properties :
#
#
# Convention : Reuss Voigt Hill
#
# Bulk Modulus (GPa) = 20.11801 34.37982 27.24892
# Shear Modulus (GPa) = 19.01104 24.62484 21.81794
#
# Velocity S-wave (km/s) = 3.10697 3.53607 3.32844
# Velocity P-wave (km/s) = 4.80482 5.84198 5.34860
#
# Compressibility (1/GPa) = 0.04970671
#
# Stress axis : x y z
#
# Youngs Moduli (GPa) = 101.31417 35.22834 27.25028
#
# Poissons Ratio (x) = 0.10430 0.23558
# Poissons Ratio (y) = 0.29995 0.02773
# Poissons Ratio (z) = 0.87587 0.03585
#
# Static dielectric constant tensor:
#      x y z
#    x 3.654470 0.000000 0.033890 
#    y 0.000000 3.444310 0.000000 
#    z 0.033890 0.000000 3.684810 
# 
# 
# High freq. dielectric constant tensor:
#      x y z
#    x 1.775310 0.000000 -0.007750 
#    y 0.000000 1.763830 0.000000 
#    z -0.007750 0.000000 1.770520 
# 
# From -- ./inp_files/45179.got.cif
#   From: 2010.06.25/outbox.cif.g09.slc.cpg/sg10_23_cif.got.tgz:45179.got - 2010.06.27 22:07:45.
