data_PCOD8065738
_publ_section_title
;
Structure prediction by ZEFSAII (Michael W. Deem and Ramdas Pophale) SiO2 
 PCOD8065738
Probable space group: P 2/M
;
_chemical_formula_sum "Si O2"
_cell_formula_units_Z 28
_cell_length_a 14.426670
_cell_length_b 8.635545
_cell_length_c 17.395088
_cell_angle_alpha 90.000000
_cell_angle_beta 49.689751
_cell_angle_gamma 90.000000
_cell_volume 1652.541206
_symmetry_space_group_name_H-M "P 2/M"
_symmetry_group_IT_number 10
_symmetry_cell_setting 'monoclinic'
loop_
_space_group_symop_operation_xyz
x,y,z
-x,y,-z
-x,-y,-z
x,-y,z
loop_
_atom_site_type_symbol
_atom_site_label
_atom_site_fract_x
_atom_site_fract_y
_atom_site_fract_z
Si Si1 0.306330 0.318809 0.086906
Si Si2 0.906914 0.178334 0.882534
Si Si3 0.531628 0.681094 0.860799
Si Si4 0.171155 0.822691 0.766689
Si Si5 0.445735 0.819073 0.762875
Si Si6 0.810654 0.320127 0.085027
Si Si7 0.574480 0.681525 0.386304
O O1 0.280463 0.500000 0.092609
O O2 0.180911 0.227203 0.140176
O O3 0.353345 0.277898 0.147108
O O4 0.408090 0.268191 0.970590
O O5 0.048556 0.203305 0.782224
O O6 0.883712 0.000000 0.916608
O O7 0.882228 0.284302 0.969318
O O8 0.529162 0.500000 0.844209
O O9 0.547089 0.775210 0.772402
O O10 0.136586 0.779292 0.872792
O O11 0.283036 0.719046 0.676989
O O12 0.214360 0.000000 0.740448
O O13 0.329691 0.721051 0.851898
O O14 0.482265 0.768949 0.657092
O O15 0.417740 0.000000 0.778981
O O16 0.824768 0.500000 0.097429
O O17 0.500000 0.739245 0.500000
O O18 0.559040 0.500000 0.381346
#
# Coordination Sequence:
#
# PCOD8065738 Si02
#       7
#     4   4   4   4   4   4   4
#     4   9  18  30  47  67  94 133 170 204 238 274
#     4  11  21  31  44  67  98 130 164 199 236 281
#     4   9  17  31  47  68  96 129 169 205 238 278
#     4  10  21  34  48  68  96 127 158 196 241 289
#     4  11  20  30  49  74  99 129 161 197 244 291
#     4  11  20  30  45  65  93 130 168 201 232 276
#     4  10  21  37  56  76  96 121 157 201 244 289
#
# _framework density 16.943601999999998
#
# number of rings (size 3 to 8) (size 9 to 14) (size 15 to 20)
#    0.000    1.857    1.429    6.857    0.000    5.714 
#    0.000    1.429    0.000    0.000    0.000    1.000 
#    0.000    8.000    0.000    0.000    0.000    0.000 
#
# Total GULP energy -347143.908126 kJ/mol
# GULP energy per Si atom -12397.996719 kJ/mol
# Density = 1.690504 g / cm^3
# Si number density = 16.943602 Si / 1000 Ang^3
#
#
#
# Elastic Constant Matrix: (Units=GPa)
#
#
# Indices 1 2 3 4 5 6 
#
# 1 117.7736 26.2100 43.1794 0.0000 6.9457 0.0000
# 2 26.2100 56.2160 22.4066 0.0000 2.9918 0.0000
# 3 43.1794 22.4066 74.1314 0.0000 10.0890 0.0000
# 4 0.0000 0.0000 0.0000 16.6678 0.0000 0.4152
# 5 6.9457 2.9918 10.0890 0.0000 13.5686 0.0000
# 6 0.0000 0.0000 0.0000 0.4152 0.0000 28.4770
#
#
#
# Elastic Compliance Matrix: (Units=1/GPa)
#
#
# Indices 1 2 3 4 5 6 
#
# 1 0.011233 -0.002991 -0.005503 0.000000 -0.000999 0.000000
# 2 -0.002991 0.021021 -0.004661 0.000000 0.000361 0.000000
# 3 -0.005503 -0.004661 0.019560 0.000000 -0.010699 0.000000
# 4 0.000000 0.000000 0.000000 0.060018 0.000000 -0.000875
# 5 -0.000999 0.000361 -0.010699 0.000000 0.082087 0.000000
# 6 0.000000 0.000000 0.000000 -0.000875 0.000000 0.035129
#
#
# Mechanical properties :
#
#
# Convention : Reuss Voigt Hill
#
# Bulk Modulus (GPa) = 39.20828 47.96810 43.58819
# Shear Modulus (GPa) = 18.94958 22.16435 20.55697
#
# Velocity S-wave (km/s) = 3.34786 3.62073 3.48696
# Velocity P-wave (km/s) = 6.17535 6.77137 6.48022
#
# Compressibility (1/GPa) = 0.02550481
#
# Stress axis : x y z
#
# Youngs Moduli (GPa) = 89.02442 47.57041 51.12535
#
# Poissons Ratio (x) = 0.14227 0.28134
# Poissons Ratio (y) = 0.26624 0.23830
# Poissons Ratio (z) = 0.48989 0.22173
#
# Static dielectric constant tensor:
#      x y z
#    x 3.373940 0.000000 0.093690 
#    y 0.000000 3.180320 0.000000 
#    z 0.093690 0.000000 2.856350 
# 
# 
# High freq. dielectric constant tensor:
#      x y z
#    x 1.657310 0.000000 0.009780 
#    y 0.000000 1.664250 0.000000 
#    z 0.009780 0.000000 1.600120 
# 
# From -- ./inp_files/65938.got.cif
#   From: 2010.06.25/outbox.cif.g09.slc.cpg/sg10_33_cif.got.tgz:65938.got - 2010.06.27 22:07:45.
