data_PCOD8065219
_publ_section_title
;
Structure prediction by ZEFSAII (Michael W. Deem and Ramdas Pophale) SiO2 
 PCOD8065219
Probable space group: P 2/M
;
_chemical_formula_sum "Si O2"
_cell_formula_units_Z 32
_cell_length_a 27.531153
_cell_length_b 8.678644
_cell_length_c 21.440575
_cell_angle_alpha 90.000000
_cell_angle_beta 161.310000
_cell_angle_gamma 90.000000
_cell_volume 1641.609343
_symmetry_space_group_name_H-M "P 2/M"
_symmetry_group_IT_number 10
_symmetry_cell_setting 'monoclinic'
loop_
_space_group_symop_operation_xyz
x,y,z
-x,y,-z
-x,-y,-z
x,-y,z
loop_
_atom_site_type_symbol
_atom_site_label
_atom_site_fract_x
_atom_site_fract_y
_atom_site_fract_z
Si Si1 0.941948 0.317343 0.521235
Si Si2 0.929063 0.318875 0.851883
Si Si3 0.543141 0.182093 0.233152
Si Si4 0.085194 0.678418 0.916778
Si Si5 0.605084 0.180416 0.445202
Si Si6 0.849929 0.181900 0.539295
Si Si7 0.437914 0.320986 0.357236
Si Si8 0.781774 0.183705 0.208037
O O1 0.961357 0.500000 0.542845
O O2 0.866506 0.266498 0.493828
O O3 0.829738 0.262707 0.330516
O O4 0.107414 0.239958 0.712894
O O5 0.920148 0.500000 0.848858
O O6 0.765154 0.257497 0.641643
O O7 0.032459 0.269105 0.920426
O O8 0.000000 0.243250 0.000000
O O9 0.530114 0.237761 0.289161
O O10 0.696023 0.245274 0.385416
O O11 0.551376 0.000000 0.240452
O O12 0.390060 0.239863 0.013489
O O13 0.049203 0.500000 0.859079
O O14 0.998562 0.780580 0.760679
O O15 0.262266 0.712119 0.133364
O O16 0.512790 0.226550 0.393318
O O17 0.626372 0.000000 0.470163
O O18 0.841498 0.000000 0.517915
O O19 0.500000 0.262790 0.500000
O O20 0.479148 0.500000 0.400200
O O21 0.793874 0.000000 0.228354
#
# Coordination Sequence:
#
# PCOD8065219 Si02
#       8
#     4   4   4   4   4   4   4   4
#     4  11  23  40  60  92 127 154 193 244 291 341
#     4  10  20  37  61  85 114 156 198 239 294 357
#     4   9  21  39  60  87 120 154 195 243 288 347
#     4  10  21  37  58  87 117 150 198 248 292 346
#     4  11  22  38  58  88 121 152 196 248 295 344
#     4  11  22  40  62  85 118 160 197 239 295 352
#     4  10  22  41  61  83 116 157 198 244 299 358
#     4  10  20  40  66  91 118 159 202 235 286 349
#
# _framework density 19.493067
#
# number of rings (size 3 to 8) (size 9 to 14) (size 15 to 20)
#    0.000    1.750    1.250    3.750    1.750    3.500 
#    0.000    8.125    0.000    0.000    0.000    0.000 
#    0.000    0.000    0.000    0.000    0.000    0.000 
#
# Total GULP energy -396787.068554 kJ/mol
# GULP energy per Si atom -12399.595892 kJ/mol
# Density = 1.944870 g / cm^3
# Si number density = 19.493067 Si / 1000 Ang^3
#
#
#
# Elastic Constant Matrix: (Units=GPa)
#
#
# Indices 1 2 3 4 5 6 
#
# 1 158.7479 45.4948 73.3202 0.0000 3.2109 0.0000
# 2 45.4948 67.8895 41.7164 0.0000 5.1222 0.0000
# 3 73.3202 41.7164 156.9571 0.0000 6.1883 0.0000
# 4 0.0000 0.0000 0.0000 29.1573 0.0000 -1.8859
# 5 3.2109 5.1222 6.1883 0.0000 30.4193 0.0000
# 6 0.0000 0.0000 0.0000 -1.8859 0.0000 33.0979
#
#
#
# Elastic Compliance Matrix: (Units=1/GPa)
#
#
# Indices 1 2 3 4 5 6 
#
# 1 0.008886 -0.004092 -0.003078 0.000000 0.000377 0.000000
# 2 -0.004092 0.019614 -0.003214 0.000000 -0.002217 0.000000
# 3 -0.003078 -0.003214 0.008699 0.000000 -0.000904 0.000000
# 4 0.000000 0.000000 0.000000 0.034424 0.000000 0.001961
# 5 0.000377 -0.002217 -0.000904 0.000000 0.033391 0.000000
# 6 0.000000 0.000000 0.000000 0.001961 0.000000 0.030325
#
#
# Mechanical properties :
#
#
# Convention : Reuss Voigt Hill
#
# Bulk Modulus (GPa) = 60.86209 78.29524 69.57867
# Shear Modulus (GPa) = 30.94349 33.40579 32.17464
#
# Velocity S-wave (km/s) = 3.98855 4.14421 4.06713
# Velocity P-wave (km/s) = 7.24580 7.94683 7.60440
#
# Compressibility (1/GPa) = 0.01643059
#
# Stress axis : x y z
#
# Youngs Moduli (GPa) = 112.53557 50.98355 114.95431
#
# Poissons Ratio (x) = 0.20861 0.35387
# Poissons Ratio (y) = 0.46046 0.36950
# Poissons Ratio (z) = 0.34643 0.16388
#
# Static dielectric constant tensor:
#      x y z
#    x 3.761270 0.000000 -0.082100 
#    y 0.000000 3.449760 0.000000 
#    z -0.082100 0.000000 3.750270 
# 
# 
# High freq. dielectric constant tensor:
#      x y z
#    x 1.773500 0.000000 -0.000910 
#    y 0.000000 1.747660 0.000000 
#    z -0.000910 0.000000 1.770730 
# 
# From -- ./inp_files/87021.got.cif
#   From: 2010.06.25/outbox.cif.g09.slc.cpg/sg10_44_cif.got.tgz:87021.got - 2010.06.27 22:07:45.
