data_PCOD8065458
_publ_section_title
;
Structure prediction by ZEFSAII (Michael W. Deem and Ramdas Pophale) SiO2 
 PCOD8065458
Probable space group: P 2/M
;
_chemical_formula_sum "Si O2"
_cell_formula_units_Z 24
_cell_length_a 13.320240
_cell_length_b 14.802764
_cell_length_c 9.089038
_cell_angle_alpha 90.000000
_cell_angle_beta 42.062073
_cell_angle_gamma 90.000000
_cell_volume 1200.620238
_symmetry_space_group_name_H-M "P 2/M"
_symmetry_group_IT_number 10
_symmetry_cell_setting 'monoclinic'
loop_
_space_group_symop_operation_xyz
x,y,z
-x,y,-z
-x,-y,-z
x,-y,z
loop_
_atom_site_type_symbol
_atom_site_label
_atom_site_fract_x
_atom_site_fract_y
_atom_site_fract_z
Si Si1 0.622953 0.599451 0.754096
Si Si2 0.840411 0.737579 0.360566
Si Si3 0.593079 0.597675 0.269410
Si Si4 0.814072 0.743819 0.043036
Si Si5 0.684782 0.103566 0.663438
Si Si6 0.652597 0.895432 0.036685
O O1 0.683657 0.500000 0.745808
O O2 0.757099 0.667474 0.561891
O O3 0.529925 0.577023 0.714477
O O4 0.500000 0.643401 0.000000
O O5 0.806666 0.839241 0.445010
O O6 0.016961 0.727080 0.190022
O O7 0.794642 0.731196 0.239571
O O8 0.500000 0.646534 0.500000
O O9 0.661087 0.500000 0.246025
O O10 0.723009 0.662214 0.067353
O O11 0.745914 0.837346 0.054367
O O12 0.521781 0.132952 0.779633
O O13 0.713048 0.000000 0.593861
O O14 0.711129 0.119937 0.807874
O O15 0.670389 0.000000 0.063862
#
# Coordination Sequence:
#
# PCOD8065458 Si02
#       6
#     4   4   4   4   4   4
#     4  10  22  40  62  87 115 152 198 244 289 340
#     4  11  24  38  57  87 124 160 190 235 294 347
#     4  10  20  38  62  85 112 152 200 241 281 340
#     4  11  24  38  56  89 125 156 192 236 291 349
#     4   9  20  39  62  87 114 151 197 242 291 346
#     4   9  20  39  63  88 114 150 198 245 289 343
#
# _framework density 19.989666
#
# number of rings (size 3 to 8) (size 9 to 14) (size 15 to 20)
#    0.000    2.000    1.667    2.000    4.667    2.667 
#    0.000    6.667    0.000    3.000    0.000    0.000 
#    0.000    0.000    0.000    0.000    0.000    0.000 
#
# Total GULP energy -297326.875654 kJ/mol
# GULP energy per Si atom -12388.619819 kJ/mol
# Density = 1.994417 g / cm^3
# Si number density = 19.989666 Si / 1000 Ang^3
#
#
#
# Elastic Constant Matrix: (Units=GPa)
#
#
# Indices 1 2 3 4 5 6 
#
# 1 59.8299 32.0302 20.5563 0.0000 -13.6202 0.0000
# 2 32.0302 107.2419 54.2919 0.0000 -19.6303 0.0000
# 3 20.5563 54.2919 119.0769 0.0000 -13.4553 0.0000
# 4 0.0000 0.0000 0.0000 31.5570 0.0000 5.4980
# 5 -13.6202 -19.6303 -13.4553 0.0000 22.7594 0.0000
# 6 0.0000 0.0000 0.0000 5.4980 0.0000 20.7045
#
#
#
# Elastic Compliance Matrix: (Units=1/GPa)
#
#
# Indices 1 2 3 4 5 6 
#
# 1 0.021263 -0.004453 -0.000682 0.000000 0.008481 0.000000
# 2 -0.004453 0.014462 -0.005054 0.000000 0.006821 0.000000
# 3 -0.000682 -0.005054 0.011017 0.000000 0.001746 0.000000
# 4 0.000000 0.000000 0.000000 0.033226 0.000000 -0.008823
# 5 0.008481 0.006821 0.001746 0.000000 0.055928 0.000000
# 6 0.000000 0.000000 0.000000 -0.008823 0.000000 0.050642
#
#
# Mechanical properties :
#
#
# Convention : Reuss Voigt Hill
#
# Bulk Modulus (GPa) = 37.93115 55.54508 46.73811
# Shear Modulus (GPa) = 23.17983 26.95553 25.06768
#
# Velocity S-wave (km/s) = 3.40897 3.67614 3.54507
# Velocity P-wave (km/s) = 5.87464 6.77244 6.33945
#
# Compressibility (1/GPa) = 0.02636356
#
# Stress axis : x y z
#
# Youngs Moduli (GPa) = 47.03016 69.14672 90.76511
#
# Poissons Ratio (x) = 0.30791 0.06191
# Poissons Ratio (y) = 0.20943 0.45876
# Poissons Ratio (z) = 0.03208 0.34949
#
# Static dielectric constant tensor:
#      x y z
#    x 3.451970 0.000000 -0.025050 
#    y 0.000000 3.766560 0.000000 
#    z -0.025050 0.000000 3.447690 
# 
# 
# High freq. dielectric constant tensor:
#      x y z
#    x 1.765270 0.000000 0.008220 
#    y 0.000000 1.790410 0.000000 
#    z 0.008220 0.000000 1.776550 
# 
# From -- ./inp_files/29238.got.cif
#   From: 2010.06.25/outbox.cif.g09.slc.cpg/sg10_15_cif.got.tgz:29238.got - 2010.06.27 22:07:45.
