data_PCOD8065698
_publ_section_title
;
Structure prediction by ZEFSAII (Michael W. Deem and Ramdas Pophale) SiO2 
 PCOD8065698
Probable space group: P 2/M
;
_chemical_formula_sum "Si O2"
_cell_formula_units_Z 24
_cell_length_a 9.407896
_cell_length_b 18.570079
_cell_length_c 9.296965
_cell_angle_alpha 90.000000
_cell_angle_beta 45.469852
_cell_angle_gamma 90.000000
_cell_volume 1157.883398
_symmetry_space_group_name_H-M "P 2/M"
_symmetry_group_IT_number 10
_symmetry_cell_setting 'monoclinic'
loop_
_space_group_symop_operation_xyz
x,y,z
-x,y,-z
-x,-y,-z
x,-y,z
loop_
_atom_site_type_symbol
_atom_site_label
_atom_site_fract_x
_atom_site_fract_y
_atom_site_fract_z
Si Si1 0.701334 0.584360 0.789681
Si Si2 0.728826 0.709343 0.326485
Si Si3 0.558045 0.916262 0.622381
Si Si4 0.084652 0.814268 0.594201
Si Si5 0.181446 0.167667 0.958841
Si Si6 0.892118 0.584123 0.357786
O O1 0.692273 0.500000 0.820852
O O2 0.729558 0.599786 0.599764
O O3 0.892674 0.612102 0.741870
O O4 0.500000 0.620226 0.000000
O O5 0.500000 0.692986 0.500000
O O6 0.783432 0.750564 0.434993
O O7 0.784047 0.755365 0.145559
O O8 0.837891 0.631508 0.255199
O O9 0.500000 0.899477 0.500000
O O10 0.774604 0.885148 0.509195
O O11 0.380002 0.879067 0.836167
O O12 0.562932 0.000000 0.655468
O O13 0.000000 0.793639 0.500000
O O14 0.887538 0.823399 0.829600
O O15 0.000000 0.128003 0.000000
O O16 0.891941 0.500000 0.315454
#
# Coordination Sequence:
#
# PCOD8065698 Si02
#       6
#     4   4   4   4   4   4
#     4   8  15  33  55  83 122 156 196 249 316 383
#     4  11  21  42  63  84 127 168 209 257 311 379
#     4  11  21  40  69  99 129 165 205 245 303 372
#     4  11  24  42  65  92 126 163 212 257 306 363
#     4  10  20  42  64  88 124 167 206 250 307 365
#     4   9  19  34  57  87 121 160 206 266 318 364
#
# _framework density 20.727474999999998
#
# number of rings (size 3 to 8) (size 9 to 14) (size 15 to 20)
#    0.000    2.000    5.000    1.000    2.333    2.333 
#    9.000    0.833    0.000    4.500    0.000    0.000 
#    0.000    0.000    0.000    0.000    0.000    0.000 
#
# Total GULP energy -297447.703013 kJ/mol
# GULP energy per Si atom -12393.654292 kJ/mol
# Density = 2.068030 g / cm^3
# Si number density = 20.727475 Si / 1000 Ang^3
#
#
#
# Elastic Constant Matrix: (Units=GPa)
#
#
# Indices 1 2 3 4 5 6 
#
# 1 83.0170 41.9197 50.8062 0.0000 -4.1703 0.0000
# 2 41.9197 94.3900 36.0650 0.0000 -7.3664 0.0000
# 3 50.8062 36.0650 118.4450 0.0000 -14.0694 0.0000
# 4 0.0000 0.0000 0.0000 8.4809 0.0000 -7.5855
# 5 -4.1703 -7.3664 -14.0694 0.0000 34.2316 0.0000
# 6 0.0000 0.0000 0.0000 -7.5855 0.0000 29.9380
#
#
#
# Elastic Compliance Matrix: (Units=1/GPa)
#
#
# Indices 1 2 3 4 5 6 
#
# 1 0.019016 -0.006092 -0.006500 0.000000 -0.001666 0.000000
# 2 -0.006092 0.013983 -0.001446 0.000000 0.001673 0.000000
# 3 -0.006500 -0.001446 0.012132 0.000000 0.003883 0.000000
# 4 0.000000 0.000000 0.000000 0.152463 0.000000 0.038630
# 5 -0.001666 0.001673 0.003883 0.000000 0.030966 0.000000
# 6 0.000000 0.000000 0.000000 0.038630 0.000000 0.043190
#
#
# Mechanical properties :
#
#
# Convention : Reuss Voigt Hill
#
# Bulk Modulus (GPa) = 58.62962 61.49266 60.06114
# Shear Modulus (GPa) = 16.36607 25.66752 21.01680
#
# Velocity S-wave (km/s) = 2.81300 3.52281 3.18773
# Velocity P-wave (km/s) = 6.23683 6.80284 6.52597
#
# Compressibility (1/GPa) = 0.01705622
#
# Stress axis : x y z
#
# Youngs Moduli (GPa) = 52.58752 71.51675 82.42453
#
# Poissons Ratio (x) = 0.43566 0.53574
# Poissons Ratio (y) = 0.32035 0.11918
# Poissons Ratio (z) = 0.34181 0.10340
#
# Static dielectric constant tensor:
#      x y z
#    x 3.773560 0.000000 -0.388360 
#    y 0.000000 3.588120 0.000000 
#    z -0.388360 0.000000 4.151520 
# 
# 
# High freq. dielectric constant tensor:
#      x y z
#    x 1.797990 0.000000 -0.021730 
#    y 0.000000 1.793350 0.000000 
#    z -0.021730 0.000000 1.813460 
# 
# From -- ./inp_files/20129.got.cif
#   From: 2010.06.25/outbox.cif.g09.slc.cpg/sg10_11_cif.got.tgz:20129.got - 2010.06.27 22:07:45.
