data_PCOD8065296
_publ_section_title
;
Structure prediction by ZEFSAII (Michael W. Deem and Ramdas Pophale) SiO2 
 PCOD8065296
Probable space group: P 2/M
;
_chemical_formula_sum "Si O2"
_cell_formula_units_Z 26
_cell_length_a 12.356765
_cell_length_b 20.588398
_cell_length_c 5.371030
_cell_angle_alpha 90.000000
_cell_angle_beta 71.982821
_cell_angle_gamma 90.000000
_cell_volume 1299.418110
_symmetry_space_group_name_H-M "P 2/M"
_symmetry_group_IT_number 10
_symmetry_cell_setting 'monoclinic'
loop_
_space_group_symop_operation_xyz
x,y,z
-x,y,-z
-x,-y,-z
x,-y,z
loop_
_atom_site_type_symbol
_atom_site_label
_atom_site_fract_x
_atom_site_fract_y
_atom_site_fract_z
Si Si1 0.870040 0.646923 0.612628
Si Si2 0.700892 0.317888 0.112469
Si Si3 0.873872 0.789687 0.502637
Si Si4 0.568428 0.925512 0.197286
Si Si5 0.328831 0.427126 0.475640
Si Si6 0.500000 0.625118 0.000000
Si Si7 0.242774 0.820833 0.898198
O O1 0.856899 0.712440 0.454157
O O2 0.786623 0.588621 0.595653
O O3 0.000000 0.621943 0.500000
O O4 0.829976 0.669026 0.918800
O O5 0.662366 0.374096 0.320555
O O6 0.689212 0.244962 0.226776
O O7 0.604985 0.325679 0.970402
O O8 0.848643 0.828735 0.263263
O O9 0.000000 0.804894 0.500000
O O10 0.799583 0.812945 0.789240
O O11 0.500000 0.916218 0.500000
O O12 0.681379 0.884308 0.152718
O O13 0.605162 0.000000 0.132968
O O14 0.500000 0.901783 0.000000
O O15 0.315639 0.500000 0.590706
O O16 0.448727 0.423299 0.244340
#
# Coordination Sequence:
#
# PCOD8065296 Si02
#       7
#     4   4   4   4   4   2   4
#     4   9  20  38  56  78 111 145 187 244 298 355
#     4  10  22  36  56  84 110 144 197 240 295 352
#     4  10  20  37  62  90 119 154 199 248 301 355
#     4  10  22  39  60  90 127 167 202 238 295 357
#     4  11  22  38  55  77 108 145 191 240 300 361
#     4  10  23  38  54  76 107 148 186 240 295 366
#     4  11  21  37  62  90 121 156 199 249 296 344
#
# _framework density 20.008956999999999
#
# number of rings (size 3 to 8) (size 9 to 14) (size 15 to 20)
#    0.000    1.846    1.538    2.077    1.077    5.846 
#    0.000    0.769    0.000    2.769    0.000    0.000 
#    0.000    0.000    0.000    0.000    0.000    0.000 
#
# Total GULP energy -322116.873648 kJ/mol
# GULP energy per Si atom -12389.110525 kJ/mol
# Density = 1.996342 g / cm^3
# Si number density = 20.008957 Si / 1000 Ang^3
#
#
#
# Elastic Constant Matrix: (Units=GPa)
#
#
# Indices 1 2 3 4 5 6 
#
# 1 82.4717 39.7206 26.1876 0.0000 -12.6522 0.0000
# 2 39.7206 90.0210 22.1821 0.0000 -4.1752 0.0000
# 3 26.1876 22.1821 85.5826 0.0000 -0.3736 0.0000
# 4 0.0000 0.0000 0.0000 -53.9210 0.0000 -72.7655
# 5 -12.6522 -4.1752 -0.3736 0.0000 39.6370 0.0000
# 6 0.0000 0.0000 0.0000 -72.7655 0.0000 -52.6360
#
#
#
# Elastic Compliance Matrix: (Units=1/GPa)
#
#
# Indices 1 2 3 4 5 6 
#
# 1 0.017079 -0.006445 -0.003535 0.000000 0.004739 0.000000
# 2 -0.006445 0.014358 -0.001752 0.000000 -0.000561 0.000000
# 3 -0.003535 -0.001752 0.013215 0.000000 -0.001188 0.000000
# 4 0.000000 0.000000 0.000000 0.021426 0.000000 -0.029620
# 5 0.004739 -0.000561 -0.001188 0.000000 0.026671 0.000000
# 6 0.000000 0.000000 0.000000 -0.029620 0.000000 0.021949
#
#
# Mechanical properties :
#
#
# Convention : Reuss Voigt Hill
#
# Bulk Modulus (GPa) = 47.19489 48.25066 47.72277
# Shear Modulus (GPa) = 34.42935 -2.05167 16.18884
#
# Velocity S-wave (km/s) = 4.15263 -1.01371 2.84752
# Velocity P-wave (km/s) = 6.82865 4.77459 5.89183
#
# Compressibility (1/GPa) = 0.02118873
#
# Stress axis : x y z
#
# Youngs Moduli (GPa) = 58.55135 69.64794 75.67095
#
# Poissons Ratio (x) = 0.44889 0.26749
# Poissons Ratio (y) = 0.37737 0.13256
# Poissons Ratio (z) = 0.20697 0.12200
#
# Static dielectric constant tensor:
#      x y z
#    x 3.710730 0.000000 0.071520 
#    y 0.000000 3.501120 0.000000 
#    z 0.071520 0.000000 3.857140 
# 
# 
# High freq. dielectric constant tensor:
#      x y z
#    x 1.780970 0.000000 0.003480 
#    y 0.000000 1.757030 0.000000 
#    z 0.003480 0.000000 1.787990 
# 
# From -- ./inp_files/7526.got.cif
#   From: 2010.06.25/outbox.cif.g09.slc.cpg/sg10_4_cif.got.tgz:7526.got - 2010.06.27 22:07:45.
