data_PCOD8065976
_publ_section_title
;
Structure prediction by ZEFSAII (Michael W. Deem and Ramdas Pophale) SiO2 
 PCOD8065976
Probable space group: P 2/M
;
_chemical_formula_sum "Si O2"
_cell_formula_units_Z 32
_cell_length_a 10.707211
_cell_length_b 12.834461
_cell_length_c 25.086936
_cell_angle_alpha 90.000000
_cell_angle_beta 30.946822
_cell_angle_gamma 90.000000
_cell_volume 1772.839446
_symmetry_space_group_name_H-M "P 2/M"
_symmetry_group_IT_number 10
_symmetry_cell_setting 'monoclinic'
loop_
_space_group_symop_operation_xyz
x,y,z
-x,y,-z
-x,-y,-z
x,-y,z
loop_
_atom_site_type_symbol
_atom_site_label
_atom_site_fract_x
_atom_site_fract_y
_atom_site_fract_z
Si Si1 0.807278 0.296058 0.528668
Si Si2 0.168272 0.753403 0.252811
Si Si3 0.144013 0.122042 0.364877
Si Si4 0.574947 0.748649 0.249455
Si Si5 0.594030 0.622434 0.138565
Si Si6 0.474716 0.881557 0.070524
Si Si7 0.761659 0.616059 0.428709
Si Si8 0.081544 0.205690 0.027026
O O1 0.537148 0.290295 0.653355
O O2 0.780885 0.362613 0.484874
O O3 0.000000 0.348778 0.500000
O O4 0.917680 0.181658 0.475184
O O5 0.156215 0.848703 0.298563
O O6 0.339214 0.658178 0.207776
O O7 0.256713 0.804974 0.166152
O O8 0.908931 0.700150 0.340335
O O9 0.402594 0.156620 0.294224
O O10 0.102734 0.000000 0.388091
O O11 0.582730 0.653472 0.204793
O O12 0.853487 0.788182 0.151382
O O13 0.633671 0.500000 0.117350
O O14 0.811694 0.680363 0.027289
O O15 0.395826 0.000000 0.107965
O O16 0.500000 0.854500 0.000000
O O17 0.714994 0.862178 0.017962
O O18 0.500000 0.628074 0.500000
O O19 0.861590 0.500000 0.382909
O O20 0.000000 0.153398 0.000000
#
# Coordination Sequence:
#
# PCOD8065976 Si02
#       8
#     4   4   4   4   4   4   4   4
#     4   9  19  33  50  76 105 133 168 209 250 294
#     4   9  18  33  54  74  98 134 170 204 242 294
#     4   9  17  31  51  74 101 135 172 205 243 298
#     4   9  18  29  46  76 106 132 164 208 260 294
#     4   9  17  31  51  74 101 135 172 205 243 298
#     4  10  21  36  54  76 101 132 168 205 250 300
#     4  10  21  36  54  76 101 132 168 205 250 300
#     4   9  19  33  50  76 105 133 168 209 250 294
#
# _framework density 18.050141
#
# number of rings (size 3 to 8) (size 9 to 14) (size 15 to 20)
#    0.000    2.750    0.000    2.250    0.000    7.000 
#    0.000    0.000    0.000   21.750    0.000    0.000 
#    0.000    0.000    0.000    0.000    0.000    0.000 
#
# Total GULP energy -396535.032086 kJ/mol
# GULP energy per Si atom -12391.719753 kJ/mol
# Density = 1.800906 g / cm^3
# Si number density = 18.050141 Si / 1000 Ang^3
#
#
#
# Elastic Constant Matrix: (Units=GPa)
#
#
# Indices 1 2 3 4 5 6 
#
# 1 83.0578 34.7938 23.8524 0.0000 11.9699 0.0000
# 2 34.7938 90.0541 39.8396 0.0000 11.7967 0.0000
# 3 23.8524 39.8396 126.1148 0.0000 6.3492 0.0000
# 4 0.0000 0.0000 0.0000 19.6311 0.0000 0.0700
# 5 11.9699 11.7967 6.3492 0.0000 7.2871 0.0000
# 6 0.0000 0.0000 0.0000 0.0700 0.0000 22.4642
#
#
#
# Elastic Compliance Matrix: (Units=1/GPa)
#
#
# Indices 1 2 3 4 5 6 
#
# 1 0.016780 -0.003194 -0.001085 0.000000 -0.021448 0.000000
# 2 -0.003194 0.016304 -0.003641 0.000000 -0.017975 0.000000
# 3 -0.001085 -0.003641 0.009307 0.000000 -0.000432 0.000000
# 4 0.000000 0.000000 0.000000 0.050940 0.000000 -0.000159
# 5 -0.021448 -0.017975 -0.000432 0.000000 0.201934 0.000000
# 6 0.000000 0.000000 0.000000 -0.000159 0.000000 0.044516
#
#
# Mechanical properties :
#
#
# Convention : Reuss Voigt Hill
#
# Bulk Modulus (GPa) = 37.66415 55.13313 46.39864
# Shear Modulus (GPa) = 13.71851 23.25921 18.48886
#
# Velocity S-wave (km/s) = 2.75984 3.59359 3.20395
# Velocity P-wave (km/s) = 5.57381 6.91587 6.28079
#
# Compressibility (1/GPa) = 0.02655044
#
# Stress axis : x y z
#
# Youngs Moduli (GPa) = 59.59382 61.33485 107.45118
#
# Poissons Ratio (x) = 0.19589 0.11659
# Poissons Ratio (y) = 0.19033 0.39128
# Poissons Ratio (z) = 0.06466 0.22335
#
# Static dielectric constant tensor:
#      x y z
#    x 3.230030 0.000000 0.004870 
#    y 0.000000 3.113890 0.000000 
#    z 0.004870 0.000000 3.569750 
# 
# 
# High freq. dielectric constant tensor:
#      x y z
#    x 1.677410 0.000000 0.000120 
#    y 0.000000 1.684830 0.000000 
#    z 0.000120 0.000000 1.712440 
# 
# From -- ./inp_files/76536.got.cif
#   From: 2010.06.25/outbox.cif.g09.slc.cpg/sg10_39_cif.got.tgz:76536.got - 2010.06.27 22:07:45.
