data_PCOD8065758
_publ_section_title
;
Structure prediction by ZEFSAII (Michael W. Deem and Ramdas Pophale) SiO2 
 PCOD8065758
Probable space group: P 2/M
;
_chemical_formula_sum "Si O2"
_cell_formula_units_Z 28
_cell_length_a 28.723603
_cell_length_b 9.041676
_cell_length_c 9.618866
_cell_angle_alpha 90.000000
_cell_angle_beta 38.855964
_cell_angle_gamma 90.000000
_cell_volume 1567.226743
_symmetry_space_group_name_H-M "P 2/M"
_symmetry_group_IT_number 10
_symmetry_cell_setting 'monoclinic'
loop_
_space_group_symop_operation_xyz
x,y,z
-x,y,-z
-x,-y,-z
x,-y,z
loop_
_atom_site_type_symbol
_atom_site_label
_atom_site_fract_x
_atom_site_fract_y
_atom_site_fract_z
Si Si1 0.947238 0.674477 0.808442
Si Si2 0.105393 0.675366 0.368885
Si Si3 0.584197 0.171368 0.818468
Si Si4 0.702708 0.831517 0.320644
Si Si5 0.306165 0.675623 0.233502
Si Si6 0.807740 0.674120 0.278637
Si Si7 0.257439 0.172852 0.078006
O O1 0.948596 0.500000 0.790642
O O2 0.910687 0.731761 0.749931
O O3 0.032649 0.724652 0.628958
O O4 0.894298 0.724811 0.060906
O O5 0.120361 0.500000 0.343895
O O6 0.175202 0.760198 0.268560
O O7 0.623397 0.197526 0.577976
O O8 0.622327 0.269107 0.848767
O O9 0.588508 0.000000 0.853406
O O10 0.500000 0.225581 0.000000
O O11 0.764806 0.729401 0.243219
O O12 0.728026 0.000000 0.284956
O O13 0.698366 0.794502 0.167495
O O14 0.309778 0.500000 0.210083
O O15 0.231176 0.729979 0.489323
O O16 0.306071 0.749456 0.083335
O O17 0.802051 0.500000 0.287867
O O18 0.251456 0.000000 0.123362
#
# Coordination Sequence:
#
# PCOD8065758 Si02
#       7
#     4   4   4   4   4   4   4
#     4   8  14  26  47  73  96 123 164 212 255 291
#     4   9  16  28  48  71  97 129 165 209 253 292
#     4   9  18  36  60  81 101 126 157 197 245 296
#     4   9  18  31  50  76 100 127 164 200 240 292
#     4  10  21  34  52  76 102 133 166 202 244 291
#     4   9  16  30  51  73  95 125 168 211 249 290
#     4  11  21  33  48  71 104 137 167 202 244 293
#
# _framework density 17.865953000000001
#
# number of rings (size 3 to 8) (size 9 to 14) (size 15 to 20)
#    0.000    2.714    1.429    1.714    0.000    1.429 
#    0.000    3.571    0.000    8.571    0.000    0.000 
#    0.000    0.000    0.000    0.000    0.000    0.000 
#
# Total GULP energy -347008.654377 kJ/mol
# GULP energy per Si atom -12393.166228 kJ/mol
# Density = 1.782529 g / cm^3
# Si number density = 17.865953 Si / 1000 Ang^3
#
#
#
# Elastic Constant Matrix: (Units=GPa)
#
#
# Indices 1 2 3 4 5 6 
#
# 1 90.9974 31.9535 50.7919 0.0000 2.8601 0.0000
# 2 31.9535 39.0482 23.6543 0.0000 0.7189 0.0000
# 3 50.7919 23.6543 103.0663 0.0000 -9.2393 0.0000
# 4 0.0000 0.0000 0.0000 49.1711 0.0000 -16.3494
# 5 2.8601 0.7189 -9.2393 0.0000 27.3373 0.0000
# 6 0.0000 0.0000 0.0000 -16.3494 0.0000 37.6033
#
#
#
# Elastic Compliance Matrix: (Units=1/GPa)
#
#
# Indices 1 2 3 4 5 6 
#
# 1 0.019056 -0.011155 -0.007201 0.000000 -0.004134 0.000000
# 2 -0.011155 0.036546 -0.002962 0.000000 -0.000795 0.000000
# 3 -0.007201 -0.002962 0.014443 0.000000 0.005713 0.000000
# 4 0.000000 0.000000 0.000000 0.023774 0.000000 0.010337
# 5 -0.004134 -0.000795 0.005713 0.000000 0.038964 0.000000
# 6 0.000000 0.000000 0.000000 0.010337 0.000000 0.031088
#
#
# Mechanical properties :
#
#
# Convention : Reuss Voigt Hill
#
# Bulk Modulus (GPa) = 36.48377 49.54569 43.01473
# Shear Modulus (GPa) = 23.18639 31.26984 27.22811
#
# Velocity S-wave (km/s) = 3.60640 4.18813 3.90811
# Velocity P-wave (km/s) = 6.14872 7.15398 6.67031
#
# Compressibility (1/GPa) = 0.02740945
#
# Stress axis : x y z
#
# Youngs Moduli (GPa) = 52.47720 27.36250 69.23695
#
# Poissons Ratio (x) = 0.30523 0.49860
# Poissons Ratio (y) = 0.58539 0.20505
# Poissons Ratio (z) = 0.37791 0.08103
#
# Static dielectric constant tensor:
#      x y z
#    x 3.042350 0.000000 -0.034630 
#    y 0.000000 3.159990 0.000000 
#    z -0.034630 0.000000 3.815540 
# 
# 
# High freq. dielectric constant tensor:
#      x y z
#    x 1.662500 0.000000 -0.000720 
#    y 0.000000 1.676350 0.000000 
#    z -0.000720 0.000000 1.701490 
# 
# From -- ./inp_files/31525.got.cif
#   From: 2010.06.25/outbox.cif.g09.slc.cpg/sg10_16_cif.got.tgz:31525.got - 2010.06.27 22:07:45.
