data_PCOD8065687
_publ_section_title
;
Structure prediction by ZEFSAII (Michael W. Deem and Ramdas Pophale) SiO2 
 PCOD8065687
Probable space group: P 2/M
;
_chemical_formula_sum "Si O2"
_cell_formula_units_Z 32
_cell_length_a 14.978133
_cell_length_b 15.746530
_cell_length_c 20.528086
_cell_angle_alpha 90.000000
_cell_angle_beta 161.006028
_cell_angle_gamma 90.000000
_cell_volume 1575.796761
_symmetry_space_group_name_H-M "P 2/M"
_symmetry_group_IT_number 10
_symmetry_cell_setting 'monoclinic'
loop_
_space_group_symop_operation_xyz
x,y,z
-x,y,-z
-x,-y,-z
x,-y,z
loop_
_atom_site_type_symbol
_atom_site_label
_atom_site_fract_x
_atom_site_fract_y
_atom_site_fract_z
Si Si1 0.739541 0.404690 0.215955
Si Si2 0.731130 0.095318 0.497156
Si Si3 0.071180 0.256098 0.204833
Si Si4 0.513860 0.674255 0.186934
Si Si5 0.520772 0.261744 0.621109
Si Si6 0.155717 0.905253 0.897163
Si Si7 0.717625 0.144939 0.341136
Si Si8 0.328611 0.595667 0.581280
O O1 0.782320 0.500000 0.272622
O O2 0.663832 0.342670 0.222383
O O3 0.011236 0.374901 0.365101
O O4 0.500000 0.400655 0.000000
O O5 0.521250 0.167748 0.377596
O O6 0.742827 0.097113 0.427205
O O7 0.033483 0.110467 0.739355
O O8 0.628163 0.000000 0.445548
O O9 0.297713 0.282807 0.412819
O O10 0.179353 0.268156 0.205622
O O11 0.000380 0.156560 0.160902
O O12 0.811470 0.313771 0.043975
O O13 0.658705 0.757120 0.316888
O O14 0.561070 0.596337 0.268524
O O15 0.505454 0.336728 0.663052
O O16 0.088066 0.000000 0.873563
O O17 0.482093 0.889454 0.129077
O O18 0.000000 0.129719 0.500000
O O19 0.361180 0.500000 0.575517
#
# Coordination Sequence:
#
# PCOD8065687 Si02
#       8
#     4   4   4   4   4   4   4   4
#     4  10  21  37  60  89 117 150 198 248 295 354
#     4  10  21  38  61  87 118 158 200 248 304 358
#     4   9  21  38  62  83 113 159 192 250 301 351
#     4  11  21  38  57  86 119 155 198 239 298 355
#     4  10  20  41  61  85 118 150 202 246 299 353
#     4   9  20  38  58  86 118 151 202 254 300 357
#     4  11  22  37  57  85 121 163 200 244 297 358
#     4  11  22  37  60  87 120 156 193 241 294 354
#
# _framework density 20.307186999999999
#
# number of rings (size 3 to 8) (size 9 to 14) (size 15 to 20)
#    0.000    1.875    1.250    2.625    0.000    3.500 
#    0.000    7.500    0.000    2.250    0.000    0.000 
#    0.000    0.000    0.000    0.000    0.000    0.000 
#
# Total GULP energy -396657.928359 kJ/mol
# GULP energy per Si atom -12395.560261 kJ/mol
# Density = 2.026097 g / cm^3
# Si number density = 20.307187 Si / 1000 Ang^3
#
#
#
# Elastic Constant Matrix: (Units=GPa)
#
#
# Indices 1 2 3 4 5 6 
#
# 1 87.8995 37.2837 13.4311 0.0000 4.5692 0.0000
# 2 37.2837 102.3170 21.6485 0.0000 5.7303 0.0000
# 3 13.4311 21.6485 47.5624 0.0000 -6.0627 0.0000
# 4 0.0000 0.0000 0.0000 21.5811 0.0000 -5.5016
# 5 4.5692 5.7303 -6.0627 0.0000 24.1905 0.0000
# 6 0.0000 0.0000 0.0000 -5.5016 0.0000 26.6642
#
#
#
# Elastic Compliance Matrix: (Units=1/GPa)
#
#
# Indices 1 2 3 4 5 6 
#
# 1 0.013683 -0.004423 -0.002114 0.000000 -0.002067 0.000000
# 2 -0.004423 0.012617 -0.004926 0.000000 -0.003388 0.000000
# 3 -0.002114 -0.004926 0.024858 0.000000 0.007796 0.000000
# 4 0.000000 0.000000 0.000000 0.048909 0.000000 0.010091
# 5 -0.002067 -0.003388 0.007796 0.000000 0.044485 0.000000
# 6 0.000000 0.000000 0.000000 0.010091 0.000000 0.039586
#
#
# Mechanical properties :
#
#
# Convention : Reuss Voigt Hill
#
# Bulk Modulus (GPa) = 35.42042 42.50060 38.96051
# Shear Modulus (GPa) = 23.09737 25.51489 24.30613
#
# Velocity S-wave (km/s) = 3.37619 3.54848 3.46341
# Velocity P-wave (km/s) = 5.71650 6.14518 5.93471
#
# Compressibility (1/GPa) = 0.02823231
#
# Stress axis : x y z
#
# Youngs Moduli (GPa) = 73.08242 79.25705 40.22891
#
# Poissons Ratio (x) = 0.35055 0.08505
# Poissons Ratio (y) = 0.32324 0.19815
# Poissons Ratio (z) = 0.15451 0.39039
#
# Static dielectric constant tensor:
#      x y z
#    x 3.619200 0.000000 -0.045590 
#    y 0.000000 3.770020 0.000000 
#    z -0.045590 0.000000 3.836620 
# 
# 
# High freq. dielectric constant tensor:
#      x y z
#    x 1.780320 0.000000 -0.010300 
#    y 0.000000 1.795560 0.000000 
#    z -0.010300 0.000000 1.796960 
# 
# From -- ./inp_files/85411.got.cif
#   From: 2010.06.25/outbox.cif.g09.slc.cpg/sg10_43_cif.got.tgz:85411.got - 2010.06.27 22:07:45.
