data_PCOD8065497
_publ_section_title
;
Structure prediction by ZEFSAII (Michael W. Deem and Ramdas Pophale) SiO2 
 PCOD8065497
Probable space group: P 2/M
;
_chemical_formula_sum "Si O2"
_cell_formula_units_Z 28
_cell_length_a 19.297478
_cell_length_b 8.573012
_cell_length_c 14.178651
_cell_angle_alpha 90.000000
_cell_angle_beta 145.141768
_cell_angle_gamma 90.000000
_cell_volume 1340.668750
_symmetry_space_group_name_H-M "P 2/M"
_symmetry_group_IT_number 10
_symmetry_cell_setting 'monoclinic'
loop_
_space_group_symop_operation_xyz
x,y,z
-x,y,-z
-x,-y,-z
x,-y,z
loop_
_atom_site_type_symbol
_atom_site_label
_atom_site_fract_x
_atom_site_fract_y
_atom_site_fract_z
Si Si1 0.114289 0.316521 0.565849
Si Si2 0.298624 0.815003 0.910561
Si Si3 0.462621 0.820965 0.357043
Si Si4 0.987667 0.184087 0.881154
Si Si5 0.204387 0.181677 0.482805
Si Si6 0.799369 0.178173 0.004072
Si Si7 0.461808 0.680698 0.749279
O O1 0.108200 0.500000 0.543009
O O2 0.240714 0.270158 0.756584
O O3 0.110819 0.231179 0.460837
O O4 0.000000 0.257209 0.500000
O O5 0.228094 0.747616 0.924135
O O6 0.286034 0.000000 0.886097
O O7 0.440870 0.775093 0.079255
O O8 0.500000 0.753466 0.500000
O O9 0.527459 0.721226 0.348945
O O10 0.505329 0.000000 0.391976
O O11 0.318492 0.806974 0.192430
O O12 0.857753 0.219359 0.688001
O O13 0.090962 0.261059 0.929365
O O14 0.011434 0.000000 0.914528
O O15 0.000000 0.257089 0.000000
O O16 0.327211 0.277934 0.632770
O O17 0.234307 0.000000 0.524497
O O18 0.834367 0.000000 0.061783
O O19 0.486162 0.500000 0.792940
#
# Coordination Sequence:
#
# PCOD8065497 Si02
#       7
#     4   4   4   4   4   4   4
#     4  11  24  41  63  92 126 162 198 241 303 366
#     4  10  20  38  63  89 118 154 205 254 298 354
#     4   9  18  32  56  85 114 152 201 252 297 351
#     4   9  18  31  53  85 117 149 190 244 299 348
#     4  11  23  39  61  89 120 157 206 255 301 356
#     4   8  15  29  50  81 115 145 183 239 297 342
#     4  11  23  39  58  84 124 162 199 247 311 375
#
# _framework density 20.885099
#
# number of rings (size 3 to 8) (size 9 to 14) (size 15 to 20)
#    0.000    2.143    0.000    4.286    2.000    3.143 
#    0.000    2.857    0.000    2.571    0.000    0.000 
#    0.000    0.000    0.000    0.000    0.000    0.000 
#
# Total GULP energy -347201.775235 kJ/mol
# GULP energy per Si atom -12400.063401 kJ/mol
# Density = 2.083756 g / cm^3
# Si number density = 20.885099 Si / 1000 Ang^3
#
#
#
# Elastic Constant Matrix: (Units=GPa)
#
#
# Indices 1 2 3 4 5 6 
#
# 1 84.6898 11.7125 36.6639 0.0000 3.5847 0.0000
# 2 11.7125 48.0919 14.4246 0.0000 -2.3171 0.0000
# 3 36.6639 14.4246 91.0879 0.0000 -12.7204 0.0000
# 4 0.0000 0.0000 0.0000 17.3808 0.0000 1.7071
# 5 3.5847 -2.3171 -12.7204 0.0000 39.2357 0.0000
# 6 0.0000 0.0000 0.0000 1.7071 0.0000 25.2859
#
#
#
# Elastic Compliance Matrix: (Units=1/GPa)
#
#
# Indices 1 2 3 4 5 6 
#
# 1 0.014897 -0.001944 -0.006174 0.000000 -0.003477 0.000000
# 2 -0.001944 0.022085 -0.002627 0.000000 0.000630 0.000000
# 3 -0.006174 -0.002627 0.014597 0.000000 0.005141 0.000000
# 4 0.000000 0.000000 0.000000 0.057919 0.000000 -0.003910
# 5 -0.003477 0.000630 0.005141 0.000000 0.027509 0.000000
# 6 0.000000 0.000000 0.000000 -0.003910 0.000000 0.039812
#
#
# Mechanical properties :
#
#
# Convention : Reuss Voigt Hill
#
# Bulk Modulus (GPa) = 33.23357 38.83018 36.03187
# Shear Modulus (GPa) = 23.99948 27.11839 25.55894
#
# Velocity S-wave (km/s) = 3.39354 3.60732 3.50206
# Velocity P-wave (km/s) = 5.59482 5.99858 5.80021
#
# Compressibility (1/GPa) = 0.03009006
#
# Stress axis : x y z
#
# Youngs Moduli (GPa) = 67.12945 45.27914 68.50500
#
# Poissons Ratio (x) = 0.08801 0.42294
# Poissons Ratio (y) = 0.13048 0.17996
# Poissons Ratio (z) = 0.41445 0.11895
#
# Static dielectric constant tensor:
#      x y z
#    x 3.984680 0.000000 -0.062780 
#    y 0.000000 3.369150 0.000000 
#    z -0.062780 0.000000 3.793160 
# 
# 
# High freq. dielectric constant tensor:
#      x y z
#    x 1.819620 0.000000 -0.001950 
#    y 0.000000 1.781180 0.000000 
#    z -0.001950 0.000000 1.827450 
# 
# From -- ./inp_files/70266.got.cif
#   From: 2010.06.25/outbox.cif.g09.slc.cpg/sg10_36_cif.got.tgz:70266.got - 2010.06.27 22:07:45.
