data_PCOD8065097
_publ_section_title
;
Structure prediction by ZEFSAII (Michael W. Deem and Ramdas Pophale) SiO2 
 PCOD8065097
Probable space group: P 2/M
;
_chemical_formula_sum "Si O2"
_cell_formula_units_Z 28
_cell_length_a 9.097455
_cell_length_b 8.979491
_cell_length_c 28.979914
_cell_angle_alpha 90.000000
_cell_angle_beta 38.223559
_cell_angle_gamma 90.000000
_cell_volume 1464.775057
_symmetry_space_group_name_H-M "P 2/M"
_symmetry_group_IT_number 10
_symmetry_cell_setting 'monoclinic'
loop_
_space_group_symop_operation_xyz
x,y,z
-x,y,-z
-x,-y,-z
x,-y,z
loop_
_atom_site_type_symbol
_atom_site_label
_atom_site_fract_x
_atom_site_fract_y
_atom_site_fract_z
Si Si1 0.809718 0.675906 0.641363
Si Si2 0.361332 0.175754 0.224463
Si Si3 0.304781 0.828823 0.510460
Si Si4 0.487955 0.827238 0.363129
Si Si5 0.970553 0.824712 0.776985
Si Si6 0.735516 0.328921 0.074214
Si Si7 0.604745 0.329233 0.927020
O O1 0.791809 0.500000 0.649122
O O2 0.679249 0.746777 0.717005
O O3 0.683412 0.730052 0.626073
O O4 0.082815 0.722815 0.573082
O O5 0.157238 0.227656 0.238809
O O6 0.617529 0.227894 0.142779
O O7 0.361120 0.000000 0.231780
O O8 0.500000 0.786198 0.500000
O O9 0.415962 0.799978 0.433341
O O10 0.222503 0.000000 0.536615
O O11 0.757854 0.771507 0.290617
O O12 0.461373 0.000000 0.355962
O O13 0.843815 0.754885 0.852870
O O14 0.950242 0.000000 0.786340
O O15 0.735557 0.500000 0.091013
O O16 0.597266 0.309203 0.060888
O O17 0.000000 0.270158 0.000000
O O18 0.676522 0.500000 0.917145
O O19 0.500000 0.260068 0.000000
#
# Coordination Sequence:
#
# PCOD8065097 Si02
#       7
#     4   4   4   4   4   4   4
#     4  12  25  38  55  83 117 148 182 226 275 324
#     4  10  20  37  59  81 108 144 189 233 275 328
#     4  10  21  40  65  87 110 145 185 223 269 326
#     4  10  21  38  59  83 112 145 181 223 273 326
#     4   9  19  36  58  82 106 138 183 231 274 321
#     4   9  18  33  52  76 109 145 181 224 274 327
#     4   9  18  32  50  74 106 144 181 218 266 324
#
# _framework density 19.115562000000001
#
# number of rings (size 3 to 8) (size 9 to 14) (size 15 to 20)
#    0.000    2.143    0.000    3.000    0.000    7.714 
#    0.000    2.857    0.000    0.000    0.000    0.000 
#    0.000    0.000    0.000    0.000    0.000    0.000 
#
# Total GULP energy -347309.656087 kJ/mol
# GULP energy per Si atom -12403.916289 kJ/mol
# Density = 1.907205 g / cm^3
# Si number density = 19.115562 Si / 1000 Ang^3
#
#
#
# Elastic Constant Matrix: (Units=GPa)
#
#
# Indices 1 2 3 4 5 6 
#
# 1 99.3677 46.9313 65.7316 0.0000 -0.4327 0.0000
# 2 46.9313 76.1391 54.5311 0.0000 0.6659 0.0000
# 3 65.7316 54.5311 142.0582 0.0000 -1.6207 0.0000
# 4 0.0000 0.0000 0.0000 35.7935 0.0000 -0.8890
# 5 -0.4327 0.6659 -1.6207 0.0000 35.5721 0.0000
# 6 0.0000 0.0000 0.0000 -0.8890 0.0000 19.9253
#
#
#
# Elastic Compliance Matrix: (Units=1/GPa)
#
#
# Indices 1 2 3 4 5 6 
#
# 1 0.016550 -0.006507 -0.005159 0.000000 0.000088 0.000000
# 2 -0.006507 0.020688 -0.004938 0.000000 -0.000691 0.000000
# 3 -0.005159 -0.004938 0.011328 0.000000 0.000546 0.000000
# 4 0.000000 0.000000 0.000000 0.027969 0.000000 0.001248
# 5 0.000088 -0.000691 0.000546 0.000000 0.028151 0.000000
# 6 0.000000 0.000000 0.000000 0.001248 0.000000 0.050243
#
#
# Mechanical properties :
#
#
# Convention : Reuss Voigt Hill
#
# Bulk Modulus (GPa) = 65.11579 72.43923 68.77751
# Shear Modulus (GPa) = 25.87235 28.28292 27.07763
#
# Velocity S-wave (km/s) = 3.68295 3.85070 3.76776
# Velocity P-wave (km/s) = 7.22660 7.59922 7.41525
#
# Compressibility (1/GPa) = 0.01535726
#
# Stress axis : x y z
#
# Youngs Moduli (GPa) = 60.42314 48.33818 88.27453
#
# Poissons Ratio (x) = 0.31454 0.45540
# Poissons Ratio (y) = 0.39318 0.43592
# Poissons Ratio (z) = 0.31172 0.23870
#
# Static dielectric constant tensor:
#      x y z
#    x 3.534290 0.000000 -0.018470 
#    y 0.000000 3.432180 0.000000 
#    z -0.018470 0.000000 3.714280 
# 
# 
# High freq. dielectric constant tensor:
#      x y z
#    x 1.744000 0.000000 0.000850 
#    y 0.000000 1.732770 0.000000 
#    z 0.000850 0.000000 1.759230 
# 
# From -- ./inp_files/74350.got.cif
#   From: 2010.06.25/outbox.cif.g09.slc.cpg/sg10_38_cif.got.tgz:74350.got - 2010.06.27 22:07:45.
