data_PCOD8065885
_publ_section_title
;
Structure prediction by ZEFSAII (Michael W. Deem and Ramdas Pophale) SiO2 
 PCOD8065885
Probable space group: P 2/M
;
_chemical_formula_sum "Si O2"
_cell_formula_units_Z 20
_cell_length_a 5.065246
_cell_length_b 13.660452
_cell_length_c 13.687556
_cell_angle_alpha 90.000000
_cell_angle_beta 78.745554
_cell_angle_gamma 90.000000
_cell_volume 928.878168
_symmetry_space_group_name_H-M "P 2/M"
_symmetry_group_IT_number 10
_symmetry_cell_setting 'monoclinic'
loop_
_space_group_symop_operation_xyz
x,y,z
-x,y,-z
-x,-y,-z
x,-y,z
loop_
_atom_site_type_symbol
_atom_site_label
_atom_site_fract_x
_atom_site_fract_y
_atom_site_fract_z
Si Si1 0.500043 0.112369 0.611267
Si Si2 0.950832 0.808100 0.714523
Si Si3 0.788275 0.113924 0.933543
Si Si4 0.559441 0.608733 0.097458
Si Si5 0.977988 0.390157 0.222529
O O1 0.500000 0.149476 0.500000
O O2 0.716860 0.175558 0.653493
O O3 0.203346 0.121474 0.678344
O O4 0.590702 0.000000 0.611350
O O5 0.829489 0.823923 0.831736
O O6 0.052081 0.694998 0.694058
O O7 0.820205 0.000000 0.903120
O O8 0.500000 0.136388 0.000000
O O9 0.000000 0.146189 0.000000
O O10 0.657409 0.500000 0.060862
O O11 0.292529 0.605041 0.179913
O O12 0.805403 0.651498 0.142941
O O13 0.500000 0.667451 0.000000
O O14 0.877643 0.500000 0.262156
#
# Coordination Sequence:
#
# PCOD8065885 Si02
#       5
#     4   4   4   4   4
#     4  11  24  43  68  95 118 144 191 257 319 369
#     4  12  23  39  64  90 122 163 201 242 302 363
#     4  10  21  36  54  81 119 159 197 235 281 350
#     4   9  17  31  50  73 108 155 205 253 291 324
#     4  10  21  35  53  81 117 158 201 245 292 344
#
# _framework density 21.531348999999999
#
# number of rings (size 3 to 8) (size 9 to 14) (size 15 to 20)
#    0.000    1.600    0.000    5.400    0.000    8.000 
#    0.000    0.000    0.000    3.600    0.000    0.000 
#    0.000    0.000    0.000    0.000    0.000    0.000 
#
# Total GULP energy -247928.924858 kJ/mol
# GULP energy per Si atom -12396.446243 kJ/mol
# Density = 2.148234 g / cm^3
# Si number density = 21.531349 Si / 1000 Ang^3
#
#
#
# Elastic Constant Matrix: (Units=GPa)
#
#
# Indices 1 2 3 4 5 6 
#
# 1 130.6910 35.1703 56.0795 0.0000 29.6383 0.0000
# 2 35.1703 77.5870 54.8153 0.0000 18.4131 0.0000
# 3 56.0795 54.8153 112.7995 0.0000 29.6417 0.0000
# 4 0.0000 0.0000 0.0000 13.0628 0.0000 8.5445
# 5 29.6383 18.4131 29.6417 0.0000 37.2696 0.0000
# 6 0.0000 0.0000 0.0000 8.5445 0.0000 24.3764
#
#
#
# Elastic Compliance Matrix: (Units=1/GPa)
#
#
# Indices 1 2 3 4 5 6 
#
# 1 0.010572 -0.001236 -0.003295 0.000000 -0.005176 0.000000
# 2 -0.001236 0.019984 -0.008547 0.000000 -0.002093 0.000000
# 3 -0.003295 -0.008547 0.016256 0.000000 -0.006086 0.000000
# 4 0.000000 0.000000 0.000000 0.099327 0.000000 -0.034816
# 5 -0.005176 -0.002093 -0.006086 0.000000 0.036822 0.000000
# 6 0.000000 0.000000 0.000000 -0.034816 0.000000 0.053227
#
#
# Mechanical properties :
#
#
# Convention : Reuss Voigt Hill
#
# Bulk Modulus (GPa) = 48.41186 68.13419 58.27302
# Shear Modulus (GPa) = 18.57147 26.60926 22.59036
#
# Velocity S-wave (km/s) = 2.94007 3.51926 3.24263
# Velocity P-wave (km/s) = 5.83597 6.94453 6.41424
#
# Compressibility (1/GPa) = 0.02065610
#
# Stress axis : x y z
#
# Youngs Moduli (GPa) = 94.58932 50.03989 61.51463
#
# Poissons Ratio (x) = 0.06184 0.20271
# Poissons Ratio (y) = 0.11690 0.52577
# Poissons Ratio (z) = 0.31170 0.42769
#
# Static dielectric constant tensor:
#      x y z
#    x 3.981620 0.000000 0.181350 
#    y 0.000000 4.246970 0.000000 
#    z 0.181350 0.000000 3.737510 
# 
# 
# High freq. dielectric constant tensor:
#      x y z
#    x 1.864470 0.000000 0.019450 
#    y 0.000000 1.850490 0.000000 
#    z 0.019450 0.000000 1.807610 
# 
# From -- ./inp_files/39024.got.cif
#   From: 2010.06.25/outbox.cif.g09.slc.cpg/sg10_20_cif.got.tgz:39024.got - 2010.06.27 22:07:45.
