data_PCOD8065903
_publ_section_title
;
Structure prediction by ZEFSAII (Michael W. Deem and Ramdas Pophale) SiO2 
 PCOD8065903
Probable space group: P 2/M
;
_chemical_formula_sum "Si O2"
_cell_formula_units_Z 24
_cell_length_a 12.047550
_cell_length_b 9.018029
_cell_length_c 11.273057
_cell_angle_alpha 90.000000
_cell_angle_beta 106.258894
_cell_angle_gamma 90.000000
_cell_volume 1175.780352
_symmetry_space_group_name_H-M "P 2/M"
_symmetry_group_IT_number 10
_symmetry_cell_setting 'monoclinic'
loop_
_space_group_symop_operation_xyz
x,y,z
-x,y,-z
-x,-y,-z
x,-y,z
loop_
_atom_site_type_symbol
_atom_site_label
_atom_site_fract_x
_atom_site_fract_y
_atom_site_fract_z
Si Si1 0.538833 0.831444 0.238025
Si Si2 0.676760 0.325014 0.756300
Si Si3 0.132899 0.826860 0.043264
Si Si4 0.770401 0.172357 0.184255
Si Si5 0.867894 0.333118 0.427661
Si Si6 0.683343 0.829386 0.515390
O O1 0.426676 0.727958 0.187345
O O2 0.636415 0.786554 0.170860
O O3 0.587806 0.811018 0.385139
O O4 0.498511 0.000000 0.204818
O O5 0.683991 0.500000 0.757300
O O6 0.800430 0.261590 0.834414
O O7 0.645423 0.264940 0.617125
O O8 0.138112 0.000000 0.075492
O O9 0.197489 0.789975 0.940171
O O10 0.000000 0.772668 0.000000
O O11 0.853873 0.269068 0.291527
O O12 0.791098 0.000000 0.221281
O O13 0.817089 0.500000 0.417090
O O14 0.804897 0.230140 0.504077
O O15 0.000000 0.332913 0.500000
O O16 0.697334 0.000000 0.557458
#
# Coordination Sequence:
#
# PCOD8065903 Si02
#       6
#     4   4   4   4   4   4
#     4   9  19  38  62  88 118 153 197 249 300 350
#     4  12  25  38  58  89 124 160 196 242 305 363
#     4  10  23  43  64  87 115 156 207 250 292 348
#     4   9  20  39  62  87 115 153 202 252 294 341
#     4  10  21  35  55  87 123 158 192 237 300 357
#     4  10  21  38  61  88 119 157 201 247 292 348
#
# _framework density 20.411975999999999
#
# number of rings (size 3 to 8) (size 9 to 14) (size 15 to 20)
#    0.000    2.000    0.000    4.000    2.333    8.333 
#    0.000    3.333    0.000    0.000    0.000    0.000 
#    0.000    0.000    0.000    0.000    0.000    0.000 
#
# Total GULP energy -297673.232265 kJ/mol
# GULP energy per Si atom -12403.051344 kJ/mol
# Density = 2.036552 g / cm^3
# Si number density = 20.411976 Si / 1000 Ang^3
#
#
#
# Elastic Constant Matrix: (Units=GPa)
#
#
# Indices 1 2 3 4 5 6 
#
# 1 107.2295 47.1817 39.4209 0.0000 4.9659 0.0000
# 2 47.1817 104.1724 31.1630 0.0000 8.7161 0.0000
# 3 39.4209 31.1630 47.6274 0.0000 -7.2464 0.0000
# 4 0.0000 0.0000 0.0000 5.1026 0.0000 -3.0505
# 5 4.9659 8.7161 -7.2464 0.0000 26.4799 0.0000
# 6 0.0000 0.0000 0.0000 -3.0505 0.0000 21.0571
#
#
#
# Elastic Compliance Matrix: (Units=1/GPa)
#
#
# Indices 1 2 3 4 5 6 
#
# 1 0.014993 -0.003046 -0.011156 0.000000 -0.004862 0.000000
# 2 -0.003046 0.013666 -0.007323 0.000000 -0.005931 0.000000
# 3 -0.011156 -0.007323 0.037257 0.000000 0.014698 0.000000
# 4 0.000000 0.000000 0.000000 0.214563 0.000000 0.031083
# 5 -0.004862 -0.005931 0.014698 0.000000 0.044651 0.000000
# 6 0.000000 0.000000 0.000000 0.031083 0.000000 0.051993
#
#
# Mechanical properties :
#
#
# Convention : Reuss Voigt Hill
#
# Bulk Modulus (GPa) = 43.73214 54.95117 49.34165
# Shear Modulus (GPa) = 11.68787 19.94549 15.81668
#
# Velocity S-wave (km/s) = 2.39550 3.12933 2.78667
# Velocity P-wave (km/s) = 5.39652 6.32743 5.88043
#
# Compressibility (1/GPa) = 0.02286648
#
# Stress axis : x y z
#
# Youngs Moduli (GPa) = 66.69977 73.17400 26.84038
#
# Poissons Ratio (x) = 0.22292 0.29942
# Poissons Ratio (y) = 0.20320 0.19654
# Poissons Ratio (z) = 0.74408 0.53583
#
# Static dielectric constant tensor:
#      x y z
#    x 3.835290 0.000000 -0.128380 
#    y 0.000000 3.741880 0.000000 
#    z -0.128380 0.000000 3.596110 
# 
# 
# High freq. dielectric constant tensor:
#      x y z
#    x 1.808110 0.000000 -0.002720 
#    y 0.000000 1.791720 0.000000 
#    z -0.002720 0.000000 1.788750 
# 
# From -- ./inp_files/45266.got.cif
#   From: 2010.06.25/outbox.cif.g09.slc.cpg/sg10_23_cif.got.tgz:45266.got - 2010.06.27 22:07:45.
