data_PCOD8065768
_publ_section_title
;
Structure prediction by ZEFSAII (Michael W. Deem and Ramdas Pophale) SiO2 
 PCOD8065768
Probable space group: P 2/M
;
_chemical_formula_sum "Si O2"
_cell_formula_units_Z 32
_cell_length_a 25.151683
_cell_length_b 13.726473
_cell_length_c 9.401775
_cell_angle_alpha 90.000000
_cell_angle_beta 149.799733
_cell_angle_gamma 90.000000
_cell_volume 1632.768257
_symmetry_space_group_name_H-M "P 2/M"
_symmetry_group_IT_number 10
_symmetry_cell_setting 'monoclinic'
loop_
_space_group_symop_operation_xyz
x,y,z
-x,y,-z
-x,-y,-z
x,-y,z
loop_
_atom_site_type_symbol
_atom_site_label
_atom_site_fract_x
_atom_site_fract_y
_atom_site_fract_z
Si Si1 0.832804 0.703052 0.353951
Si Si2 0.328464 0.892094 0.272423
Si Si3 0.719157 0.889671 0.157175
Si Si4 0.389138 0.615740 0.684354
Si Si5 0.200032 0.612072 0.428594
Si Si6 0.947881 0.385529 0.153942
Si Si7 0.248316 0.693987 0.130158
Si Si8 0.531641 0.113612 0.919768
O O1 0.818174 0.815148 0.372479
O O2 0.805931 0.632135 0.420184
O O3 0.952792 0.683238 0.581712
O O4 0.752878 0.673692 0.042211
O O5 0.243966 0.812374 0.134535
O O6 0.440850 0.863742 0.597215
O O7 0.291038 0.000000 0.235937
O O8 0.343110 0.889445 0.136322
O O9 0.760203 0.000000 0.284068
O O10 0.642028 0.849777 0.104590
O O11 0.393730 0.500000 0.688076
O O12 0.301104 0.661656 0.586799
O O13 0.356877 0.653367 0.451519
O O14 0.500000 0.657344 0.000000
O O15 0.221367 0.500000 0.453493
O O16 0.090815 0.639202 0.095861
O O17 0.976646 0.500000 0.239054
O O18 0.853771 0.358107 0.042075
O O19 0.546986 0.000000 0.979332
O O20 0.500000 0.161604 0.000000
#
# Coordination Sequence:
#
# PCOD8065768 Si02
#       8
#     4   4   4   4   4   4   4   4
#     4  11  21  33  54  81 105 134 178 228 268 306
#     4   9  18  33  51  73 106 144 177 214 264 318
#     4   9  19  35  51  72 108 147 178 212 261 319
#     4   9  19  37  56  74 105 146 176 206 264 334
#     4   9  19  35  55  78 102 132 170 212 265 326
#     4  10  21  38  58  79 106 139 174 220 279 330
#     4  10  21  34  53  81 106 135 179 224 266 313
#     4   9  17  30  51  77 101 132 178 224 260 300
#
# _framework density 19.598617999999998
#
# number of rings (size 3 to 8) (size 9 to 14) (size 15 to 20)
#    0.000    2.500    0.000    2.625    0.000    8.500 
#    0.000    2.500    0.000    6.750    0.000    0.000 
#    0.000    0.000    0.000    0.000    0.000    0.000 
#
# Total GULP energy -396473.274037 kJ/mol
# GULP energy per Si atom -12389.789814 kJ/mol
# Density = 1.955401 g / cm^3
# Si number density = 19.598618 Si / 1000 Ang^3
#
#
#
# Elastic Constant Matrix: (Units=GPa)
#
#
# Indices 1 2 3 4 5 6 
#
# 1 72.5743 31.2968 36.1477 0.0000 -9.0410 0.0000
# 2 31.2968 53.6379 42.2640 0.0000 10.2697 0.0000
# 3 36.1477 42.2640 109.3705 0.0000 -6.4373 0.0000
# 4 0.0000 0.0000 0.0000 22.2774 0.0000 4.5175
# 5 -9.0410 10.2697 -6.4373 0.0000 29.7222 0.0000
# 6 0.0000 0.0000 0.0000 4.5175 0.0000 26.5382
#
#
#
# Elastic Compliance Matrix: (Units=1/GPa)
#
#
# Indices 1 2 3 4 5 6 
#
# 1 0.021749 -0.013925 -0.001149 0.000000 0.011178 0.000000
# 2 -0.013925 0.040402 -0.012237 0.000000 -0.020846 0.000000
# 3 -0.001149 -0.012237 0.014667 0.000000 0.007055 0.000000
# 4 0.000000 0.000000 0.000000 0.046494 0.000000 -0.007914
# 5 0.011178 -0.020846 0.007055 0.000000 0.045776 0.000000
# 6 0.000000 0.000000 0.000000 -0.007914 0.000000 0.039029
#
#
# Mechanical properties :
#
#
# Convention : Reuss Voigt Hill
#
# Bulk Modulus (GPa) = 45.05426 50.55553 47.80489
# Shear Modulus (GPa) = 18.50915 24.09917 21.30416
#
# Velocity S-wave (km/s) = 3.07646 3.51042 3.30058
# Velocity P-wave (km/s) = 5.97142 6.50248 6.24260
#
# Compressibility (1/GPa) = 0.02219546
#
# Stress axis : x y z
#
# Youngs Moduli (GPa) = 45.97958 24.75136 68.17953
#
# Poissons Ratio (x) = 0.34465 0.07836
# Poissons Ratio (y) = 0.64025 0.83433
# Poissons Ratio (z) = 0.05285 0.30289
#
# Static dielectric constant tensor:
#      x y z
#    x 3.623890 0.000000 -0.204100 
#    y 0.000000 3.617300 0.000000 
#    z -0.204100 0.000000 3.713720 
# 
# 
# High freq. dielectric constant tensor:
#      x y z
#    x 1.756010 0.000000 -0.018430 
#    y 0.000000 1.759790 0.000000 
#    z -0.018430 0.000000 1.754160 
# 
# From -- ./inp_files/36410.got.cif
#   From: 2010.06.25/outbox.cif.g09.slc.cpg/sg10_19_cif.got.tgz:36410.got - 2010.06.27 22:07:45.
