data_PCOD8065086
_publ_section_title
;
Structure prediction by ZEFSAII (Michael W. Deem and Ramdas Pophale) SiO2 
 PCOD8065086
Probable space group: P 2/M
;
_chemical_formula_sum "Si O2"
_cell_formula_units_Z 24
_cell_length_a 17.113133
_cell_length_b 8.940764
_cell_length_c 24.426324
_cell_angle_alpha 90.000000
_cell_angle_beta 19.463290
_cell_angle_gamma 90.000000
_cell_volume 1245.291296
_symmetry_space_group_name_H-M "P 2/M"
_symmetry_group_IT_number 10
_symmetry_cell_setting 'monoclinic'
loop_
_space_group_symop_operation_xyz
x,y,z
-x,y,-z
-x,-y,-z
x,-y,z
loop_
_atom_site_type_symbol
_atom_site_label
_atom_site_fract_x
_atom_site_fract_y
_atom_site_fract_z
Si Si1 0.053614 0.673731 0.738247
Si Si2 0.914984 0.175979 0.167574
Si Si3 0.614072 0.673740 0.177829
Si Si4 0.441602 0.677844 0.978865
Si Si5 0.487640 0.670605 0.631206
Si Si6 0.259747 0.322149 0.319784
O O1 0.028631 0.500000 0.770186
O O2 0.121321 0.760746 0.748011
O O3 0.251590 0.701739 0.562343
O O4 0.810679 0.737222 0.874464
O O5 0.691129 0.218190 0.279462
O O6 0.936252 0.000000 0.156945
O O7 0.143847 0.239177 0.986882
O O8 0.666834 0.500000 0.132010
O O9 0.504584 0.701789 0.309472
O O10 0.429917 0.737159 0.255230
O O11 0.434768 0.500000 0.986774
O O12 0.500000 0.745763 0.000000
O O13 0.639921 0.731597 0.805044
O O14 0.410175 0.500000 0.669918
O O15 0.248574 0.500000 0.329852
O O16 0.000000 0.254240 0.500000
#
# Coordination Sequence:
#
# PCOD8065086 Si02
#       6
#     4   4   4   4   4   4
#     4  10  20  37  58  84 116 148 183 228 282 335
#     4  12  24  38  57  80 110 150 195 234 277 330
#     4  10  20  37  58  84 116 148 183 228 282 335
#     4   9  17  29  51  83 115 142 173 221 276 328
#     4  10  22  36  57  84 112 146 187 232 281 336
#     4   9  17  29  51  83 115 142 173 221 276 328
#
# _framework density 19.272599
#
# number of rings (size 3 to 8) (size 9 to 14) (size 15 to 20)
#    0.000    2.000    1.667    2.500    2.333    5.333 
#    0.000    0.000    0.000    1.000    0.000    0.000 
#    0.000    0.000    0.000    0.000    0.000    0.000 
#
# Total GULP energy -297666.238068 kJ/mol
# GULP energy per Si atom -12402.759920 kJ/mol
# Density = 1.922873 g / cm^3
# Si number density = 19.272599 Si / 1000 Ang^3
#
#
#
# Elastic Constant Matrix: (Units=GPa)
#
#
# Indices 1 2 3 4 5 6 
#
# 1 131.7511 22.2516 61.7975 0.0000 9.9437 0.0000
# 2 22.2516 49.7025 27.5155 0.0000 4.6643 0.0000
# 3 61.7975 27.5155 153.4926 0.0000 9.5052 0.0000
# 4 0.0000 0.0000 0.0000 -0.0974 0.0000 0.5778
# 5 9.9437 4.6643 9.5052 0.0000 40.1847 0.0000
# 6 0.0000 0.0000 0.0000 0.5778 0.0000 -0.7866
#
#
#
# Elastic Compliance Matrix: (Units=1/GPa)
#
#
# Indices 1 2 3 4 5 6 
#
# 1 0.009676 -0.002328 -0.003397 0.000000 -0.001321 0.000000
# 2 -0.002328 0.023007 -0.003103 0.000000 -0.001361 0.000000
# 3 -0.003397 -0.003103 0.008489 0.000000 -0.000807 0.000000
# 4 0.000000 0.000000 0.000000 3.057796 0.000000 2.246260
# 5 -0.001321 -0.001361 -0.000807 0.000000 0.025561 0.000000
# 6 0.000000 0.000000 0.000000 2.246260 0.000000 0.378805
#
#
# Mechanical properties :
#
#
# Convention : Reuss Voigt Hill
#
# Bulk Modulus (GPa) = 42.52127 62.00837 52.26482
# Shear Modulus (GPa) = 1.41690 22.75223 12.08456
#
# Velocity S-wave (km/s) = 0.85836 3.43964 2.50678
# Velocity P-wave (km/s) = 4.80555 6.92958 5.96290
#
# Compressibility (1/GPa) = 0.02351764
#
# Stress axis : x y z
#
# Youngs Moduli (GPa) = 103.34812 43.46450 117.80337
#
# Poissons Ratio (x) = 0.10117 0.40013
# Poissons Ratio (y) = 0.24055 0.36554
# Poissons Ratio (z) = 0.35103 0.13487
#
# Static dielectric constant tensor:
#      x y z
#    x 3.706630 0.000000 0.020950 
#    y 0.000000 3.055680 0.000000 
#    z 0.020950 0.000000 3.730220 
# 
# 
# High freq. dielectric constant tensor:
#      x y z
#    x 1.762720 0.000000 0.004650 
#    y 0.000000 1.695320 0.000000 
#    z 0.004650 0.000000 1.767940 
# 
# From -- ./inp_files/80137.got.cif
#   From: 2010.06.25/outbox.cif.g09.slc.cpg/sg10_41_cif.got.tgz:80137.got - 2010.06.27 22:07:45.
