data_PCOD8065031
_publ_section_title
;
Structure prediction by ZEFSAII (Michael W. Deem and Ramdas Pophale) SiO2 
 PCOD8065031
Probable space group: P 2/M
;
_chemical_formula_sum "Si O2"
_cell_formula_units_Z 28
_cell_length_a 29.931726
_cell_length_b 9.040712
_cell_length_c 10.047912
_cell_angle_alpha 90.000000
_cell_angle_beta 36.662924
_cell_angle_gamma 90.000000
_cell_volume 1623.535521
_symmetry_space_group_name_H-M "P 2/M"
_symmetry_group_IT_number 10
_symmetry_cell_setting 'monoclinic'
loop_
_space_group_symop_operation_xyz
x,y,z
-x,y,-z
-x,-y,-z
x,-y,z
loop_
_atom_site_type_symbol
_atom_site_label
_atom_site_fract_x
_atom_site_fract_y
_atom_site_fract_z
Si Si1 0.082985 0.331083 0.308768
Si Si2 0.320634 0.827014 0.397852
Si Si3 0.368961 0.168521 0.814673
Si Si4 0.582599 0.325436 0.046271
Si Si5 0.568829 0.170836 0.625587
Si Si6 0.782387 0.171027 0.936380
Si Si7 0.787360 0.668976 0.179425
O O1 0.077894 0.500000 0.370623
O O2 0.135448 0.242580 0.290344
O O3 0.000000 0.260917 0.500000
O O4 0.122777 0.321287 0.066877
O O5 0.374180 0.787993 0.393446
O O6 0.238594 0.757566 0.626970
O O7 0.312118 0.000000 0.391948
O O8 0.350149 0.750514 0.194411
O O9 0.409335 0.278787 0.818965
O O10 0.396971 0.204971 0.600083
O O11 0.389521 0.000000 0.804490
O O12 0.278282 0.190731 0.036468
O O13 0.588248 0.500000 0.019249
O O14 0.503903 0.270664 0.176703
O O15 0.544931 0.000000 0.694460
O O16 0.793058 0.000000 0.947207
O O17 0.746881 0.253171 0.149889
O O18 0.760843 0.500000 0.254762
#
# Coordination Sequence:
#
# PCOD8065031 Si02
#       7
#     4   4   4   4   4   4   4
#     4   8  15  27  44  73 110 138 160 196 247 294
#     4  11  21  37  56  73  96 132 173 210 252 305
#     4  10  20  37  55  72  98 133 172 210 252 306
#     4  12  26  36  47  74 103 130 168 214 261 303
#     4  10  20  37  57  73  93 128 170 212 260 309
#     4   9  16  29  49  74  98 129 169 202 240 289
#     4   9  17  29  48  73 102 132 161 198 244 293
#
# _framework density 17.246310999999999
#
# number of rings (size 3 to 8) (size 9 to 14) (size 15 to 20)
#    0.857    1.286    1.429    3.000    0.000    6.571 
#    0.000    0.000    0.000    0.000    0.000    1.000 
#    0.000    8.000    0.000    0.000    0.000    0.000 
#
# Total GULP energy -346935.358999 kJ/mol
# GULP energy per Si atom -12390.548536 kJ/mol
# Density = 1.720706 g / cm^3
# Si number density = 17.246311 Si / 1000 Ang^3
#
#
#
# Elastic Constant Matrix: (Units=GPa)
#
#
# Indices 1 2 3 4 5 6 
#
# 1 25.0540 15.9906 15.6350 0.0000 -5.8778 0.0000
# 2 15.9906 97.4322 33.8798 0.0000 -4.6283 0.0000
# 3 15.6350 33.8798 71.1739 0.0000 -8.5568 0.0000
# 4 0.0000 0.0000 0.0000 27.8869 0.0000 -5.3851
# 5 -5.8778 -4.6283 -8.5568 0.0000 28.5706 0.0000
# 6 0.0000 0.0000 0.0000 -5.3851 0.0000 16.0371
#
#
#
# Elastic Compliance Matrix: (Units=1/GPa)
#
#
# Indices 1 2 3 4 5 6 
#
# 1 0.049611 -0.005167 -0.007585 0.000000 0.007098 0.000000
# 2 -0.005167 0.012839 -0.005036 0.000000 -0.000491 0.000000
# 3 -0.007585 -0.005036 0.018494 0.000000 0.003163 0.000000
# 4 0.000000 0.000000 0.000000 0.038345 0.000000 0.012876
# 5 0.007098 -0.000491 0.003163 0.000000 0.037329 0.000000
# 6 0.000000 0.000000 0.000000 0.012876 0.000000 0.066679
#
#
# Mechanical properties :
#
#
# Convention : Reuss Voigt Hill
#
# Bulk Modulus (GPa) = 22.04234 36.07455 29.05844
# Shear Modulus (GPa) = 18.24850 23.04258 20.64554
#
# Velocity S-wave (km/s) = 3.25639 3.65922 3.46366
# Velocity P-wave (km/s) = 5.19109 6.23024 5.73425
#
# Compressibility (1/GPa) = 0.04536723
#
# Stress axis : x y z
#
# Youngs Moduli (GPa) = 20.15702 77.88585 54.07277
#
# Poissons Ratio (x) = 0.40247 0.41015
# Poissons Ratio (y) = 0.10416 0.27229
# Poissons Ratio (z) = 0.15289 0.39220
#
# Static dielectric constant tensor:
#      x y z
#    x 2.950060 0.000000 -0.145510 
#    y 0.000000 3.204770 0.000000 
#    z -0.145510 0.000000 3.234220 
# 
# 
# High freq. dielectric constant tensor:
#      x y z
#    x 1.628050 0.000000 -0.012170 
#    y 0.000000 1.672710 0.000000 
#    z -0.012170 0.000000 1.656770 
# 
# From -- ./inp_files/37966.got.cif
#   From: 2010.06.25/outbox.cif.g09.slc.cpg/sg10_19_cif.got.tgz:37966.got - 2010.06.27 22:07:45.
