data_PCOD8065595
_publ_section_title
;
Structure prediction by ZEFSAII (Michael W. Deem and Ramdas Pophale) SiO2 
 PCOD8065595
Probable space group: P 2/M
;
_chemical_formula_sum "Si O2"
_cell_formula_units_Z 24
_cell_length_a 21.630553
_cell_length_b 7.775586
_cell_length_c 8.999564
_cell_angle_alpha 90.000000
_cell_angle_beta 127.955600
_cell_angle_gamma 90.000000
_cell_volume 1193.485356
_symmetry_space_group_name_H-M "P 2/M"
_symmetry_group_IT_number 10
_symmetry_cell_setting 'monoclinic'
loop_
_space_group_symop_operation_xyz
x,y,z
-x,y,-z
-x,-y,-z
x,-y,z
loop_
_atom_site_type_symbol
_atom_site_label
_atom_site_fract_x
_atom_site_fract_y
_atom_site_fract_z
Si Si1 0.083352 0.500000 0.547763
Si Si2 0.807077 0.191002 0.634253
Si Si3 0.802213 0.801198 0.284148
Si Si4 0.083363 0.500000 0.198781
Si Si5 0.654663 0.306120 0.556335
Si Si6 0.501876 0.297155 0.831789
Si Si7 0.651252 0.805483 0.875596
O O1 0.128560 0.673439 0.664772
O O2 0.070065 0.500000 0.353480
O O3 0.000000 0.500000 0.500000
O O4 0.783228 0.228889 0.429175
O O5 0.869852 0.330020 0.784371
O O6 0.729415 0.195401 0.619386
O O7 0.844001 0.000000 0.704569
O O8 0.826172 0.000000 0.288006
O O9 0.725179 0.744130 0.081453
O O10 0.000000 0.500000 0.000000
O O11 0.668366 0.500000 0.520532
O O12 0.577142 0.230084 0.363896
O O13 0.643638 0.308664 0.717320
O O14 0.511907 0.500000 0.827390
O O15 0.574404 0.205506 0.861828
O O16 0.500000 0.240825 0.000000
O O17 0.663341 0.000000 0.840755
#
# Coordination Sequence:
#
# PCOD8065595 Si02
#       7
#     2   4   4   2   4   4   4
#     4  10  22  38  62  89 114 155 190 228 291 346
#     4  10  20  39  63  86 116 155 196 239 288 344
#     4   9  21  39  60  87 117 151 195 240 283 344
#     4  10  22  40  60  89 122 149 192 236 285 352
#     4  11  22  36  56  85 118 153 196 244 293 343
#     4  10  22  38  57  81 112 154 200 244 290 342
#     4  11  23  37  55  84 117 153 194 241 296 342
#
# _framework density 20.109169999999999
#
# number of rings (size 3 to 8) (size 9 to 14) (size 15 to 20)
#    0.000    1.833    0.833    2.500    2.333    5.667 
#    0.000    0.000    0.000    0.000    0.000    0.000 
#    0.000    0.000    0.000    0.000    0.000    0.000 
#
# Total GULP energy -297697.835232 kJ/mol
# GULP energy per Si atom -12404.076468 kJ/mol
# Density = 2.006340 g / cm^3
# Si number density = 20.109170 Si / 1000 Ang^3
#
#
#
# Elastic Constant Matrix: (Units=GPa)
#
#
# Indices 1 2 3 4 5 6 
#
# 1 134.4751 42.9733 57.8224 0.0000 16.8893 0.0000
# 2 42.9733 99.8128 49.8273 0.0000 15.6059 0.0000
# 3 57.8224 49.8273 145.9439 0.0000 21.9796 0.0000
# 4 0.0000 0.0000 0.0000 21.5149 0.0000 -0.1822
# 5 16.8893 15.6059 21.9796 0.0000 35.0318 0.0000
# 6 0.0000 0.0000 0.0000 -0.1822 0.0000 25.7949
#
#
#
# Elastic Compliance Matrix: (Units=1/GPa)
#
#
# Indices 1 2 3 4 5 6 
#
# 1 0.009623 -0.002520 -0.002675 0.000000 -0.001838 0.000000
# 2 -0.002520 0.013047 -0.003052 0.000000 -0.002682 0.000000
# 3 -0.002675 -0.003052 0.009448 0.000000 -0.003278 0.000000
# 4 0.000000 0.000000 0.000000 0.046482 0.000000 0.000328
# 5 -0.001838 -0.002682 -0.003278 0.000000 0.032683 0.000000
# 6 0.000000 0.000000 0.000000 0.000328 0.000000 0.038770
#
#
# Mechanical properties :
#
#
# Convention : Reuss Voigt Hill
#
# Bulk Modulus (GPa) = 64.01045 75.71977 69.86511
# Shear Modulus (GPa) = 29.11131 31.77556 30.44343
#
# Velocity S-wave (km/s) = 3.80894 3.97943 3.89512
# Velocity P-wave (km/s) = 7.15854 7.67141 7.41941
#
# Compressibility (1/GPa) = 0.01562245
#
# Stress axis : x y z
#
# Youngs Moduli (GPa) = 103.91928 76.64797 105.84723
#
# Poissons Ratio (x) = 0.19316 0.28318
# Poissons Ratio (y) = 0.26188 0.32304
# Poissons Ratio (z) = 0.27802 0.23392
#
# Static dielectric constant tensor:
#      x y z
#    x 3.447910 0.000000 0.018990 
#    y 0.000000 3.748670 0.000000 
#    z 0.018990 0.000000 3.655010 
# 
# 
# High freq. dielectric constant tensor:
#      x y z
#    x 1.777700 0.000000 -0.002120 
#    y 0.000000 1.794260 0.000000 
#    z -0.002120 0.000000 1.783550 
# 
# From -- ./inp_files/33981.got.cif
#   From: 2010.06.25/outbox.cif.g09.slc.cpg/sg10_17_cif.got.tgz:33981.got - 2010.06.27 22:07:45.
