data_PCOD8065923
_publ_section_title
;
Structure prediction by ZEFSAII (Michael W. Deem and Ramdas Pophale) SiO2 
 PCOD8065923
Probable space group: P 2/M
;
_chemical_formula_sum "Si O2"
_cell_formula_units_Z 32
_cell_length_a 20.191389
_cell_length_b 19.659640
_cell_length_c 12.069212
_cell_angle_alpha 90.000000
_cell_angle_beta 160.279447
_cell_angle_gamma 90.000000
_cell_volume 1616.620838
_symmetry_space_group_name_H-M "P 2/M"
_symmetry_group_IT_number 10
_symmetry_cell_setting 'monoclinic'
loop_
_space_group_symop_operation_xyz
x,y,z
-x,y,-z
-x,-y,-z
x,-y,z
loop_
_atom_site_type_symbol
_atom_site_label
_atom_site_fract_x
_atom_site_fract_y
_atom_site_fract_z
Si Si1 0.660670 0.795303 0.844259
Si Si2 0.866591 0.340542 0.191626
Si Si3 0.331908 0.818573 0.476857
Si Si4 0.200424 0.313089 0.567662
Si Si5 0.476493 0.577957 0.334129
Si Si6 0.587828 0.673193 0.314309
Si Si7 0.298404 0.921570 0.620048
Si Si8 0.005868 0.172017 0.774424
O O1 0.500000 0.810612 0.500000
O O2 0.559084 0.826315 0.793790
O O3 0.691879 0.714170 0.901044
O O4 0.871237 0.829447 0.147499
O O5 0.000000 0.312609 0.500000
O O6 0.000789 0.350453 0.293500
O O7 0.757423 0.410493 0.053590
O O8 0.313504 0.744489 0.500414
O O9 0.289602 0.878752 0.494352
O O10 0.164607 0.821716 0.121195
O O11 0.279510 0.351156 0.581731
O O12 0.149257 0.233950 0.466325
O O13 0.363338 0.317868 0.921144
O O14 0.500000 0.600211 0.500000
O O15 0.534193 0.500000 0.405442
O O16 0.601152 0.621805 0.440379
O O17 0.117720 0.897414 0.412526
O O18 0.269855 0.000000 0.544568
O O19 0.500000 0.907912 0.000000
#
# Coordination Sequence:
#
# PCOD8065923 Si02
#       8
#     4   4   4   4   4   4   4   4
#     4   9  19  34  57  88 120 146 191 251 302 353
#     4  11  19  35  59  88 115 154 201 251 301 359
#     4  11  20  35  61  91 119 157 201 251 301 359
#     4  10  21  35  58  93 121 150 197 255 311 356
#     4  11  25  43  61  83 119 167 206 249 314 376
#     4  11  21  38  60  87 124 158 198 255 308 370
#     4  11  24  41  58  82 125 170 204 244 301 364
#     4  10  21  35  59  93 119 153 200 251 306 359
#
# _framework density 19.794374999999999
#
# number of rings (size 3 to 8) (size 9 to 14) (size 15 to 20)
#    0.000    1.500    3.750    1.500    3.500    2.250 
#    0.000    2.500    0.000    5.250    0.000    0.000 
#    0.000    0.000    0.000    0.000    0.000    0.000 
#
# Total GULP energy -396539.929558 kJ/mol
# GULP energy per Si atom -12391.872799 kJ/mol
# Density = 1.974932 g / cm^3
# Si number density = 19.794375 Si / 1000 Ang^3
#
#
#
# Elastic Constant Matrix: (Units=GPa)
#
#
# Indices 1 2 3 4 5 6 
#
# 1 105.6465 49.9705 28.1540 0.0000 13.2065 0.0000
# 2 49.9705 81.4761 25.6537 0.0000 2.5740 0.0000
# 3 28.1540 25.6537 54.0345 0.0000 12.9640 0.0000
# 4 0.0000 0.0000 0.0000 18.8104 0.0000 0.1914
# 5 13.2065 2.5740 12.9640 0.0000 30.8491 0.0000
# 6 0.0000 0.0000 0.0000 0.1914 0.0000 27.9519
#
#
#
# Elastic Compliance Matrix: (Units=1/GPa)
#
#
# Indices 1 2 3 4 5 6 
#
# 1 0.014468 -0.007869 -0.002752 0.000000 -0.004381 0.000000
# 2 -0.007869 0.018807 -0.005851 0.000000 0.004258 0.000000
# 3 -0.002752 -0.005851 0.024821 0.000000 -0.008765 0.000000
# 4 0.000000 0.000000 0.000000 0.053166 0.000000 -0.000364
# 5 -0.004381 0.004258 -0.008765 0.000000 0.037619 0.000000
# 6 0.000000 0.000000 0.000000 -0.000364 0.000000 0.035778
#
#
# Mechanical properties :
#
#
# Convention : Reuss Voigt Hill
#
# Bulk Modulus (GPa) = 39.75472 49.85705 44.80589
# Shear Modulus (GPa) = 22.12516 24.68087 23.40301
#
# Velocity S-wave (km/s) = 3.34690 3.53493 3.44220
# Velocity P-wave (km/s) = 5.92141 6.47326 6.20348
#
# Compressibility (1/GPa) = 0.02515424
#
# Stress axis : x y z
#
# Youngs Moduli (GPa) = 69.11590 53.17092 40.28863
#
# Poissons Ratio (x) = 0.41840 0.11086
# Poissons Ratio (y) = 0.54387 0.23571
# Poissons Ratio (z) = 0.19018 0.31108
#
# Static dielectric constant tensor:
#      x y z
#    x 4.168910 0.000000 0.220480 
#    y 0.000000 3.220140 0.000000 
#    z 0.220480 0.000000 3.705600 
# 
# 
# High freq. dielectric constant tensor:
#      x y z
#    x 1.792780 0.000000 0.008880 
#    y 0.000000 1.725680 0.000000 
#    z 0.008880 0.000000 1.779500 
# 
# From -- ./inp_files/56146.got.cif
#   From: 2010.06.25/outbox.cif.g09.slc.cpg/sg10_29_cif.got.tgz:56146.got - 2010.06.27 22:07:45.
