data_PCOD8065358
_publ_section_title
;
Structure prediction by ZEFSAII (Michael W. Deem and Ramdas Pophale) SiO2 
 PCOD8065358
Probable space group: P 2/M
;
_chemical_formula_sum "Si O2"
_cell_formula_units_Z 28
_cell_length_a 22.373172
_cell_length_b 11.216603
_cell_length_c 11.463997
_cell_angle_alpha 90.000000
_cell_angle_beta 29.925451
_cell_angle_gamma 90.000000
_cell_volume 1435.207756
_symmetry_space_group_name_H-M "P 2/M"
_symmetry_group_IT_number 10
_symmetry_cell_setting 'monoclinic'
loop_
_space_group_symop_operation_xyz
x,y,z
-x,y,-z
-x,-y,-z
x,-y,z
loop_
_atom_site_type_symbol
_atom_site_label
_atom_site_fract_x
_atom_site_fract_y
_atom_site_fract_z
Si Si1 0.376049 0.285978 0.490530
Si Si2 0.848675 0.500000 0.746319
Si Si3 0.632535 0.639449 0.751654
Si Si4 0.012619 0.134820 0.341390
Si Si5 0.396180 0.861052 0.854449
Si Si6 0.639621 0.500000 0.305207
Si Si7 0.736749 0.862643 0.146495
Si Si8 0.790592 0.728342 0.690288
O O1 0.331393 0.331725 0.441822
O O2 0.512162 0.239087 0.254232
O O3 0.349204 0.384265 0.633286
O O4 0.299507 0.172006 0.661204
O O5 0.808254 0.614429 0.742272
O O6 0.000000 0.500000 0.500000
O O7 0.754351 0.500000 0.019242
O O8 0.636017 0.500000 0.768856
O O9 0.725013 0.700310 0.681136
O O10 0.500000 0.689865 0.000000
O O11 0.917229 0.217982 0.438095
O O12 0.000000 0.140166 0.500000
O O13 0.999838 0.000000 0.316242
O O14 0.138767 0.198911 0.099300
O O15 0.371572 0.833543 0.759650
O O16 0.436147 0.000000 0.804722
O O17 0.275547 0.835790 0.129872
O O18 0.500000 0.500000 0.500000
O O19 0.765421 0.000000 0.090976
#
# Coordination Sequence:
#
# PCOD8065358 Si02
#       8
#     4   2   4   4   4   2   4   4
#     4  12  23  41  62  90 129 167 212 262 317 385
#     4  12  28  41  67 105 135 166 212 275 331 386
#     4  11  24  44  63  85 121 175 216 255 310 376
#     4  10  20  37  64  93 125 166 206 253 318 389
#     4  11  22  38  64  99 131 163 204 268 333 386
#     4  12  26  39  65 101 131 168 210 270 337 386
#     4  10  21  38  62  92 129 166 201 254 325 386
#     4  12  22  41  65  93 128 165 213 265 314 379
#
# _framework density 19.509370000000001
#
# number of rings (size 3 to 8) (size 9 to 14) (size 15 to 20)
#    0.000    0.857    4.286    4.286    2.000    1.143 
#    0.000    4.286    0.000    3.429    0.000    0.000 
#    0.000    0.000    0.000    0.000    0.000    0.000 
#
# Total GULP energy -346934.134974 kJ/mol
# GULP energy per Si atom -12390.504821 kJ/mol
# Density = 1.946497 g / cm^3
# Si number density = 19.509370 Si / 1000 Ang^3
#
#
#
# Elastic Constant Matrix: (Units=GPa)
#
#
# Indices 1 2 3 4 5 6 
#
# 1 107.4235 44.8768 46.4300 0.0000 -5.5520 0.0000
# 2 44.8768 56.3141 16.0150 0.0000 -10.8527 0.0000
# 3 46.4300 16.0150 98.4691 0.0000 -8.7989 0.0000
# 4 0.0000 0.0000 0.0000 34.7349 0.0000 -0.4421
# 5 -5.5520 -10.8527 -8.7989 0.0000 29.5686 0.0000
# 6 0.0000 0.0000 0.0000 -0.4421 0.0000 21.1138
#
#
#
# Elastic Compliance Matrix: (Units=1/GPa)
#
#
# Indices 1 2 3 4 5 6 
#
# 1 0.017060 -0.012423 -0.006313 0.000000 -0.003235 0.000000
# 2 -0.012423 0.028800 0.001962 0.000000 0.008822 0.000000
# 3 -0.006313 0.001962 0.013120 0.000000 0.003439 0.000000
# 4 0.000000 0.000000 0.000000 0.028797 0.000000 0.000603
# 5 -0.003235 0.008822 0.003439 0.000000 0.037474 0.000000
# 6 0.000000 0.000000 0.000000 0.000603 0.000000 0.047375
#
#
# Mechanical properties :
#
#
# Convention : Reuss Voigt Hill
#
# Bulk Modulus (GPa) = 39.32011 52.98336 46.15174
# Shear Modulus (GPa) = 23.29358 27.40913 25.35136
#
# Velocity S-wave (km/s) = 3.45913 3.75229 3.60869
# Velocity P-wave (km/s) = 6.01268 6.78158 6.40867
#
# Compressibility (1/GPa) = 0.02543228
#
# Stress axis : x y z
#
# Youngs Moduli (GPa) = 58.61606 34.72228 76.21837
#
# Poissons Ratio (x) = 0.43137 0.48114
# Poissons Ratio (y) = 0.72822 -0.14955
# Poissons Ratio (z) = 0.37003 -0.06813
#
# Static dielectric constant tensor:
#      x y z
#    x 3.432560 0.000000 -0.190090 
#    y 0.000000 3.706920 0.000000 
#    z -0.190090 0.000000 4.029310 
# 
# 
# High freq. dielectric constant tensor:
#      x y z
#    x 1.733270 0.000000 -0.005190 
#    y 0.000000 1.771860 0.000000 
#    z -0.005190 0.000000 1.772530 
# 
# From -- ./inp_files/55835.got.cif
#   From: 2010.06.25/outbox.cif.g09.slc.cpg/sg10_28_cif.got.tgz:55835.got - 2010.06.27 22:07:45.
