data_PCOD8065750
_publ_section_title
;
Structure prediction by ZEFSAII (Michael W. Deem and Ramdas Pophale) SiO2 
 PCOD8065750
Probable space group: P 2/M
;
_chemical_formula_sum "Si O2"
_cell_formula_units_Z 32
_cell_length_a 6.566664
_cell_length_b 21.249361
_cell_length_c 18.595309
_cell_angle_alpha 90.000000
_cell_angle_beta 134.932324
_cell_angle_gamma 90.000000
_cell_volume 1836.925069
_symmetry_space_group_name_H-M "P 2/M"
_symmetry_group_IT_number 10
_symmetry_cell_setting 'monoclinic'
loop_
_space_group_symop_operation_xyz
x,y,z
-x,y,-z
-x,-y,-z
x,-y,z
loop_
_atom_site_type_symbol
_atom_site_label
_atom_site_fract_x
_atom_site_fract_y
_atom_site_fract_z
Si Si1 0.842384 0.179073 0.785199
Si Si2 0.286757 0.072241 0.879755
Si Si3 0.201587 0.320927 0.714801
Si Si4 0.387567 0.737631 0.898353
Si Si5 0.579231 0.651207 0.597137
Si Si6 0.732263 0.427759 0.379755
Si Si7 0.705843 0.237631 0.398353
Si Si8 0.309318 0.151207 0.097137
O O1 0.563536 0.189384 0.664161
O O2 0.697711 0.182293 0.827090
O O3 0.990632 0.111299 0.811567
O O4 0.063925 0.235919 0.827421
O O5 0.458512 0.094588 0.851098
O O6 0.196775 0.000000 0.850145
O O7 0.500000 0.084296 0.000000
O O8 0.406892 0.310616 0.835839
O O9 0.244365 0.388701 0.688433
O O10 0.254241 0.264081 0.672579
O O11 0.889352 0.317707 0.672910
O O12 0.603316 0.795834 0.939081
O O13 0.500000 0.704536 0.000000
O O14 0.500000 0.622729 0.500000
O O15 0.554120 0.594588 0.648902
O O16 0.346993 0.704166 0.560919
O O17 0.703805 0.500000 0.350145
O O18 0.000000 0.415704 0.500000
O O19 0.000000 0.204536 0.500000
O O20 0.000000 0.122729 0.000000
#
# Coordination Sequence:
#
# PCOD8065750 Si02
#       8
#     4   4   4   4   4   4   4   4
#     4  11  20  33  52  77 110 141 171 219 271 320
#     4  10  21  34  51  77 105 141 184 219 267 326
#     4  11  20  33  52  77 110 141 171 219 271 320
#     4  11  21  32  52  81 109 141 178 214 269 332
#     4  11  18  32  52  77 110 140 169 215 270 319
#     4  10  21  34  51  77 105 141 184 219 267 326
#     4  11  21  32  52  81 109 141 178 214 269 332
#     4  11  18  32  52  77 110 140 169 215 270 319
#
# _framework density 17.420414999999998
#
# number of rings (size 3 to 8) (size 9 to 14) (size 15 to 20)
#    0.000    1.250    7.500    1.500    0.000    1.500 
#    0.000    0.000    0.000    0.750    0.000    1.750 
#    0.000    0.000    0.000    0.000    0.000    0.000 
#
# Total GULP energy -396627.989036 kJ/mol
# GULP energy per Si atom -12394.624657 kJ/mol
# Density = 1.738077 g / cm^3
# Si number density = 17.420415 Si / 1000 Ang^3
#
#
#
# Elastic Constant Matrix: (Units=GPa)
#
#
# Indices 1 2 3 4 5 6 
#
# 1 101.7558 35.2072 38.7662 0.0000 0.0773 0.0000
# 2 35.2072 92.4347 49.1994 0.0000 0.2330 0.0000
# 3 38.7662 49.1994 99.5062 0.0000 -0.1147 0.0000
# 4 0.0000 0.0000 0.0000 21.3759 0.0000 0.1620
# 5 0.0773 0.2330 -0.1147 0.0000 33.8119 0.0000
# 6 0.0000 0.0000 0.0000 0.1620 0.0000 11.6464
#
#
#
# Elastic Compliance Matrix: (Units=1/GPa)
#
#
# Indices 1 2 3 4 5 6 
#
# 1 0.012066 -0.002842 -0.003296 0.000000 -0.000019 0.000000
# 2 -0.002842 0.015352 -0.006484 0.000000 -0.000121 0.000000
# 3 -0.003296 -0.006484 0.014540 0.000000 0.000102 0.000000
# 4 0.000000 0.000000 0.000000 0.046787 0.000000 -0.000651
# 5 -0.000019 -0.000121 0.000102 0.000000 0.029577 0.000000
# 6 0.000000 0.000000 0.000000 -0.000651 0.000000 0.085872
#
#
# Mechanical properties :
#
#
# Convention : Reuss Voigt Hill
#
# Bulk Modulus (GPa) = 59.82451 60.00470 59.91460
# Shear Modulus (GPa) = 21.27590 24.73511 23.00551
#
# Velocity S-wave (km/s) = 3.49853 3.77223 3.63796
# Velocity P-wave (km/s) = 7.12291 7.31388 7.21902
#
# Compressibility (1/GPa) = 0.01671556
#
# Stress axis : x y z
#
# Youngs Moduli (GPa) = 82.87558 65.13767 68.77788
#
# Poissons Ratio (x) = 0.18509 0.22669
# Poissons Ratio (y) = 0.23550 0.44594
# Poissons Ratio (z) = 0.27315 0.42233
#
# Static dielectric constant tensor:
#      x y z
#    x 3.572600 0.000000 -0.007710 
#    y 0.000000 2.926770 0.000000 
#    z -0.007710 0.000000 3.109470 
# 
# 
# High freq. dielectric constant tensor:
#      x y z
#    x 1.699050 0.000000 -0.000870 
#    y 0.000000 1.633880 0.000000 
#    z -0.000870 0.000000 1.646780 
# 
# From -- ./inp_files/73803.got.cif
#   From: 2010.06.25/outbox.cif.g09.slc.cpg/sg10_37_cif.got.tgz:73803.got - 2010.06.27 22:07:45.
