data_PCOD8065388
_publ_section_title
;
Structure prediction by ZEFSAII (Michael W. Deem and Ramdas Pophale) SiO2 
 PCOD8065388
Probable space group: P 2/M
;
_chemical_formula_sum "Si O2"
_cell_formula_units_Z 18
_cell_length_a 18.456046
_cell_length_b 10.964414
_cell_length_c 5.094214
_cell_angle_alpha 90.000000
_cell_angle_beta 105.828031
_cell_angle_gamma 90.000000
_cell_volume 991.778225
_symmetry_space_group_name_H-M "P 2/M"
_symmetry_group_IT_number 10
_symmetry_cell_setting 'monoclinic'
loop_
_space_group_symop_operation_xyz
x,y,z
-x,y,-z
-x,-y,-z
x,-y,z
loop_
_atom_site_type_symbol
_atom_site_label
_atom_site_fract_x
_atom_site_fract_y
_atom_site_fract_z
Si Si1 0.052592 0.500000 0.297707
Si Si2 0.415213 0.145611 0.397807
Si Si3 0.158814 0.859153 0.745182
Si Si4 0.327009 0.855077 0.809782
Si Si5 0.085151 0.757155 0.180230
O O1 0.101884 0.622939 0.321178
O O2 0.000000 0.500000 0.500000
O O3 0.000000 0.500000 0.000000
O O4 0.500000 0.196909 0.500000
O O5 0.365233 0.197351 0.586248
O O6 0.416710 0.000000 0.403006
O O7 0.376158 0.196246 0.098044
O O8 0.240937 0.810855 0.741395
O O9 0.103280 0.847263 0.440065
O O10 0.160003 0.000000 0.834314
O O11 0.136200 0.780226 0.976400
O O12 0.328938 0.000000 0.810656
O O13 0.000000 0.776658 0.000000
#
# Coordination Sequence:
#
# PCOD8065388 Si02
#       5
#     2   4   4   4   4
#     4  10  20  38  58  74  92 118 161 214 263 296
#     4   9  15  24  40  60  83 119 165 200 223 262
#     4  11  22  34  49  72 104 138 164 194 245 300
#     4   9  17  28  40  59  91 127 158 188 231 285
#     4  11  22  36  54  73  94 127 169 211 248 289
#
# _framework density 18.149218000000001
#
# number of rings (size 3 to 8) (size 9 to 14) (size 15 to 20)
#    0.000    2.000    0.000    6.000    0.000    8.889 
#    0.000    0.000    0.000    0.000    0.000    0.000 
#    0.000    0.000    0.000   70.000    0.000   31.111 
#
# Total GULP energy -223137.690969 kJ/mol
# GULP energy per Si atom -12396.538387 kJ/mol
# Density = 1.810791 g / cm^3
# Si number density = 18.149218 Si / 1000 Ang^3
#
#
#
# Elastic Constant Matrix: (Units=GPa)
#
#
# Indices 1 2 3 4 5 6 
#
# 1 114.6850 35.2560 34.9064 0.0000 -17.5880 0.0000
# 2 35.2560 39.3743 14.5671 0.0000 -5.1219 0.0000
# 3 34.9064 14.5671 110.7623 0.0000 -15.9068 0.0000
# 4 0.0000 0.0000 0.0000 18.0830 0.0000 -9.3540
# 5 -17.5880 -5.1219 -15.9068 0.0000 43.4211 0.0000
# 6 0.0000 0.0000 0.0000 -9.3540 0.0000 5.9916
#
#
#
# Elastic Compliance Matrix: (Units=1/GPa)
#
#
# Indices 1 2 3 4 5 6 
#
# 1 0.013143 -0.010497 -0.002295 0.000000 0.003244 0.000000
# 2 -0.010497 0.035240 -0.001415 0.000000 -0.000613 0.000000
# 3 -0.002295 -0.001415 0.010323 0.000000 0.002685 0.000000
# 4 0.000000 0.000000 0.000000 0.287386 0.000000 0.448663
# 5 0.003244 -0.000613 0.002685 0.000000 0.025256 0.000000
# 6 0.000000 0.000000 0.000000 0.448663 0.000000 0.867347
#
#
# Mechanical properties :
#
#
# Convention : Reuss Voigt Hill
#
# Bulk Modulus (GPa) = 33.01185 48.25339 40.63262
# Shear Modulus (GPa) = 3.91480 25.50530 14.71005
#
# Velocity S-wave (km/s) = 1.47027 3.75281 2.85003
# Velocity P-wave (km/s) = 4.59466 6.73965 5.76775
#
# Compressibility (1/GPa) = 0.03029215
#
# Stress axis : x y z
#
# Youngs Moduli (GPa) = 76.08839 28.37709 96.86716
#
# Poissons Ratio (x) = 0.29787 0.22235
# Poissons Ratio (y) = 0.79868 0.13703
# Poissons Ratio (z) = 0.17466 0.04014
#
# Static dielectric constant tensor:
#      x y z
#    x 3.497000 0.000000 -0.057610 
#    y 0.000000 5.315190 0.000000 
#    z -0.057610 0.000000 3.551690 
# 
# 
# High freq. dielectric constant tensor:
#      x y z
#    x 1.707950 0.000000 -0.008940 
#    y 0.000000 1.635610 0.000000 
#    z -0.008940 0.000000 1.727110 
# 
# From -- ./inp_files/8787.got.cif
#   From: 2010.06.25/outbox.cif.g09.slc.cpg/sg10_5_cif.got.tgz:8787.got - 2010.06.27 22:07:45.
