data_PCOD8065166
_publ_section_title
;
Structure prediction by ZEFSAII (Michael W. Deem and Ramdas Pophale) SiO2 
 PCOD8065166
Probable space group: P 2/M
;
_chemical_formula_sum "Si O2"
_cell_formula_units_Z 28
_cell_length_a 28.585174
_cell_length_b 8.524794
_cell_length_c 8.944293
_cell_angle_alpha 90.000000
_cell_angle_beta 141.220486
_cell_angle_gamma 90.000000
_cell_volume 1365.119220
_symmetry_space_group_name_H-M "P 2/M"
_symmetry_group_IT_number 10
_symmetry_cell_setting 'monoclinic'
loop_
_space_group_symop_operation_xyz
x,y,z
-x,y,-z
-x,-y,-z
x,-y,z
loop_
_atom_site_type_symbol
_atom_site_label
_atom_site_fract_x
_atom_site_fract_y
_atom_site_fract_z
Si Si1 0.712849 0.180417 0.455079
Si Si2 0.147003 0.318685 0.037927
Si Si3 0.425734 0.313226 0.395842
Si Si4 0.992964 0.818835 0.154147
Si Si5 0.427960 0.315541 0.736268
Si Si6 0.132303 0.680934 0.657611
Si Si7 0.716908 0.317394 0.142468
O O1 0.788697 0.213088 0.732054
O O2 0.646073 0.282536 0.354938
O O3 0.725682 0.220097 0.314724
O O4 0.691421 0.000000 0.419312
O O5 0.169876 0.500000 0.111594
O O6 0.137548 0.270687 0.842821
O O7 0.069508 0.289864 0.928423
O O8 0.500000 0.249812 0.500000
O O9 0.425129 0.500000 0.399660
O O10 0.422429 0.243525 0.555591
O O11 0.354422 0.253149 0.125861
O O12 0.071636 0.790997 0.429776
O O13 0.969936 0.000000 0.113697
O O14 0.000000 0.769140 0.000000
O O15 0.438522 0.500000 0.748585
O O16 0.500000 0.242661 0.000000
O O17 0.108223 0.500000 0.579498
O O18 0.211643 0.713913 0.781183
O O19 0.707946 0.500000 0.160755
#
# Coordination Sequence:
#
# PCOD8065166 Si02
#       7
#     4   4   4   4   4   4   4
#     4  12  25  39  57  85 121 156 193 237 289 346
#     4  11  23  41  64  88 115 149 195 243 288 342
#     4   9  17  32  58  90 117 145 190 244 290 335
#     4  11  24  40  59  87 122 156 191 233 286 347
#     4  10  20  37  63  90 116 151 195 240 288 343
#     4  10  22  39  61  88 115 149 195 245 291 340
#     4  10  20  37  60  84 114 152 195 241 288 340
#
# _framework density 20.511029000000001
#
# number of rings (size 3 to 8) (size 9 to 14) (size 15 to 20)
#    0.000    1.571    0.000    5.143    0.000   11.714 
#    0.000    2.143    0.000    1.714    0.000    0.000 
#    0.000    0.000    0.000    0.000    0.000    0.000 
#
# Total GULP energy -347373.250835 kJ/mol
# GULP energy per Si atom -12406.187530 kJ/mol
# Density = 2.046434 g / cm^3
# Si number density = 20.511029 Si / 1000 Ang^3
#
#
#
# Elastic Constant Matrix: (Units=GPa)
#
#
# Indices 1 2 3 4 5 6 
#
# 1 141.3518 15.8074 61.5203 0.0000 -12.5133 0.0000
# 2 15.8074 28.4451 22.5443 0.0000 -10.3142 0.0000
# 3 61.5203 22.5443 150.9834 0.0000 -7.0555 0.0000
# 4 0.0000 0.0000 0.0000 -18.1308 0.0000 30.7049
# 5 -12.5133 -10.3142 -7.0555 0.0000 45.2577 0.0000
# 6 0.0000 0.0000 0.0000 30.7049 0.0000 -19.3540
#
#
#
# Elastic Compliance Matrix: (Units=1/GPa)
#
#
# Indices 1 2 3 4 5 6 
#
# 1 0.008827 -0.001766 -0.003262 0.000000 0.001530 0.000000
# 2 -0.001766 0.043512 -0.005376 0.000000 0.008590 0.000000
# 3 -0.003262 -0.005376 0.008719 0.000000 -0.000768 0.000000
# 4 0.000000 0.000000 0.000000 0.032699 0.000000 0.051876
# 5 0.001530 0.008590 -0.000768 0.000000 0.024357 0.000000
# 6 0.000000 0.000000 0.000000 0.051876 0.000000 0.030632
#
#
# Mechanical properties :
#
#
# Convention : Reuss Voigt Hill
#
# Bulk Modulus (GPa) = 24.84379 57.83603 41.33991
# Shear Modulus (GPa) = 27.32687 16.28180 21.80434
#
# Velocity S-wave (km/s) = 3.65403 2.82052 3.26399
# Velocity P-wave (km/s) = 5.47186 6.23425 5.86545
#
# Compressibility (1/GPa) = 0.04025150
#
# Stress axis : x y z
#
# Youngs Moduli (GPa) = 113.28966 22.98197 114.69084
#
# Poissons Ratio (x) = 0.04058 0.37407
# Poissons Ratio (y) = 0.20003 0.61661
# Poissons Ratio (z) = 0.36950 0.12356
#
# Static dielectric constant tensor:
#      x y z
#    x 3.751900 0.000000 -0.181840 
#    y 0.000000 3.405510 0.000000 
#    z -0.181840 0.000000 3.843260 
# 
# 
# High freq. dielectric constant tensor:
#      x y z
#    x 1.819780 0.000000 -0.002570 
#    y 0.000000 1.774140 0.000000 
#    z -0.002570 0.000000 1.820500 
# 
# From -- ./inp_files/34173.got.cif
#   From: 2010.06.25/outbox.cif.g09.slc.cpg/sg10_18_cif.got.tgz:34173.got - 2010.06.27 22:07:45.
