data_PCOD8065799
_publ_section_title
;
Structure prediction by ZEFSAII (Michael W. Deem and Ramdas Pophale) SiO2 
 PCOD8065799
Probable space group: P 2/M
;
_chemical_formula_sum "Si O2"
_cell_formula_units_Z 32
_cell_length_a 20.591857
_cell_length_b 8.968644
_cell_length_c 14.802587
_cell_angle_alpha 90.000000
_cell_angle_beta 42.222969
_cell_angle_gamma 90.000000
_cell_volume 1837.132635
_symmetry_space_group_name_H-M "P 2/M"
_symmetry_group_IT_number 10
_symmetry_cell_setting 'monoclinic'
loop_
_space_group_symop_operation_xyz
x,y,z
-x,y,-z
-x,-y,-z
x,-y,z
loop_
_atom_site_type_symbol
_atom_site_label
_atom_site_fract_x
_atom_site_fract_y
_atom_site_fract_z
Si Si1 0.536370 0.172895 0.844851
Si Si2 0.011462 0.825196 0.384703
Si Si3 0.374802 0.822907 0.879527
Si Si4 0.205729 0.677216 0.136646
Si Si5 0.503205 0.327953 0.598270
Si Si6 0.341254 0.669567 0.425760
Si Si7 0.165768 0.334876 0.507713
Si Si8 0.320028 0.332698 0.190497
O O1 0.431515 0.225898 0.914346
O O2 0.609414 0.209055 0.688827
O O3 0.578423 0.246617 0.894355
O O4 0.535901 0.000000 0.865501
O O5 0.098126 0.741275 0.245643
O O6 0.000000 0.769050 0.500000
O O7 0.915310 0.787865 0.427051
O O8 0.030901 0.000000 0.361710
O O9 0.429710 0.766115 0.734580
O O10 0.365292 0.000000 0.883488
O O11 0.269171 0.746026 0.989723
O O12 0.200395 0.500000 0.134653
O O13 0.257333 0.736753 0.174324
O O14 0.500000 0.264971 0.500000
O O15 0.469996 0.500000 0.635140
O O16 0.613819 0.310104 0.520492
O O17 0.364558 0.500000 0.367262
O O18 0.223854 0.693487 0.542912
O O19 0.117872 0.500000 0.554806
O O20 0.251422 0.324657 0.347406
O O21 0.349846 0.500000 0.134606
#
# Coordination Sequence:
#
# PCOD8065799 Si02
#       8
#     4   4   4   4   4   4   4   4
#     4   9  17  28  44  64  91 127 162 197 238 284
#     4  11  22  33  47  69  95 126 166 214 257 290
#     4  10  21  35  48  69 101 131 160 199 245 293
#     4  11  22  35  50  66  90 128 171 210 247 290
#     4   9  17  32  56  82 105 130 161 195 234 289
#     4   8  15  28  46  71 100 127 158 197 238 281
#     4   9  16  29  47  66  93 128 166 206 244 284
#     4   9  18  30  45  65  89 123 166 208 244 280
#
# _framework density 17.418448999999999
#
# number of rings (size 3 to 8) (size 9 to 14) (size 15 to 20)
#    0.000    2.500    1.250    2.250    0.000    5.750 
#    0.000    2.500    0.000    0.000    0.000    0.875 
#    0.000    7.000    0.000    0.000    0.000    0.000 
#
# Total GULP energy -396563.702764 kJ/mol
# GULP energy per Si atom -12392.615711 kJ/mol
# Density = 1.737880 g / cm^3
# Si number density = 17.418449 Si / 1000 Ang^3
#
#
#
# Elastic Constant Matrix: (Units=GPa)
#
#
# Indices 1 2 3 4 5 6 
#
# 1 88.6088 20.2370 38.4531 0.0000 -13.1684 0.0000
# 2 20.2370 58.7100 26.8234 0.0000 -15.9519 0.0000
# 3 38.4531 26.8234 62.8430 0.0000 -18.6537 0.0000
# 4 0.0000 0.0000 0.0000 20.3914 0.0000 -5.6896
# 5 -13.1684 -15.9519 -18.6537 0.0000 25.2054 0.0000
# 6 0.0000 0.0000 0.0000 -5.6896 0.0000 21.9001
#
#
#
# Elastic Compliance Matrix: (Units=1/GPa)
#
#
# Indices 1 2 3 4 5 6 
#
# 1 0.015455 -0.001092 -0.008713 0.000000 0.000935 0.000000
# 2 -0.001092 0.022797 -0.006342 0.000000 0.009163 0.000000
# 3 -0.008713 -0.006342 0.027435 0.000000 0.011738 0.000000
# 4 0.000000 0.000000 0.000000 0.052873 0.000000 0.013736
# 5 0.000935 0.009163 0.011738 0.000000 0.054649 0.000000
# 6 0.000000 0.000000 0.000000 0.013736 0.000000 0.049231
#
#
# Mechanical properties :
#
#
# Convention : Reuss Voigt Hill
#
# Bulk Modulus (GPa) = 29.94718 42.35432 36.15075
# Shear Modulus (GPa) = 18.80651 21.80926 20.30788
#
# Velocity S-wave (km/s) = 3.28943 3.54231 3.41821
# Velocity P-wave (km/s) = 5.62648 6.41086 6.03143
#
# Compressibility (1/GPa) = 0.03339212
#
# Stress axis : x y z
#
# Youngs Moduli (GPa) = 64.70329 43.86604 36.44930
#
# Poissons Ratio (x) = 0.04792 0.31759
# Poissons Ratio (y) = 0.07069 0.23116
# Poissons Ratio (z) = 0.56377 0.27820
#
# Static dielectric constant tensor:
#      x y z
#    x 3.480710 0.000000 -0.170020 
#    y 0.000000 3.181210 0.000000 
#    z -0.170020 0.000000 2.924550 
# 
# 
# High freq. dielectric constant tensor:
#      x y z
#    x 1.664720 0.000000 -0.022640 
#    y 0.000000 1.674220 0.000000 
#    z -0.022640 0.000000 1.636360 
# 
# From -- ./inp_files/58289.got.cif
#   From: 2010.06.25/outbox.cif.g09.slc.cpg/sg10_30_cif.got.tgz:58289.got - 2010.06.27 22:07:45.
