data_PCOD8065263
_publ_section_title
;
Structure prediction by ZEFSAII (Michael W. Deem and Ramdas Pophale) SiO2 
 PCOD8065263
Probable space group: P 2/M
;
_chemical_formula_sum "Si O2"
_cell_formula_units_Z 32
_cell_length_a 14.588284
_cell_length_b 22.809972
_cell_length_c 9.019957
_cell_angle_alpha 90.000000
_cell_angle_beta 148.184129
_cell_angle_gamma 90.000000
_cell_volume 1582.346454
_symmetry_space_group_name_H-M "P 2/M"
_symmetry_group_IT_number 10
_symmetry_cell_setting 'monoclinic'
loop_
_space_group_symop_operation_xyz
x,y,z
-x,y,-z
-x,-y,-z
x,-y,z
loop_
_atom_site_type_symbol
_atom_site_label
_atom_site_fract_x
_atom_site_fract_y
_atom_site_fract_z
Si Si1 0.175181 0.066879 0.826842
Si Si2 0.089259 0.714329 0.474358
Si Si3 0.169668 0.066142 0.167195
Si Si4 0.852237 0.331553 0.908380
Si Si5 0.617603 0.635718 0.034822
Si Si6 0.634263 0.259645 0.382041
Si Si7 0.325496 0.563526 0.178251
Si Si8 0.493862 0.859162 0.665619
O O1 0.000000 0.087934 0.500000
O O2 0.222110 0.000000 0.841900
O O3 0.144212 0.068957 0.958003
O O4 0.335785 0.111660 0.023838
O O5 0.229183 0.750926 0.567136
O O6 0.000000 0.743673 0.500000
O O7 0.186047 0.652815 0.646019
O O8 0.920585 0.703052 0.144008
O O9 0.339085 0.095037 0.468533
O O10 0.180736 0.000000 0.240198
O O11 0.000000 0.098234 0.000000
O O12 0.722377 0.287062 0.648923
O O13 0.775528 0.392651 0.854832
O O14 0.000000 0.351354 0.000000
O O15 0.522533 0.697094 0.870790
O O16 0.632206 0.591282 0.921681
O O17 0.500000 0.604205 0.000000
O O18 0.546809 0.198130 0.296349
O O19 0.500000 0.549247 0.500000
O O20 0.229303 0.500000 0.024714
O O21 0.500000 0.842913 0.500000
#
# Coordination Sequence:
#
# PCOD8065263 Si02
#       8
#     4   4   4   4   4   4   4   4
#     4   9  18  37  63  90 122 159 202 256 313 358
#     4  10  20  37  62  86 109 148 200 243 301 357
#     4   9  18  35  58  85 120 161 203 249 297 354
#     4  10  21  38  60  84 115 153 195 244 299 358
#     4  10  21  39  59  81 116 155 194 240 305 365
#     4  10  22  38  58  83 117 160 197 242 291 363
#     4  11  22  37  62  90 116 153 200 248 295 364
#     4  10  21  35  59  90 120 160 210 250 297 362
#
# _framework density 20.223130000000001
#
# number of rings (size 3 to 8) (size 9 to 14) (size 15 to 20)
#    0.000    2.125    2.500    0.375    1.750    3.500 
#    0.000   10.000    0.000    3.000    0.000    0.000 
#    0.000    1.500    0.000    0.000    0.000    2.125 
#
# Total GULP energy -396453.862396 kJ/mol
# GULP energy per Si atom -12389.183200 kJ/mol
# Density = 2.017710 g / cm^3
# Si number density = 20.223130 Si / 1000 Ang^3
#
#
#
# Elastic Constant Matrix: (Units=GPa)
#
#
# Indices 1 2 3 4 5 6 
#
# 1 112.3027 64.4926 36.2759 0.0000 6.4243 0.0000
# 2 64.4926 116.6891 49.4461 0.0000 4.9522 0.0000
# 3 36.2759 49.4461 122.5996 0.0000 -1.5422 0.0000
# 4 0.0000 0.0000 0.0000 17.4442 0.0000 33.7765
# 5 6.4243 4.9522 -1.5422 0.0000 29.0659 0.0000
# 6 0.0000 0.0000 0.0000 33.7765 0.0000 54.2957
#
#
#
# Elastic Compliance Matrix: (Units=1/GPa)
#
#
# Indices 1 2 3 4 5 6 
#
# 1 0.013278 -0.006737 -0.001235 0.000000 -0.001853 0.000000
# 2 -0.006737 0.013870 -0.003614 0.000000 -0.001066 0.000000
# 3 -0.001235 -0.003614 0.009998 0.000000 0.001419 0.000000
# 4 0.000000 0.000000 0.000000 -0.280296 0.000000 0.174368
# 5 -0.001853 -0.001066 0.001419 0.000000 0.035071 0.000000
# 6 0.000000 0.000000 0.000000 0.174368 0.000000 -0.090054
#
#
# Mechanical properties :
#
#
# Convention : Reuss Voigt Hill
#
# Bulk Modulus (GPa) = 71.56252 72.44674 72.00463
# Shear Modulus (GPa) = -18.49766 33.58627 7.54430
#
# Velocity S-wave (km/s) = -3.02765 4.07969 1.93355
# Velocity P-wave (km/s) = 4.82090 7.62190 6.37709
#
# Compressibility (1/GPa) = 0.01397380
#
# Stress axis : x y z
#
# Youngs Moduli (GPa) = 75.31170 72.09994 100.02489
#
# Poissons Ratio (x) = 0.48571 0.12355
# Poissons Ratio (y) = 0.50735 0.36148
# Poissons Ratio (z) = 0.09302 0.26056
#
# Static dielectric constant tensor:
#      x y z
#    x 3.963810 0.000000 -0.019110 
#    y 0.000000 3.571330 0.000000 
#    z -0.019110 0.000000 3.928710 
# 
# 
# High freq. dielectric constant tensor:
#      x y z
#    x 1.798320 0.000000 -0.000570 
#    y 0.000000 1.765920 0.000000 
#    z -0.000570 0.000000 1.802110 
# 
# From -- ./inp_files/30594.got.cif
#   From: 2010.06.25/outbox.cif.g09.slc.cpg/sg10_16_cif.got.tgz:30594.got - 2010.06.27 22:07:45.
