data_PCOD8065100
_publ_section_title
;
Structure prediction by ZEFSAII (Michael W. Deem and Ramdas Pophale) SiO2 
 PCOD8065100
Probable space group: P 2/M
;
_chemical_formula_sum "Si O2"
_cell_formula_units_Z 28
_cell_length_a 13.810700
_cell_length_b 8.897872
_cell_length_c 21.040407
_cell_angle_alpha 90.000000
_cell_angle_beta 147.163461
_cell_angle_gamma 90.000000
_cell_volume 1402.009183
_symmetry_space_group_name_H-M "P 2/M"
_symmetry_group_IT_number 10
_symmetry_cell_setting 'monoclinic'
loop_
_space_group_symop_operation_xyz
x,y,z
-x,y,-z
-x,-y,-z
x,-y,z
loop_
_atom_site_type_symbol
_atom_site_label
_atom_site_fract_x
_atom_site_fract_y
_atom_site_fract_z
Si Si1 0.027884 0.820721 0.836127
Si Si2 0.675183 0.169465 0.461114
Si Si3 0.876016 0.673080 0.375479
Si Si4 0.150088 0.678137 0.031331
Si Si5 0.366410 0.170324 0.377002
Si Si6 0.551711 0.328307 0.275706
Si Si7 0.999837 0.321458 0.307793
O O1 0.827023 0.755396 0.735305
O O2 0.097514 0.753992 0.807144
O O3 0.044179 0.000000 0.845272
O O4 0.133420 0.756267 0.954054
O O5 0.465947 0.175420 0.364494
O O6 0.679401 0.238587 0.393887
O O7 0.794727 0.264652 0.576747
O O8 0.748550 0.000000 0.500844
O O9 0.932733 0.500000 0.402202
O O10 0.662755 0.690989 0.271240
O O11 0.000000 0.745868 0.500000
O O12 0.911892 0.741347 0.324982
O O13 0.138702 0.500000 0.015935
O O14 0.348462 0.730312 0.161717
O O15 0.000000 0.732013 0.000000
O O16 0.500000 0.252898 0.500000
O O17 0.334557 0.000000 0.384129
O O18 0.549327 0.500000 0.296904
O O19 0.988067 0.500000 0.293986
#
# Coordination Sequence:
#
# PCOD8065100 Si02
#       7
#     4   4   4   4   4   4   4
#     4  11  22  38  59  81 113 153 191 232 282 338
#     4  11  20  32  53  82 115 146 183 228 280 337
#     4   9  17  33  57  83 111 147 191 230 274 338
#     4  10  22  40  61  86 116 147 188 238 281 330
#     4   9  17  31  49  73 108 145 178 214 266 337
#     4  10  20  37  59  81 110 149 189 231 280 332
#     4  11  21  35  56  82 114 147 186 234 284 334
#
# _framework density 19.971339
#
# number of rings (size 3 to 8) (size 9 to 14) (size 15 to 20)
#    0.000    1.857    2.857    2.143    0.000    0.857 
#    0.000    5.714    0.000    4.286    0.000    0.000 
#    0.000    0.000    0.000    0.000    0.000    0.000 
#
# Total GULP energy -346958.003505 kJ/mol
# GULP energy per Si atom -12391.357268 kJ/mol
# Density = 1.992588 g / cm^3
# Si number density = 19.971339 Si / 1000 Ang^3
#
#
#
# Elastic Constant Matrix: (Units=GPa)
#
#
# Indices 1 2 3 4 5 6 
#
# 1 106.1273 27.0290 39.3650 0.0000 -14.4892 0.0000
# 2 27.0290 54.1071 29.4574 0.0000 -12.3630 0.0000
# 3 39.3650 29.4574 84.9262 0.0000 -15.0796 0.0000
# 4 0.0000 0.0000 0.0000 22.8663 0.0000 -6.1128
# 5 -14.4892 -12.3630 -15.0796 0.0000 41.2667 0.0000
# 6 0.0000 0.0000 0.0000 -6.1128 0.0000 17.1560
#
#
#
# Elastic Compliance Matrix: (Units=1/GPa)
#
#
# Indices 1 2 3 4 5 6 
#
# 1 0.012041 -0.003391 -0.004101 0.000000 0.001713 0.000000
# 2 -0.003391 0.024445 -0.006222 0.000000 0.003859 0.000000
# 3 -0.004101 -0.006222 0.016305 0.000000 0.002654 0.000000
# 4 0.000000 0.000000 0.000000 0.048337 0.000000 0.017223
# 5 0.001713 0.003859 0.002654 0.000000 0.026960 0.000000
# 6 0.000000 0.000000 0.000000 0.017223 0.000000 0.064425
#
#
# Mechanical properties :
#
#
# Convention : Reuss Voigt Hill
#
# Bulk Modulus (GPa) = 39.42633 48.54039 43.98336
# Shear Modulus (GPa) = 21.89177 26.21173 24.05175
#
# Velocity S-wave (km/s) = 3.31442 3.62673 3.47409
# Velocity P-wave (km/s) = 5.86784 6.47266 6.17766
#
# Compressibility (1/GPa) = 0.02536376
#
# Stress axis : x y z
#
# Youngs Moduli (GPa) = 83.04717 40.90810 61.32988
#
# Poissons Ratio (x) = 0.13872 0.25151
# Poissons Ratio (y) = 0.28162 0.38159
# Poissons Ratio (z) = 0.34057 0.25453
#
# Static dielectric constant tensor:
#      x y z
#    x 3.809880 0.000000 -0.018120 
#    y 0.000000 3.311770 0.000000 
#    z -0.018120 0.000000 3.521740 
# 
# 
# High freq. dielectric constant tensor:
#      x y z
#    x 1.790890 0.000000 -0.006030 
#    y 0.000000 1.748870 0.000000 
#    z -0.006030 0.000000 1.760920 
# 
# From -- ./inp_files/50101.got.cif
#   From: 2010.06.25/outbox.cif.g09.slc.cpg/sg10_26_cif.got.tgz:50101.got - 2010.06.27 22:07:45.
