data_PCOD8065584
_publ_section_title
;
Structure prediction by ZEFSAII (Michael W. Deem and Ramdas Pophale) SiO2 
 PCOD8065584
Probable space group: P 2/M
;
_chemical_formula_sum "Si O2"
_cell_formula_units_Z 28
_cell_length_a 16.489750
_cell_length_b 8.946024
_cell_length_c 11.193975
_cell_angle_alpha 90.000000
_cell_angle_beta 55.501373
_cell_angle_gamma 90.000000
_cell_volume 1360.909766
_symmetry_space_group_name_H-M "P 2/M"
_symmetry_group_IT_number 10
_symmetry_cell_setting 'monoclinic'
loop_
_space_group_symop_operation_xyz
x,y,z
-x,y,-z
-x,-y,-z
x,-y,z
loop_
_atom_site_type_symbol
_atom_site_label
_atom_site_fract_x
_atom_site_fract_y
_atom_site_fract_z
Si Si1 0.765131 0.173488 0.213713
Si Si2 0.874470 0.334005 0.297455
Si Si3 0.564777 0.673945 0.059387
Si Si4 0.095482 0.324799 0.080457
Si Si5 0.770639 0.175819 0.841825
Si Si6 0.434497 0.672615 0.671101
Si Si7 0.892180 0.667774 0.561220
O O1 0.788262 0.216372 0.331778
O O2 0.658234 0.219422 0.259328
O O3 0.779508 0.000000 0.173685
O O4 0.848612 0.275585 0.084483
O O5 0.848783 0.500000 0.270782
O O6 0.875149 0.336133 0.437097
O O7 0.981419 0.283985 0.160582
O O8 0.583769 0.500000 0.022920
O O9 0.518607 0.699842 0.233447
O O10 0.500000 0.734260 0.000000
O O11 0.668691 0.755313 0.970385
O O12 0.109864 0.500000 0.094268
O O13 0.140082 0.229598 0.150700
O O14 0.802771 0.230686 0.684323
O O15 0.758712 0.000000 0.856551
O O16 0.500000 0.714427 0.500000
O O17 0.402287 0.500000 0.687868
O O18 0.885906 0.500000 0.621401
O O19 0.000000 0.735883 0.500000
#
# Coordination Sequence:
#
# PCOD8065584 Si02
#       7
#     4   4   4   4   4   4   4
#     4  12  25  39  59  92 130 164 201 254 321 378
#     4  10  22  39  62  89 121 166 216 259 301 359
#     4  10  22  42  68  94 120 159 211 264 313 376
#     4  11  21  39  64  88 118 163 216 258 295 357
#     4  12  24  37  60  94 128 163 199 249 319 375
#     4  10  22  42  68  93 120 161 213 264 313 375
#     4  10  20  39  62  86 118 164 216 257 297 357
#
# _framework density 20.574470999999999
#
# number of rings (size 3 to 8) (size 9 to 14) (size 15 to 20)
#    0.000    1.286    2.857    3.429    0.000    5.429 
#    0.000    2.857    0.000    0.000    0.000    0.000 
#    0.000    0.000    0.000    0.000    0.000    0.000 
#
# Total GULP energy -347024.582499 kJ/mol
# GULP energy per Si atom -12393.735089 kJ/mol
# Density = 2.052764 g / cm^3
# Si number density = 20.574471 Si / 1000 Ang^3
#
#
#
# Elastic Constant Matrix: (Units=GPa)
#
#
# Indices 1 2 3 4 5 6 
#
# 1 94.7168 31.3670 39.0061 0.0000 14.6437 0.0000
# 2 31.3670 66.6298 35.7411 0.0000 -0.1260 0.0000
# 3 39.0061 35.7411 109.6606 0.0000 9.1647 0.0000
# 4 0.0000 0.0000 0.0000 13.4715 0.0000 4.9964
# 5 14.6437 -0.1260 9.1647 0.0000 23.0740 0.0000
# 6 0.0000 0.0000 0.0000 4.9964 0.0000 13.9357
#
#
#
# Elastic Compliance Matrix: (Units=1/GPa)
#
#
# Indices 1 2 3 4 5 6 
#
# 1 0.014810 -0.005496 -0.002781 0.000000 -0.008325 0.000000
# 2 -0.005496 0.020373 -0.005157 0.000000 0.005648 0.000000
# 3 -0.002781 -0.005157 0.012044 0.000000 -0.003047 0.000000
# 4 0.000000 0.000000 0.000000 0.085615 0.000000 -0.030696
# 5 -0.008325 0.005648 -0.003047 0.000000 0.049863 0.000000
# 6 0.000000 0.000000 0.000000 -0.030696 0.000000 0.082763
#
#
# Mechanical properties :
#
#
# Convention : Reuss Voigt Hill
#
# Bulk Modulus (GPa) = 49.11977 53.69285 51.40631
# Shear Modulus (GPa) = 16.71557 21.08912 18.90234
#
# Velocity S-wave (km/s) = 2.85343 3.20506 3.03434
# Velocity P-wave (km/s) = 5.89763 6.31269 6.10868
#
# Compressibility (1/GPa) = 0.02035840
#
# Stress axis : x y z
#
# Youngs Moduli (GPa) = 67.52105 49.08541 83.03144
#
# Poissons Ratio (x) = 0.26978 0.23090
# Poissons Ratio (y) = 0.37111 0.42819
# Poissons Ratio (z) = 0.18777 0.25313
#
# Static dielectric constant tensor:
#      x y z
#    x 3.807280 0.000000 0.143370 
#    y 0.000000 3.677950 0.000000 
#    z 0.143370 0.000000 4.736280 
# 
# 
# High freq. dielectric constant tensor:
#      x y z
#    x 1.804110 0.000000 0.020490 
#    y 0.000000 1.790040 0.000000 
#    z 0.020490 0.000000 1.812300 
# 
# From -- ./inp_files/49591.got.cif
#   From: 2010.06.25/outbox.cif.g09.slc.cpg/sg10_25_cif.got.tgz:49591.got - 2010.06.27 22:07:45.
