data_PCOD8065043
_publ_section_title
;
Structure prediction by ZEFSAII (Michael W. Deem and Ramdas Pophale) SiO2 
 PCOD8065043
Probable space group: P 2/M
;
_chemical_formula_sum "Si O2"
_cell_formula_units_Z 28
_cell_length_a 11.930981
_cell_length_b 17.550896
_cell_length_c 19.540823
_cell_angle_alpha 90.000000
_cell_angle_beta 158.138607
_cell_angle_gamma 90.000000
_cell_volume 1523.646576
_symmetry_space_group_name_H-M "P 2/M"
_symmetry_group_IT_number 10
_symmetry_cell_setting 'monoclinic'
loop_
_space_group_symop_operation_xyz
x,y,z
-x,y,-z
-x,-y,-z
x,-y,z
loop_
_atom_site_type_symbol
_atom_site_label
_atom_site_fract_x
_atom_site_fract_y
_atom_site_fract_z
Si Si1 0.039441 0.000000 0.177639
Si Si2 0.300346 0.000000 0.477661
Si Si3 0.042242 0.147218 0.700677
Si Si4 0.846833 0.294777 0.521356
Si Si5 0.545106 0.585435 0.450060
Si Si6 0.318575 0.853217 0.002401
Si Si7 0.085556 0.415608 0.975826
Si Si8 0.531255 0.709039 0.199779
O O1 0.180286 0.000000 0.332496
O O2 0.341637 0.000000 0.303293
O O3 0.830652 0.073804 0.044853
O O4 0.167800 0.075879 0.435470
O O5 0.112992 0.165251 0.820048
O O6 0.847238 0.217853 0.564630
O O7 0.344551 0.128553 0.830587
O O8 0.748320 0.363567 0.514919
O O9 0.622187 0.282919 0.330578
O O10 0.184225 0.308802 0.686498
O O11 0.500000 0.621286 0.500000
O O12 0.688859 0.500000 0.534554
O O13 0.209123 0.579014 0.234877
O O14 0.339229 0.782611 0.066685
O O15 0.227117 0.500000 0.067242
O O16 0.324941 0.364289 0.072270
O O17 0.000000 0.378220 0.000000
#
# Coordination Sequence:
#
# PCOD8065043 Si02
#       8
#     2   2   4   4   4   4   4   4
#     4   9  17  31  50  79 106 134 179 224 267 315
#     4   9  17  31  50  77 108 134 175 226 266 315
#     4   9  18  33  53  76 104 142 180 218 269 322
#     4  10  21  37  55  82 112 144 183 226 271 321
#     4  10  22  39  57  80 111 145 181 224 275 327
#     4   9  18  33  54  76 104 141 180 220 266 322
#     4  10  20  37  57  79 108 145 184 219 267 327
#     4  10  21  36  56  82 112 143 184 227 268 320
#
# _framework density 18.376964999999998
#
# number of rings (size 3 to 8) (size 9 to 14) (size 15 to 20)
#    0.000    2.429    1.429    0.429    2.000    3.429 
#    2.571    2.143    0.000    6.857    0.000    0.000 
#    0.000    0.000    0.000    0.000    0.000    0.000 
#
# Total GULP energy -347043.713465 kJ/mol
# GULP energy per Si atom -12394.418338 kJ/mol
# Density = 1.833514 g / cm^3
# Si number density = 18.376965 Si / 1000 Ang^3
#
#
#
# Elastic Constant Matrix: (Units=GPa)
#
#
# Indices 1 2 3 4 5 6 
#
# 1 90.2565 64.0894 34.2323 0.0000 -4.3802 0.0000
# 2 64.0894 151.5519 63.8698 0.0000 15.2649 0.0000
# 3 34.2323 63.8698 74.1508 0.0000 9.2483 0.0000
# 4 0.0000 0.0000 0.0000 39.4862 0.0000 2.3674
# 5 -4.3802 15.2649 9.2483 0.0000 19.2018 0.0000
# 6 0.0000 0.0000 0.0000 2.3674 0.0000 21.6523
#
#
#
# Elastic Compliance Matrix: (Units=1/GPa)
#
#
# Indices 1 2 3 4 5 6 
#
# 1 0.018250 -0.007430 -0.003491 0.000000 0.011751 0.000000
# 2 -0.007430 0.013710 -0.007244 0.000000 -0.009105 0.000000
# 3 -0.003491 -0.007244 0.022042 0.000000 -0.005654 0.000000
# 4 0.000000 0.000000 0.000000 0.025492 0.000000 -0.002787
# 5 0.011751 -0.009105 -0.005654 0.000000 0.064721 0.000000
# 6 0.000000 0.000000 0.000000 -0.002787 0.000000 0.046489
#
#
# Mechanical properties :
#
#
# Convention : Reuss Voigt Hill
#
# Bulk Modulus (GPa) = 56.58310 71.14913 63.86612
# Shear Modulus (GPa) = 21.46617 26.31926 23.89272
#
# Velocity S-wave (km/s) = 3.42146 3.78853 3.60966
# Velocity P-wave (km/s) = 6.81657 7.61169 7.22507
#
# Compressibility (1/GPa) = 0.01767312
#
# Stress axis : x y z
#
# Youngs Moduli (GPa) = 54.79532 72.93777 45.36764
#
# Poissons Ratio (x) = 0.54193 0.15838
# Poissons Ratio (y) = 0.40713 0.32863
# Poissons Ratio (z) = 0.19129 0.52833
#
# Static dielectric constant tensor:
#      x y z
#    x 3.277210 0.000000 0.013720 
#    y 0.000000 3.510440 0.000000 
#    z 0.013720 0.000000 3.386550 
# 
# 
# High freq. dielectric constant tensor:
#      x y z
#    x 1.698610 0.000000 0.000940 
#    y 0.000000 1.716550 0.000000 
#    z 0.000940 0.000000 1.712710 
# 
# From -- ./inp_files/84235.got.cif
#   From: 2010.06.25/outbox.cif.g09.slc.cpg/sg10_43_cif.got.tgz:84235.got - 2010.06.27 22:07:45.
