data_PCOD8065941
_publ_section_title
;
Structure prediction by ZEFSAII (Michael W. Deem and Ramdas Pophale) SiO2 
 PCOD8065941
Probable space group: P 2/M
;
_chemical_formula_sum "Si O2"
_cell_formula_units_Z 32
_cell_length_a 10.042999
_cell_length_b 8.935095
_cell_length_c 23.366897
_cell_angle_alpha 90.000000
_cell_angle_beta 51.554873
_cell_angle_gamma 90.000000
_cell_volume 1642.247195
_symmetry_space_group_name_H-M "P 2/M"
_symmetry_group_IT_number 10
_symmetry_cell_setting 'monoclinic'
loop_
_space_group_symop_operation_xyz
x,y,z
-x,y,-z
-x,-y,-z
x,-y,z
loop_
_atom_site_type_symbol
_atom_site_label
_atom_site_fract_x
_atom_site_fract_y
_atom_site_fract_z
Si Si1 0.254452 0.674920 0.602914
Si Si2 0.061037 0.325725 0.242837
Si Si3 0.839172 0.823887 0.579992
Si Si4 0.618349 0.324167 0.550879
Si Si5 0.821642 0.162394 0.017132
Si Si6 0.661167 0.178984 0.171375
Si Si7 0.993984 0.821376 0.862121
Si Si8 0.695310 0.326222 0.722878
O O1 0.226990 0.500000 0.602840
O O2 0.279021 0.738108 0.532097
O O3 0.419671 0.708539 0.596492
O O4 0.092327 0.744644 0.678389
O O5 0.028141 0.500000 0.239258
O O6 0.236036 0.300979 0.230955
O O7 0.069899 0.240531 0.180840
O O8 0.671323 0.772682 0.591138
O O9 0.835566 0.742920 0.642370
O O10 0.000000 0.768855 0.500000
O O11 0.840288 0.000000 0.589513
O O12 0.652253 0.500000 0.551943
O O13 0.861326 0.244165 0.945839
O O14 0.740883 0.000000 0.025177
O O15 0.699475 0.243531 0.096471
O O16 0.000000 0.137087 0.000000
O O17 0.812552 0.228646 0.174279
O O18 0.484887 0.247585 0.239358
O O19 0.647921 0.000000 0.173272
O O20 0.984106 0.000000 0.864731
O O21 0.675075 0.500000 0.714259
#
# Coordination Sequence:
#
# PCOD8065941 Si02
#       8
#     4   4   4   4   4   4   4   4
#     4   8  16  32  54  77 103 136 176 221 268 320
#     4  10  21  36  52  75 110 147 184 226 272 322
#     4  11  24  39  55  77 108 142 181 229 279 325
#     4   9  17  33  57  80 100 132 179 224 270 327
#     4   7  12  28  54  81 109 141 178 220 267 323
#     4   9  18  35  59  85 113 142 178 229 277 321
#     4   9  18  33  57  86 110 141 184 224 272 331
#     4  11  24  39  56  79 110 150 190 225 269 328
#
# _framework density 19.485495
#
# number of rings (size 3 to 8) (size 9 to 14) (size 15 to 20)
#    0.000    2.750    0.000    3.750    1.750    3.500 
#    0.000    3.125    0.000    6.000    0.000    0.000 
#    0.000    0.000    0.000    0.000    0.000    0.000 
#
# Total GULP energy -396540.182818 kJ/mol
# GULP energy per Si atom -12391.880713 kJ/mol
# Density = 1.944115 g / cm^3
# Si number density = 19.485495 Si / 1000 Ang^3
#
#
#
# Elastic Constant Matrix: (Units=GPa)
#
#
# Indices 1 2 3 4 5 6 
#
# 1 70.4660 27.5774 32.6820 0.0000 14.5947 0.0000
# 2 27.5774 44.7078 29.0966 0.0000 4.3689 0.0000
# 3 32.6820 29.0966 99.4609 0.0000 11.7704 0.0000
# 4 0.0000 0.0000 0.0000 14.6734 0.0000 12.0384
# 5 14.5947 4.3689 11.7704 0.0000 29.8915 0.0000
# 6 0.0000 0.0000 0.0000 12.0384 0.0000 18.7546
#
#
#
# Elastic Compliance Matrix: (Units=1/GPa)
#
#
# Indices 1 2 3 4 5 6 
#
# 1 0.021250 -0.010382 -0.003039 0.000000 -0.007662 0.000000
# 2 -0.010382 0.032722 -0.006498 0.000000 0.002845 0.000000
# 3 -0.003039 -0.006498 0.013285 0.000000 -0.002798 0.000000
# 4 0.000000 0.000000 0.000000 0.143966 0.000000 -0.092410
# 5 -0.007662 0.002845 -0.002798 0.000000 0.037881 0.000000
# 6 0.000000 0.000000 0.000000 -0.092410 0.000000 0.112637
#
#
# Mechanical properties :
#
#
# Convention : Reuss Voigt Hill
#
# Bulk Modulus (GPa) = 36.46924 43.70519 40.08722
# Shear Modulus (GPa) = 12.17376 21.01581 16.59478
#
# Velocity S-wave (km/s) = 2.50223 3.28767 2.92147
# Velocity P-wave (km/s) = 5.20624 6.07371 5.65663
#
# Compressibility (1/GPa) = 0.02742037
#
# Stress axis : x y z
#
# Youngs Moduli (GPa) = 47.05772 30.56022 75.27389
#
# Poissons Ratio (x) = 0.31726 0.22875
# Poissons Ratio (y) = 0.48853 0.48913
# Poissons Ratio (z) = 0.14301 0.19858
#
# Static dielectric constant tensor:
#      x y z
#    x 3.400690 0.000000 0.011530 
#    y 0.000000 3.118440 0.000000 
#    z 0.011530 0.000000 4.117530 
# 
# 
# High freq. dielectric constant tensor:
#      x y z
#    x 1.748170 0.000000 0.006860 
#    y 0.000000 1.719640 0.000000 
#    z 0.006860 0.000000 1.769770 
# 
# From -- ./inp_files/88537.got.cif
#   From: 2010.06.25/outbox.cif.g09.slc.cpg/sg10_45_cif.got.tgz:88537.got - 2010.06.27 22:07:45.
