data_PCOD8065978
_publ_section_title
;
Structure prediction by ZEFSAII (Michael W. Deem and Ramdas Pophale) SiO2 
 PCOD8065978
Probable space group: P 2/M
;
_chemical_formula_sum "Si O2"
_cell_formula_units_Z 32
_cell_length_a 13.895820
_cell_length_b 9.170395
_cell_length_c 22.376121
_cell_angle_alpha 90.000000
_cell_angle_beta 142.588292
_cell_angle_gamma 90.000000
_cell_volume 1732.329839
_symmetry_space_group_name_H-M "P 2/M"
_symmetry_group_IT_number 10
_symmetry_cell_setting 'monoclinic'
loop_
_space_group_symop_operation_xyz
x,y,z
-x,y,-z
-x,-y,-z
x,-y,z
loop_
_atom_site_type_symbol
_atom_site_label
_atom_site_fract_x
_atom_site_fract_y
_atom_site_fract_z
Si Si1 0.645226 0.663291 0.116817
Si Si2 0.822170 0.168400 0.695661
Si Si3 0.446944 0.170309 0.108237
Si Si4 0.863765 0.168831 0.478325
Si Si5 0.572970 0.332148 0.653941
Si Si6 0.788618 0.668737 0.557659
Si Si7 0.507322 0.167998 0.271107
Si Si8 0.173972 0.166071 0.885917
O O1 0.695642 0.500000 0.158965
O O2 0.595830 0.747117 0.152450
O O3 0.792446 0.740169 0.156954
O O4 0.500000 0.666274 0.000000
O O5 0.690295 0.248547 0.668532
O O6 0.842501 0.241666 0.641513
O O7 0.990182 0.183391 0.812809
O O8 0.773643 0.000000 0.663606
O O9 0.436742 0.214732 0.172416
O O10 0.482290 0.000000 0.118962
O O11 0.281388 0.216135 0.995196
O O12 0.879565 0.265959 0.545427
O O13 0.695240 0.196692 0.363731
O O14 0.000000 0.219172 0.500000
O O15 0.884504 0.000000 0.506558
O O16 0.623910 0.500000 0.681985
O O17 0.398961 0.312124 0.541603
O O18 0.582947 0.265688 0.724991
O O19 0.835635 0.500000 0.587964
O O20 0.470320 0.000000 0.267660
O O21 0.215807 0.000000 0.890105
#
# Coordination Sequence:
#
# PCOD8065978 Si02
#       8
#     4   4   4   4   4   4   4   4
#     4   9  17  29  47  72 101 133 168 206 248 294
#     4  11  22  35  54  77 100 130 169 213 259 302
#     4   9  17  32  53  74 100 136 175 211 246 293
#     4   9  18  33  52  77 109 138 166 205 248 292
#     4  10  21  37  55  75 101 131 164 206 256 308
#     4  10  21  36  54  77 104 134 167 203 250 308
#     4   9  18  33  54  76  98 132 174 208 244 295
#     4   9  19  34  50  72 102 134 170 212 254 295
#
# _framework density 18.472232999999999
#
# number of rings (size 3 to 8) (size 9 to 14) (size 15 to 20)
#    0.000    2.500    0.000    1.875    0.000    7.250 
#    0.000    3.125    0.000    3.750    0.000    0.000 
#    0.000    0.000    0.000    0.000    0.000    0.000 
#
# Total GULP energy -396857.037833 kJ/mol
# GULP energy per Si atom -12401.782432 kJ/mol
# Density = 1.843019 g / cm^3
# Si number density = 18.472233 Si / 1000 Ang^3
#
#
#
# Elastic Constant Matrix: (Units=GPa)
#
#
# Indices 1 2 3 4 5 6 
#
# 1 125.7444 65.6168 46.6190 0.0000 -9.5911 0.0000
# 2 65.6168 107.0112 40.4441 0.0000 -11.0856 0.0000
# 3 46.6190 40.4441 69.1019 0.0000 -18.1226 0.0000
# 4 0.0000 0.0000 0.0000 14.7075 0.0000 4.7012
# 5 -9.5911 -11.0856 -18.1226 0.0000 25.4337 0.0000
# 6 0.0000 0.0000 0.0000 4.7012 0.0000 15.4395
#
#
#
# Elastic Compliance Matrix: (Units=1/GPa)
#
#
# Indices 1 2 3 4 5 6 
#
# 1 0.013112 -0.006041 -0.005785 0.000000 -0.001811 0.000000
# 2 -0.006041 0.014784 -0.004286 0.000000 0.001112 0.000000
# 3 -0.005785 -0.004286 0.024375 0.000000 0.013319 0.000000
# 4 0.000000 0.000000 0.000000 0.075324 0.000000 -0.022936
# 5 -0.001811 0.001112 0.013319 0.000000 0.048610 0.000000
# 6 0.000000 0.000000 0.000000 -0.022936 0.000000 0.071753
#
#
# Mechanical properties :
#
#
# Convention : Reuss Voigt Hill
#
# Bulk Modulus (GPa) = 49.88000 67.46860 58.67430
# Shear Modulus (GPa) = 17.42991 21.06131 19.24561
#
# Velocity S-wave (km/s) = 3.07510 3.38029 3.23130
# Velocity P-wave (km/s) = 6.29838 7.19991 6.76418
#
# Compressibility (1/GPa) = 0.02004811
#
# Stress axis : x y z
#
# Youngs Moduli (GPa) = 76.26876 67.64107 41.02498
#
# Poissons Ratio (x) = 0.40862 0.23732
# Poissons Ratio (y) = 0.46073 0.17582
# Poissons Ratio (z) = 0.44120 0.28989
#
# Static dielectric constant tensor:
#      x y z
#    x 3.337640 0.000000 -0.059480 
#    y 0.000000 3.508740 0.000000 
#    z -0.059480 0.000000 3.368230 
# 
# 
# High freq. dielectric constant tensor:
#      x y z
#    x 1.712730 0.000000 -0.002770 
#    y 0.000000 1.721410 0.000000 
#    z -0.002770 0.000000 1.704780 
# 
# From -- ./inp_files/83616.got.cif
#   From: 2010.06.25/outbox.cif.g09.slc.cpg/sg10_42_cif.got.tgz:83616.got - 2010.06.27 22:07:45.
