data_PCOD8065806
_publ_section_title
;
Structure prediction by ZEFSAII (Michael W. Deem and Ramdas Pophale) SiO2 
 PCOD8065806
Probable space group: P 2/M
;
_chemical_formula_sum "Si O2"
_cell_formula_units_Z 32
_cell_length_a 19.127374
_cell_length_b 8.955552
_cell_length_c 12.371550
_cell_angle_alpha 90.000000
_cell_angle_beta 64.542973
_cell_angle_gamma 90.000000
_cell_volume 1913.441937
_symmetry_space_group_name_H-M "P 2/M"
_symmetry_group_IT_number 10
_symmetry_cell_setting 'monoclinic'
loop_
_space_group_symop_operation_xyz
x,y,z
-x,y,-z
-x,-y,-z
x,-y,z
loop_
_atom_site_type_symbol
_atom_site_label
_atom_site_fract_x
_atom_site_fract_y
_atom_site_fract_z
Si Si1 0.315192 0.324350 0.084431
Si Si2 0.582087 0.173686 0.399168
Si Si3 0.832763 0.178242 0.735062
Si Si4 0.413105 0.675062 0.229554
Si Si5 0.685589 0.323893 0.498525
Si Si6 0.833080 0.178062 0.487593
Si Si7 0.573857 0.174532 0.153166
Si Si8 0.000024 0.836754 0.371979
O O1 0.308961 0.500000 0.073410
O O2 0.229498 0.255918 0.146832
O O3 0.361630 0.281062 0.161303
O O4 0.356307 0.254849 0.953615
O O5 0.500000 0.227909 0.500000
O O6 0.649364 0.268205 0.410808
O O7 0.584693 0.209943 0.271545
O O8 0.595412 0.000000 0.415773
O O9 0.815754 0.224909 0.622617
O O10 0.918263 0.241201 0.714664
O O11 0.829392 0.000000 0.749880
O O12 0.431673 0.500000 0.220634
O O13 0.368697 0.728794 0.366454
O O14 0.492747 0.762895 0.164733
O O15 0.694948 0.500000 0.491247
O O16 0.770100 0.252000 0.452219
O O17 0.918380 0.241932 0.394147
O O18 0.831128 0.000000 0.477117
O O19 0.576207 0.000000 0.126852
O O20 0.000000 0.856551 0.500000
O O21 0.999994 0.000000 0.317707
#
# Coordination Sequence:
#
# PCOD8065806 Si02
#       8
#     4   4   4   4   4   4   4   4
#     4  11  22  35  49  70 105 138 166 199 243 296
#     4  10  21  38  55  72  94 122 163 214 258 292
#     4   9  16  28  48  72  99 132 170 203 237 286
#     4  10  21  35  49  69 101 136 164 198 244 293
#     4  11  21  32  50  75 102 132 167 201 242 297
#     4   9  16  28  48  72 101 133 165 203 245 286
#     4  11  23  37  54  73  93 123 170 216 250 291
#     4   7  12  24  43  69  98 129 163 200 240 284
#
# _framework density 16.723789
#
# number of rings (size 3 to 8) (size 9 to 14) (size 15 to 20)
#    0.000    2.250    2.500    3.000    0.000    4.250 
#    0.000    0.625    0.000    2.250    0.000    0.875 
#    0.000    7.000    0.000    0.000    0.000    0.000 
#
# Total GULP energy -396692.760616 kJ/mol
# GULP energy per Si atom -12396.648769 kJ/mol
# Density = 1.668573 g / cm^3
# Si number density = 16.723789 Si / 1000 Ang^3
#
#
#
# Elastic Constant Matrix: (Units=GPa)
#
#
# Indices 1 2 3 4 5 6 
#
# 1 127.0664 42.3818 56.9331 0.0000 -31.4841 0.0000
# 2 42.3818 47.8398 36.8034 0.0000 -10.0515 0.0000
# 3 56.9331 36.8034 83.4881 0.0000 -19.2739 0.0000
# 4 0.0000 0.0000 0.0000 17.3975 0.0000 6.6335
# 5 -31.4841 -10.0515 -19.2739 0.0000 27.8276 0.0000
# 6 0.0000 0.0000 0.0000 6.6335 0.0000 9.5717
#
#
#
# Elastic Compliance Matrix: (Units=1/GPa)
#
#
# Indices 1 2 3 4 5 6 
#
# 1 0.015229 -0.007763 -0.004324 0.000000 0.011431 0.000000
# 2 -0.007763 0.035691 -0.011297 0.000000 -0.003716 0.000000
# 3 -0.004324 -0.011297 0.021230 0.000000 0.005731 0.000000
# 4 0.000000 0.000000 0.000000 0.078123 0.000000 -0.054142
# 5 0.011431 -0.003716 0.005731 0.000000 0.051496 0.000000
# 6 0.000000 0.000000 0.000000 -0.054142 0.000000 0.141996
#
#
# Mechanical properties :
#
#
# Convention : Reuss Voigt Hill
#
# Bulk Modulus (GPa) = 39.40030 58.95900 49.17965
# Shear Modulus (GPa) = 12.53150 19.11110 15.82130
#
# Velocity S-wave (km/s) = 2.74034 3.38413 3.07911
# Velocity P-wave (km/s) = 5.79855 7.11343 6.48938
#
# Compressibility (1/GPa) = 0.02538052
#
# Stress axis : x y z
#
# Youngs Moduli (GPa) = 65.66401 28.01828 47.10425
#
# Poissons Ratio (x) = 0.21752 0.20367
# Poissons Ratio (y) = 0.50978 0.53215
# Poissons Ratio (z) = 0.28392 0.31653
#
# Static dielectric constant tensor:
#      x y z
#    x 3.302030 0.000000 -0.231770 
#    y 0.000000 2.968030 0.000000 
#    z -0.231770 0.000000 3.012510 
# 
# 
# High freq. dielectric constant tensor:
#      x y z
#    x 1.648390 0.000000 -0.019830 
#    y 0.000000 1.633190 0.000000 
#    z -0.019830 0.000000 1.617410 
# 
# From -- ./inp_files/52731.got.cif
#   From: 2010.06.25/outbox.cif.g09.slc.cpg/sg10_27_cif.got.tgz:52731.got - 2010.06.27 22:07:45.
