data_PCOD8065973
_publ_section_title
;
Structure prediction by ZEFSAII (Michael W. Deem and Ramdas Pophale) SiO2 
 PCOD8065973
Probable space group: P 2/M
;
_chemical_formula_sum "Si O2"
_cell_formula_units_Z 28
_cell_length_a 15.225440
_cell_length_b 12.574255
_cell_length_c 9.263425
_cell_angle_alpha 90.000000
_cell_angle_beta 63.723767
_cell_angle_gamma 90.000000
_cell_volume 1590.217085
_symmetry_space_group_name_H-M "P 2/M"
_symmetry_group_IT_number 10
_symmetry_cell_setting 'monoclinic'
loop_
_space_group_symop_operation_xyz
x,y,z
-x,y,-z
-x,-y,-z
x,-y,z
loop_
_atom_site_type_symbol
_atom_site_label
_atom_site_fract_x
_atom_site_fract_y
_atom_site_fract_z
Si Si1 0.869563 0.117981 0.216452
Si Si2 0.078708 0.881868 0.155046
Si Si3 0.397916 0.625800 0.153083
Si Si4 0.919554 0.500000 0.175450
Si Si5 0.583008 0.378906 0.536912
Si Si6 0.208478 0.690009 0.125603
Si Si7 0.066327 0.500000 0.312860
Si Si8 0.769763 0.677947 0.229026
O O1 0.783995 0.205630 0.291326
O O2 0.962381 0.145289 0.253104
O O3 0.829019 0.000000 0.284732
O O4 0.901345 0.121554 0.028222
O O5 0.149106 0.800467 0.188743
O O6 0.099545 0.000000 0.202095
O O7 0.374235 0.500000 0.163514
O O8 0.404579 0.670583 0.312441
O O9 0.308879 0.689682 0.143577
O O10 0.500000 0.652043 0.000000
O O11 0.861826 0.608558 0.203336
O O12 0.972162 0.500000 0.285273
O O13 0.000000 0.500000 0.000000
O O14 0.500000 0.320350 0.500000
O O15 0.550490 0.500000 0.587937
O O16 0.678968 0.376143 0.371072
O O17 0.135714 0.600984 0.238778
O O18 0.241093 0.674842 0.935937
O O19 0.000000 0.500000 0.500000
#
# Coordination Sequence:
#
# PCOD8065973 Si02
#       8
#     4   4   4   2   4   4   2   4
#     4   8  15  28  48  75 105 137 176 215 253 296
#     4   8  15  29  50  75 102 137 179 216 249 299
#     4  10  21  36  54  74 106 139 173 211 260 317
#     4  12  22  34  47  76 111 142 173 208 255 306
#     4  10  21  36  54  78 103 135 174 217 259 310
#     4  11  20  34  52  78 105 141 172 212 262 310
#     4  12  26  34  47  72 113 146 175 206 257 312
#     4  11  20  31  55  78 106 136 175 216 259 306
#
# _framework density 17.607658000000001
#
# number of rings (size 3 to 8) (size 9 to 14) (size 15 to 20)
#    0.000    2.000    2.857    2.571    4.000    1.143 
#    0.000    0.000    0.000    2.143    0.000    0.000 
#    0.000    0.000    0.000    0.000    0.000    0.000 
#
# Total GULP energy -346912.345618 kJ/mol
# GULP energy per Si atom -12389.726629 kJ/mol
# Density = 1.756758 g / cm^3
# Si number density = 17.607658 Si / 1000 Ang^3
#
#
#
# Elastic Constant Matrix: (Units=GPa)
#
#
# Indices 1 2 3 4 5 6 
#
# 1 141.1138 49.0919 51.1014 0.0000 19.4181 0.0000
# 2 49.0919 89.2654 21.6683 0.0000 6.2375 0.0000
# 3 51.1014 21.6683 102.5011 0.0000 4.7081 0.0000
# 4 0.0000 0.0000 0.0000 7.9141 0.0000 2.1209
# 5 19.4181 6.2375 4.7081 0.0000 25.2018 0.0000
# 6 0.0000 0.0000 0.0000 2.1209 0.0000 24.7007
#
#
#
# Elastic Compliance Matrix: (Units=1/GPa)
#
#
# Indices 1 2 3 4 5 6 
#
# 1 0.011165 -0.004636 -0.004281 0.000000 -0.006656 0.000000
# 2 -0.004636 0.013889 -0.000636 0.000000 0.000254 0.000000
# 3 -0.004281 -0.000636 0.011969 0.000000 0.001220 0.000000
# 4 0.000000 0.000000 0.000000 0.129333 0.000000 -0.011105
# 5 -0.006656 0.000254 0.001220 0.000000 0.044517 0.000000
# 6 0.000000 0.000000 0.000000 -0.011105 0.000000 0.041438
#
#
# Mechanical properties :
#
#
# Convention : Reuss Voigt Hill
#
# Bulk Modulus (GPa) = 55.81454 64.06705 59.94079
# Shear Modulus (GPa) = 18.02517 25.63124 21.82821
#
# Velocity S-wave (km/s) = 3.20302 3.81949 3.52476
# Velocity P-wave (km/s) = 6.74144 7.47771 7.11910
#
# Compressibility (1/GPa) = 0.01791648
#
# Stress axis : x y z
#
# Youngs Moduli (GPa) = 89.56216 71.99914 83.55216
#
# Poissons Ratio (x) = 0.33381 0.35766
# Poissons Ratio (y) = 0.41524 0.05317
# Poissons Ratio (z) = 0.38338 0.04581
#
# Static dielectric constant tensor:
#      x y z
#    x 3.425980 0.000000 0.083360 
#    y 0.000000 3.385420 0.000000 
#    z 0.083360 0.000000 3.108300 
# 
# 
# High freq. dielectric constant tensor:
#      x y z
#    x 1.686100 0.000000 0.003490 
#    y 0.000000 1.659770 0.000000 
#    z 0.003490 0.000000 1.664360 
# 
# From -- ./inp_files/28256.got.cif
#   From: 2010.06.25/outbox.cif.g09.slc.cpg/sg10_15_cif.got.tgz:28256.got - 2010.06.27 22:07:45.
