data_PCOD8065360
_publ_section_title
;
Structure prediction by ZEFSAII (Michael W. Deem and Ramdas Pophale) SiO2 
 PCOD8065360
Probable space group: P 2/M
;
_chemical_formula_sum "Si O2"
_cell_formula_units_Z 20
_cell_length_a 13.035869
_cell_length_b 14.906305
_cell_length_c 10.019131
_cell_angle_alpha 90.000000
_cell_angle_beta 154.388923
_cell_angle_gamma 90.000000
_cell_volume 841.560198
_symmetry_space_group_name_H-M "P 2/M"
_symmetry_group_IT_number 10
_symmetry_cell_setting 'monoclinic'
loop_
_space_group_symop_operation_xyz
x,y,z
-x,y,-z
-x,-y,-z
x,-y,z
loop_
_atom_site_type_symbol
_atom_site_label
_atom_site_fract_x
_atom_site_fract_y
_atom_site_fract_z
Si Si1 0.946892 0.662764 0.579622
Si Si2 0.235864 0.598742 0.360856
Si Si3 0.889035 0.901254 0.013971
Si Si4 0.409102 0.249976 0.227217
Si Si5 0.314138 0.162729 0.681390
O O1 0.813179 0.605620 0.536752
O O2 0.786374 0.750003 0.359279
O O3 0.000000 0.612128 0.500000
O O4 0.201406 0.688318 0.931898
O O5 0.350013 0.500000 0.472026
O O6 0.399316 0.678087 0.492925
O O7 0.000000 0.608662 0.000000
O O8 0.089466 0.894378 0.365877
O O9 0.771923 0.000000 0.893822
O O10 0.694160 0.821918 0.787700
O O11 0.000000 0.891315 0.000000
O O12 0.529122 0.188227 0.259651
O O13 0.500000 0.112083 0.000000
#
# Coordination Sequence:
#
# PCOD8065360 Si02
#       5
#     4   4   4   4   4
#     4  10  20  37  64  96 131 176 227 275 327 397
#     4  10  24  43  64  99 138 172 225 285 336 403
#     4  10  24  43  64  99 138 172 225 285 336 403
#     4  10  22  41  70  92 131 182 218 264 341 404
#     4  10  20  37  64  96 131 176 227 275 327 397
#
# _framework density 23.76538
#
# number of rings (size 3 to 8) (size 9 to 14) (size 15 to 20)
#    0.000    2.000    2.000    0.000    0.000   12.800 
#    0.000    6.000    0.000    1.200    0.000    0.000 
#    0.000    0.000    0.000    0.000    0.000    0.000 
#
# Total GULP energy -247787.336617 kJ/mol
# GULP energy per Si atom -12389.366831 kJ/mol
# Density = 2.371129 g / cm^3
# Si number density = 23.765380 Si / 1000 Ang^3
#
#
#
# Elastic Constant Matrix: (Units=GPa)
#
#
# Indices 1 2 3 4 5 6 
#
# 1 104.1422 55.8105 34.0022 0.0000 -6.2816 0.0000
# 2 55.8105 178.5450 60.8431 0.0000 9.1529 0.0000
# 3 34.0022 60.8431 98.6923 0.0000 -3.3801 0.0000
# 4 0.0000 0.0000 0.0000 10.6959 0.0000 17.7509
# 5 -6.2816 9.1529 -3.3801 0.0000 38.4736 0.0000
# 6 0.0000 0.0000 0.0000 17.7509 0.0000 1.0540
#
#
#
# Elastic Compliance Matrix: (Units=1/GPa)
#
#
# Indices 1 2 3 4 5 6 
#
# 1 0.012172 -0.003212 -0.002126 0.000000 0.002565 0.000000
# 2 -0.003212 0.008107 -0.003988 0.000000 -0.002804 0.000000
# 3 -0.002126 -0.003988 0.013384 0.000000 0.001777 0.000000
# 4 0.000000 0.000000 0.000000 -0.003469 0.000000 0.058426
# 5 0.002565 -0.002804 0.001777 0.000000 0.027234 0.000000
# 6 0.000000 0.000000 0.000000 0.058426 0.000000 -0.035205
#
#
# Mechanical properties :
#
#
# Convention : Reuss Voigt Hill
#
# Bulk Modulus (GPa) = 66.60766 75.85459 71.23112
# Shear Modulus (GPa) = 108.98294 25.42626 67.20460
#
# Velocity S-wave (km/s) = 6.77919 3.27446 5.32351
# Velocity P-wave (km/s) = 9.45328 6.80320 8.23554
#
# Compressibility (1/GPa) = 0.01501329
#
# Stress axis : x y z
#
# Youngs Moduli (GPa) = 82.15365 123.34380 74.71579
#
# Poissons Ratio (x) = 0.39618 0.15882
# Poissons Ratio (y) = 0.26388 0.29793
# Poissons Ratio (z) = 0.17463 0.49184
#
# Static dielectric constant tensor:
#      x y z
#    x 4.408430 0.000000 0.149060 
#    y 0.000000 4.236960 0.000000 
#    z 0.149060 0.000000 4.488720 
# 
# 
# High freq. dielectric constant tensor:
#      x y z
#    x 1.953150 0.000000 -0.000490 
#    y 0.000000 1.913710 0.000000 
#    z -0.000490 0.000000 1.952850 
# 
# From -- ./inp_files/47577.got.cif
#   From: 2010.06.25/outbox.cif.g09.slc.cpg/sg10_24_cif.got.tgz:47577.got - 2010.06.27 22:07:45.
