data_PCOD8065195
_publ_section_title
;
Structure prediction by ZEFSAII (Michael W. Deem and Ramdas Pophale) SiO2 
 PCOD8065195
Probable space group: P 2/M
;
_chemical_formula_sum "Si O2"
_cell_formula_units_Z 24
_cell_length_a 17.243218
_cell_length_b 17.506892
_cell_length_c 10.461821
_cell_angle_alpha 90.000000
_cell_angle_beta 24.482722
_cell_angle_gamma 90.000000
_cell_volume 1308.802524
_symmetry_space_group_name_H-M "P 2/M"
_symmetry_group_IT_number 10
_symmetry_cell_setting 'monoclinic'
loop_
_space_group_symop_operation_xyz
x,y,z
-x,y,-z
-x,-y,-z
x,-y,z
loop_
_atom_site_type_symbol
_atom_site_label
_atom_site_fract_x
_atom_site_fract_y
_atom_site_fract_z
Si Si1 0.586357 0.834577 0.246291
Si Si2 0.990878 0.692273 0.154681
Si Si3 0.009134 0.192257 0.627296
Si Si4 0.366210 0.909849 0.084920
Si Si5 0.413662 0.334591 0.505333
Si Si6 0.633817 0.590149 0.683521
O O1 0.500000 0.875803 0.500000
O O2 0.500052 0.749986 0.359083
O O3 0.802717 0.837679 0.961639
O O4 0.540491 0.881030 0.186760
O O5 0.925321 0.750008 0.362019
O O6 0.842118 0.623704 0.382599
O O7 0.197301 0.662346 0.869767
O O8 0.000000 0.731583 0.000000
O O9 0.000000 0.231569 0.500000
O O10 0.157890 0.123686 0.408937
O O11 0.346273 0.000000 0.112920
O O12 0.500000 0.882718 0.000000
O O13 0.500000 0.375827 0.500000
O O14 0.459483 0.381056 0.308276
O O15 0.653830 0.500000 0.651630
O O16 0.500000 0.617279 0.000000
#
# Coordination Sequence:
#
# PCOD8065195 Si02
#       6
#     4   4   4   4   4   4
#     4  10  20  37  60  88 116 147 195 242 285 341
#     4  10  21  35  60  86 114 150 188 241 285 342
#     4  10  21  35  60  86 114 150 188 241 285 342
#     4  10  24  40  57  86 119 156 193 233 288 347
#     4  10  20  37  60  88 116 147 195 242 285 341
#     4  10  24  40  57  86 119 156 193 233 288 347
#
# _framework density 18.337371999999998
#
# number of rings (size 3 to 8) (size 9 to 14) (size 15 to 20)
#    0.000    2.000    3.333    0.000    9.333    6.667 
#    0.000    0.000    0.000    5.000    0.000    0.000 
#    0.000    0.000    0.000    0.000    0.000    0.000 
#
# Total GULP energy -297415.579001 kJ/mol
# GULP energy per Si atom -12392.315792 kJ/mol
# Density = 1.829564 g / cm^3
# Si number density = 18.337372 Si / 1000 Ang^3
#
#
#
# Elastic Constant Matrix: (Units=GPa)
#
#
# Indices 1 2 3 4 5 6 
#
# 1 168.4553 57.6675 76.9677 0.0000 13.9609 0.0000
# 2 57.6675 68.2162 41.7503 0.0000 11.6799 0.0000
# 3 76.9677 41.7503 135.8990 0.0000 9.9284 0.0000
# 4 0.0000 0.0000 0.0000 15.3752 0.0000 5.4294
# 5 13.9609 11.6799 9.9284 0.0000 39.1856 0.0000
# 6 0.0000 0.0000 0.0000 5.4294 0.0000 22.7874
#
#
#
# Elastic Compliance Matrix: (Units=1/GPa)
#
#
# Indices 1 2 3 4 5 6 
#
# 1 0.009641 -0.005799 -0.003621 0.000000 -0.000789 0.000000
# 2 -0.005799 0.022196 -0.003263 0.000000 -0.003723 0.000000
# 3 -0.003621 -0.003263 0.010440 0.000000 -0.000382 0.000000
# 4 0.000000 0.000000 0.000000 0.071015 0.000000 -0.016920
# 5 -0.000789 -0.003723 -0.000382 0.000000 0.027007 0.000000
# 6 0.000000 0.000000 0.000000 -0.016920 0.000000 0.047915
#
#
# Mechanical properties :
#
#
# Convention : Reuss Voigt Hill
#
# Bulk Modulus (GPa) = 59.13304 80.59351 69.86328
# Shear Modulus (GPa) = 22.80840 28.54865 25.67852
#
# Velocity S-wave (km/s) = 3.53061 3.94998 3.74617
# Velocity P-wave (km/s) = 6.99554 8.05289 7.54276
#
# Compressibility (1/GPa) = 0.01691102
#
# Stress axis : x y z
#
# Youngs Moduli (GPa) = 103.71838 45.05339 95.78892
#
# Poissons Ratio (x) = 0.26127 0.34688
# Poissons Ratio (y) = 0.60148 0.31252
# Poissons Ratio (z) = 0.37560 0.14699
#
# Static dielectric constant tensor:
#      x y z
#    x 3.903380 0.000000 0.164520 
#    y 0.000000 3.070220 0.000000 
#    z 0.164520 0.000000 3.679150 
# 
# 
# High freq. dielectric constant tensor:
#      x y z
#    x 1.734990 0.000000 0.005300 
#    y 0.000000 1.677000 0.000000 
#    z 0.005300 0.000000 1.727760 
# 
# From -- ./inp_files/30033.got.cif
#   From: 2010.06.25/outbox.cif.g09.slc.cpg/sg10_16_cif.got.tgz:30033.got - 2010.06.27 22:07:45.
