data_PCOD8065969
_publ_section_title
;
Structure prediction by ZEFSAII (Michael W. Deem and Ramdas Pophale) SiO2 
 PCOD8065969
Probable space group: P 2/M
;
_chemical_formula_sum "Si O2"
_cell_formula_units_Z 22
_cell_length_a 8.287848
_cell_length_b 26.137559
_cell_length_c 9.216586
_cell_angle_alpha 90.000000
_cell_angle_beta 33.418865
_cell_angle_gamma 90.000000
_cell_volume 1099.602698
_symmetry_space_group_name_H-M "P 2/M"
_symmetry_group_IT_number 10
_symmetry_cell_setting 'monoclinic'
loop_
_space_group_symop_operation_xyz
x,y,z
-x,y,-z
-x,-y,-z
x,-y,z
loop_
_atom_site_type_symbol
_atom_site_label
_atom_site_fract_x
_atom_site_fract_y
_atom_site_fract_z
Si Si1 0.662232 0.581041 0.228902
Si Si2 0.351742 0.500000 0.263767
Si Si3 0.126802 0.848350 0.564916
Si Si4 0.670163 0.301914 0.223540
Si Si5 0.157030 0.942868 0.735743
Si Si6 0.625533 0.791193 0.065859
O O1 0.500000 0.572561 0.500000
O O2 0.474716 0.549723 0.253320
O O3 0.647766 0.639607 0.186853
O O4 0.000000 0.563082 0.000000
O O5 0.000000 0.500000 0.500000
O O6 0.500000 0.500000 0.000000
O O7 0.083841 0.905132 0.658899
O O8 0.464684 0.830959 0.296423
O O9 0.000000 0.847536 0.500000
O O10 0.963705 0.808409 0.796281
O O11 0.500000 0.292936 0.500000
O O12 0.562655 0.265470 0.174900
O O13 0.000000 0.285422 0.000000
O O14 0.500000 0.942906 0.500000
O O15 0.045446 0.000000 0.778428
O O16 0.000000 0.923904 0.000000
O O17 0.500000 0.792725 0.000000
#
# Coordination Sequence:
#
# PCOD8065969 Si02
#       6
#     4   2   4   4   4   4
#     4  10  21  40  61  82 115 156 190 229 284 340
#     4  12  24  38  60  92 118 146 194 242 282 332
#     4  10  21  36  54  77 106 142 179 213 263 328
#     4  10  21  36  57  83 108 142 189 227 265 327
#     4  10  21  36  54  78 105 134 173 222 271 314
#     4  10  21  36  53  78 111 142 174 220 273 319
#
# _framework density 20.007227
#
# number of rings (size 3 to 8) (size 9 to 14) (size 15 to 20)
#    0.000    1.818    0.000    3.818    0.000    5.455 
#    0.000    2.727    0.000    6.545    0.000    0.000 
#    0.000    0.000    0.000    0.000    0.000    0.000 
#
# Total GULP energy -272679.245849 kJ/mol
# GULP energy per Si atom -12394.511175 kJ/mol
# Density = 1.996169 g / cm^3
# Si number density = 20.007227 Si / 1000 Ang^3
#
#
#
# Elastic Constant Matrix: (Units=GPa)
#
#
# Indices 1 2 3 4 5 6 
#
# 1 52.6996 47.1098 47.3466 0.0000 -3.2641 0.0000
# 2 47.1098 126.4142 48.6615 0.0000 15.3747 0.0000
# 3 47.3466 48.6615 160.8641 0.0000 -6.4107 0.0000
# 4 0.0000 0.0000 0.0000 49.4309 0.0000 13.0281
# 5 -3.2641 15.3747 -6.4107 0.0000 28.8871 0.0000
# 6 0.0000 0.0000 0.0000 13.0281 0.0000 40.8889
#
#
#
# Elastic Compliance Matrix: (Units=1/GPa)
#
#
# Indices 1 2 3 4 5 6 
#
# 1 0.036322 -0.012064 -0.006681 0.000000 0.009042 0.000000
# 2 -0.012064 0.013886 -0.001008 0.000000 -0.008977 0.000000
# 3 -0.006681 -0.001008 0.008555 0.000000 0.001680 0.000000
# 4 0.000000 0.000000 0.000000 0.022085 0.000000 -0.007037
# 5 0.009042 -0.008977 0.001680 0.000000 0.040790 0.000000
# 6 0.000000 0.000000 0.000000 -0.007037 0.000000 0.026699
#
#
# Mechanical properties :
#
#
# Convention : Reuss Voigt Hill
#
# Bulk Modulus (GPa) = 51.92673 69.57930 60.75301
# Shear Modulus (GPa) = 25.73870 36.96538 31.35204
#
# Velocity S-wave (km/s) = 3.59063 4.30304 3.96287
# Velocity P-wave (km/s) = 6.57271 7.71627 7.16733
#
# Compressibility (1/GPa) = 0.01925791
#
# Stress axis : x y z
#
# Youngs Moduli (GPa) = 27.53147 72.01515 116.89748
#
# Poissons Ratio (x) = 0.86879 0.78097
# Poissons Ratio (y) = 0.33214 0.11778
# Poissons Ratio (z) = 0.18393 0.07256
#
# Static dielectric constant tensor:
#      x y z
#    x 3.221760 0.000000 -0.072740 
#    y 0.000000 4.173670 0.000000 
#    z -0.072740 0.000000 4.183670 
# 
# 
# High freq. dielectric constant tensor:
#      x y z
#    x 1.756060 0.000000 0.002200 
#    y 0.000000 1.787790 0.000000 
#    z 0.002200 0.000000 1.812500 
# 
# From -- ./inp_files/20726.got.cif
#   From: 2010.06.25/outbox.cif.g09.slc.cpg/sg10_11_cif.got.tgz:20726.got - 2010.06.27 22:07:45.
