data_PCOD8065826
_publ_section_title
;
Structure prediction by ZEFSAII (Michael W. Deem and Ramdas Pophale) SiO2 
 PCOD8065826
Probable space group: P 2/M
;
_chemical_formula_sum "Si O2"
_cell_formula_units_Z 28
_cell_length_a 9.856809
_cell_length_b 9.127545
_cell_length_c 30.416984
_cell_angle_alpha 90.000000
_cell_angle_beta 144.118479
_cell_angle_gamma 90.000000
_cell_volume 1603.933650
_symmetry_space_group_name_H-M "P 2/M"
_symmetry_group_IT_number 10
_symmetry_cell_setting 'monoclinic'
loop_
_space_group_symop_operation_xyz
x,y,z
-x,y,-z
-x,-y,-z
x,-y,z
loop_
_atom_site_type_symbol
_atom_site_label
_atom_site_fract_x
_atom_site_fract_y
_atom_site_fract_z
Si Si1 0.548429 0.330229 0.563480
Si Si2 0.832264 0.334998 0.997358
Si Si3 0.803025 0.172657 0.854707
Si Si4 0.520523 0.171011 0.149502
Si Si5 0.740688 0.826407 0.442081
Si Si6 0.670662 0.828764 0.725361
Si Si7 0.049004 0.828179 0.285071
O O1 0.500000 0.305495 0.500000
O O2 0.554000 0.500000 0.577954
O O3 0.341397 0.251599 0.535143
O O4 0.796201 0.259457 0.639582
O O5 0.777388 0.500000 0.998076
O O6 0.594010 0.255967 0.921420
O O7 0.000000 0.331723 0.000000
O O8 0.955091 0.249250 0.069340
O O9 0.602455 0.211020 0.836898
O O10 0.723668 0.240486 0.786968
O O11 0.850377 0.000000 0.865421
O O12 0.785592 0.221117 0.222689
O O13 0.499000 0.000000 0.133259
O O14 0.576035 0.774518 0.358590
O O15 0.000000 0.775723 0.500000
O O16 0.721947 0.000000 0.444528
O O17 0.873082 0.788423 0.744099
O O18 0.655725 0.000000 0.729080
O O19 0.084048 0.000000 0.303395
#
# Coordination Sequence:
#
# PCOD8065826 Si02
#       7
#     4   4   4   4   4   4   4
#     4  10  21  35  50  71 101 135 167 199 240 291
#     4   9  17  29  45  66  93 122 152 189 232 276
#     4   9  16  28  47  68  91 119 153 193 233 278
#     4   9  17  29  48  72  92 116 154 195 234 277
#     4   9  18  33  54  77  99 126 163 206 249 292
#     4   8  15  29  47  68  94 121 149 187 237 285
#     4   9  18  33  51  70  94 124 158 196 239 286
#
# _framework density 17.457080000000001
#
# number of rings (size 3 to 8) (size 9 to 14) (size 15 to 20)
#    0.000    3.000    0.000    1.714    0.000    4.857 
#    0.000    6.429    0.000    4.286    0.000    0.000 
#    0.000    0.000    0.000    0.000    0.000    0.000 
#
# Total GULP energy -347155.148337 kJ/mol
# GULP energy per Si atom -12398.398155 kJ/mol
# Density = 1.741735 g / cm^3
# Si number density = 17.457080 Si / 1000 Ang^3
#
#
#
# Elastic Constant Matrix: (Units=GPa)
#
#
# Indices 1 2 3 4 5 6 
#
# 1 82.2493 41.8206 79.5949 0.0000 1.4773 0.0000
# 2 41.8206 62.5268 60.4206 0.0000 2.0194 0.0000
# 3 79.5949 60.4206 144.4886 0.0000 1.5260 0.0000
# 4 0.0000 0.0000 0.0000 17.3197 0.0000 -2.9973
# 5 1.4773 2.0194 1.5260 0.0000 33.7012 0.0000
# 6 0.0000 0.0000 0.0000 -2.9973 0.0000 15.4861
#
#
#
# Elastic Compliance Matrix: (Units=1/GPa)
#
#
# Indices 1 2 3 4 5 6 
#
# 1 0.027439 -0.006277 -0.012488 0.000000 -0.000261 0.000000
# 2 -0.006277 0.028315 -0.008372 0.000000 -0.001042 0.000000
# 3 -0.012488 -0.008372 0.017298 0.000000 0.000266 0.000000
# 4 0.000000 0.000000 0.000000 0.059739 0.000000 0.011562
# 5 -0.000261 -0.001042 0.000266 0.000000 0.029734 0.000000
# 6 0.000000 0.000000 0.000000 0.011562 0.000000 0.066812
#
#
# Mechanical properties :
#
#
# Convention : Reuss Voigt Hill
#
# Bulk Modulus (GPa) = 53.24997 72.54854 62.89925
# Shear Modulus (GPa) = 17.24910 20.46329 18.85619
#
# Velocity S-wave (km/s) = 3.14679 3.42746 3.29012
# Velocity P-wave (km/s) = 6.61609 7.57046 7.10931
#
# Compressibility (1/GPa) = 0.01877935
#
# Stress axis : x y z
#
# Youngs Moduli (GPa) = 36.44382 35.31750 57.80914
#
# Poissons Ratio (x) = 0.22168 0.72193
# Poissons Ratio (y) = 0.22875 0.48395
# Poissons Ratio (z) = 0.45512 0.29566
#
# Static dielectric constant tensor:
#      x y z
#    x 3.191310 0.000000 -0.019130 
#    y 0.000000 3.129170 0.000000 
#    z -0.019130 0.000000 3.467390 
# 
# 
# High freq. dielectric constant tensor:
#      x y z
#    x 1.657100 0.000000 -0.000630 
#    y 0.000000 1.657860 0.000000 
#    z -0.000630 0.000000 1.683980 
# 
# From -- ./inp_files/38055.got.cif
#   From: 2010.06.25/outbox.cif.g09.slc.cpg/sg10_20_cif.got.tgz:38055.got - 2010.06.27 22:07:45.
