data_PCOD8065465
_publ_section_title
;
Structure prediction by ZEFSAII (Michael W. Deem and Ramdas Pophale) SiO2 
 PCOD8065465
Probable space group: P 2/M
;
_chemical_formula_sum "Si O2"
_cell_formula_units_Z 22
_cell_length_a 8.268407
_cell_length_b 12.282152
_cell_length_c 14.184091
_cell_angle_alpha 90.000000
_cell_angle_beta 126.848328
_cell_angle_gamma 90.000000
_cell_volume 1152.684313
_symmetry_space_group_name_H-M "P 2/M"
_symmetry_group_IT_number 10
_symmetry_cell_setting 'monoclinic'
loop_
_space_group_symop_operation_xyz
x,y,z
-x,y,-z
-x,-y,-z
x,-y,z
loop_
_atom_site_type_symbol
_atom_site_label
_atom_site_fract_x
_atom_site_fract_y
_atom_site_fract_z
Si Si1 0.188158 0.000000 0.426172
Si Si2 0.500000 0.247680 0.000000
Si Si3 0.585043 0.000000 0.689546
Si Si4 0.107845 0.623625 0.798996
Si Si5 0.826329 0.376899 0.871798
Si Si6 0.931570 0.786516 0.376426
Si Si7 0.469288 0.190369 0.194911
O O1 0.054155 0.893476 0.390976
O O2 0.359909 0.000000 0.566940
O O3 0.265097 0.000000 0.346052
O O4 0.306015 0.323138 0.914252
O O5 0.547405 0.172425 0.924735
O O6 0.637505 0.100662 0.777106
O O7 0.162529 0.500000 0.790839
O O8 0.032047 0.688867 0.682432
O O9 0.912835 0.626861 0.797378
O O10 0.771436 0.500000 0.883773
O O11 0.623024 0.307439 0.810699
O O12 0.000000 0.328319 0.000000
O O13 0.699864 0.817408 0.303879
O O14 0.000000 0.739928 0.500000
#
# Coordination Sequence:
#
# PCOD8065465 Si02
#       7
#     2   2   2   4   4   4   4
#     4  11  22  43  65  87 117 166 209 242 301 366
#     4  10  21  35  60  88 126 159 199 244 300 370
#     4  11  23  39  67  90 119 159 205 253 297 365
#     4  10  21  37  60  88 122 161 202 246 299 358
#     4  10  20  38  62  86 120 162 204 246 292 358
#     4  11  22  39  63  90 123 159 202 255 298 362
#     4  11  22  38  62  93 120 159 205 248 302 359
#
# _framework density 19.085887
#
# number of rings (size 3 to 8) (size 9 to 14) (size 15 to 20)
#    0.000    1.455    3.636    2.182    0.000    3.636 
#    0.000    1.364    0.000    2.182    0.000    0.000 
#    0.000    0.000    0.000    0.000    0.000    0.000 
#
# Total GULP energy -272747.730730 kJ/mol
# GULP energy per Si atom -12397.624124 kJ/mol
# Density = 1.904245 g / cm^3
# Si number density = 19.085887 Si / 1000 Ang^3
#
#
#
# Elastic Constant Matrix: (Units=GPa)
#
#
# Indices 1 2 3 4 5 6 
#
# 1 100.6573 47.4933 51.5659 0.0000 -7.1212 0.0000
# 2 47.4933 101.0831 62.7798 0.0000 -9.7996 0.0000
# 3 51.5659 62.7798 128.9406 0.0000 -19.0642 0.0000
# 4 0.0000 0.0000 0.0000 24.6459 0.0000 2.0557
# 5 -7.1212 -9.7996 -19.0642 0.0000 36.2788 0.0000
# 6 0.0000 0.0000 0.0000 2.0557 0.0000 35.6343
#
#
#
# Elastic Compliance Matrix: (Units=1/GPa)
#
#
# Indices 1 2 3 4 5 6 
#
# 1 0.013715 -0.004356 -0.003404 0.000000 -0.000274 0.000000
# 2 -0.004356 0.015566 -0.005792 0.000000 0.000306 0.000000
# 3 -0.003404 -0.005792 0.012585 0.000000 0.004380 0.000000
# 4 0.000000 0.000000 0.000000 0.040771 0.000000 -0.002352
# 5 -0.000274 0.000306 0.004380 0.000000 0.029895 0.000000
# 6 0.000000 0.000000 0.000000 -0.002352 0.000000 0.028199
#
#
# Mechanical properties :
#
#
# Convention : Reuss Voigt Hill
#
# Bulk Modulus (GPa) = 67.74418 72.70656 70.22537
# Shear Modulus (GPa) = 28.94283 30.56794 29.75538
#
# Velocity S-wave (km/s) = 3.89839 4.00634 3.95273
# Velocity P-wave (km/s) = 7.47226 7.71869 7.59647
#
# Compressibility (1/GPa) = 0.01476142
#
# Stress axis : x y z
#
# Youngs Moduli (GPa) = 72.91486 64.24172 79.46250
#
# Poissons Ratio (x) = 0.27983 0.27052
# Poissons Ratio (y) = 0.31761 0.46023
# Poissons Ratio (z) = 0.24823 0.37207
#
# Static dielectric constant tensor:
#      x y z
#    x 3.641790 0.000000 -0.199900 
#    y 0.000000 3.436560 0.000000 
#    z -0.199900 0.000000 3.571200 
# 
# 
# High freq. dielectric constant tensor:
#      x y z
#    x 1.758530 0.000000 -0.012850 
#    y 0.000000 1.736040 0.000000 
#    z -0.012850 0.000000 1.740780 
# 
# From -- ./inp_files/60864.got.cif
#   From: 2010.06.25/outbox.cif.g09.slc.cpg/sg10_31_cif.got.tgz:60864.got - 2010.06.27 22:07:45.
