data_PCOD8065154
_publ_section_title
;
Structure prediction by ZEFSAII (Michael W. Deem and Ramdas Pophale) SiO2 
 PCOD8065154
Probable space group: P 2/M
;
_chemical_formula_sum "Si O2"
_cell_formula_units_Z 32
_cell_length_a 12.219863
_cell_length_b 8.974700
_cell_length_c 31.870457
_cell_angle_alpha 90.000000
_cell_angle_beta 28.365750
_cell_angle_gamma 90.000000
_cell_volume 1660.573248
_symmetry_space_group_name_H-M "P 2/M"
_symmetry_group_IT_number 10
_symmetry_cell_setting 'monoclinic'
loop_
_space_group_symop_operation_xyz
x,y,z
-x,y,-z
-x,-y,-z
x,-y,z
loop_
_atom_site_type_symbol
_atom_site_label
_atom_site_fract_x
_atom_site_fract_y
_atom_site_fract_z
Si Si1 0.925628 0.176053 0.571858
Si Si2 0.455095 0.675547 0.758171
Si Si3 0.990211 0.325124 0.141589
Si Si4 0.209166 0.176359 0.637759
Si Si5 0.265943 0.824346 0.905300
Si Si6 0.117312 0.671182 0.188950
Si Si7 0.283993 0.823440 0.519399
Si Si8 0.618131 0.327905 0.051308
O O1 0.691947 0.258091 0.662050
O O2 0.000000 0.219329 0.500000
O O3 0.123991 0.237745 0.536051
O O4 0.887854 0.000000 0.589550
O O5 0.478910 0.500000 0.756936
O O6 0.266762 0.714267 0.786198
O O7 0.378976 0.747540 0.827254
O O8 0.037531 0.500000 0.128156
O O9 0.034504 0.256914 0.172786
O O10 0.171781 0.260041 0.046774
O O11 0.452887 0.232644 0.574954
O O12 0.187237 0.231057 0.596975
O O13 0.998570 0.243938 0.733772
O O14 0.193929 0.000000 0.645270
O O15 0.405491 0.768507 0.898667
O O16 0.294236 0.000000 0.890885
O O17 0.000000 0.776267 0.000000
O O18 0.041749 0.500000 0.217366
O O19 0.390587 0.689772 0.100194
O O20 0.284636 0.000000 0.518330
O O21 0.661418 0.500000 0.049145
#
# Coordination Sequence:
#
# PCOD8065154 Si02
#       8
#     4   4   4   4   4   4   4   4
#     4  10  22  39  60  86 118 154 193 241 296 349
#     4  11  23  39  61  87 117 156 200 240 291 351
#     4   9  19  37  58  80 113 155 191 231 282 340
#     4   9  18  35  58  79 104 145 190 231 281 337
#     4  11  23  39  60  87 119 154 195 244 293 342
#     4  10  21  35  56  86 114 144 190 238 284 335
#     4   8  17  36  57  77 106 146 187 226 278 343
#     4  10  20  37  60  83 114 154 194 232 281 344
#
# _framework density 19.270453
#
# number of rings (size 3 to 8) (size 9 to 14) (size 15 to 20)
#    0.000    2.250    1.250    1.875    3.500    2.750 
#    0.000    3.125    0.000    1.500    0.000    0.000 
#    0.000    0.000    0.000    0.000    0.000    0.000 
#
# Total GULP energy -396830.541459 kJ/mol
# GULP energy per Si atom -12400.954421 kJ/mol
# Density = 1.922659 g / cm^3
# Si number density = 19.270453 Si / 1000 Ang^3
#
#
#
# Elastic Constant Matrix: (Units=GPa)
#
#
# Indices 1 2 3 4 5 6 
#
# 1 151.0264 36.6549 57.0214 0.0000 2.7285 0.0000
# 2 36.6549 46.7737 42.1614 0.0000 1.3935 0.0000
# 3 57.0214 42.1614 123.8039 0.0000 2.7185 0.0000
# 4 0.0000 0.0000 0.0000 33.2469 0.0000 1.5805
# 5 2.7285 1.3935 2.7185 0.0000 30.3221 0.0000
# 6 0.0000 0.0000 0.0000 1.5805 0.0000 20.9199
#
#
#
# Elastic Compliance Matrix: (Units=1/GPa)
#
#
# Indices 1 2 3 4 5 6 
#
# 1 0.008654 -0.004597 -0.002413 0.000000 -0.000351 0.000000
# 2 -0.004597 0.033298 -0.009216 0.000000 -0.000290 0.000000
# 3 -0.002413 -0.009216 0.012337 0.000000 -0.000465 0.000000
# 4 0.000000 0.000000 0.000000 0.030186 0.000000 -0.002281
# 5 -0.000351 -0.000290 -0.000465 0.000000 0.033066 0.000000
# 6 0.000000 0.000000 0.000000 -0.002281 0.000000 0.047974
#
#
# Mechanical properties :
#
#
# Convention : Reuss Voigt Hill
#
# Bulk Modulus (GPa) = 45.79132 65.91994 55.85563
# Shear Modulus (GPa) = 24.36102 29.28221 26.82162
#
# Velocity S-wave (km/s) = 3.55937 3.90236 3.73480
# Velocity P-wave (km/s) = 6.38014 7.38827 6.90263
#
# Compressibility (1/GPa) = 0.02183820
#
# Stress axis : x y z
#
# Youngs Moduli (GPa) = 115.54874 30.03210 81.05472
#
# Poissons Ratio (x) = 0.13805 0.19558
# Poissons Ratio (y) = 0.53114 0.74700
# Poissons Ratio (z) = 0.27881 0.27678
#
# Static dielectric constant tensor:
#      x y z
#    x 3.855000 0.000000 0.005720 
#    y 0.000000 3.214080 0.000000 
#    z 0.005720 0.000000 3.601210 
# 
# 
# High freq. dielectric constant tensor:
#      x y z
#    x 1.765120 0.000000 0.000100 
#    y 0.000000 1.718390 0.000000 
#    z 0.000100 0.000000 1.756510 
# 
# From -- ./inp_files/94935.got.cif
#   From: 2010.06.25/outbox.cif.g09.slc.cpg/sg10_48_cif.got.tgz:94935.got - 2010.06.27 22:07:45.
