data_PCOD8065805
_publ_section_title
;
Structure prediction by ZEFSAII (Michael W. Deem and Ramdas Pophale) SiO2 
 PCOD8065805
Probable space group: P 2/M
;
_chemical_formula_sum "Si O2"
_cell_formula_units_Z 32
_cell_length_a 19.778784
_cell_length_b 9.853758
_cell_length_c 25.682602
_cell_angle_alpha 90.000000
_cell_angle_beta 159.370495
_cell_angle_gamma 90.000000
_cell_volume 1763.527672
_symmetry_space_group_name_H-M "P 2/M"
_symmetry_group_IT_number 10
_symmetry_cell_setting 'monoclinic'
loop_
_space_group_symop_operation_xyz
x,y,z
-x,y,-z
-x,-y,-z
x,-y,z
loop_
_atom_site_type_symbol
_atom_site_label
_atom_site_fract_x
_atom_site_fract_y
_atom_site_fract_z
Si Si1 0.703509 0.656259 0.120605
Si Si2 0.669237 0.842022 0.491262
Si Si3 0.689012 0.656785 0.604859
Si Si4 0.091809 0.654567 0.941683
Si Si5 0.957944 0.157299 0.607206
Si Si6 0.367209 0.849701 0.703433
Si Si7 0.338030 0.849678 0.178647
Si Si8 0.376542 0.656625 0.054115
O O1 0.767133 0.500000 0.172110
O O2 0.855348 0.749441 0.259735
O O3 0.500000 0.682274 0.000000
O O4 0.695616 0.699810 0.054623
O O5 0.709299 0.750040 0.569511
O O6 0.829853 0.805019 0.564754
O O7 0.456869 0.808058 0.315850
O O8 0.681902 0.000000 0.515914
O O9 0.500000 0.697530 0.500000
O O10 0.684902 0.500000 0.583840
O O11 0.868336 0.684412 0.771970
O O12 0.128720 0.500000 0.984782
O O13 0.165399 0.745703 0.042843
O O14 0.203777 0.688714 0.969103
O O15 0.841044 0.188218 0.469804
O O16 0.018707 0.000000 0.653100
O O17 0.514364 0.849372 0.762126
O O18 0.433386 0.742289 0.794508
O O19 0.361824 0.000000 0.724845
O O20 0.249262 0.000000 0.121444
O O21 0.438560 0.500000 0.100021
#
# Coordination Sequence:
#
# PCOD8065805 Si02
#       8
#     4   4   4   4   4   4   4   4
#     4  10  21  35  49  69 100 135 168 202 241 286
#     4   9  18  33  53  76  99 124 159 202 245 291
#     4  10  21  35  49  69 100 135 168 202 241 286
#     4   9  17  30  49  72  95 121 158 201 241 285
#     4   9  18  33  53  76  99 124 159 202 245 291
#     4   8  15  29  49  73  98 121 151 196 245 290
#     4   8  15  29  49  73  98 121 151 196 245 290
#     4   9  17  30  49  72  95 121 158 201 241 285
#
# _framework density 18.145447000000001
#
# number of rings (size 3 to 8) (size 9 to 14) (size 15 to 20)
#    0.000    3.000    0.000    2.250    0.000    4.000 
#    0.000    6.250    0.000    7.500    0.000    0.000 
#    0.000    0.000    0.000    0.000    0.000    0.000 
#
# Total GULP energy -396760.758551 kJ/mol
# GULP energy per Si atom -12398.773705 kJ/mol
# Density = 1.810415 g / cm^3
# Si number density = 18.145447 Si / 1000 Ang^3
#
#
#
# Elastic Constant Matrix: (Units=GPa)
#
#
# Indices 1 2 3 4 5 6 
#
# 1 14.5916 16.4316 17.5619 0.0000 7.0260 0.0000
# 2 16.4316 77.4504 66.7294 0.0000 -1.0612 0.0000
# 3 17.5619 66.7294 122.2723 0.0000 0.5937 0.0000
# 4 0.0000 0.0000 0.0000 36.9750 0.0000 -9.6873
# 5 7.0260 -1.0612 0.5937 0.0000 14.9414 0.0000
# 6 0.0000 0.0000 0.0000 -9.6873 0.0000 14.9371
#
#
#
# Elastic Compliance Matrix: (Units=1/GPa)
#
#
# Indices 1 2 3 4 5 6 
#
# 1 0.133822 -0.024507 -0.005533 0.000000 -0.064449 0.000000
# 2 -0.024507 0.028935 -0.012339 0.000000 0.014069 0.000000
# 3 -0.005533 -0.012339 0.015702 0.000000 0.001102 0.000000
# 4 0.000000 0.000000 0.000000 0.032581 0.000000 0.021130
# 5 -0.064449 0.014069 0.001102 0.000000 0.098190 0.000000
# 6 0.000000 0.000000 0.000000 0.021130 0.000000 0.080651
#
#
# Mechanical properties :
#
#
# Convention : Reuss Voigt Hill
#
# Bulk Modulus (GPa) = 10.67236 46.19555 28.43396
# Shear Modulus (GPa) = 9.88387 20.94348 15.41368
#
# Velocity S-wave (km/s) = 2.33642 3.40104 2.91770
# Velocity P-wave (km/s) = 3.62944 6.39816 5.20141
#
# Compressibility (1/GPa) = 0.09369996
#
# Stress axis : x y z
#
# Youngs Moduli (GPa) = 7.47259 34.56032 63.68590
#
# Poissons Ratio (x) = 0.84696 0.35240
# Poissons Ratio (y) = 0.18313 0.78585
# Poissons Ratio (z) = 0.04135 0.42646
#
# Static dielectric constant tensor:
#      x y z
#    x 3.040610 0.000000 -0.115900 
#    y 0.000000 3.450070 0.000000 
#    z -0.115900 0.000000 3.448040 
# 
# 
# High freq. dielectric constant tensor:
#      x y z
#    x 1.671680 0.000000 -0.009810 
#    y 0.000000 1.703470 0.000000 
#    z -0.009810 0.000000 1.707570 
# 
# From -- ./inp_files/86941.got.cif
#   From: 2010.06.25/outbox.cif.g09.slc.cpg/sg10_44_cif.got.tgz:86941.got - 2010.06.27 22:07:45.
