data_PCOD8065829
_publ_section_title
;
Structure prediction by ZEFSAII (Michael W. Deem and Ramdas Pophale) SiO2 
 PCOD8065829
Probable space group: P 2/M
;
_chemical_formula_sum "Si O2"
_cell_formula_units_Z 32
_cell_length_a 14.320566
_cell_length_b 9.033852
_cell_length_c 24.414546
_cell_angle_alpha 90.000000
_cell_angle_beta 31.770339
_cell_angle_gamma 90.000000
_cell_volume 1663.003545
_symmetry_space_group_name_H-M "P 2/M"
_symmetry_group_IT_number 10
_symmetry_cell_setting 'monoclinic'
loop_
_space_group_symop_operation_xyz
x,y,z
-x,y,-z
-x,-y,-z
x,-y,z
loop_
_atom_site_type_symbol
_atom_site_label
_atom_site_fract_x
_atom_site_fract_y
_atom_site_fract_z
Si Si1 0.694601 0.829768 0.525476
Si Si2 0.964244 0.175563 0.706321
Si Si3 0.009142 0.825522 0.807521
Si Si4 0.267432 0.824883 0.963998
Si Si5 0.293153 0.329119 0.844198
Si Si6 0.666279 0.830468 0.777346
Si Si7 0.680222 0.325592 0.290354
Si Si8 0.647189 0.833724 0.668439
O O1 0.850707 0.762105 0.410207
O O2 0.515147 0.740467 0.604699
O O3 0.760626 0.816051 0.556267
O O4 0.656055 0.000000 0.529459
O O5 0.944235 0.220159 0.779462
O O6 0.797917 0.246203 0.755698
O O7 0.966059 0.000000 0.696793
O O8 0.193932 0.744295 0.726596
O O9 0.041314 0.000000 0.796135
O O10 0.859273 0.769669 0.924257
O O11 0.195797 0.761083 0.941397
O O12 0.466417 0.763380 0.877371
O O13 0.266523 0.000000 0.959538
O O14 0.259586 0.500000 0.873247
O O15 0.232063 0.287173 0.812879
O O16 0.500418 0.292927 0.741842
O O17 0.753999 0.814676 0.672439
O O18 0.647224 0.000000 0.804415
O O19 0.665626 0.500000 0.306082
O O20 0.559975 0.000000 0.712545
#
# Coordination Sequence:
#
# PCOD8065829 Si02
#       8
#     4   4   4   4   4   4   4   4
#     4   9  17  31  52  76 102 131 162 200 245 291
#     4   9  18  31  49  75 102 130 168 207 240 281
#     4  10  21  35  50  71  99 132 171 208 241 284
#     4   9  18  32  51  75 102 131 161 198 245 292
#     4   9  17  30  50  74  98 124 158 200 247 300
#     4   8  14  27  48  75 104 129 158 199 243 288
#     4  10  21  36  53  73  98 129 163 203 252 298
#     4   8  14  26  47  75 103 128 157 195 242 294
#
# _framework density 19.242293
#
# number of rings (size 3 to 8) (size 9 to 14) (size 15 to 20)
#    0.000    3.000    0.000    1.500    0.000    4.000 
#    0.000   10.625    0.000    6.000    0.000   15.750 
#    0.000    0.000    0.000    0.000    0.000    0.000 
#
# Total GULP energy -396475.231980 kJ/mol
# GULP energy per Si atom -12389.850999 kJ/mol
# Density = 1.919850 g / cm^3
# Si number density = 19.242293 Si / 1000 Ang^3
#
#
#
# Elastic Constant Matrix: (Units=GPa)
#
#
# Indices 1 2 3 4 5 6 
#
# 1 88.8787 18.1901 11.2904 0.0000 0.5735 0.0000
# 2 18.1901 28.4480 9.3522 0.0000 0.1143 0.0000
# 3 11.2904 9.3522 72.7212 0.0000 9.1380 0.0000
# 4 0.0000 0.0000 0.0000 10.5891 0.0000 4.4081
# 5 0.5735 0.1143 9.1380 0.0000 27.3787 0.0000
# 6 0.0000 0.0000 0.0000 4.4081 0.0000 9.1900
#
#
#
# Elastic Compliance Matrix: (Units=1/GPa)
#
#
# Indices 1 2 3 4 5 6 
#
# 1 0.013014 -0.007991 -0.001005 0.000000 0.000096 0.000000
# 2 -0.007991 0.041669 -0.004297 0.000000 0.001428 0.000000
# 3 -0.001005 -0.004297 0.015088 0.000000 -0.004997 0.000000
# 4 0.000000 0.000000 0.000000 0.117998 0.000000 -0.056599
# 5 0.000096 0.001428 -0.004997 0.000000 0.038185 0.000000
# 6 0.000000 0.000000 0.000000 -0.056599 0.000000 0.135962
#
#
# Mechanical properties :
#
#
# Convention : Reuss Voigt Hill
#
# Bulk Modulus (GPa) = 23.15723 29.74591 26.45157
# Shear Modulus (GPa) = 12.41015 19.51257 15.96136
#
# Velocity S-wave (km/s) = 2.54232 3.18786 2.88322
# Velocity P-wave (km/s) = 4.54737 5.38908 4.98601
#
# Compressibility (1/GPa) = 0.04318306
#
# Stress axis : x y z
#
# Youngs Moduli (GPa) = 76.84139 23.99886 66.27909
#
# Poissons Ratio (x) = 0.19178 0.06660
# Poissons Ratio (y) = 0.61406 0.28483
# Poissons Ratio (z) = 0.07721 0.10313
#
# Static dielectric constant tensor:
#      x y z
#    x 3.687060 0.000000 0.197070 
#    y 0.000000 3.123490 0.000000 
#    z 0.197070 0.000000 3.532150 
# 
# 
# High freq. dielectric constant tensor:
#      x y z
#    x 1.748820 0.000000 0.014970 
#    y 0.000000 1.707470 0.000000 
#    z 0.014970 0.000000 1.740190 
# 
# From -- ./inp_files/89547.got.cif
#   From: 2010.06.25/outbox.cif.g09.slc.cpg/sg10_45_cif.got.tgz:89547.got - 2010.06.27 22:07:45.
