data_PCOD8065883
_publ_section_title
;
Structure prediction by ZEFSAII (Michael W. Deem and Ramdas Pophale) SiO2 
 PCOD8065883
Probable space group: P 2/M
;
_chemical_formula_sum "Si O2"
_cell_formula_units_Z 28
_cell_length_a 9.184100
_cell_length_b 9.069382
_cell_length_c 28.881732
_cell_angle_alpha 90.000000
_cell_angle_beta 142.146272
_cell_angle_gamma 90.000000
_cell_volume 1476.238981
_symmetry_space_group_name_H-M "P 2/M"
_symmetry_group_IT_number 10
_symmetry_cell_setting 'monoclinic'
loop_
_space_group_symop_operation_xyz
x,y,z
-x,y,-z
-x,-y,-z
x,-y,z
loop_
_atom_site_type_symbol
_atom_site_label
_atom_site_fract_x
_atom_site_fract_y
_atom_site_fract_z
Si Si1 0.087907 0.673272 0.071921
Si Si2 0.770294 0.167749 0.063224
Si Si3 0.016301 0.174278 0.367908
Si Si4 0.159735 0.669900 0.496547
Si Si5 0.525353 0.826678 0.776363
Si Si6 0.165666 0.832540 0.233047
Si Si7 0.290769 0.670845 0.355427
O O1 0.126212 0.500000 0.083471
O O2 0.338941 0.748285 0.147348
O O3 0.885971 0.719831 0.056841
O O4 0.000000 0.727216 0.000000
O O5 0.901818 0.180116 0.145638
O O6 0.793145 0.000000 0.050274
O O7 0.500000 0.216459 0.000000
O O8 0.089028 0.226493 0.436755
O O9 0.189678 0.245158 0.374203
O O10 0.746769 0.223522 0.290323
O O11 0.043562 0.000000 0.372217
O O12 0.118602 0.500000 0.472023
O O13 0.430160 0.699929 0.578037
O O14 0.000000 0.714885 0.500000
O O15 0.640746 0.779590 0.756250
O O16 0.557309 0.000000 0.791264
O O17 0.170993 0.727853 0.278564
O O18 0.220033 0.000000 0.262289
O O19 0.230237 0.500000 0.346187
#
# Coordination Sequence:
#
# PCOD8065883 Si02
#       7
#     4   4   4   4   4   4   4
#     4  10  21  35  53  81 113 143 180 227 274 322
#     4   9  19  36  57  80 108 145 186 227 273 325
#     4  11  23  38  58  84 112 142 180 227 272 316
#     4  10  22  40  60  82 110 145 183 221 266 324
#     4   9  20  38  58  80 106 141 184 225 270 326
#     4   9  18  35  57  80 106 137 181 230 269 316
#     4  11  23  37  55  81 113 147 180 218 270 327
#
# _framework density 18.967116000000001
#
# number of rings (size 3 to 8) (size 9 to 14) (size 15 to 20)
#    0.000    2.143    0.000    3.429    0.000    9.143 
#    0.000    4.286    0.000    0.000    0.000    0.000 
#    0.000    0.000    0.000    0.000    0.000    0.000 
#
# Total GULP energy -347301.352307 kJ/mol
# GULP energy per Si atom -12403.619725 kJ/mol
# Density = 1.892395 g / cm^3
# Si number density = 18.967116 Si / 1000 Ang^3
#
#
#
# Elastic Constant Matrix: (Units=GPa)
#
#
# Indices 1 2 3 4 5 6 
#
# 1 105.9297 37.8466 57.1493 0.0000 0.8838 0.0000
# 2 37.8466 63.2676 49.4027 0.0000 -7.9066 0.0000
# 3 57.1493 49.4027 113.1706 0.0000 -6.0091 0.0000
# 4 0.0000 0.0000 0.0000 31.3588 0.0000 -10.5310
# 5 0.8838 -7.9066 -6.0091 0.0000 36.1812 0.0000
# 6 0.0000 0.0000 0.0000 -10.5310 0.0000 24.8896
#
#
#
# Elastic Compliance Matrix: (Units=1/GPa)
#
#
# Indices 1 2 3 4 5 6 
#
# 1 0.013850 -0.004561 -0.005119 0.000000 -0.002185 0.000000
# 2 -0.004561 0.025938 -0.008790 0.000000 0.004320 0.000000
# 3 -0.005119 -0.008790 0.015298 0.000000 0.000745 0.000000
# 4 0.000000 0.000000 0.000000 0.037171 0.000000 0.015727
# 5 -0.002185 0.004320 0.000745 0.000000 0.028760 0.000000
# 6 0.000000 0.000000 0.000000 0.015727 0.000000 0.046832
#
#
# Mechanical properties :
#
#
# Convention : Reuss Voigt Hill
#
# Bulk Modulus (GPa) = 55.10997 63.46278 59.28638
# Shear Modulus (GPa) = 23.71514 27.68387 25.69950
#
# Velocity S-wave (km/s) = 3.53984 3.82458 3.68496
# Velocity P-wave (km/s) = 6.76948 7.28253 7.03069
#
# Compressibility (1/GPa) = 0.01814554
#
# Stress axis : x y z
#
# Youngs Moduli (GPa) = 72.20429 38.55371 65.36812
#
# Poissons Ratio (x) = 0.17583 0.33461
# Poissons Ratio (y) = 0.32931 0.57460
# Poissons Ratio (z) = 0.36961 0.33890
#
# Static dielectric constant tensor:
#      x y z
#    x 3.522810 0.000000 0.130590 
#    y 0.000000 3.434120 0.000000 
#    z 0.130590 0.000000 3.628230 
# 
# 
# High freq. dielectric constant tensor:
#      x y z
#    x 1.735630 0.000000 0.004400 
#    y 0.000000 1.737720 0.000000 
#    z 0.004400 0.000000 1.749030 
# 
# From -- ./inp_files/36926.got.cif
#   From: 2010.06.25/outbox.cif.g09.slc.cpg/sg10_19_cif.got.tgz:36926.got - 2010.06.27 22:07:45.
