data_PCOD8065706
_publ_section_title
;
Structure prediction by ZEFSAII (Michael W. Deem and Ramdas Pophale) SiO2 
 PCOD8065706
Probable space group: P 2/M
;
_chemical_formula_sum "Si O2"
_cell_formula_units_Z 18
_cell_length_a 5.385852
_cell_length_b 16.955186
_cell_length_c 10.035562
_cell_angle_alpha 90.000000
_cell_angle_beta 74.529878
_cell_angle_gamma 90.000000
_cell_volume 883.226174
_symmetry_space_group_name_H-M "P 2/M"
_symmetry_group_IT_number 10
_symmetry_cell_setting 'monoclinic'
loop_
_space_group_symop_operation_xyz
x,y,z
-x,y,-z
-x,-y,-z
x,-y,z
loop_
_atom_site_type_symbol
_atom_site_label
_atom_site_fract_x
_atom_site_fract_y
_atom_site_fract_z
Si Si1 0.000000 0.295236 0.500000
Si Si2 0.698133 0.847584 0.633357
Si Si3 0.715732 0.592335 0.066859
Si Si4 0.816260 0.089498 0.336795
Si Si5 0.731253 0.411613 0.364266
O O1 0.246782 0.241248 0.426385
O O2 0.052790 0.349874 0.620607
O O3 0.398406 0.860227 0.717266
O O4 0.746915 0.907141 0.503172
O O5 0.898923 0.871144 0.722736
O O6 0.728388 0.500000 0.033694
O O7 0.633055 0.609956 0.230746
O O8 0.500000 0.630904 0.000000
O O9 0.000000 0.629049 0.000000
O O10 0.819331 0.000000 0.284557
O O11 0.500000 0.406302 0.500000
O O12 0.851839 0.500000 0.346739
#
# Coordination Sequence:
#
# PCOD8065706 Si02
#       5
#     2   4   4   4   4
#     4  10  21  30  45  64 102 128 166 208 253 304
#     4   9  17  24  38  58  85 122 157 192 240 284
#     4   9  19  36  55  74  96 123 161 212 264 307
#     4   9  14  24  38  56  80 116 166 196 218 278
#     4  10  22  35  53  74  98 133 175 220 258 300
#
# _framework density 20.379830999999999
#
# number of rings (size 3 to 8) (size 9 to 14) (size 15 to 20)
#    0.000    2.889    0.000    3.667    9.333    0.000 
#    0.000    0.000    0.000    0.000    0.000    0.000 
#    0.000    0.000    0.000    0.000    0.000  471.111 
#
# Total GULP energy -223017.901124 kJ/mol
# GULP energy per Si atom -12389.883396 kJ/mol
# Density = 2.033345 g / cm^3
# Si number density = 20.379831 Si / 1000 Ang^3
#
#
#
# Elastic Constant Matrix: (Units=GPa)
#
#
# Indices 1 2 3 4 5 6 
#
# 1 197.2108 47.8644 45.5833 0.0000 28.7583 0.0000
# 2 47.8644 102.6724 25.7441 0.0000 20.6367 0.0000
# 3 45.5833 25.7441 88.5289 0.0000 11.9872 0.0000
# 4 0.0000 0.0000 0.0000 2.2880 0.0000 4.9003
# 5 28.7583 20.6367 11.9872 0.0000 23.2783 0.0000
# 6 0.0000 0.0000 0.0000 4.9003 0.0000 26.8614
#
#
#
# Elastic Compliance Matrix: (Units=1/GPa)
#
#
# Indices 1 2 3 4 5 6 
#
# 1 0.006814 -0.001396 -0.002290 0.000000 -0.006001 0.000000
# 2 -0.001396 0.012541 -0.001780 0.000000 -0.008476 0.000000
# 3 -0.002290 -0.001780 0.013325 0.000000 -0.002455 0.000000
# 4 0.000000 0.000000 0.000000 0.717313 0.000000 -0.130858
# 5 -0.006001 -0.008476 -0.002455 0.000000 0.059150 0.000000
# 6 0.000000 0.000000 0.000000 -0.130858 0.000000 0.061100
#
#
# Mechanical properties :
#
#
# Convention : Reuss Voigt Hill
#
# Bulk Modulus (GPa) = 45.98386 69.64396 57.81391
# Shear Modulus (GPa) = 5.62794 28.43357 17.03075
#
# Velocity S-wave (km/s) = 1.66359 3.73927 2.89393
# Velocity P-wave (km/s) = 5.12859 7.27255 6.29255
#
# Compressibility (1/GPa) = 0.02174676
#
# Stress axis : x y z
#
# Youngs Moduli (GPa) = 146.75691 79.74106 75.04779
#
# Poissons Ratio (x) = 0.11134 0.17185
# Poissons Ratio (y) = 0.20490 0.13360
# Poissons Ratio (z) = 0.33606 0.14196
#
# Static dielectric constant tensor:
#      x y z
#    x 4.761800 0.000000 0.362470 
#    y 0.000000 3.525460 0.000000 
#    z 0.362470 0.000000 3.076270 
# 
# 
# High freq. dielectric constant tensor:
#      x y z
#    x 1.819540 0.000000 0.020760 
#    y 0.000000 1.775350 0.000000 
#    z 0.020760 0.000000 1.710140 
# 
# From -- ./inp_files/14716.got.cif
#   From: 2010.06.25/outbox.cif.g09.slc.cpg/sg10_8_cif.got.tgz:14716.got - 2010.06.27 22:07:45.
