data_PCOD8065563
_publ_section_title
;
Structure prediction by ZEFSAII (Michael W. Deem and Ramdas Pophale) SiO2 
 PCOD8065563
Probable space group: P 2/M
;
_chemical_formula_sum "Si O2"
_cell_formula_units_Z 28
_cell_length_a 11.924267
_cell_length_b 9.125315
_cell_length_c 14.077887
_cell_angle_alpha 90.000000
_cell_angle_beta 73.035904
_cell_angle_gamma 90.000000
_cell_volume 1465.198475
_symmetry_space_group_name_H-M "P 2/M"
_symmetry_group_IT_number 10
_symmetry_cell_setting 'monoclinic'
loop_
_space_group_symop_operation_xyz
x,y,z
-x,y,-z
-x,-y,-z
x,-y,z
loop_
_atom_site_type_symbol
_atom_site_label
_atom_site_fract_x
_atom_site_fract_y
_atom_site_fract_z
Si Si1 0.285405 0.329563 0.846684
Si Si2 0.834760 0.825973 0.805368
Si Si3 0.665377 0.173914 0.519283
Si Si4 0.023172 0.666743 0.883822
Si Si5 0.363909 0.672261 0.035746
Si Si6 0.883796 0.174492 0.579121
Si Si7 0.579121 0.172734 0.342712
O O1 0.309463 0.500000 0.828701
O O2 0.158331 0.286505 0.836553
O O3 0.383024 0.244679 0.764296
O O4 0.300044 0.286301 0.953073
O O5 0.709246 0.756156 0.864654
O O6 0.869693 0.773141 0.691032
O O7 0.939727 0.775300 0.847497
O O8 0.822516 0.000000 0.814726
O O9 0.777835 0.241165 0.543346
O O10 0.664061 0.220475 0.408835
O O11 0.550415 0.231631 0.601771
O O12 0.665379 0.000000 0.525296
O O13 0.999862 0.500000 0.855553
O O14 0.000000 0.680288 0.000000
O O15 0.356526 0.500000 0.059050
O O16 0.500000 0.723568 0.000000
O O17 0.000000 0.237604 0.500000
O O18 0.884097 0.000000 0.575340
O O19 0.580621 0.000000 0.328242
#
# Coordination Sequence:
#
# PCOD8065563 Si02
#       7
#     4   4   4   4   4   4   4
#     4  10  21  36  56  82 108 143 186 226 277 331
#     4  11  23  36  58  90 115 142 187 241 285 321
#     4   8  16  33  52  75 108 146 182 214 273 341
#     4  10  20  39  60  75 107 152 186 219 270 336
#     4  10  22  41  61  80 112 158 195 220 271 350
#     4   9  19  34  52  77 114 150 178 220 279 338
#     4   9  18  32  56  82 105 139 181 228 272 325
#
# _framework density 19.110037999999999
#
# number of rings (size 3 to 8) (size 9 to 14) (size 15 to 20)
#    0.000    2.429    1.429    1.286    4.000    1.714 
#    0.000    1.429    0.000    3.429    0.000    0.000 
#    0.000    0.000    0.000    0.000    0.000    0.000 
#
# Total GULP energy -347137.351034 kJ/mol
# GULP energy per Si atom -12397.762537 kJ/mol
# Density = 1.906654 g / cm^3
# Si number density = 19.110038 Si / 1000 Ang^3
#
#
#
# Elastic Constant Matrix: (Units=GPa)
#
#
# Indices 1 2 3 4 5 6 
#
# 1 136.3481 32.8744 58.2478 0.0000 -2.5539 0.0000
# 2 32.8744 35.4745 33.5270 0.0000 -7.9533 0.0000
# 3 58.2478 33.5270 115.2310 0.0000 -22.7393 0.0000
# 4 0.0000 0.0000 0.0000 -2.8189 0.0000 8.6789
# 5 -2.5539 -7.9533 -22.7393 0.0000 25.4853 0.0000
# 6 0.0000 0.0000 0.0000 8.6789 0.0000 8.0974
#
#
#
# Elastic Compliance Matrix: (Units=1/GPa)
#
#
# Indices 1 2 3 4 5 6 
#
# 1 0.010813 -0.006958 -0.004437 0.000000 -0.005047 0.000000
# 2 -0.006958 0.043488 -0.008005 0.000000 0.005732 0.000000
# 3 -0.004437 -0.008005 0.015377 0.000000 0.010777 0.000000
# 4 0.000000 0.000000 0.000000 -0.082500 0.000000 0.088425
# 5 -0.005047 0.005732 0.010777 0.000000 0.050137 0.000000
# 6 0.000000 0.000000 0.000000 0.088425 0.000000 0.028721
#
#
# Mechanical properties :
#
#
# Convention : Reuss Voigt Hill
#
# Bulk Modulus (GPa) = 32.38600 59.59469 45.99035
# Shear Modulus (GPa) = 43.42985 16.97971 30.20478
#
# Velocity S-wave (km/s) = 4.77237 2.98404 3.97995
# Velocity P-wave (km/s) = 6.88123 6.56699 6.72595
#
# Compressibility (1/GPa) = 0.03087754
#
# Stress axis : x y z
#
# Youngs Moduli (GPa) = 92.48224 22.99498 65.03261
#
# Poissons Ratio (x) = 0.16001 0.28856
# Poissons Ratio (y) = 0.64352 0.52055
# Poissons Ratio (z) = 0.41036 0.18406
#
# Static dielectric constant tensor:
#      x y z
#    x 3.930550 0.000000 0.010040 
#    y 0.000000 3.096500 0.000000 
#    z 0.010040 0.000000 3.579690 
# 
# 
# High freq. dielectric constant tensor:
#      x y z
#    x 1.756440 0.000000 -0.003670 
#    y 0.000000 1.703580 0.000000 
#    z -0.003670 0.000000 1.750000 
# 
# From -- ./inp_files/50095.got.cif
#   From: 2010.06.25/outbox.cif.g09.slc.cpg/sg10_26_cif.got.tgz:50095.got - 2010.06.27 22:07:45.
