data_PCOD8065739
_publ_section_title
;
Structure prediction by ZEFSAII (Michael W. Deem and Ramdas Pophale) SiO2 
 PCOD8065739
Probable space group: P 2/M
;
_chemical_formula_sum "Si O2"
_cell_formula_units_Z 32
_cell_length_a 9.300740
_cell_length_b 13.556524
_cell_length_c 31.916359
_cell_angle_alpha 90.000000
_cell_angle_beta 151.382747
_cell_angle_gamma 90.000000
_cell_volume 1927.413988
_symmetry_space_group_name_H-M "P 2/M"
_symmetry_group_IT_number 10
_symmetry_cell_setting 'monoclinic'
loop_
_space_group_symop_operation_xyz
x,y,z
-x,y,-z
-x,-y,-z
x,-y,z
loop_
_atom_site_type_symbol
_atom_site_label
_atom_site_fract_x
_atom_site_fract_y
_atom_site_fract_z
Si Si1 0.230882 0.382829 0.272788
Si Si2 0.651453 0.612225 0.078709
Si Si3 0.906533 0.698333 0.268581
Si Si4 0.136166 0.888424 0.453622
Si Si5 0.336442 0.613049 0.083693
Si Si6 0.164520 0.614743 0.416965
Si Si7 0.869558 0.700952 0.421839
Si Si8 0.830133 0.888210 0.635267
O O1 0.287388 0.500000 0.283975
O O2 0.517952 0.321387 0.332289
O O3 0.971007 0.343577 0.174844
O O4 0.128779 0.359622 0.294113
O O5 0.717864 0.500000 0.082994
O O6 0.415994 0.619556 0.055635
O O7 0.500000 0.667399 0.000000
O O8 0.558999 0.680170 0.168205
O O9 0.956481 0.662048 0.328458
O O10 0.978320 0.815385 0.286046
O O11 0.479359 0.873025 0.555446
O O12 0.104028 0.863893 0.396394
O O13 0.922942 0.816412 0.425743
O O14 0.032568 0.000000 0.436427
O O15 0.358177 0.500000 0.105516
O O16 0.000000 0.654757 0.000000
O O17 0.500000 0.660495 0.500000
O O18 0.176056 0.500000 0.411249
O O19 0.033210 0.634839 0.429134
O O20 0.000000 0.670388 0.500000
O O21 0.926827 0.000000 0.670401
#
# Coordination Sequence:
#
# PCOD8065739 Si02
#       8
#     4   4   4   4   4   4   4   4
#     4  10  21  34  48  71 104 139 169 201 247 297
#     4   8  15  30  49  66  91 128 164 198 240 289
#     4  11  19  34  55  73 100 132 172 210 254 305
#     4   9  18  34  53  73  97 127 167 216 263 300
#     4   9  18  31  49  75 103 130 165 209 249 288
#     4  11  22  33  47  68  96 135 176 205 240 296
#     4  12  23  33  47  69 102 136 168 207 246 295
#     4   9  17  32  56  77  95 124 166 217 265 305
#
# _framework density 16.602557000000001
#
# number of rings (size 3 to 8) (size 9 to 14) (size 15 to 20)
#    0.000    2.125    1.250    5.250    0.000    3.250 
#    0.000    3.125    0.000    0.375    0.000    0.000 
#    0.000    3.000    0.000    0.000    0.000    0.000 
#
# Total GULP energy -396750.549054 kJ/mol
# GULP energy per Si atom -12398.454658 kJ/mol
# Density = 1.656477 g / cm^3
# Si number density = 16.602557 Si / 1000 Ang^3
#
#
#
# Elastic Constant Matrix: (Units=GPa)
#
#
# Indices 1 2 3 4 5 6 
#
# 1 83.1772 28.0963 59.0382 0.0000 8.1547 0.0000
# 2 28.0963 81.0051 53.0746 0.0000 3.2550 0.0000
# 3 59.0382 53.0746 120.9689 0.0000 8.1416 0.0000
# 4 0.0000 0.0000 0.0000 19.8019 0.0000 -1.0328
# 5 8.1547 3.2550 8.1416 0.0000 32.9142 0.0000
# 6 0.0000 0.0000 0.0000 -1.0328 0.0000 27.9907
#
#
#
# Elastic Compliance Matrix: (Units=1/GPa)
#
#
# Indices 1 2 3 4 5 6 
#
# 1 0.018609 -0.000720 -0.008604 0.000000 -0.002411 0.000000
# 2 -0.000720 0.017354 -0.007280 0.000000 0.000263 0.000000
# 3 -0.008604 -0.007280 0.015730 0.000000 -0.001039 0.000000
# 4 0.000000 0.000000 0.000000 0.050598 0.000000 0.001867
# 5 -0.002411 0.000263 -0.001039 0.000000 0.031210 0.000000
# 6 0.000000 0.000000 0.000000 0.001867 0.000000 0.035795
#
#
# Mechanical properties :
#
#
# Convention : Reuss Voigt Hill
#
# Bulk Modulus (GPa) = 54.10001 62.84104 58.47052
# Shear Modulus (GPa) = 23.96173 25.80415 24.88294
#
# Velocity S-wave (km/s) = 3.80314 3.94665 3.87556
# Velocity P-wave (km/s) = 7.20703 7.66162 7.43780
#
# Compressibility (1/GPa) = 0.01848429
#
# Stress axis : x y z
#
# Youngs Moduli (GPa) = 53.73733 57.62303 63.57428
#
# Poissons Ratio (x) = 0.04152 0.54697
# Poissons Ratio (y) = 0.03872 0.46283
# Poissons Ratio (z) = 0.46234 0.41950
#
# Static dielectric constant tensor:
#      x y z
#    x 3.087780 0.000000 -0.053220 
#    y 0.000000 3.055100 0.000000 
#    z -0.053220 0.000000 3.189280 
# 
# 
# High freq. dielectric constant tensor:
#      x y z
#    x 1.639190 0.000000 -0.003320 
#    y 0.000000 1.620250 0.000000 
#    z -0.003320 0.000000 1.629680 
# 
# From -- ./inp_files/94684.got.cif
#   From: 2010.06.25/outbox.cif.g09.slc.cpg/sg10_48_cif.got.tgz:94684.got - 2010.06.27 22:07:45.
