data_PCOD8065751
_publ_section_title
;
Structure prediction by ZEFSAII (Michael W. Deem and Ramdas Pophale) SiO2 
 PCOD8065751
Probable space group: P 2/M
;
_chemical_formula_sum "Si O2"
_cell_formula_units_Z 28
_cell_length_a 14.073174
_cell_length_b 9.244145
_cell_length_c 16.619454
_cell_angle_alpha 90.000000
_cell_angle_beta 137.774516
_cell_angle_gamma 90.000000
_cell_volume 1453.038612
_symmetry_space_group_name_H-M "P 2/M"
_symmetry_group_IT_number 10
_symmetry_cell_setting 'monoclinic'
loop_
_space_group_symop_operation_xyz
x,y,z
-x,y,-z
-x,-y,-z
x,-y,z
loop_
_atom_site_type_symbol
_atom_site_label
_atom_site_fract_x
_atom_site_fract_y
_atom_site_fract_z
Si Si1 0.594572 0.170272 0.487888
Si Si2 0.839988 0.671051 0.378724
Si Si3 0.314501 0.831743 0.045203
Si Si4 0.596569 0.168985 0.310334
Si Si5 0.180072 0.835202 0.794650
Si Si6 0.095039 0.166253 0.279817
Si Si7 0.060294 0.335121 0.949659
O O1 0.500000 0.242041 0.500000
O O2 0.540232 0.211918 0.364388
O O3 0.755414 0.224897 0.595257
O O4 0.589982 0.000000 0.496451
O O5 0.822335 0.500000 0.368368
O O6 0.736465 0.739605 0.379823
O O7 0.791963 0.729745 0.261833
O O8 0.000000 0.717776 0.500000
O O9 0.475132 0.794020 0.169306
O O10 0.280597 0.000000 0.038169
O O11 0.285865 0.791929 0.933891
O O12 0.211140 0.743466 0.038564
O O13 0.637418 0.000000 0.333424
O O14 0.018326 0.815370 0.720311
O O15 0.209445 0.000000 0.785653
O O16 0.055087 0.262177 0.179116
O O17 0.101791 0.000000 0.255710
O O18 0.081752 0.500000 0.936425
O O19 0.000000 0.321161 0.000000
#
# Coordination Sequence:
#
# PCOD8065751 Si02
#       7
#     4   4   4   4   4   4   4
#     4   9  18  32  54  85 113 140 181 231 280 331
#     4  11  24  39  57  83 113 149 191 230 275 333
#     4   9  20  37  58  85 112 144 186 230 280 334
#     4  10  21  38  60  85 114 147 183 231 286 332
#     4   9  18  35  57  83 112 143 185 232 280 332
#     4   9  18  33  55  81 108 141 183 231 278 326
#     4  10  21  34  51  77 110 149 189 229 274 327
#
# _framework density 19.269962
#
# number of rings (size 3 to 8) (size 9 to 14) (size 15 to 20)
#    0.000    2.429    0.000    2.571    2.000    6.857 
#    0.000    3.571    0.000    0.857    0.000    0.000 
#    0.000    0.000    0.000    0.000    0.000    0.000 
#
# Total GULP energy -347200.865437 kJ/mol
# GULP energy per Si atom -12400.030908 kJ/mol
# Density = 1.922610 g / cm^3
# Si number density = 19.269962 Si / 1000 Ang^3
#
#
#
# Elastic Constant Matrix: (Units=GPa)
#
#
# Indices 1 2 3 4 5 6 
#
# 1 104.1689 38.7679 56.3107 0.0000 -4.9470 0.0000
# 2 38.7679 67.6885 35.5334 0.0000 -4.2714 0.0000
# 3 56.3107 35.5334 115.1107 0.0000 3.9600 0.0000
# 4 0.0000 0.0000 0.0000 8.6256 0.0000 -5.0788
# 5 -4.9470 -4.2714 3.9600 0.0000 26.4107 0.0000
# 6 0.0000 0.0000 0.0000 -5.0788 0.0000 24.6885
#
#
#
# Elastic Compliance Matrix: (Units=1/GPa)
#
#
# Indices 1 2 3 4 5 6 
#
# 1 0.014780 -0.005305 -0.005688 0.000000 0.002763 0.000000
# 2 -0.005305 0.019899 -0.003643 0.000000 0.002771 0.000000
# 3 -0.005688 -0.003643 0.012717 0.000000 -0.003561 0.000000
# 4 0.000000 0.000000 0.000000 0.131913 0.000000 0.027137
# 5 0.002763 0.002771 -0.003561 0.000000 0.039363 0.000000
# 6 0.000000 0.000000 0.000000 0.027137 0.000000 0.046087
#
#
# Mechanical properties :
#
#
# Convention : Reuss Voigt Hill
#
# Bulk Modulus (GPa) = 55.17298 60.91021 58.04160
# Shear Modulus (GPa) = 16.66272 22.36870 19.51571
#
# Velocity S-wave (km/s) = 2.94377 3.41076 3.18583
# Velocity P-wave (km/s) = 6.34414 6.86939 6.61198
#
# Compressibility (1/GPa) = 0.01812481
#
# Stress axis : x y z
#
# Youngs Moduli (GPa) = 67.65951 50.25366 78.63729
#
# Poissons Ratio (x) = 0.26659 0.44726
# Poissons Ratio (y) = 0.35893 0.28646
# Poissons Ratio (z) = 0.38482 0.18307
#
# Static dielectric constant tensor:
#      x y z
#    x 3.504350 0.000000 0.029800 
#    y 0.000000 3.348740 0.000000 
#    z 0.029800 0.000000 3.742210 
# 
# 
# High freq. dielectric constant tensor:
#      x y z
#    x 1.749850 0.000000 -0.002860 
#    y 0.000000 1.725750 0.000000 
#    z -0.002860 0.000000 1.757770 
# 
# From -- ./inp_files/77783.got.cif
#   From: 2010.06.25/outbox.cif.g09.slc.cpg/sg10_39_cif.got.tgz:77783.got - 2010.06.27 22:07:45.
