data_PCOD8065655
_publ_section_title
;
Structure prediction by ZEFSAII (Michael W. Deem and Ramdas Pophale) SiO2 
 PCOD8065655
Probable space group: P 2/M
;
_chemical_formula_sum "Si O2"
_cell_formula_units_Z 24
_cell_length_a 9.070800
_cell_length_b 7.738792
_cell_length_c 21.754427
_cell_angle_alpha 90.000000
_cell_angle_beta 51.592354
_cell_angle_gamma 90.000000
_cell_volume 1196.648756
_symmetry_space_group_name_H-M "P 2/M"
_symmetry_group_IT_number 10
_symmetry_cell_setting 'monoclinic'
loop_
_space_group_symop_operation_xyz
x,y,z
-x,y,-z
-x,-y,-z
x,-y,z
loop_
_atom_site_type_symbol
_atom_site_label
_atom_site_fract_x
_atom_site_fract_y
_atom_site_fract_z
Si Si1 0.626769 0.197382 0.697464
Si Si2 0.168568 0.801359 0.995725
Si Si3 0.545988 0.500000 0.417248
Si Si4 0.428237 0.202444 0.146089
Si Si5 0.089756 0.304039 0.152275
Si Si6 0.799580 0.500000 0.582927
Si Si7 0.291728 0.807364 0.694300
O O1 0.604227 0.241905 0.774321
O O2 0.779877 0.327420 0.629230
O O3 0.424756 0.229306 0.718319
O O4 0.695968 0.000000 0.669610
O O5 0.132662 0.786251 0.076970
O O6 0.179796 0.000000 0.973005
O O7 0.369477 0.718486 0.925780
O O8 0.000000 0.712777 0.000000
O O9 0.500000 0.500000 0.500000
O O10 0.351499 0.500000 0.431787
O O11 0.667337 0.670241 0.370003
O O12 0.272626 0.301635 0.147438
O O13 0.413988 0.000000 0.134656
O O14 0.026787 0.500000 0.156918
O O15 0.922712 0.202797 0.228771
O O16 0.000000 0.500000 0.500000
O O17 0.327646 0.000000 0.658659
#
# Coordination Sequence:
#
# PCOD8065655 Si02
#       7
#     4   4   2   4   4   2   4
#     4   9  20  39  63  87 114 153 199 240 286 349
#     4  10  21  39  60  81 111 155 203 247 292 347
#     4  10  22  40  60  91 124 149 194 240 287 356
#     4  10  21  37  57  84 115 153 198 244 295 346
#     4  12  24  36  54  86 121 154 197 246 294 347
#     4  10  22  38  60  89 120 155 186 234 293 346
#     4  10  20  40  64  86 117 158 199 241 292 348
#
# _framework density 20.056011000000002
#
# number of rings (size 3 to 8) (size 9 to 14) (size 15 to 20)
#    0.000    1.833    0.833    3.000    1.167    7.667 
#    0.000    0.000    0.000    0.000    0.000    0.000 
#    0.000    0.000    0.000    0.000    0.000    0.000 
#
# Total GULP energy -297681.111056 kJ/mol
# GULP energy per Si atom -12403.379627 kJ/mol
# Density = 2.001036 g / cm^3
# Si number density = 20.056011 Si / 1000 Ang^3
#
#
#
# Elastic Constant Matrix: (Units=GPa)
#
#
# Indices 1 2 3 4 5 6 
#
# 1 103.3532 31.7253 68.3917 0.0000 -2.8613 0.0000
# 2 31.7253 94.0674 53.7344 0.0000 -3.1379 0.0000
# 3 68.3917 53.7344 168.0471 0.0000 -3.4961 0.0000
# 4 0.0000 0.0000 0.0000 29.6387 0.0000 -0.9854
# 5 -2.8613 -3.1379 -3.4961 0.0000 40.9575 0.0000
# 6 0.0000 0.0000 0.0000 -0.9854 0.0000 17.4084
#
#
#
# Elastic Compliance Matrix: (Units=1/GPa)
#
#
# Indices 1 2 3 4 5 6 
#
# 1 0.013473 -0.001717 -0.004926 0.000000 0.000389 0.000000
# 2 -0.001717 0.013242 -0.003523 0.000000 0.000594 0.000000
# 3 -0.004926 -0.003523 0.009085 0.000000 0.000161 0.000000
# 4 0.000000 0.000000 0.000000 0.033803 0.000000 0.001913
# 5 0.000389 0.000594 0.000161 0.000000 0.024502 0.000000
# 6 0.000000 0.000000 0.000000 0.001913 0.000000 0.057552
#
#
# Mechanical properties :
#
#
# Convention : Reuss Voigt Hill
#
# Bulk Modulus (GPa) = 64.64910 74.79673 69.72292
# Shear Modulus (GPa) = 28.22522 31.70866 29.96694
#
# Velocity S-wave (km/s) = 3.75550 3.98050 3.86963
# Velocity P-wave (km/s) = 7.14907 7.64858 7.40304
#
# Compressibility (1/GPa) = 0.01546812
#
# Stress axis : x y z
#
# Youngs Moduli (GPa) = 74.22146 75.51677 110.06573
#
# Poissons Ratio (x) = 0.12966 0.54220
# Poissons Ratio (y) = 0.12744 0.38778
# Poissons Ratio (z) = 0.36563 0.26605
#
# Static dielectric constant tensor:
#      x y z
#    x 3.664280 0.000000 -0.084890 
#    y 0.000000 3.701970 0.000000 
#    z -0.084890 0.000000 3.508680 
# 
# 
# High freq. dielectric constant tensor:
#      x y z
#    x 1.784760 0.000000 -0.002250 
#    y 0.000000 1.787370 0.000000 
#    z -0.002250 0.000000 1.775760 
# 
# From -- ./inp_files/81943.got.cif
#   From: 2010.06.25/outbox.cif.g09.slc.cpg/sg10_41_cif.got.tgz:81943.got - 2010.06.27 22:07:45.
