data_PCOD8065299
_publ_section_title
;
Structure prediction by ZEFSAII (Michael W. Deem and Ramdas Pophale) SiO2 
 PCOD8065299
Probable space group: P 2/M
;
_chemical_formula_sum "Si O2"
_cell_formula_units_Z 28
_cell_length_a 9.503883
_cell_length_b 8.952615
_cell_length_c 25.067255
_cell_angle_alpha 90.000000
_cell_angle_beta 40.592648
_cell_angle_gamma 90.000000
_cell_volume 1387.787849
_symmetry_space_group_name_H-M "P 2/M"
_symmetry_group_IT_number 10
_symmetry_cell_setting 'monoclinic'
loop_
_space_group_symop_operation_xyz
x,y,z
-x,y,-z
-x,-y,-z
x,-y,z
loop_
_atom_site_type_symbol
_atom_site_label
_atom_site_fract_x
_atom_site_fract_y
_atom_site_fract_z
Si Si1 0.561903 0.326818 0.137537
Si Si2 0.330177 0.823436 0.003290
Si Si3 0.285836 0.176961 0.590439
Si Si4 0.138155 0.671111 0.322894
Si Si5 0.133123 0.676483 0.852531
Si Si6 0.668291 0.831654 0.304912
Si Si7 0.801504 0.167618 0.591485
O O1 0.607312 0.500000 0.111082
O O2 0.587869 0.227563 0.077906
O O3 0.314608 0.301978 0.226236
O O4 0.728529 0.272452 0.135555
O O5 0.302482 0.000000 0.011381
O O6 0.500000 0.772516 0.000000
O O7 0.100530 0.750077 0.080494
O O8 0.500000 0.243425 0.500000
O O9 0.257743 0.233481 0.659378
O O10 0.073699 0.229131 0.621115
O O11 0.299834 0.000000 0.585886
O O12 0.067708 0.500000 0.345367
O O13 0.249068 0.720201 0.345880
O O14 0.106646 0.500000 0.860177
O O15 0.252790 0.724135 0.764340
O O16 0.409740 0.834797 0.384159
O O17 0.756965 0.000000 0.269088
O O18 0.000000 0.230692 0.500000
O O19 0.854483 0.000000 0.597226
#
# Coordination Sequence:
#
# PCOD8065299 Si02
#       7
#     4   4   4   4   4   4   4
#     4  10  23  43  64  91 126 164 202 244 303 367
#     4  11  26  44  65  96 127 156 199 251 300 357
#     4  10  22  41  62  86 122 166 211 260 312 364
#     4  11  23  39  60  91 127 162 206 253 303 366
#     4  11  23  42  66  91 125 163 201 247 304 368
#     4  10  21  37  61  91 122 159 207 257 304 360
#     4  10  20  37  62  90 121 161 208 254 305 361
#
# _framework density 20.175995
#
# number of rings (size 3 to 8) (size 9 to 14) (size 15 to 20)
#    0.000    1.571    1.429    2.571    2.000    8.571 
#    0.000    1.429    0.000    0.000    0.000    0.000 
#    0.000    0.000    0.000    0.000    0.000    0.000 
#
# Total GULP energy -347257.332220 kJ/mol
# GULP energy per Si atom -12402.047579 kJ/mol
# Density = 2.013007 g / cm^3
# Si number density = 20.175995 Si / 1000 Ang^3
#
#
#
# Elastic Constant Matrix: (Units=GPa)
#
#
# Indices 1 2 3 4 5 6 
#
# 1 104.6976 39.0932 34.7002 0.0000 1.5123 0.0000
# 2 39.0932 49.3887 43.8238 0.0000 6.8515 0.0000
# 3 34.7002 43.8238 101.3936 0.0000 -1.5569 0.0000
# 4 0.0000 0.0000 0.0000 26.0978 0.0000 -4.9635
# 5 1.5123 6.8515 -1.5569 0.0000 37.4112 0.0000
# 6 0.0000 0.0000 0.0000 -4.9635 0.0000 19.6363
#
#
#
# Elastic Compliance Matrix: (Units=1/GPa)
#
#
# Indices 1 2 3 4 5 6 
#
# 1 0.013638 -0.011164 0.000181 0.000000 0.001501 0.000000
# 2 -0.011164 0.043701 -0.015193 0.000000 -0.008184 0.000000
# 3 0.000181 -0.015193 0.016421 0.000000 0.003459 0.000000
# 4 0.000000 0.000000 0.000000 0.040253 0.000000 0.010175
# 5 0.001501 -0.008184 0.003459 0.000000 0.028312 0.000000
# 6 0.000000 0.000000 0.000000 0.010175 0.000000 0.053498
#
#
# Mechanical properties :
#
#
# Convention : Reuss Voigt Hill
#
# Bulk Modulus (GPa) = 46.71348 54.52381 50.61864
# Shear Modulus (GPa) = 19.58402 25.81989 22.70195
#
# Velocity S-wave (km/s) = 3.11892 3.58122 3.35803
# Velocity P-wave (km/s) = 6.01444 6.64702 6.33863
#
# Compressibility (1/GPa) = 0.02140710
#
# Stress axis : x y z
#
# Youngs Moduli (GPa) = 73.32356 22.88287 60.89931
#
# Poissons Ratio (x) = 0.25546 -0.01101
# Poissons Ratio (y) = 0.81857 0.92526
# Poissons Ratio (z) = -0.01325 0.34766
#
# Static dielectric constant tensor:
#      x y z
#    x 3.771570 0.000000 -0.006470 
#    y 0.000000 3.548560 0.000000 
#    z -0.006470 0.000000 3.736200 
# 
# 
# High freq. dielectric constant tensor:
#      x y z
#    x 1.796780 0.000000 -0.002080 
#    y 0.000000 1.778550 0.000000 
#    z -0.002080 0.000000 1.800420 
# 
# From -- ./inp_files/91985.got.cif
#   From: 2010.06.25/outbox.cif.g09.slc.cpg/sg10_46_cif.got.tgz:91985.got - 2010.06.27 22:07:45.
