data_PCOD8065251
_publ_section_title
;
Structure prediction by ZEFSAII (Michael W. Deem and Ramdas Pophale) SiO2 
 PCOD8065251
Probable space group: P 2/M
;
_chemical_formula_sum "Si O2"
_cell_formula_units_Z 24
_cell_length_a 11.651890
_cell_length_b 7.388466
_cell_length_c 22.779316
_cell_angle_alpha 90.000000
_cell_angle_beta 35.318614
_cell_angle_gamma 90.000000
_cell_volume 1133.734557
_symmetry_space_group_name_H-M "P 2/M"
_symmetry_group_IT_number 10
_symmetry_cell_setting 'monoclinic'
loop_
_space_group_symop_operation_xyz
x,y,z
-x,y,-z
-x,-y,-z
x,-y,z
loop_
_atom_site_type_symbol
_atom_site_label
_atom_site_fract_x
_atom_site_fract_y
_atom_site_fract_z
Si Si1 0.988818 0.286414 0.807901
Si Si2 0.379953 0.714353 0.711127
Si Si3 0.133856 0.000000 0.354968
Si Si4 0.357836 0.288458 0.966702
Si Si5 0.698841 0.000000 0.586706
Si Si6 0.796349 0.711145 0.771514
Si Si7 0.780469 0.714530 0.098107
O O1 0.973287 0.500000 0.820613
O O2 0.959991 0.230743 0.751754
O O3 0.205010 0.223333 0.739604
O O4 0.809742 0.198825 0.921519
O O5 0.421149 0.500000 0.689920
O O6 0.581716 0.821446 0.613165
O O7 0.317887 0.784292 0.801319
O O8 0.270293 0.000000 0.355840
O O9 0.176544 0.820878 0.299417
O O10 0.905057 0.000000 0.467375
O O11 0.313919 0.500000 0.984368
O O12 0.583584 0.247512 0.891808
O O13 0.342310 0.214212 0.906566
O O14 0.811057 0.500000 0.748355
O O15 0.789094 0.500000 0.098149
O O16 0.000000 0.795010 0.000000
#
# Coordination Sequence:
#
# PCOD8065251 Si02
#       7
#     4   4   2   4   2   4   4
#     4   9  17  32  57  91 128 160 192 231 276 346
#     4  10  20  37  61  90 124 157 191 236 292 350
#     4  11  26  47  63  83 114 141 194 269 302 336
#     4   9  15  27  52  86 122 161 197 229 275 339
#     4  11  26  45  65  86 108 145 197 253 312 354
#     4  10  21  38  62  88 118 161 200 232 287 349
#     4   9  14  24  48  81 117 155 188 225 275 327
#
# _framework density 21.168976000000001
#
# number of rings (size 3 to 8) (size 9 to 14) (size 15 to 20)
#    0.000    2.333    1.667    1.500    0.000    5.333 
#    0.000    6.250    0.000    3.000    0.000    0.000 
#    0.000    0.000    0.000    0.000    0.000    0.000 
#
# Total GULP energy -297457.814462 kJ/mol
# GULP energy per Si atom -12394.075603 kJ/mol
# Density = 2.112079 g / cm^3
# Si number density = 21.168976 Si / 1000 Ang^3
#
#
#
# Elastic Constant Matrix: (Units=GPa)
#
#
# Indices 1 2 3 4 5 6 
#
# 1 134.1951 35.2590 40.5534 0.0000 -16.3022 0.0000
# 2 35.2590 79.5534 36.4031 0.0000 -5.8095 0.0000
# 3 40.5534 36.4031 85.1780 0.0000 -12.9667 0.0000
# 4 0.0000 0.0000 0.0000 25.7198 0.0000 -2.3292
# 5 -16.3022 -5.8095 -12.9667 0.0000 29.7492 0.0000
# 6 0.0000 0.0000 0.0000 -2.3292 0.0000 16.7505
#
#
#
# Elastic Compliance Matrix: (Units=1/GPa)
#
#
# Indices 1 2 3 4 5 6 
#
# 1 0.009414 -0.002623 -0.002842 0.000000 0.003408 0.000000
# 2 -0.002623 0.016358 -0.005864 0.000000 -0.000799 0.000000
# 3 -0.002842 -0.005864 0.016267 0.000000 0.004388 0.000000
# 4 0.000000 0.000000 0.000000 0.039376 0.000000 0.005475
# 5 0.003408 -0.000799 0.004388 0.000000 0.037238 0.000000
# 6 0.000000 0.000000 0.000000 0.005475 0.000000 0.060461
#
#
# Mechanical properties :
#
#
# Convention : Reuss Voigt Hill
#
# Bulk Modulus (GPa) = 51.59679 58.15083 54.87381
# Shear Modulus (GPa) = 24.01165 26.89130 25.45148
#
# Velocity S-wave (km/s) = 3.37157 3.56802 3.47118
# Velocity P-wave (km/s) = 6.29153 6.67112 6.48410
#
# Compressibility (1/GPa) = 0.01938105
#
# Stress axis : x y z
#
# Youngs Moduli (GPa) = 106.22630 61.13402 61.47311
#
# Poissons Ratio (x) = 0.16035 0.17472
# Poissons Ratio (y) = 0.27862 0.36046
# Poissons Ratio (z) = 0.30192 0.35847
#
# Static dielectric constant tensor:
#      x y z
#    x 4.144950 0.000000 -0.124070 
#    y 0.000000 3.446940 0.000000 
#    z -0.124070 0.000000 3.566170 
# 
# 
# High freq. dielectric constant tensor:
#      x y z
#    x 1.844820 0.000000 -0.011740 
#    y 0.000000 1.811180 0.000000 
#    z -0.011740 0.000000 1.798550 
# 
# From -- ./inp_files/56577.got.cif
#   From: 2010.06.25/outbox.cif.g09.slc.cpg/sg10_29_cif.got.tgz:56577.got - 2010.06.27 22:07:45.
