data_PCOD8065107
_publ_section_title
;
Structure prediction by ZEFSAII (Michael W. Deem and Ramdas Pophale) SiO2 
 PCOD8065107
Probable space group: P 2/M
;
_chemical_formula_sum "Si O2"
_cell_formula_units_Z 28
_cell_length_a 8.930078
_cell_length_b 8.842936
_cell_length_c 25.273317
_cell_angle_alpha 90.000000
_cell_angle_beta 135.615948
_cell_angle_gamma 90.000000
_cell_volume 1395.981366
_symmetry_space_group_name_H-M "P 2/M"
_symmetry_group_IT_number 10
_symmetry_cell_setting 'monoclinic'
loop_
_space_group_symop_operation_xyz
x,y,z
-x,y,-z
-x,-y,-z
x,-y,z
loop_
_atom_site_type_symbol
_atom_site_label
_atom_site_fract_x
_atom_site_fract_y
_atom_site_fract_z
Si Si1 0.427115 0.674807 0.380904
Si Si2 0.834550 0.678504 0.092083
Si Si3 0.582419 0.821736 0.210917
Si Si4 0.308390 0.677273 0.230914
Si Si5 0.134227 0.176146 0.482243
Si Si6 0.014344 0.323275 0.344756
Si Si7 0.467900 0.321306 0.076687
O O1 0.493876 0.500000 0.404466
O O2 0.360918 0.712010 0.304676
O O3 0.620540 0.779971 0.447413
O O4 0.231789 0.716855 0.369581
O O5 0.841164 0.500000 0.099976
O O6 0.679368 0.738609 0.099433
O O7 0.072722 0.744544 0.158692
O O8 0.740025 0.722003 0.010795
O O9 0.481236 0.763145 0.239630
O O10 0.444846 0.762673 0.126571
O O11 0.823478 0.761450 0.266574
O O12 0.582989 0.000000 0.211589
O O13 0.320226 0.500000 0.221086
O O14 0.029068 0.270769 0.408751
O O15 0.000000 0.218347 0.500000
O O16 0.118959 0.000000 0.464470
O O17 0.963931 0.500000 0.330128
O O18 0.478591 0.500000 0.089350
#
# Coordination Sequence:
#
# PCOD8065107 Si02
#       7
#     4   4   4   4   4   4   4
#     4  10  22  39  62  89 113 143 189 238 281 330
#     4   8  16  33  61  89 110 140 190 242 282 329
#     4  12  25  38  53  81 118 153 189 230 282 341
#     4  10  20  37  59  83 112 148 189 234 283 332
#     4  11  24  40  59  87 123 156 185 222 273 334
#     4  11  23  41  64  87 111 144 191 241 283 329
#     4   9  17  35  61  86 111 144 188 237 285 334
#
# _framework density 20.057576000000001
#
# number of rings (size 3 to 8) (size 9 to 14) (size 15 to 20)
#    0.000    1.857    0.000    5.143    0.000    9.714 
#    0.000    7.143    0.000    0.000    0.000    0.000 
#    0.000    0.000    0.000    0.000    0.000    0.000 
#
# Total GULP energy -347320.378217 kJ/mol
# GULP energy per Si atom -12404.299222 kJ/mol
# Density = 2.001192 g / cm^3
# Si number density = 20.057576 Si / 1000 Ang^3
#
#
#
# Elastic Constant Matrix: (Units=GPa)
#
#
# Indices 1 2 3 4 5 6 
#
# 1 76.2106 26.6150 12.7218 0.0000 -16.5874 0.0000
# 2 26.6150 64.7311 20.7696 0.0000 -9.9424 0.0000
# 3 12.7218 20.7696 85.0022 0.0000 -8.1491 0.0000
# 4 0.0000 0.0000 0.0000 9.2648 0.0000 3.2782
# 5 -16.5874 -9.9424 -8.1491 0.0000 34.4500 0.0000
# 6 0.0000 0.0000 0.0000 3.2782 0.0000 13.0995
#
#
#
# Elastic Compliance Matrix: (Units=1/GPa)
#
#
# Indices 1 2 3 4 5 6 
#
# 1 0.016542 -0.005691 -0.000490 0.000000 0.006206 0.000000
# 2 -0.005691 0.019265 -0.003668 0.000000 0.001952 0.000000
# 3 -0.000490 -0.003668 0.012903 0.000000 0.001757 0.000000
# 4 0.000000 0.000000 0.000000 0.118422 0.000000 -0.029636
# 5 0.006206 0.001952 0.001757 0.000000 0.032995 0.000000
# 6 0.000000 0.000000 0.000000 -0.029636 0.000000 0.083755
#
#
# Mechanical properties :
#
#
# Convention : Reuss Voigt Hill
#
# Bulk Modulus (GPa) = 34.47009 38.46182 36.46596
# Shear Modulus (GPa) = 15.96167 22.41871 19.19019
#
# Velocity S-wave (km/s) = 2.82404 3.34686 3.09650
# Velocity P-wave (km/s) = 5.27792 5.84402 5.56817
#
# Compressibility (1/GPa) = 0.02901066
#
# Stress axis : x y z
#
# Youngs Moduli (GPa) = 60.45385 51.90697 77.50380
#
# Poissons Ratio (x) = 0.29539 0.03799
# Poissons Ratio (y) = 0.34403 0.28432
# Poissons Ratio (z) = 0.02963 0.19042
#
# Static dielectric constant tensor:
#      x y z
#    x 3.760880 0.000000 0.052080 
#    y 0.000000 3.381140 0.000000 
#    z 0.052080 0.000000 3.901490 
# 
# 
# High freq. dielectric constant tensor:
#      x y z
#    x 1.790470 0.000000 -0.002940 
#    y 0.000000 1.758630 0.000000 
#    z -0.002940 0.000000 1.799200 
# 
# From -- ./inp_files/92084.got.cif
#   From: 2010.06.25/outbox.cif.g09.slc.cpg/sg10_47_cif.got.tgz:92084.got - 2010.06.27 22:07:45.
