data_PCOD8065870
_publ_section_title
;
Structure prediction by ZEFSAII (Michael W. Deem and Ramdas Pophale) SiO2 
 PCOD8065870
Probable space group: P 2/M
;
_chemical_formula_sum "Si O2"
_cell_formula_units_Z 24
_cell_length_a 9.279184
_cell_length_b 9.185302
_cell_length_c 15.212068
_cell_angle_alpha 90.000000
_cell_angle_beta 90.872914
_cell_angle_gamma 90.000000
_cell_volume 1296.406143
_symmetry_space_group_name_H-M "P 2/M"
_symmetry_group_IT_number 10
_symmetry_cell_setting 'monoclinic'
loop_
_space_group_symop_operation_xyz
x,y,z
-x,y,-z
-x,-y,-z
x,-y,z
loop_
_atom_site_type_symbol
_atom_site_label
_atom_site_fract_x
_atom_site_fract_y
_atom_site_fract_z
Si Si1 0.111623 0.166264 0.926556
Si Si2 0.605461 0.169961 0.579640
Si Si3 0.584641 0.169988 0.256159
Si Si4 0.086394 0.834018 0.727604
Si Si5 0.598206 0.670621 0.082279
Si Si6 0.093123 0.671698 0.416477
O O1 0.041761 0.183537 0.829279
O O2 0.243541 0.274212 0.938529
O O3 0.164287 0.000000 0.939972
O O4 0.000000 0.212588 0.000000
O O5 0.500000 0.213346 0.500000
O O6 0.525745 0.212491 0.668740
O O7 0.749761 0.261013 0.571530
O O8 0.644823 0.000000 0.576928
O O9 0.747359 0.213864 0.285050
O O10 0.534705 0.255109 0.169096
O O11 0.581528 0.000000 0.233827
O O12 0.983494 0.730272 0.671404
O O13 0.063816 0.000000 0.695749
O O14 0.602108 0.500000 0.098785
O O15 0.500000 0.715175 0.000000
O O16 0.108833 0.500000 0.408020
O O17 0.000000 0.717444 0.500000
#
# Coordination Sequence:
#
# PCOD8065870 Si02
#       6
#     4   4   4   4   4   4
#     4   9  19  36  57  80 106 139 180 224 268 313
#     4  10  21  38  60  83 106 136 176 221 267 314
#     4   9  19  36  58  82 105 135 178 223 267 314
#     4   9  18  35  58  81 105 136 177 222 265 312
#     4  10  21  35  52  78 111 145 179 216 263 318
#     4  11  24  38  53  78 111 145 178 213 260 317
#
# _framework density 18.512716999999999
#
# number of rings (size 3 to 8) (size 9 to 14) (size 15 to 20)
#    0.000    2.333    0.000    3.000    0.000    9.333 
#    0.000    5.000    0.000    0.000    0.000    0.000 
#    0.000    0.000    0.000    0.000    0.000    0.000 
#
# Total GULP energy -297666.413219 kJ/mol
# GULP energy per Si atom -12402.767217 kJ/mol
# Density = 1.847058 g / cm^3
# Si number density = 18.512717 Si / 1000 Ang^3
#
#
#
# Elastic Constant Matrix: (Units=GPa)
#
#
# Indices 1 2 3 4 5 6 
#
# 1 120.7796 55.6078 86.3505 0.0000 -7.9900 0.0000
# 2 55.6078 66.4126 68.6843 0.0000 5.4829 0.0000
# 3 86.3505 68.6843 143.1381 0.0000 -1.2292 0.0000
# 4 0.0000 0.0000 0.0000 12.2975 0.0000 31.3087
# 5 -7.9900 5.4829 -1.2292 0.0000 34.4616 0.0000
# 6 0.0000 0.0000 0.0000 31.3087 0.0000 -64.1418
#
#
#
# Elastic Compliance Matrix: (Units=1/GPa)
#
#
# Indices 1 2 3 4 5 6 
#
# 1 0.016725 -0.007979 -0.006218 0.000000 0.004925 0.000000
# 2 -0.007979 0.034686 -0.011897 0.000000 -0.007793 0.000000
# 3 -0.006218 -0.011897 0.016455 0.000000 0.001038 0.000000
# 4 0.000000 0.000000 0.000000 0.036258 0.000000 0.017698
# 5 0.004925 -0.007793 0.001038 0.000000 0.031437 0.000000
# 6 0.000000 0.000000 0.000000 0.017698 0.000000 -0.006952
#
#
# Mechanical properties :
#
#
# Convention : Reuss Voigt Hill
#
# Bulk Modulus (GPa) = 63.79034 83.51283 73.65159
# Shear Modulus (GPa) = 26.87802 4.50266 15.69034
#
# Velocity S-wave (km/s) = 3.81447 1.56124 2.91442
# Velocity P-wave (km/s) = 7.34389 6.96125 7.15512
#
# Compressibility (1/GPa) = 0.01567635
#
# Stress axis : x y z
#
# Youngs Moduli (GPa) = 59.79074 28.82990 60.77045
#
# Poissons Ratio (x) = 0.23005 0.37790
# Poissons Ratio (y) = 0.47710 0.72300
# Poissons Ratio (z) = 0.37180 0.34300
#
# Static dielectric constant tensor:
#      x y z
#    x 3.456190 0.000000 -0.164640 
#    y 0.000000 3.329820 0.000000 
#    z -0.164640 0.000000 3.577970 
# 
# 
# High freq. dielectric constant tensor:
#      x y z
#    x 1.715250 0.000000 -0.005460 
#    y 0.000000 1.714820 0.000000 
#    z -0.005460 0.000000 1.731550 
# 
# From -- ./inp_files/27224.got.cif
#   From: 2010.06.25/outbox.cif.g09.slc.cpg/sg10_14_cif.got.tgz:27224.got - 2010.06.27 22:07:45.
