data_PCOD8065164
_publ_section_title
;
Structure prediction by ZEFSAII (Michael W. Deem and Ramdas Pophale) SiO2 
 PCOD8065164
Probable space group: P 2/M
;
_chemical_formula_sum "Si O2"
_cell_formula_units_Z 20
_cell_length_a 15.229232
_cell_length_b 9.378050
_cell_length_c 23.178143
_cell_angle_alpha 90.000000
_cell_angle_beta 18.841857
_cell_angle_gamma 90.000000
_cell_volume 1069.089648
_symmetry_space_group_name_H-M "P 2/M"
_symmetry_group_IT_number 10
_symmetry_cell_setting 'monoclinic'
loop_
_space_group_symop_operation_xyz
x,y,z
-x,y,-z
-x,-y,-z
x,-y,z
loop_
_atom_site_type_symbol
_atom_site_label
_atom_site_fract_x
_atom_site_fract_y
_atom_site_fract_z
Si Si1 0.773699 0.336488 0.856328
Si Si2 0.219248 0.665214 0.012715
Si Si3 0.710478 0.833751 0.651870
Si Si4 0.250241 0.838539 0.505184
Si Si5 0.316748 0.163388 0.667946
O O1 0.800536 0.500000 0.821181
O O2 0.764948 0.314947 0.929339
O O3 0.029125 0.258393 0.671901
O O4 0.500000 0.269634 0.000000
O O5 0.213192 0.500000 0.998133
O O6 0.946627 0.739716 0.159849
O O7 0.483260 0.738870 0.822767
O O8 0.705941 0.790970 0.587658
O O9 0.000000 0.795412 0.500000
O O10 0.641302 0.000000 0.703897
O O11 0.527474 0.822081 0.368467
O O12 0.143052 0.000000 0.574069
O O13 0.500000 0.217310 0.500000
O O14 0.228550 0.000000 0.711028
#
# Coordination Sequence:
#
# PCOD8065164 Si02
#       5
#     4   4   4   4   4
#     4  10  21  36  55  82 114 148 187 232 283 337
#     4  11  23  37  58  86 116 152 190 231 283 340
#     4  10  22  40  60  84 116 151 189 235 283 334
#     4  10  21  37  59  85 110 146 192 234 281 332
#     4  10  20  37  60  84 114 149 188 237 285 330
#
# _framework density 18.707505000000001
#
# number of rings (size 3 to 8) (size 9 to 14) (size 15 to 20)
#    0.000    1.800    2.000    1.800    0.000    4.400 
#    0.000    4.000    0.000    0.000    0.000    0.000 
#    0.000    0.000    0.000    0.000    0.000    0.000 
#
# Total GULP energy -248071.591321 kJ/mol
# GULP energy per Si atom -12403.579566 kJ/mol
# Density = 1.866493 g / cm^3
# Si number density = 18.707505 Si / 1000 Ang^3
#
#
#
# Elastic Constant Matrix: (Units=GPa)
#
#
# Indices 1 2 3 4 5 6 
#
# 1 82.4582 44.4076 38.3031 0.0000 -12.2528 0.0000
# 2 44.4076 99.4151 88.5823 0.0000 -1.0185 0.0000
# 3 38.3031 88.5823 142.0651 0.0000 -8.7617 0.0000
# 4 0.0000 0.0000 0.0000 51.6029 0.0000 1.4656
# 5 -12.2528 -1.0185 -8.7617 0.0000 26.3912 0.0000
# 6 0.0000 0.0000 0.0000 1.4656 0.0000 19.8736
#
#
#
# Elastic Compliance Matrix: (Units=1/GPa)
#
#
# Indices 1 2 3 4 5 6 
#
# 1 0.017553 -0.008985 0.001380 0.000000 0.008261 0.000000
# 2 -0.008985 0.027632 -0.015312 0.000000 -0.008189 0.000000
# 3 0.001380 -0.015312 0.016557 0.000000 0.005546 0.000000
# 4 0.000000 0.000000 0.000000 0.019419 0.000000 -0.001432
# 5 0.008261 -0.008189 0.005546 0.000000 0.043252 0.000000
# 6 0.000000 0.000000 0.000000 -0.001432 0.000000 0.050424
#
#
# Mechanical properties :
#
#
# Convention : Reuss Voigt Hill
#
# Bulk Modulus (GPa) = 62.86831 74.05827 68.46329
# Shear Modulus (GPa) = 22.12641 29.74990 25.93816
#
# Velocity S-wave (km/s) = 3.44285 3.99214 3.72763
# Velocity P-wave (km/s) = 7.03443 7.80532 7.42988
#
# Compressibility (1/GPa) = 0.01590627
#
# Stress axis : x y z
#
# Youngs Moduli (GPa) = 56.97017 36.18988 60.39872
#
# Poissons Ratio (x) = 0.32518 -0.08332
# Poissons Ratio (y) = 0.51189 0.92482
# Poissons Ratio (z) = -0.07859 0.55414
#
# Static dielectric constant tensor:
#      x y z
#    x 3.619520 0.000000 -0.076350 
#    y 0.000000 3.483940 0.000000 
#    z -0.076350 0.000000 3.302650 
# 
# 
# High freq. dielectric constant tensor:
#      x y z
#    x 1.743590 0.000000 -0.003640 
#    y 0.000000 1.724560 0.000000 
#    z -0.003640 0.000000 1.727550 
# 
# From -- ./inp_files/22103.got.cif
#   From: 2010.06.25/outbox.cif.g09.slc.cpg/sg10_12_cif.got.tgz:22103.got - 2010.06.27 22:07:45.
