data_PCOD8065714
_publ_section_title
;
Structure prediction by ZEFSAII (Michael W. Deem and Ramdas Pophale) SiO2 
 PCOD8065714
Probable space group: P 2/M
;
_chemical_formula_sum "Si O2"
_cell_formula_units_Z 32
_cell_length_a 18.986267
_cell_length_b 13.942188
_cell_length_c 20.477847
_cell_angle_alpha 90.000000
_cell_angle_beta 21.745537
_cell_angle_gamma 90.000000
_cell_volume 2008.285924
_symmetry_space_group_name_H-M "P 2/M"
_symmetry_group_IT_number 10
_symmetry_cell_setting 'monoclinic'
loop_
_space_group_symop_operation_xyz
x,y,z
-x,y,-z
-x,-y,-z
x,-y,z
loop_
_atom_site_type_symbol
_atom_site_label
_atom_site_fract_x
_atom_site_fract_y
_atom_site_fract_z
Si Si1 0.513256 0.612904 0.562417
Si Si2 0.095241 0.702452 0.736033
Si Si3 0.268566 0.108063 0.626307
Si Si4 0.858918 0.704522 0.065177
Si Si5 0.868735 0.613688 0.555369
Si Si6 0.067951 0.613828 0.252084
Si Si7 0.707296 0.892382 0.242380
Si Si8 0.477540 0.386301 0.946560
O O1 0.500000 0.653946 0.500000
O O2 0.492844 0.500000 0.580562
O O3 0.713024 0.642324 0.420797
O O4 0.345232 0.655391 0.750973
O O5 0.139434 0.816214 0.698576
O O6 0.001801 0.674671 0.748707
O O7 0.945766 0.674939 0.921152
O O8 0.254923 0.131238 0.714600
O O9 0.485881 0.120522 0.416556
O O10 0.198613 0.000000 0.671303
O O11 0.832362 0.819870 0.091695
O O12 0.000000 0.666932 0.000000
O O13 0.880575 0.500000 0.549441
O O14 0.940600 0.647016 0.422951
O O15 0.652900 0.649908 0.751178
O O16 0.000000 0.657152 0.500000
O O17 0.052301 0.500000 0.252102
O O18 0.282979 0.647199 0.080818
O O19 0.774382 0.000000 0.167570
O O20 0.477551 0.500000 0.952356
O O21 0.500000 0.342865 0.000000
#
# Coordination Sequence:
#
# PCOD8065714 Si02
#       8
#     4   4   4   4   4   4   4   4
#     4  11  23  38  52  65  90 134 185 224 249 283
#     4  12  23  36  52  73 105 131 167 215 264 299
#     4   9  17  32  56  76  97 126 158 205 268 324
#     4  12  22  34  54  74  94 129 176 220 259 308
#     4   9  15  27  50  73  93 127 166 197 241 294
#     4  10  21  33  46  71 103 135 167 202 245 290
#     4   9  17  32  55  80  96 115 160 218 269 320
#     4   9  15  27  49  73  97 124 159 201 239 287
#
# _framework density 15.933986000000001
#
# number of rings (size 3 to 8) (size 9 to 14) (size 15 to 20)
#    0.000    1.875    5.000    1.125    0.000    3.000 
#    0.000    1.250    0.000    0.000    0.000    0.000 
#    0.000    1.000    0.000    0.000    0.000    0.250 
#
# Total GULP energy -396791.289772 kJ/mol
# GULP energy per Si atom -12399.727805 kJ/mol
# Density = 1.589772 g / cm^3
# Si number density = 15.933986 Si / 1000 Ang^3
#
#
#
# Elastic Constant Matrix: (Units=GPa)
#
#
# Indices 1 2 3 4 5 6 
#
# 1 123.2680 36.2320 65.1301 0.0000 -2.8550 0.0000
# 2 36.2320 59.6552 29.3020 0.0000 -2.1293 0.0000
# 3 65.1301 29.3020 133.8439 0.0000 4.4447 0.0000
# 4 0.0000 0.0000 0.0000 5.9662 0.0000 -5.9721
# 5 -2.8550 -2.1293 4.4447 0.0000 25.3800 0.0000
# 6 0.0000 0.0000 0.0000 -5.9721 0.0000 12.7794
#
#
#
# Elastic Compliance Matrix: (Units=1/GPa)
#
#
# Indices 1 2 3 4 5 6 
#
# 1 0.012203 -0.004930 -0.004919 0.000000 0.001821 0.000000
# 2 -0.004930 0.020910 -0.002232 0.000000 0.001590 0.000000
# 3 -0.004919 -0.002232 0.010439 0.000000 -0.002569 0.000000
# 4 0.000000 0.000000 0.000000 0.314932 0.000000 0.147176
# 5 0.001821 0.001590 -0.002569 0.000000 0.040189 0.000000
# 6 0.000000 0.000000 0.000000 0.147176 0.000000 0.147030
#
#
# Mechanical properties :
#
#
# Convention : Reuss Voigt Hill
#
# Bulk Modulus (GPa) = 51.57235 64.23280 57.90258
# Shear Modulus (GPa) = 8.67561 21.23199 14.95380
#
# Velocity S-wave (km/s) = 2.33592 3.65430 3.06679
# Velocity P-wave (km/s) = 6.30174 7.62919 6.99702
#
# Compressibility (1/GPa) = 0.01939023
#
# Stress axis : x y z
#
# Youngs Moduli (GPa) = 81.94852 47.82339 95.79529
#
# Poissons Ratio (x) = 0.23578 0.47123
# Poissons Ratio (y) = 0.40403 0.21377
# Poissons Ratio (z) = 0.40311 0.10672
#
# Static dielectric constant tensor:
#      x y z
#    x 2.795750 0.000000 0.033450 
#    y 0.000000 2.828400 0.000000 
#    z 0.033450 0.000000 3.316220 
# 
# 
# High freq. dielectric constant tensor:
#      x y z
#    x 1.581110 0.000000 0.002350 
#    y 0.000000 1.576400 0.000000 
#    z 0.002350 0.000000 1.636230 
# 
# From -- ./inp_files/85941.got.cif
#   From: 2010.06.25/outbox.cif.g09.slc.cpg/sg10_43_cif.got.tgz:85941.got - 2010.06.27 22:07:45.
