data_PCOD8065126
_publ_section_title
;
Structure prediction by ZEFSAII (Michael W. Deem and Ramdas Pophale) SiO2 
 PCOD8065126
Probable space group: P 2/M
;
_chemical_formula_sum "Si O2"
_cell_formula_units_Z 28
_cell_length_a 10.169579
_cell_length_b 18.183881
_cell_length_c 17.100387
_cell_angle_alpha 90.000000
_cell_angle_beta 26.295407
_cell_angle_gamma 90.000000
_cell_volume 1400.872332
_symmetry_space_group_name_H-M "P 2/M"
_symmetry_group_IT_number 10
_symmetry_cell_setting 'monoclinic'
loop_
_space_group_symop_operation_xyz
x,y,z
-x,y,-z
-x,-y,-z
x,-y,z
loop_
_atom_site_type_symbol
_atom_site_label
_atom_site_fract_x
_atom_site_fract_y
_atom_site_fract_z
Si Si1 0.816856 0.415327 0.519798
Si Si2 0.326621 0.704913 0.787700
Si Si3 0.159036 0.080736 0.661007
Si Si4 0.446263 0.774938 0.189715
Si Si5 0.134959 0.918113 0.343879
Si Si6 0.815316 0.670966 0.788199
Si Si7 0.048300 0.233816 0.791856
O O1 0.723182 0.500000 0.568517
O O2 0.505638 0.371088 0.682802
O O3 0.000000 0.395647 0.500000
O O4 0.027908 0.401180 0.331132
O O5 0.533766 0.759820 0.728414
O O6 0.311421 0.746758 0.711866
O O7 0.000000 0.690204 0.000000
O O8 0.500000 0.081440 0.500000
O O9 0.022392 0.148304 0.781529
O O10 0.107894 0.091553 0.595310
O O11 0.025724 0.000000 0.756703
O O12 0.400194 0.860333 0.192505
O O13 0.202621 0.725647 0.276515
O O14 0.750915 0.746241 0.993843
O O15 0.000000 0.900239 0.500000
O O16 0.271800 0.000000 0.269362
O O17 0.057650 0.710773 0.714060
O O18 0.500000 0.653800 0.000000
#
# Coordination Sequence:
#
# PCOD8065126 Si02
#       7
#     4   4   4   4   4   4   4
#     4  11  24  42  68  97 121 161 207 241 302 377
#     4  10  23  41  63  93 126 160 201 251 305 362
#     4  10  22  37  53  80 118 158 198 248 308 356
#     4  10  20  37  59  86 116 156 205 248 298 356
#     4  10  22  36  54  82 115 155 202 253 302 351
#     4  10  21  39  63  94 127 156 201 257 301 355
#     4  10  22  37  58  88 118 157 202 246 303 358
#
# _framework density 19.987545999999998
#
# number of rings (size 3 to 8) (size 9 to 14) (size 15 to 20)
#    0.000    1.857    2.857    0.000    6.000    1.143 
#    0.000    2.857    0.000    2.571    0.000    0.000 
#    0.000    0.000    0.000    0.000    0.000    0.000 
#
# Total GULP energy -346891.415828 kJ/mol
# GULP energy per Si atom -12388.979137 kJ/mol
# Density = 1.994205 g / cm^3
# Si number density = 19.987546 Si / 1000 Ang^3
#
#
#
# Elastic Constant Matrix: (Units=GPa)
#
#
# Indices 1 2 3 4 5 6 
#
# 1 171.4985 59.8514 29.9790 0.0000 7.9776 0.0000
# 2 59.8514 111.5695 31.0523 0.0000 4.1447 0.0000
# 3 29.9790 31.0523 56.2094 0.0000 3.1993 0.0000
# 4 0.0000 0.0000 0.0000 27.9271 0.0000 -1.2175
# 5 7.9776 4.1447 3.1993 0.0000 18.9088 0.0000
# 6 0.0000 0.0000 0.0000 -1.2175 0.0000 32.5074
#
#
#
# Elastic Compliance Matrix: (Units=1/GPa)
#
#
# Indices 1 2 3 4 5 6 
#
# 1 0.007450 -0.003364 -0.001998 0.000000 -0.002068 0.000000
# 2 -0.003364 0.012144 -0.004891 0.000000 -0.000415 0.000000
# 3 -0.001998 -0.004891 0.021658 0.000000 -0.001749 0.000000
# 4 0.000000 0.000000 0.000000 0.035866 0.000000 0.001343
# 5 -0.002068 -0.000415 -0.001749 0.000000 0.054145 0.000000
# 6 0.000000 0.000000 0.000000 0.001343 0.000000 0.030812
#
#
# Mechanical properties :
#
#
# Convention : Reuss Voigt Hill
#
# Bulk Modulus (GPa) = 48.19989 64.56032 56.38011
# Shear Modulus (GPa) = 26.38565 30.42831 28.40698
#
# Velocity S-wave (km/s) = 3.63727 3.90598 3.77402
# Velocity P-wave (km/s) = 6.46583 7.26035 6.87457
#
# Compressibility (1/GPa) = 0.02074693
#
# Stress axis : x y z
#
# Youngs Moduli (GPa) = 134.22263 82.34263 46.17302
#
# Poissons Ratio (x) = 0.27700 0.09223
# Poissons Ratio (y) = 0.45152 0.22584
# Poissons Ratio (z) = 0.26811 0.40276
#
# Static dielectric constant tensor:
#      x y z
#    x 4.243930 0.000000 0.102740 
#    y 0.000000 3.638800 0.000000 
#    z 0.102740 0.000000 3.343560 
# 
# 
# High freq. dielectric constant tensor:
#      x y z
#    x 1.800280 0.000000 0.003630 
#    y 0.000000 1.773200 0.000000 
#    z 0.003630 0.000000 1.759290 
# 
# From -- ./inp_files/62567.got.cif
#   From: 2010.06.25/outbox.cif.g09.slc.cpg/sg10_32_cif.got.tgz:62567.got - 2010.06.27 22:07:45.
