data_PCOD8065131
_publ_section_title
;
Structure prediction by ZEFSAII (Michael W. Deem and Ramdas Pophale) SiO2 
 PCOD8065131
Probable space group: P 2/M
;
_chemical_formula_sum "Si O2"
_cell_formula_units_Z 24
_cell_length_a 12.197527
_cell_length_b 8.885997
_cell_length_c 10.769132
_cell_angle_alpha 90.000000
_cell_angle_beta 78.770877
_cell_angle_gamma 90.000000
_cell_volume 1144.890725
_symmetry_space_group_name_H-M "P 2/M"
_symmetry_group_IT_number 10
_symmetry_cell_setting 'monoclinic'
loop_
_space_group_symop_operation_xyz
x,y,z
-x,y,-z
-x,-y,-z
x,-y,z
loop_
_atom_site_type_symbol
_atom_site_label
_atom_site_fract_x
_atom_site_fract_y
_atom_site_fract_z
Si Si1 0.126815 0.168730 0.485853
Si Si2 0.535458 0.178089 0.353217
Si Si3 0.203353 0.832442 0.196259
Si Si4 0.993495 0.665520 0.145988
Si Si5 0.571732 0.322943 0.864581
Si Si6 0.232699 0.324768 0.683014
O O1 0.195869 0.165741 0.345173
O O2 0.196607 0.284723 0.552055
O O3 0.000000 0.228820 0.500000
O O4 0.123801 0.000000 0.544866
O O5 0.500000 0.234949 0.500000
O O6 0.461179 0.244930 0.258123
O O7 0.661598 0.228043 0.298209
O O8 0.524022 0.000000 0.349175
O O9 0.300801 0.720522 0.130966
O O10 0.083616 0.782833 0.172783
O O11 0.229137 0.000000 0.140416
O O12 0.013758 0.500000 0.202352
O O13 0.869621 0.722853 0.206039
O O14 0.000000 0.651286 0.000000
O O15 0.560241 0.500000 0.848243
O O16 0.500000 0.269461 0.000000
O O17 0.263589 0.500000 0.686312
#
# Coordination Sequence:
#
# PCOD8065131 Si02
#       6
#     4   4   4   4   4   4
#     4  10  20  37  59  88 127 163 198 248 310 370
#     4  11  25  45  68  95 130 171 215 266 323 380
#     4  11  23  40  65  94 124 161 207 257 311 373
#     4  10  23  41  60  87 126 167 205 252 312 373
#     4  11  26  46  68  94 128 170 215 266 323 380
#     4  11  23  38  63  95 126 163 209 258 310 372
#
# _framework density 20.962699000000001
#
# number of rings (size 3 to 8) (size 9 to 14) (size 15 to 20)
#    0.000    1.333    1.667    3.000    2.333    9.333 
#    0.000    0.000    0.000    0.000    0.000    0.000 
#    0.000    0.000    0.000    0.000    0.000    0.000 
#
# Total GULP energy -297634.038724 kJ/mol
# GULP energy per Si atom -12401.418280 kJ/mol
# Density = 2.091499 g / cm^3
# Si number density = 20.962699 Si / 1000 Ang^3
#
#
#
# Elastic Constant Matrix: (Units=GPa)
#
#
# Indices 1 2 3 4 5 6 
#
# 1 114.3690 34.6194 29.7474 0.0000 -17.1640 0.0000
# 2 34.6194 73.5159 40.3846 0.0000 -4.3439 0.0000
# 3 29.7474 40.3846 92.8198 0.0000 -10.6579 0.0000
# 4 0.0000 0.0000 0.0000 25.2339 0.0000 0.6855
# 5 -17.1640 -4.3439 -10.6579 0.0000 30.8131 0.0000
# 6 0.0000 0.0000 0.0000 0.6855 0.0000 35.6503
#
#
#
# Elastic Compliance Matrix: (Units=1/GPa)
#
#
# Indices 1 2 3 4 5 6 
#
# 1 0.011118 -0.004335 -0.001079 0.000000 0.005209 0.000000
# 2 -0.004335 0.019566 -0.007377 0.000000 -0.002208 0.000000
# 3 -0.001079 -0.007377 0.014725 0.000000 0.003452 0.000000
# 4 0.000000 0.000000 0.000000 0.039650 0.000000 -0.000762
# 5 0.005209 -0.002208 0.003452 0.000000 0.036238 0.000000
# 6 0.000000 0.000000 0.000000 -0.000762 0.000000 0.028065
#
#
# Mechanical properties :
#
#
# Convention : Reuss Voigt Hill
#
# Bulk Modulus (GPa) = 50.43574 54.46751 52.45162
# Shear Modulus (GPa) = 27.53997 30.06966 28.80482
#
# Velocity S-wave (km/s) = 3.62852 3.79150 3.71091
# Velocity P-wave (km/s) = 6.45498 6.72360 6.59066
#
# Compressibility (1/GPa) = 0.01982721
#
# Stress axis : x y z
#
# Youngs Moduli (GPa) = 89.94210 51.10908 67.90976
#
# Poissons Ratio (x) = 0.22157 0.07327
# Poissons Ratio (y) = 0.38992 0.50098
# Poissons Ratio (z) = 0.09704 0.37704
#
# Static dielectric constant tensor:
#      x y z
#    x 3.767180 0.000000 -0.309780 
#    y 0.000000 3.995210 0.000000 
#    z -0.309780 0.000000 3.689020 
# 
# 
# High freq. dielectric constant tensor:
#      x y z
#    x 1.833030 0.000000 -0.008640 
#    y 0.000000 1.822970 0.000000 
#    z -0.008640 0.000000 1.819960 
# 
# From -- ./inp_files/45146.got.cif
#   From: 2010.06.25/outbox.cif.g09.slc.cpg/sg10_23_cif.got.tgz:45146.got - 2010.06.27 22:07:45.
