data_PCOD8065564
_publ_section_title
;
Structure prediction by ZEFSAII (Michael W. Deem and Ramdas Pophale) SiO2 
 PCOD8065564
Probable space group: P 2/M
;
_chemical_formula_sum "Si O2"
_cell_formula_units_Z 28
_cell_length_a 11.971700
_cell_length_b 9.050348
_cell_length_c 15.603559
_cell_angle_alpha 90.000000
_cell_angle_beta 60.135222
_cell_angle_gamma 90.000000
_cell_volume 1466.106624
_symmetry_space_group_name_H-M "P 2/M"
_symmetry_group_IT_number 10
_symmetry_cell_setting 'monoclinic'
loop_
_space_group_symop_operation_xyz
x,y,z
-x,y,-z
-x,-y,-z
x,-y,z
loop_
_atom_site_type_symbol
_atom_site_label
_atom_site_fract_x
_atom_site_fract_y
_atom_site_fract_z
Si Si1 0.868468 0.327653 0.790080
Si Si2 0.426298 0.175417 0.652597
Si Si3 0.426510 0.665953 0.116668
Si Si4 0.034789 0.175697 0.581553
Si Si5 0.364148 0.174694 0.861958
Si Si6 0.687285 0.824194 0.478359
Si Si7 0.889722 0.673332 0.975908
O O1 0.885244 0.500000 0.764679
O O2 0.719169 0.280069 0.842561
O O3 0.941049 0.237247 0.689713
O O4 0.925574 0.290128 0.863207
O O5 0.364094 0.232103 0.764099
O O6 0.339127 0.234044 0.607819
O O7 0.573466 0.232624 0.584523
O O8 0.430239 0.000000 0.650102
O O9 0.429250 0.500000 0.153866
O O10 0.498468 0.777619 0.152415
O O11 0.500000 0.669510 0.000000
O O12 0.000000 0.231685 0.500000
O O13 0.177125 0.240506 0.543144
O O14 0.028547 0.000000 0.589733
O O15 0.350812 0.000000 0.874738
O O16 0.244591 0.247953 0.954570
O O17 0.692004 0.000000 0.477147
O O18 0.866706 0.500000 0.996837
O O19 0.000000 0.729907 0.000000
#
# Coordination Sequence:
#
# PCOD8065564 Si02
#       7
#     4   4   4   4   4   4   4
#     4  10  22  40  60  81 108 151 195 234 280 331
#     4   8  16  30  51  77 107 143 178 218 271 333
#     4  10  20  39  60  76 107 150 189 225 271 338
#     4  10  22  36  56  84 113 146 184 231 284 337
#     4  11  22  33  56  91 117 139 180 239 289 331
#     4   8  15  32  52  72 106 148 181 213 270 337
#     4  10  22  41  61  81 113 158 197 227 275 345
#
# _framework density 19.098201
#
# number of rings (size 3 to 8) (size 9 to 14) (size 15 to 20)
#    0.000    2.429    1.429    1.286    4.000    2.000 
#    0.000    0.000    0.000    0.000    0.000    5.000 
#    0.000    0.000    0.000    0.000    0.000    0.000 
#
# Total GULP energy -347100.669723 kJ/mol
# GULP energy per Si atom -12396.452490 kJ/mol
# Density = 1.905473 g / cm^3
# Si number density = 19.098201 Si / 1000 Ang^3
#
#
#
# Elastic Constant Matrix: (Units=GPa)
#
#
# Indices 1 2 3 4 5 6 
#
# 1 149.8173 27.8420 62.7230 0.0000 1.4943 0.0000
# 2 27.8420 30.1642 31.8227 0.0000 3.9508 0.0000
# 3 62.7230 31.8227 130.1057 0.0000 8.5770 0.0000
# 4 0.0000 0.0000 0.0000 21.6587 0.0000 3.2812
# 5 1.4943 3.9508 8.5770 0.0000 29.6608 0.0000
# 6 0.0000 0.0000 0.0000 3.2812 0.0000 13.4040
#
#
#
# Elastic Compliance Matrix: (Units=1/GPa)
#
#
# Indices 1 2 3 4 5 6 
#
# 1 0.008918 -0.005075 -0.003133 0.000000 0.001133 0.000000
# 2 -0.005075 0.047806 -0.009015 0.000000 -0.003505 0.000000
# 3 -0.003133 -0.009015 0.011532 0.000000 -0.001976 0.000000
# 4 0.000000 0.000000 0.000000 0.047949 0.000000 -0.011737
# 5 0.001133 -0.003505 -0.001976 0.000000 0.034696 0.000000
# 6 0.000000 0.000000 0.000000 -0.011737 0.000000 0.077478
#
#
# Mechanical properties :
#
#
# Convention : Reuss Voigt Hill
#
# Bulk Modulus (GPa) = 29.57705 61.65140 45.61423
# Shear Modulus (GPa) = 18.24188 25.45800 21.84994
#
# Velocity S-wave (km/s) = 3.09392 3.65500 3.38610
# Velocity P-wave (km/s) = 5.31823 7.08261 6.26286
#
# Compressibility (1/GPa) = 0.03381000
#
# Stress axis : x y z
#
# Youngs Moduli (GPa) = 112.13020 20.91779 86.71761
#
# Poissons Ratio (x) = 0.10616 0.27167
# Poissons Ratio (y) = 0.56905 0.78179
# Poissons Ratio (z) = 0.35128 0.18858
#
# Static dielectric constant tensor:
#      x y z
#    x 4.048160 0.000000 0.146040 
#    y 0.000000 3.134690 0.000000 
#    z 0.146040 0.000000 3.650410 
# 
# 
# High freq. dielectric constant tensor:
#      x y z
#    x 1.755040 0.000000 0.003150 
#    y 0.000000 1.704820 0.000000 
#    z 0.003150 0.000000 1.750700 
# 
# From -- ./inp_files/49406.got.cif
#   From: 2010.06.25/outbox.cif.g09.slc.cpg/sg10_25_cif.got.tgz:49406.got - 2010.06.27 22:07:45.
