data_PCOD8065103
_publ_section_title
;
Structure prediction by ZEFSAII (Michael W. Deem and Ramdas Pophale) SiO2 
 PCOD8065103
Probable space group: P 2/M
;
_chemical_formula_sum "Si O2"
_cell_formula_units_Z 32
_cell_length_a 27.832537
_cell_length_b 8.713789
_cell_length_c 21.603033
_cell_angle_alpha 90.000000
_cell_angle_beta 18.789377
_cell_angle_gamma 90.000000
_cell_volume 1687.532093
_symmetry_space_group_name_H-M "P 2/M"
_symmetry_group_IT_number 10
_symmetry_cell_setting 'monoclinic'
loop_
_space_group_symop_operation_xyz
x,y,z
-x,y,-z
-x,-y,-z
x,-y,z
loop_
_atom_site_type_symbol
_atom_site_label
_atom_site_fract_x
_atom_site_fract_y
_atom_site_fract_z
Si Si1 0.337487 0.821844 0.587011
Si Si2 0.330543 0.677036 0.959876
Si Si3 0.842321 0.321940 0.084790
Si Si4 0.183016 0.320479 0.659034
Si Si5 0.457473 0.682230 0.984485
Si Si6 0.351296 0.324278 0.795537
Si Si7 0.842062 0.319886 0.712145
Si Si8 0.396973 0.820879 0.307665
O O1 0.244807 0.783340 0.761043
O O2 0.280769 0.721610 0.599162
O O3 0.509901 0.784115 0.389418
O O4 0.318992 0.000000 0.593383
O O5 0.377198 0.500000 0.913660
O O6 0.284534 0.709356 0.945273
O O7 0.472765 0.779671 0.802786
O O8 0.192206 0.718120 0.173902
O O9 0.823853 0.500000 0.126230
O O10 0.780437 0.290008 0.091710
O O11 0.013547 0.270472 0.877552
O O12 0.196156 0.500000 0.630505
O O13 0.241177 0.233795 0.527056
O O14 0.459414 0.500000 0.981712
O O15 0.293559 0.744792 0.164639
O O16 0.500000 0.747580 0.000000
O O17 0.580101 0.739386 0.786153
O O18 0.406111 0.500000 0.723416
O O19 0.853176 0.500000 0.687245
O O20 0.000000 0.242660 0.500000
O O21 0.393101 0.000000 0.300875
#
# Coordination Sequence:
#
# PCOD8065103 Si02
#       8
#     4   4   4   4   4   4   4   4
#     4  12  24  37  58  85 110 145 188 227 278 339
#     4   9  17  32  56  80 107 144 184 223 268 320
#     4  10  23  40  57  82 112 145 185 232 287 334
#     4  11  22  39  60  82 111 146 188 235 278 328
#     4   9  18  34  55  81 109 142 183 225 270 320
#     4  10  20  37  59  82 109 145 188 231 274 330
#     4   8  14  27  49  80 109 134 171 219 265 310
#     4  11  21  34  56  83 111 146 188 227 272 329
#
# _framework density 18.962602
#
# number of rings (size 3 to 8) (size 9 to 14) (size 15 to 20)
#    0.000    2.000    1.250    4.125    0.000    4.750 
#    2.250    0.000    0.000    6.000    0.000    0.000 
#    0.000    0.000    0.000    0.000    0.000    0.000 
#
# Total GULP energy -396849.032178 kJ/mol
# GULP energy per Si atom -12401.532256 kJ/mol
# Density = 1.891944 g / cm^3
# Si number density = 18.962602 Si / 1000 Ang^3
#
#
#
# Elastic Constant Matrix: (Units=GPa)
#
#
# Indices 1 2 3 4 5 6 
#
# 1 98.3155 14.4006 32.6506 0.0000 17.6533 0.0000
# 2 14.4006 35.4111 19.7599 0.0000 0.8931 0.0000
# 3 32.6506 19.7599 106.6419 0.0000 14.4987 0.0000
# 4 0.0000 0.0000 0.0000 6.8492 0.0000 2.9559
# 5 17.6533 0.8931 14.4987 0.0000 28.9861 0.0000
# 6 0.0000 0.0000 0.0000 2.9559 0.0000 9.8843
#
#
#
# Elastic Compliance Matrix: (Units=1/GPa)
#
#
# Indices 1 2 3 4 5 6 
#
# 1 0.012632 -0.003685 -0.002311 0.000000 -0.006424 0.000000
# 2 -0.003685 0.032690 -0.005469 0.000000 0.003973 0.000000
# 3 -0.002311 -0.005469 0.011678 0.000000 -0.004265 0.000000
# 4 0.000000 0.000000 0.000000 0.167639 0.000000 -0.050133
# 5 -0.006424 0.003973 -0.004265 0.000000 0.040422 0.000000
# 6 0.000000 0.000000 0.000000 -0.050133 0.000000 0.116163
#
#
# Mechanical properties :
#
#
# Convention : Reuss Voigt Hill
#
# Bulk Modulus (GPa) = 29.35232 41.55456 35.45344
# Shear Modulus (GPa) = 12.03332 20.71439 16.37385
#
# Velocity S-wave (km/s) = 2.52182 3.30870 2.94169
# Velocity P-wave (km/s) = 4.89818 6.04634 5.50229
#
# Compressibility (1/GPa) = 0.03406885
#
# Stress axis : x y z
#
# Youngs Moduli (GPa) = 79.16301 30.59038 85.63041
#
# Poissons Ratio (x) = 0.11274 0.19793
# Poissons Ratio (y) = 0.29174 0.46831
# Poissons Ratio (z) = 0.18298 0.16730
#
# Static dielectric constant tensor:
#      x y z
#    x 3.583330 0.000000 0.106770 
#    y 0.000000 3.239980 0.000000 
#    z 0.106770 0.000000 3.647080 
# 
# 
# High freq. dielectric constant tensor:
#      x y z
#    x 1.736800 0.000000 0.014510 
#    y 0.000000 1.715170 0.000000 
#    z 0.014510 0.000000 1.737650 
# 
# From -- ./inp_files/86878.got.cif
#   From: 2010.06.25/outbox.cif.g09.slc.cpg/sg10_44_cif.got.tgz:86878.got - 2010.06.27 22:07:45.
