data_PCOD8065217
_publ_section_title
;
Structure prediction by ZEFSAII (Michael W. Deem and Ramdas Pophale) SiO2 
 PCOD8065217
Probable space group: P 2/M
;
_chemical_formula_sum "Si O2"
_cell_formula_units_Z 32
_cell_length_a 10.321158
_cell_length_b 9.301999
_cell_length_c 27.682346
_cell_angle_alpha 90.000000
_cell_angle_beta 141.532664
_cell_angle_gamma 90.000000
_cell_volume 1653.277406
_symmetry_space_group_name_H-M "P 2/M"
_symmetry_group_IT_number 10
_symmetry_cell_setting 'monoclinic'
loop_
_space_group_symop_operation_xyz
x,y,z
-x,y,-z
-x,-y,-z
x,-y,z
loop_
_atom_site_type_symbol
_atom_site_label
_atom_site_fract_x
_atom_site_fract_y
_atom_site_fract_z
Si Si1 0.468936 0.667643 0.864728
Si Si2 0.597998 0.670304 0.577798
Si Si3 0.327731 0.830039 0.989771
Si Si4 0.521155 0.665173 0.770057
Si Si5 0.003936 0.330360 0.745806
Si Si6 0.170175 0.162260 0.619266
Si Si7 0.068104 0.670917 0.166120
Si Si8 0.721878 0.162969 0.459895
O O1 0.479086 0.500000 0.883291
O O2 0.605358 0.764471 0.939700
O O3 0.563478 0.689497 0.839095
O O4 0.231621 0.727358 0.798063
O O5 0.500000 0.734477 0.500000
O O6 0.584096 0.500000 0.574040
O O7 0.835260 0.723192 0.656681
O O8 0.462270 0.728825 0.582052
O O9 0.294755 0.000000 0.985279
O O10 0.500000 0.792296 0.000000
O O11 0.113509 0.754772 0.913748
O O12 0.483259 0.500000 0.747176
O O13 0.306118 0.741610 0.694238
O O14 0.716256 0.721803 0.795720
O O15 0.008851 0.500000 0.746603
O O16 0.933695 0.279248 0.778610
O O17 0.252693 0.173744 0.589425
O O18 0.929839 0.213118 0.549151
O O19 0.186749 0.000000 0.642972
O O20 0.033966 0.500000 0.150269
O O21 0.666281 0.000000 0.458688
#
# Coordination Sequence:
#
# PCOD8065217 Si02
#       8
#     4   4   4   4   4   4   4   4
#     4  10  21  38  60  84 115 153 187 225 281 345
#     4  10  21  34  53  82 115 147 186 241 292 328
#     4  11  23  39  60  88 116 142 189 240 277 327
#     4  10  22  36  57  90 118 142 185 238 276 329
#     4   9  18  34  56  80 110 151 191 224 277 345
#     4   9  19  36  57  77 108 150 189 229 280 340
#     4  10  20  37  61  85 113 150 188 227 279 341
#     4   9  19  36  54  76 106 148 194 232 277 339
#
# _framework density 19.355492999999999
#
# number of rings (size 3 to 8) (size 9 to 14) (size 15 to 20)
#    0.000    2.250    1.250    1.875    1.750    4.250 
#    0.000    5.000    0.000    0.000    0.000    0.000 
#    0.000    0.000    0.000    0.000    0.000    0.000 
#
# Total GULP energy -396765.457600 kJ/mol
# GULP energy per Si atom -12398.920550 kJ/mol
# Density = 1.931144 g / cm^3
# Si number density = 19.355493 Si / 1000 Ang^3
#
#
#
# Elastic Constant Matrix: (Units=GPa)
#
#
# Indices 1 2 3 4 5 6 
#
# 1 65.5443 10.1319 13.5549 0.0000 0.4984 0.0000
# 2 10.1319 38.5638 32.1681 0.0000 -2.0403 0.0000
# 3 13.5549 32.1681 120.8188 0.0000 -3.7800 0.0000
# 4 0.0000 0.0000 0.0000 21.4510 0.0000 0.9366
# 5 0.4984 -2.0403 -3.7800 0.0000 24.4451 0.0000
# 6 0.0000 0.0000 0.0000 0.9366 0.0000 20.7468
#
#
#
# Elastic Compliance Matrix: (Units=1/GPa)
#
#
# Indices 1 2 3 4 5 6 
#
# 1 0.015987 -0.003502 -0.000885 0.000000 -0.000755 0.000000
# 2 -0.003502 0.034150 -0.008650 0.000000 0.001584 0.000000
# 3 -0.000885 -0.008650 0.010709 0.000000 0.000952 0.000000
# 4 0.000000 0.000000 0.000000 0.046710 0.000000 -0.002109
# 5 -0.000755 0.001584 0.000952 0.000000 0.041203 0.000000
# 6 0.000000 0.000000 0.000000 -0.002109 0.000000 0.048295
#
#
# Mechanical properties :
#
#
# Convention : Reuss Voigt Hill
#
# Bulk Modulus (GPa) = 28.75848 37.40406 33.08127
# Shear Modulus (GPa) = 21.30203 24.60005 22.95104
#
# Velocity S-wave (km/s) = 3.32108 3.56892 3.44723
# Velocity P-wave (km/s) = 5.44026 6.02907 5.74221
#
# Compressibility (1/GPa) = 0.03477235
#
# Stress axis : x y z
#
# Youngs Moduli (GPa) = 62.55103 29.28216 93.37930
#
# Poissons Ratio (x) = 0.10255 0.08262
# Poissons Ratio (y) = 0.21906 0.80774
# Poissons Ratio (z) = 0.05534 0.25329
#
# Static dielectric constant tensor:
#      x y z
#    x 3.613950 0.000000 0.077820 
#    y 0.000000 3.325780 0.000000 
#    z 0.077820 0.000000 3.763810 
# 
# 
# High freq. dielectric constant tensor:
#      x y z
#    x 1.753970 0.000000 0.001520 
#    y 0.000000 1.730520 0.000000 
#    z 0.001520 0.000000 1.764390 
# 
# From -- ./inp_files/95044.got.cif
#   From: 2010.06.25/outbox.cif.g09.slc.cpg/sg10_48_cif.got.tgz:95044.got - 2010.06.27 22:07:45.
