data_PCOD8065391
_publ_section_title
;
Structure prediction by ZEFSAII (Michael W. Deem and Ramdas Pophale) SiO2 
 PCOD8065391
Probable space group: P 2/M
;
_chemical_formula_sum "Si O2"
_cell_formula_units_Z 28
_cell_length_a 26.314660
_cell_length_b 11.053962
_cell_length_c 26.775559
_cell_angle_alpha 90.000000
_cell_angle_beta 169.152844
_cell_angle_gamma 90.000000
_cell_volume 1465.717009
_symmetry_space_group_name_H-M "P 2/M"
_symmetry_group_IT_number 10
_symmetry_cell_setting 'monoclinic'
loop_
_space_group_symop_operation_xyz
x,y,z
-x,y,-z
-x,-y,-z
x,-y,z
loop_
_atom_site_type_symbol
_atom_site_label
_atom_site_fract_x
_atom_site_fract_y
_atom_site_fract_z
Si Si1 0.488700 0.744888 0.593801
Si Si2 0.913177 0.355654 0.470027
Si Si3 0.637977 0.359797 0.907834
Si Si4 0.821849 0.744402 0.601897
Si Si5 0.969115 0.638732 0.912876
Si Si6 0.052236 0.000000 0.251067
Si Si7 0.647179 0.643708 0.029815
Si Si8 0.385250 0.000000 0.258213
O O1 0.332003 0.726723 0.494446
O O2 0.270799 0.721448 0.340309
O O3 0.623503 0.878340 0.716944
O O4 0.743683 0.654880 0.837795
O O5 0.921455 0.500000 0.476468
O O6 0.000000 0.303279 0.500000
O O7 0.619730 0.306279 0.200933
O O8 0.107007 0.305122 0.700440
O O9 0.551124 0.500000 0.821944
O O10 0.395760 0.281686 0.650926
O O11 0.673465 0.310989 0.998418
O O12 0.923274 0.346159 0.154528
O O13 0.955935 0.877732 0.723898
O O14 0.879104 0.500000 0.820047
O O15 0.000000 0.677170 0.000000
O O16 0.333351 0.000000 0.496188
O O17 0.833767 0.000000 0.996611
O O18 0.646103 0.500000 0.028736
#
# Coordination Sequence:
#
# PCOD8065391 Si02
#       8
#     4   4   4   4   4   2   4   2
#     4  11  22  39  61  83 106 137 178 220 262 310
#     4   9  15  24  40  60  83 124 181 219 241 288
#     4  11  22  34  49  76 113 145 173 208 261 320
#     4  11  22  36  57  80 103 139 179 217 255 309
#     4  11  24  41  59  81 112 146 176 211 260 312
#     4  10  20  38  58  78 105 138 177 218 266 304
#     4   9  17  28  40  59  95 136 165 203 258 304
#     4  10  20  38  61  84 108 132 166 218 271 314
#
# _framework density 19.103278
#
# number of rings (size 3 to 8) (size 9 to 14) (size 15 to 20)
#    0.000    1.714    0.000    6.857    0.000    8.571 
#    0.000    2.143    0.000    0.000    0.000    0.000 
#    0.000    0.000    0.000   45.000    0.000   20.000 
#
# Total GULP energy -347141.999453 kJ/mol
# GULP energy per Si atom -12397.928552 kJ/mol
# Density = 1.905980 g / cm^3
# Si number density = 19.103278 Si / 1000 Ang^3
#
#
#
# Elastic Constant Matrix: (Units=GPa)
#
#
# Indices 1 2 3 4 5 6 
#
# 1 80.3920 39.6531 26.0281 0.0000 -14.0150 0.0000
# 2 39.6531 59.9113 28.7499 0.0000 -16.3757 0.0000
# 3 26.0281 28.7499 128.1238 0.0000 -19.4541 0.0000
# 4 0.0000 0.0000 0.0000 29.1966 0.0000 -6.7823
# 5 -14.0150 -16.3757 -19.4541 0.0000 42.8249 0.0000
# 6 0.0000 0.0000 0.0000 -6.7823 0.0000 4.0166
#
#
#
# Elastic Compliance Matrix: (Units=1/GPa)
#
#
# Indices 1 2 3 4 5 6 
#
# 1 0.018672 -0.011532 -0.001018 0.000000 0.001239 0.000000
# 2 -0.011532 0.027185 -0.002956 0.000000 0.005279 0.000000
# 3 -0.001018 -0.002956 0.009079 0.000000 0.002661 0.000000
# 4 0.000000 0.000000 0.000000 0.056357 0.000000 0.095162
# 5 0.001239 0.005279 0.002661 0.000000 0.026984 0.000000
# 6 0.000000 0.000000 0.000000 0.095162 0.000000 0.409657
#
#
# Mechanical properties :
#
#
# Convention : Reuss Voigt Hill
#
# Bulk Modulus (GPa) = 41.79529 50.80989 46.30259
# Shear Modulus (GPa) = 8.51906 26.80734 17.66320
#
# Velocity S-wave (km/s) = 2.11404 3.75011 3.04405
# Velocity P-wave (km/s) = 5.28062 6.73842 6.05356
#
# Compressibility (1/GPa) = 0.02392614
#
# Stress axis : x y z
#
# Youngs Moduli (GPa) = 53.55487 36.78501 110.14430
#
# Poissons Ratio (x) = 0.42419 0.11208
# Poissons Ratio (y) = 0.61758 0.32558
# Poissons Ratio (z) = 0.05449 0.10874
#
# Static dielectric constant tensor:
#      x y z
#    x 3.543350 0.000000 -0.017480 
#    y 0.000000 89.556110 0.000000 
#    z -0.017480 0.000000 3.695130 
# 
# 
# High freq. dielectric constant tensor:
#      x y z
#    x 1.737140 0.000000 -0.002020 
#    y 0.000000 1.699940 0.000000 
#    z -0.002020 0.000000 1.769730 
# 
# From -- ./inp_files/94020.got.cif
#   From: 2010.06.25/outbox.cif.g09.slc.cpg/sg10_48_cif.got.tgz:94020.got - 2010.06.27 22:07:45.
