data_PCOD8065495
_publ_section_title
;
Structure prediction by ZEFSAII (Michael W. Deem and Ramdas Pophale) SiO2 
 PCOD8065495
Probable space group: P 2/M
;
_chemical_formula_sum "Si O2"
_cell_formula_units_Z 32
_cell_length_a 11.281541
_cell_length_b 14.825397
_cell_length_c 14.327591
_cell_angle_alpha 90.000000
_cell_angle_beta 39.172771
_cell_angle_gamma 90.000000
_cell_volume 1513.672646
_symmetry_space_group_name_H-M "P 2/M"
_symmetry_group_IT_number 10
_symmetry_cell_setting 'monoclinic'
loop_
_space_group_symop_operation_xyz
x,y,z
-x,y,-z
-x,-y,-z
x,-y,z
loop_
_atom_site_type_symbol
_atom_site_label
_atom_site_fract_x
_atom_site_fract_y
_atom_site_fract_z
Si Si1 0.779822 0.595938 0.148077
Si Si2 0.175444 0.783807 0.821324
Si Si3 0.466813 0.106753 0.752002
Si Si4 0.897497 0.100727 0.464609
Si Si5 0.888941 0.397448 0.474777
Si Si6 0.585314 0.228975 0.039856
Si Si7 0.472060 0.402070 0.194479
Si Si8 0.996740 0.753331 0.737253
O O1 0.724177 0.500000 0.231744
O O2 0.722828 0.685805 0.237774
O O3 0.681965 0.600181 0.106959
O O4 0.000000 0.598414 0.000000
O O5 0.331010 0.859235 0.751682
O O6 0.119412 0.791922 0.747905
O O7 0.000000 0.792288 0.000000
O O8 0.681730 0.133354 0.600739
O O9 0.406956 0.156136 0.883249
O O10 0.441492 0.000000 0.780366
O O11 0.016656 0.164475 0.325879
O O12 0.000000 0.105291 0.500000
O O13 0.904632 0.000000 0.419486
O O14 0.949976 0.500000 0.412700
O O15 0.669119 0.391556 0.632165
O O16 0.925420 0.335590 0.362115
O O17 0.000000 0.364222 0.500000
O O18 0.450308 0.316235 0.140109
O O19 0.500000 0.181247 0.000000
O O20 0.791362 0.268871 0.899630
O O21 0.434545 0.500000 0.167512
#
# Coordination Sequence:
#
# PCOD8065495 Si02
#       8
#     4   4   4   4   4   4   4   4
#     4   9  17  33  59  83 112 157 204 251 299 354
#     4  11  22  42  61  91 132 167 213 263 319 378
#     4  11  24  44  67  89 125 171 212 261 326 388
#     4  10  23  45  69  94 125 161 208 266 327 388
#     4  10  22  41  63  93 133 172 212 259 317 382
#     4  12  23  38  63  96 127 159 214 269 322 384
#     4  10  20  38  63  88 124 168 206 251 312 377
#     4  12  24  38  65  96 128 167 210 263 318 381
#
# _framework density 21.140635
#
# number of rings (size 3 to 8) (size 9 to 14) (size 15 to 20)
#    0.000    1.375    2.500    3.375    0.000    3.250 
#    0.000    1.250    0.000    2.250    0.000    0.000 
#    0.000    0.000    0.000    0.000    0.000    0.000 
#
# Total GULP energy -396612.080493 kJ/mol
# GULP energy per Si atom -12394.127515 kJ/mol
# Density = 2.109252 g / cm^3
# Si number density = 21.140635 Si / 1000 Ang^3
#
#
#
# Elastic Constant Matrix: (Units=GPa)
#
#
# Indices 1 2 3 4 5 6 
#
# 1 99.5726 22.3078 17.4444 0.0000 -1.3285 0.0000
# 2 22.3078 127.2181 42.2584 0.0000 6.4809 0.0000
# 3 17.4444 42.2584 71.3885 0.0000 0.2678 0.0000
# 4 0.0000 0.0000 0.0000 13.0698 0.0000 -11.4079
# 5 -1.3285 6.4809 0.2678 0.0000 31.8007 0.0000
# 6 0.0000 0.0000 0.0000 -11.4079 0.0000 18.7439
#
#
#
# Elastic Compliance Matrix: (Units=1/GPa)
#
#
# Indices 1 2 3 4 5 6 
#
# 1 0.010666 -0.001295 -0.001842 0.000000 0.000725 0.000000
# 2 -0.001295 0.010064 -0.005633 0.000000 -0.002058 0.000000
# 3 -0.001842 -0.005633 0.017789 0.000000 0.000921 0.000000
# 4 0.000000 0.000000 0.000000 0.163219 0.000000 0.099338
# 5 0.000725 -0.002058 0.000921 0.000000 0.031888 0.000000
# 6 0.000000 0.000000 0.000000 0.099338 0.000000 0.113810
#
#
# Mechanical properties :
#
#
# Convention : Reuss Voigt Hill
#
# Bulk Modulus (GPa) = 47.67046 51.35560 49.51303
# Shear Modulus (GPa) = 13.44203 27.13413 20.28808
#
# Velocity S-wave (km/s) = 2.52432 3.58649 3.10122
# Velocity P-wave (km/s) = 5.57624 6.44171 6.02454
#
# Compressibility (1/GPa) = 0.02097735
#
# Stress axis : x y z
#
# Youngs Moduli (GPa) = 93.76017 99.36856 56.21466
#
# Poissons Ratio (x) = 0.12870 0.10356
# Poissons Ratio (y) = 0.12144 0.31665
# Poissons Ratio (z) = 0.17273 0.55973
#
# Static dielectric constant tensor:
#      x y z
#    x 3.981900 0.000000 -0.036750 
#    y 0.000000 4.157720 0.000000 
#    z -0.036750 0.000000 3.823080 
# 
# 
# High freq. dielectric constant tensor:
#      x y z
#    x 1.833040 0.000000 -0.019120 
#    y 0.000000 1.841320 0.000000 
#    z -0.019120 0.000000 1.808540 
# 
# From -- ./inp_files/65061.got.cif
#   From: 2010.06.25/outbox.cif.g09.slc.cpg/sg10_33_cif.got.tgz:65061.got - 2010.06.27 22:07:45.
