data_PCOD8065713
_publ_section_title
;
Structure prediction by ZEFSAII (Michael W. Deem and Ramdas Pophale) SiO2 
 PCOD8065713
Probable space group: P 2/M
;
_chemical_formula_sum "Si O2"
_cell_formula_units_Z 32
_cell_length_a 10.961200
_cell_length_b 10.195273
_cell_length_c 24.369240
_cell_angle_alpha 90.000000
_cell_angle_beta 44.577413
_cell_angle_gamma 90.000000
_cell_volume 1911.424079
_symmetry_space_group_name_H-M "P 2/M"
_symmetry_group_IT_number 10
_symmetry_cell_setting 'monoclinic'
loop_
_space_group_symop_operation_xyz
x,y,z
-x,y,-z
-x,-y,-z
x,-y,z
loop_
_atom_site_type_symbol
_atom_site_label
_atom_site_fract_x
_atom_site_fract_y
_atom_site_fract_z
Si Si1 0.881838 0.643305 0.204560
Si Si2 0.146536 0.349336 0.909932
Si Si3 0.436178 0.854082 0.799659
Si Si4 0.825294 0.850114 0.697817
Si Si5 0.439870 0.149762 0.576544
Si Si6 0.867473 0.647279 0.590126
Si Si7 0.955207 0.851190 0.268162
Si Si8 0.500032 0.274234 0.331300
O O1 0.951490 0.500000 0.200271
O O2 0.932202 0.671200 0.125417
O O3 0.976413 0.754364 0.209926
O O4 0.672563 0.637159 0.278064
O O5 0.207744 0.500000 0.898788
O O6 0.310270 0.254176 0.866227
O O7 0.000000 0.308999 0.000000
O O8 0.619410 0.835814 0.771273
O O9 0.463078 0.839130 0.725448
O O10 0.360921 0.000000 0.833962
O O11 0.897483 0.751369 0.628853
O O12 0.907065 0.811270 0.729824
O O13 0.875918 0.000000 0.665300
O O14 0.500000 0.216360 0.500000
O O15 0.234125 0.165403 0.645553
O O16 0.535928 0.215632 0.597158
O O17 0.500638 0.000000 0.557518
O O18 0.908685 0.500000 0.598088
O O19 0.669608 0.645050 0.631608
O O20 0.000000 0.688258 0.500000
O O21 0.984782 0.000000 0.237923
#
# Coordination Sequence:
#
# PCOD8065713 Si02
#       8
#     4   4   4   4   4   4   4   4
#     4   9  17  30  50  71  92 122 156 190 231 282
#     4   9  18  32  51  77 105 128 152 187 233 283
#     4   9  17  30  49  73  96 122 158 196 235 280
#     4   9  19  34  50  69  93 125 164 200 237 285
#     4   9  17  27  43  66  89 117 156 201 242 282
#     4  10  21  33  46  66  93 123 159 205 252 292
#     4   9  18  32  48  67  94 124 159 200 238 280
#     4   9  17  30  47  63  92 124 156 195 241 287
#
# _framework density 16.741444999999999
#
# number of rings (size 3 to 8) (size 9 to 14) (size 15 to 20)
#    0.000    2.875    0.000    0.750    1.750    7.500 
#    0.000    0.000    0.000    2.625    0.000    5.250 
#    0.000    0.000    0.000    0.000    0.000    0.000 
#
# Total GULP energy -396707.153283 kJ/mol
# GULP energy per Si atom -12397.098540 kJ/mol
# Density = 1.670334 g / cm^3
# Si number density = 16.741445 Si / 1000 Ang^3
#
#
#
# Elastic Constant Matrix: (Units=GPa)
#
#
# Indices 1 2 3 4 5 6 
#
# 1 89.7203 50.5574 33.8981 0.0000 14.2305 0.0000
# 2 50.5574 109.6235 52.0803 0.0000 7.6949 0.0000
# 3 33.8981 52.0803 96.5617 0.0000 12.9249 0.0000
# 4 0.0000 0.0000 0.0000 22.5034 0.0000 2.3828
# 5 14.2305 7.6949 12.9249 0.0000 17.7807 0.0000
# 6 0.0000 0.0000 0.0000 2.3828 0.0000 20.6327
#
#
#
# Elastic Compliance Matrix: (Units=1/GPa)
#
#
# Indices 1 2 3 4 5 6 
#
# 1 0.016798 -0.006562 -0.001040 0.000000 -0.009849 0.000000
# 2 -0.006562 0.014833 -0.006137 0.000000 0.003294 0.000000
# 3 -0.001040 -0.006137 0.015026 0.000000 -0.007435 0.000000
# 4 0.000000 0.000000 0.000000 0.044988 0.000000 -0.005195
# 5 -0.009849 0.003294 -0.007435 0.000000 0.068102 0.000000
# 6 0.000000 0.000000 0.000000 -0.005195 0.000000 0.049067
#
#
# Mechanical properties :
#
#
# Convention : Reuss Voigt Hill
#
# Bulk Modulus (GPa) = 52.13867 63.21967 57.67917
# Shear Modulus (GPa) = 20.60279 22.80800 21.70540
#
# Velocity S-wave (km/s) = 3.51186 3.69503 3.60461
# Velocity P-wave (km/s) = 6.90328 7.48657 7.20083
#
# Compressibility (1/GPa) = 0.01917962
#
# Stress axis : x y z
#
# Youngs Moduli (GPa) = 59.52974 67.41681 66.54952
#
# Poissons Ratio (x) = 0.44239 0.06918
# Poissons Ratio (y) = 0.39064 0.40845
# Poissons Ratio (z) = 0.06189 0.41377
#
# Static dielectric constant tensor:
#      x y z
#    x 3.100420 0.000000 0.083090 
#    y 0.000000 3.179170 0.000000 
#    z 0.083090 0.000000 3.009190 
# 
# 
# High freq. dielectric constant tensor:
#      x y z
#    x 1.636130 0.000000 0.006150 
#    y 0.000000 1.648400 0.000000 
#    z 0.006150 0.000000 1.623360 
# 
# From -- ./inp_files/88516.got.cif
#   From: 2010.06.25/outbox.cif.g09.slc.cpg/sg10_45_cif.got.tgz:88516.got - 2010.06.27 22:07:45.
