data_PCOD8065695
_publ_section_title
;
Structure prediction by ZEFSAII (Michael W. Deem and Ramdas Pophale) SiO2 
 PCOD8065695
Probable space group: P 2/M
;
_chemical_formula_sum "Si O2"
_cell_formula_units_Z 28
_cell_length_a 19.612592
_cell_length_b 9.001504
_cell_length_c 14.526679
_cell_angle_alpha 90.000000
_cell_angle_beta 32.273199
_cell_angle_gamma 90.000000
_cell_volume 1369.375712
_symmetry_space_group_name_H-M "P 2/M"
_symmetry_group_IT_number 10
_symmetry_cell_setting 'monoclinic'
loop_
_space_group_symop_operation_xyz
x,y,z
-x,y,-z
-x,-y,-z
x,-y,z
loop_
_atom_site_type_symbol
_atom_site_label
_atom_site_fract_x
_atom_site_fract_y
_atom_site_fract_z
Si Si1 0.932573 0.833711 0.806092
Si Si2 0.472390 0.165210 0.638503
Si Si3 0.721983 0.674577 0.388696
Si Si4 0.860207 0.827266 0.688490
Si Si5 0.782727 0.169783 0.497145
Si Si6 0.354179 0.675619 0.187708
Si Si7 0.226754 0.673058 0.877116
O O1 0.847792 0.803653 0.812477
O O2 0.080857 0.817851 0.607775
O O3 0.907565 0.000000 0.872300
O O4 0.902550 0.718404 0.922891
O O5 0.500000 0.155811 0.500000
O O6 0.576824 0.269938 0.566583
O O7 0.335153 0.238904 0.809469
O O8 0.474565 0.000000 0.679967
O O9 0.727206 0.500000 0.399449
O O10 0.803126 0.758485 0.373264
O O11 0.779614 0.717874 0.223123
O O12 0.743270 0.739203 0.776762
O O13 0.000000 0.766241 0.500000
O O14 0.847757 0.000000 0.674314
O O15 0.678279 0.258529 0.675078
O O16 0.737828 0.000000 0.538296
O O17 0.338024 0.500000 0.208860
O O18 0.500000 0.721731 0.000000
O O19 0.255150 0.500000 0.853259
#
# Coordination Sequence:
#
# PCOD8065695 Si02
#       7
#     4   4   4   4   4   4   4
#     4  10  22  39  61  88 119 156 204 257 304 364
#     4   9  17  32  55  80 108 148 198 246 295 355
#     4  10  21  37  57  84 121 162 201 249 306 363
#     4  10  20  41  68  92 120 157 205 256 308 369
#     4  11  23  41  63  87 118 161 206 252 309 368
#     4  11  25  43  64  95 131 163 202 256 314 378
#     4  10  21  36  56  85 122 160 200 250 305 360
#
# _framework density 20.447275000000001
#
# number of rings (size 3 to 8) (size 9 to 14) (size 15 to 20)
#    0.000    1.857    1.429    2.143    0.000    8.286 
#    0.000    5.714    0.000    0.000    0.000    0.000 
#    0.000    0.000    0.000    0.000    0.000    0.000 
#
# Total GULP energy -347221.590704 kJ/mol
# GULP energy per Si atom -12400.771097 kJ/mol
# Density = 2.040074 g / cm^3
# Si number density = 20.447275 Si / 1000 Ang^3
#
#
#
# Elastic Constant Matrix: (Units=GPa)
#
#
# Indices 1 2 3 4 5 6 
#
# 1 101.5390 48.5371 42.1974 0.0000 -1.6652 0.0000
# 2 48.5371 103.5952 52.2580 0.0000 1.7115 0.0000
# 3 42.1974 52.2580 112.8772 0.0000 0.9064 0.0000
# 4 0.0000 0.0000 0.0000 33.3059 0.0000 0.9053
# 5 -1.6652 1.7115 0.9064 0.0000 28.5265 0.0000
# 6 0.0000 0.0000 0.0000 0.9053 0.0000 35.2902
#
#
#
# Elastic Compliance Matrix: (Units=1/GPa)
#
#
# Indices 1 2 3 4 5 6 
#
# 1 0.013341 -0.004892 -0.002732 0.000000 0.001159 0.000000
# 2 -0.004892 0.014397 -0.004829 0.000000 -0.000996 0.000000
# 3 -0.002732 -0.004829 0.012118 0.000000 -0.000255 0.000000
# 4 0.000000 0.000000 0.000000 0.030046 0.000000 -0.000771
# 5 0.001159 -0.000996 -0.000255 0.000000 0.035191 0.000000
# 6 0.000000 0.000000 0.000000 -0.000771 0.000000 0.028356
#
#
# Mechanical properties :
#
#
# Convention : Reuss Voigt Hill
#
# Bulk Modulus (GPa) = 66.88263 67.11071 66.99667
# Shear Modulus (GPa) = 30.61151 31.09245 30.85198
#
# Velocity S-wave (km/s) = 3.87343 3.90374 3.88861
# Velocity P-wave (km/s) = 7.26536 7.29462 7.28000
#
# Compressibility (1/GPa) = 0.01495157
#
# Stress axis : x y z
#
# Youngs Moduli (GPa) = 74.95642 69.45859 82.52168
#
# Poissons Ratio (x) = 0.33977 0.22545
# Poissons Ratio (y) = 0.36666 0.39847
# Poissons Ratio (z) = 0.20478 0.33539
#
# Static dielectric constant tensor:
#      x y z
#    x 3.670060 0.000000 -0.054790 
#    y 0.000000 3.687940 0.000000 
#    z -0.054790 0.000000 3.590360 
# 
# 
# High freq. dielectric constant tensor:
#      x y z
#    x 1.798150 0.000000 0.000320 
#    y 0.000000 1.801700 0.000000 
#    z 0.000320 0.000000 1.792280 
# 
# From -- ./inp_files/70168.got.cif
#   From: 2010.06.25/outbox.cif.g09.slc.cpg/sg10_36_cif.got.tgz:70168.got - 2010.06.27 22:07:45.
