data_PCOD8065382
_publ_section_title
;
Structure prediction by ZEFSAII (Michael W. Deem and Ramdas Pophale) SiO2 
 PCOD8065382
Probable space group: P 2/M
;
_chemical_formula_sum "Si O2"
_cell_formula_units_Z 32
_cell_length_a 23.202248
_cell_length_b 9.264837
_cell_length_c 15.071472
_cell_angle_alpha 90.000000
_cell_angle_beta 30.555256
_cell_angle_gamma 90.000000
_cell_volume 1647.034315
_symmetry_space_group_name_H-M "P 2/M"
_symmetry_group_IT_number 10
_symmetry_cell_setting 'monoclinic'
loop_
_space_group_symop_operation_xyz
x,y,z
-x,y,-z
-x,-y,-z
x,-y,z
loop_
_atom_site_type_symbol
_atom_site_label
_atom_site_fract_x
_atom_site_fract_y
_atom_site_fract_z
Si Si1 0.450698 0.169552 0.811670
Si Si2 0.239301 0.335551 0.039787
Si Si3 0.440546 0.664017 0.488175
Si Si4 0.017033 0.165805 0.373627
Si Si5 0.211291 0.339980 0.878515
Si Si6 0.000830 0.171134 0.099648
Si Si7 0.580229 0.829399 0.816686
Si Si8 0.834294 0.170188 0.471847
O O1 0.522828 0.221984 0.633139
O O2 0.522650 0.213704 0.801350
O O3 0.429230 0.000000 0.833815
O O4 0.328848 0.246353 0.979242
O O5 0.238672 0.500000 0.074271
O O6 0.115338 0.270586 0.212761
O O7 0.273918 0.324256 0.890523
O O8 0.500000 0.708022 0.500000
O O9 0.474005 0.500000 0.416111
O O10 0.305413 0.679593 0.677973
O O11 0.905382 0.210978 0.465881
O O12 0.000000 0.189285 0.500000
O O13 0.049280 0.000000 0.309838
O O14 0.156440 0.500000 0.944558
O O15 0.115395 0.220745 0.995253
O O16 0.895622 0.227209 0.299867
O O17 0.001905 0.000000 0.095914
O O18 0.000000 0.233602 0.000000
O O19 0.707885 0.762683 0.649351
O O20 0.588867 0.000000 0.818014
O O21 0.500000 0.763466 0.000000
O O22 0.823352 0.000000 0.477609
#
# Coordination Sequence:
#
# PCOD8065382 Si02
#       8
#     4   4   4   4   4   4   4   4
#     4  11  23  36  59  91 117 149 202 250 288 345
#     4  11  22  39  60  83 119 158 194 239 296 355
#     4  10  20  38  57  78 115 158 189 224 288 355
#     4  10  21  36  61  92 117 145 190 245 297 351
#     4  10  21  37  57  79 111 155 196 233 282 351
#     4  10  21  35  56  83 115 151 186 235 294 345
#     4   9  20  37  58  84 117 155 193 240 296 350
#     4   9  18  35  55  82 119 151 183 233 292 345
#
# _framework density 19.42886
#
# number of rings (size 3 to 8) (size 9 to 14) (size 15 to 20)
#    0.000    2.000    2.500    0.750    3.500    1.750 
#    0.000    0.000    0.000    3.000    0.000    0.000 
#    0.000    0.000    0.000    0.000    0.000    0.000 
#
# Total GULP energy -396774.859992 kJ/mol
# GULP energy per Si atom -12399.214375 kJ/mol
# Density = 1.938464 g / cm^3
# Si number density = 19.428860 Si / 1000 Ang^3
#
#
#
# Elastic Constant Matrix: (Units=GPa)
#
#
# Indices 1 2 3 4 5 6 
#
# 1 134.6835 45.7401 74.0155 0.0000 -6.5162 0.0000
# 2 45.7401 54.1208 31.7670 0.0000 -4.4767 0.0000
# 3 74.0155 31.7670 125.8888 0.0000 -10.0642 0.0000
# 4 0.0000 0.0000 0.0000 -5.2476 0.0000 -7.7034
# 5 -6.5162 -4.4767 -10.0642 0.0000 34.4990 0.0000
# 6 0.0000 0.0000 0.0000 -7.7034 0.0000 12.5264
#
#
#
# Elastic Compliance Matrix: (Units=1/GPa)
#
#
# Indices 1 2 3 4 5 6 
#
# 1 0.013285 -0.007807 -0.005858 0.000000 -0.000213 0.000000
# 2 -0.007807 0.026330 -0.001944 0.000000 0.001375 0.000000
# 3 -0.005858 -0.001944 0.012051 0.000000 0.002157 0.000000
# 4 0.000000 0.000000 0.000000 -0.100150 0.000000 -0.061590
# 5 -0.000213 0.001375 0.002157 0.000000 0.029754 0.000000
# 6 0.000000 0.000000 0.000000 -0.061590 0.000000 0.041955
#
#
# Mechanical properties :
#
#
# Convention : Reuss Voigt Hill
#
# Bulk Modulus (GPa) = 48.90518 68.63760 58.77139
# Shear Modulus (GPa) = 81.61985 19.23359 50.42672
#
# Velocity S-wave (km/s) = 6.48851 3.14976 5.10009
# Velocity P-wave (km/s) = 9.02000 6.97369 8.06203
#
# Compressibility (1/GPa) = 0.02044773
#
# Stress axis : x y z
#
# Youngs Moduli (GPa) = 75.27228 37.97918 82.98346
#
# Poissons Ratio (x) = 0.29651 0.48610
# Poissons Ratio (y) = 0.58766 0.16133
# Poissons Ratio (z) = 0.44093 0.07384
#
# Static dielectric constant tensor:
#      x y z
#    x 3.642030 0.000000 0.087690 
#    y 0.000000 3.232190 0.000000 
#    z 0.087690 0.000000 3.821720 
# 
# 
# High freq. dielectric constant tensor:
#      x y z
#    x 1.758760 0.000000 -0.001960 
#    y 0.000000 1.724650 0.000000 
#    z -0.001960 0.000000 1.767980 
# 
# From -- ./inp_files/71456.got.cif
#   From: 2010.06.25/outbox.cif.g09.slc.cpg/sg10_36_cif.got.tgz:71456.got - 2010.06.27 22:07:45.
