data_PCOD8065123
_publ_section_title
;
Structure prediction by ZEFSAII (Michael W. Deem and Ramdas Pophale) SiO2 
 PCOD8065123
Probable space group: P 2/M
;
_chemical_formula_sum "Si O2"
_cell_formula_units_Z 24
_cell_length_a 9.469264
_cell_length_b 8.803912
_cell_length_c 14.666215
_cell_angle_alpha 90.000000
_cell_angle_beta 80.450245
_cell_angle_gamma 90.000000
_cell_volume 1205.728089
_symmetry_space_group_name_H-M "P 2/M"
_symmetry_group_IT_number 10
_symmetry_cell_setting 'monoclinic'
loop_
_space_group_symop_operation_xyz
x,y,z
-x,y,-z
-x,-y,-z
x,-y,z
loop_
_atom_site_type_symbol
_atom_site_label
_atom_site_fract_x
_atom_site_fract_y
_atom_site_fract_z
Si Si1 0.070971 0.819806 0.586761
Si Si2 0.381119 0.678687 0.584112
Si Si3 0.525479 0.176859 0.739015
Si Si4 0.120373 0.328066 0.050477
Si Si5 0.413966 0.328774 0.922737
Si Si6 0.159074 0.179430 0.241758
O O1 0.229461 0.754642 0.579198
O O2 0.000000 0.763425 0.500000
O O3 0.970790 0.761558 0.680722
O O4 0.083016 0.000000 0.586491
O O5 0.500000 0.735855 0.500000
O O6 0.358161 0.500000 0.581795
O O7 0.440299 0.724270 0.675580
O O8 0.443608 0.207205 0.841551
O O9 0.690432 0.232171 0.729674
O O10 0.516021 0.000000 0.714365
O O11 0.079042 0.500000 0.082298
O O12 0.144829 0.239840 0.141255
O O13 0.250763 0.325680 0.967458
O O14 0.000000 0.250773 0.000000
O O15 0.462472 0.500000 0.888730
O O16 0.500000 0.270465 0.000000
O O17 0.157345 0.000000 0.235848
#
# Coordination Sequence:
#
# PCOD8065123 Si02
#       6
#     4   4   4   4   4   4
#     4  10  22  42  66  91 123 159 197 243 300 361
#     4  11  25  43  64  92 123 156 199 248 299 359
#     4  11  23  39  63  91 122 160 202 249 302 357
#     4  10  22  38  57  83 118 162 203 244 297 354
#     4  10  20  37  59  85 120 161 204 248 296 351
#     4  10  22  39  60  89 120 157 201 247 298 354
#
# _framework density 19.904985
#
# number of rings (size 3 to 8) (size 9 to 14) (size 15 to 20)
#    0.000    1.667    1.667    2.000    2.333    5.667 
#    0.000    0.000    0.000    0.000    0.000    0.000 
#    0.000    0.000    0.000    0.000    0.000    0.000 
#
# Total GULP energy -297598.303564 kJ/mol
# GULP energy per Si atom -12399.929315 kJ/mol
# Density = 1.985968 g / cm^3
# Si number density = 19.904985 Si / 1000 Ang^3
#
#
#
# Elastic Constant Matrix: (Units=GPa)
#
#
# Indices 1 2 3 4 5 6 
#
# 1 155.7752 27.3452 63.5732 0.0000 9.1595 0.0000
# 2 27.3452 27.6616 25.3991 0.0000 -1.9659 0.0000
# 3 63.5732 25.3991 102.0438 0.0000 -6.6547 0.0000
# 4 0.0000 0.0000 0.0000 39.6584 0.0000 2.8057
# 5 9.1595 -1.9659 -6.6547 0.0000 36.9337 0.0000
# 6 0.0000 0.0000 0.0000 2.8057 0.0000 42.1341
#
#
#
# Elastic Compliance Matrix: (Units=1/GPa)
#
#
# Indices 1 2 3 4 5 6 
#
# 1 0.009526 -0.005194 -0.004871 0.000000 -0.003517 0.000000
# 2 -0.005194 0.049699 -0.008983 0.000000 0.002315 0.000000
# 3 -0.004871 -0.008983 0.015298 0.000000 0.003486 0.000000
# 4 0.000000 0.000000 0.000000 0.025335 0.000000 -0.001687
# 5 -0.003517 0.002315 0.003486 0.000000 0.028699 0.000000
# 6 0.000000 0.000000 0.000000 -0.001687 0.000000 0.023846
#
#
# Mechanical properties :
#
#
# Convention : Reuss Voigt Hill
#
# Bulk Modulus (GPa) = 27.45329 57.56837 42.51083
# Shear Modulus (GPa) = 24.67402 35.02278 29.84840
#
# Velocity S-wave (km/s) = 3.52460 4.19919 3.87660
# Velocity P-wave (km/s) = 5.51234 7.24536 6.43743
#
# Compressibility (1/GPa) = 0.03642550
#
# Stress axis : x y z
#
# Youngs Moduli (GPa) = 104.97494 20.12105 65.36890
#
# Poissons Ratio (x) = 0.10451 0.31842
# Poissons Ratio (y) = 0.54527 0.58723
# Poissons Ratio (z) = 0.51135 0.18075
#
# Static dielectric constant tensor:
#      x y z
#    x 3.841190 0.000000 -0.033280 
#    y 0.000000 3.535730 0.000000 
#    z -0.033280 0.000000 3.656630 
# 
# 
# High freq. dielectric constant tensor:
#      x y z
#    x 1.794930 0.000000 0.000500 
#    y 0.000000 1.763800 0.000000 
#    z 0.000500 0.000000 1.786450 
# 
# From -- ./inp_files/27076.got.cif
#   From: 2010.06.25/outbox.cif.g09.slc.cpg/sg10_14_cif.got.tgz:27076.got - 2010.06.27 22:07:45.
