data_PCOD8065325
_publ_section_title
;
Structure prediction by ZEFSAII (Michael W. Deem and Ramdas Pophale) SiO2 
 PCOD8065325
Probable space group: P 2/M
;
_chemical_formula_sum "Si O2"
_cell_formula_units_Z 28
_cell_length_a 27.889005
_cell_length_b 8.572541
_cell_length_c 9.683050
_cell_angle_alpha 90.000000
_cell_angle_beta 37.907528
_cell_angle_gamma 90.000000
_cell_volume 1422.322584
_symmetry_space_group_name_H-M "P 2/M"
_symmetry_group_IT_number 10
_symmetry_cell_setting 'monoclinic'
loop_
_space_group_symop_operation_xyz
x,y,z
-x,y,-z
-x,-y,-z
x,-y,z
loop_
_atom_site_type_symbol
_atom_site_label
_atom_site_fract_x
_atom_site_fract_y
_atom_site_fract_z
Si Si1 0.136330 0.317468 0.842860
Si Si2 0.554432 0.319253 0.752078
Si Si3 0.299733 0.181585 0.464749
Si Si4 0.004977 0.818093 0.328812
Si Si5 0.542486 0.173726 0.259937
Si Si6 0.697703 0.683139 0.836722
Si Si7 0.136416 0.182373 0.546769
O O1 0.153082 0.500000 0.799037
O O2 0.214745 0.229834 0.713053
O O3 0.109781 0.262996 0.750346
O O4 0.071298 0.281429 0.103767
O O5 0.575405 0.500000 0.717181
O O6 0.635086 0.221732 0.569353
O O7 0.508343 0.288659 0.717237
O O8 0.500000 0.261398 0.000000
O O9 0.320575 0.280410 0.281254
O O10 0.299899 0.000000 0.428196
O O11 0.000000 0.767198 0.500000
O O12 0.923658 0.778712 0.438701
O O13 0.025826 0.000000 0.268025
O O14 0.500000 0.165156 0.500000
O O15 0.547867 0.000000 0.182370
O O16 0.629243 0.242414 0.084295
O O17 0.700489 0.500000 0.855294
O O18 0.780081 0.756278 0.694499
O O19 0.141514 0.000000 0.565817
#
# Coordination Sequence:
#
# PCOD8065325 Si02
#       7
#     4   4   4   4   4   4   4
#     4  11  22  37  60  89 121 153 192 242 291 346
#     4  11  22  37  61  90 120 154 194 244 298 348
#     4  11  21  36  61  89 118 153 197 246 291 342
#     4  10  22  41  62  86 118 156 194 237 289 349
#     4  11  24  41  60  85 117 158 204 243 288 350
#     4  11  21  36  59  87 119 153 193 244 299 348
#     4  10  20  37  63  89 114 151 196 242 289 346
#
# _framework density 19.686109999999999
#
# number of rings (size 3 to 8) (size 9 to 14) (size 15 to 20)
#    0.000    1.286    1.429    7.286    0.000    4.857 
#    2.571    0.000    0.000    0.000    0.000    0.000 
#    0.000    0.000    0.000    0.000    0.000    0.000 
#
# Total GULP energy -347328.163338 kJ/mol
# GULP energy per Si atom -12404.577262 kJ/mol
# Density = 1.964130 g / cm^3
# Si number density = 19.686110 Si / 1000 Ang^3
#
#
#
# Elastic Constant Matrix: (Units=GPa)
#
#
# Indices 1 2 3 4 5 6 
#
# 1 113.3275 33.5559 56.7389 0.0000 -11.8946 0.0000
# 2 33.5559 91.5942 39.2396 0.0000 -6.9164 0.0000
# 3 56.7389 39.2396 112.6483 0.0000 -13.2284 0.0000
# 4 0.0000 0.0000 0.0000 32.8203 0.0000 -6.7044
# 5 -11.8946 -6.9164 -13.2284 0.0000 27.5471 0.0000
# 6 0.0000 0.0000 0.0000 -6.7044 0.0000 21.6877
#
#
#
# Elastic Compliance Matrix: (Units=1/GPa)
#
#
# Indices 1 2 3 4 5 6 
#
# 1 0.012283 -0.002106 -0.005185 0.000000 0.002285 0.000000
# 2 -0.002106 0.013228 -0.003459 0.000000 0.000751 0.000000
# 3 -0.005185 -0.003459 0.013065 0.000000 0.003167 0.000000
# 4 0.000000 0.000000 0.000000 0.032523 0.000000 0.010054
# 5 0.002285 0.000751 0.003167 0.000000 0.038998 0.000000
# 6 0.000000 0.000000 0.000000 0.010054 0.000000 0.049217
#
#
# Mechanical properties :
#
#
# Convention : Reuss Voigt Hill
#
# Bulk Modulus (GPa) = 58.55855 64.07098 61.31476
# Shear Modulus (GPa) = 26.80882 28.94673 27.87777
#
# Velocity S-wave (km/s) = 3.69428 3.83876 3.76721
# Velocity P-wave (km/s) = 6.92875 7.22946 7.08070
#
# Compressibility (1/GPa) = 0.01707693
#
# Stress axis : x y z
#
# Youngs Moduli (GPa) = 81.41098 75.59851 76.53808
#
# Poissons Ratio (x) = 0.15923 0.39684
# Poissons Ratio (y) = 0.17147 0.26472
# Poissons Ratio (z) = 0.42210 0.26147
#
# Static dielectric constant tensor:
#      x y z
#    x 3.397170 0.000000 -0.411400 
#    y 0.000000 3.684810 0.000000 
#    z -0.411400 0.000000 3.445720 
# 
# 
# High freq. dielectric constant tensor:
#      x y z
#    x 1.760210 0.000000 -0.022680 
#    y 0.000000 1.781200 0.000000 
#    z -0.022680 0.000000 1.762250 
# 
# From -- ./inp_files/37115.got.cif
#   From: 2010.06.25/outbox.cif.g09.slc.cpg/sg10_19_cif.got.tgz:37115.got - 2010.06.27 22:07:45.
