data_PCOD8065096
_publ_section_title
;
Structure prediction by ZEFSAII (Michael W. Deem and Ramdas Pophale) SiO2 
 PCOD8065096
Probable space group: P 2/M
;
_chemical_formula_sum "Si O2"
_cell_formula_units_Z 32
_cell_length_a 16.092956
_cell_length_b 20.712796
_cell_length_c 15.691250
_cell_angle_alpha 90.000000
_cell_angle_beta 18.262284
_cell_angle_gamma 90.000000
_cell_volume 1639.026304
_symmetry_space_group_name_H-M "P 2/M"
_symmetry_group_IT_number 10
_symmetry_cell_setting 'monoclinic'
loop_
_space_group_symop_operation_xyz
x,y,z
-x,y,-z
-x,-y,-z
x,-y,z
loop_
_atom_site_type_symbol
_atom_site_label
_atom_site_fract_x
_atom_site_fract_y
_atom_site_fract_z
Si Si1 0.380254 0.073517 0.859705
Si Si2 0.062587 0.733698 0.537493
Si Si3 0.736613 0.873717 0.206671
Si Si4 0.955929 0.620164 0.141312
Si Si5 0.412275 0.313919 0.896422
Si Si6 0.907985 0.150516 0.375917
Si Si7 0.860145 0.756402 0.982539
Si Si8 0.474748 0.426566 0.717150
O O1 0.304537 0.080559 0.834540
O O2 0.618312 0.119937 0.655508
O O3 0.455251 0.000000 0.806862
O O4 0.126034 0.093983 0.162875
O O5 0.041531 0.807952 0.587940
O O6 0.000000 0.729035 0.500000
O O7 0.362117 0.711518 0.261126
O O8 0.865048 0.686543 0.782184
O O9 0.500000 0.886701 0.500000
O O10 0.738639 0.798170 0.177768
O O11 0.000000 0.894216 0.000000
O O12 0.667245 0.598200 0.454371
O O13 0.980036 0.696234 0.135574
O O14 0.173353 0.579150 0.979908
O O15 0.000000 0.604666 0.000000
O O16 0.378379 0.267570 0.846723
O O17 0.498444 0.384879 0.780639
O O18 0.936468 0.197622 0.266509
O O19 0.541527 0.500000 0.675800
#
# Coordination Sequence:
#
# PCOD8065096 Si02
#       8
#     4   4   4   4   4   4   4   4
#     4  11  23  38  55  75 106 150 191 223 260 317
#     4  11  21  37  64  94 118 134 164 225 287 335
#     4  11  22  33  51  77 106 141 183 236 286 321
#     4  11  23  35  54  82 112 148 193 247 291 320
#     4  10  21  37  59  86 114 146 184 220 270 341
#     4  10  20  37  59  81 106 140 181 219 267 335
#     4   9  20  36  55  79 109 141 183 229 281 331
#     4  11  23  39  57  77 110 157 198 229 267 323
#
# _framework density 19.523786000000001
#
# number of rings (size 3 to 8) (size 9 to 14) (size 15 to 20)
#    0.000    1.500    0.000    7.875    0.000    9.000 
#    0.000    0.000    0.000    4.500    0.000    0.000 
#    0.000    0.000    0.000    0.000    0.000    0.000 
#
# Total GULP energy -396866.251666 kJ/mol
# GULP energy per Si atom -12402.070365 kJ/mol
# Density = 1.947935 g / cm^3
# Si number density = 19.523786 Si / 1000 Ang^3
#
#
#
# Elastic Constant Matrix: (Units=GPa)
#
#
# Indices 1 2 3 4 5 6 
#
# 1 78.3177 18.9241 18.0885 0.0000 1.8854 0.0000
# 2 18.9241 109.1693 13.6833 0.0000 5.9198 0.0000
# 3 18.0885 13.6833 88.3511 0.0000 -6.2077 0.0000
# 4 0.0000 0.0000 0.0000 21.2313 0.0000 -2.0744
# 5 1.8854 5.9198 -6.2077 0.0000 24.9029 0.0000
# 6 0.0000 0.0000 0.0000 -2.0744 0.0000 11.1690
#
#
#
# Elastic Compliance Matrix: (Units=1/GPa)
#
#
# Indices 1 2 3 4 5 6 
#
# 1 0.013889 -0.002013 -0.002618 0.000000 -0.001226 0.000000
# 2 -0.002013 0.009805 -0.001282 0.000000 -0.002498 0.000000
# 3 -0.002618 -0.001282 0.012304 0.000000 0.003570 0.000000
# 4 0.000000 0.000000 0.000000 0.047971 0.000000 0.008910
# 5 -0.001226 -0.002498 0.003570 0.000000 0.041733 0.000000
# 6 0.000000 0.000000 0.000000 0.008910 0.000000 0.091188
#
#
# Mechanical properties :
#
#
# Convention : Reuss Voigt Hill
#
# Bulk Modulus (GPa) = 41.36970 41.91445 41.64207
# Shear Modulus (GPa) = 21.11728 26.47013 23.79370
#
# Velocity S-wave (km/s) = 3.29236 3.68610 3.49478
# Velocity P-wave (km/s) = 5.97397 6.29535 6.13676
#
# Compressibility (1/GPa) = 0.02417228
#
# Stress axis : x y z
#
# Youngs Moduli (GPa) = 71.99907 101.98704 81.27558
#
# Poissons Ratio (x) = 0.20530 0.21277
# Poissons Ratio (y) = 0.14494 0.10419
# Poissons Ratio (z) = 0.18849 0.13074
#
# Static dielectric constant tensor:
#      x y z
#    x 3.381420 0.000000 -0.013190 
#    y 0.000000 3.587000 0.000000 
#    z -0.013190 0.000000 3.638030 
# 
# 
# High freq. dielectric constant tensor:
#      x y z
#    x 1.736360 0.000000 -0.008880 
#    y 0.000000 1.753120 0.000000 
#    z -0.008880 0.000000 1.774980 
# 
# From -- ./inp_files/67923.got.cif
#   From: 2010.06.25/outbox.cif.g09.slc.cpg/sg10_34_cif.got.tgz:67923.got - 2010.06.27 22:07:45.
