data_PCOD8065434
_publ_section_title
;
Structure prediction by ZEFSAII (Michael W. Deem and Ramdas Pophale) SiO2 
 PCOD8065434
Probable space group: P 2/M
;
_chemical_formula_sum "Si O2"
_cell_formula_units_Z 32
_cell_length_a 20.606585
_cell_length_b 13.903855
_cell_length_c 13.332030
_cell_angle_alpha 90.000000
_cell_angle_beta 155.325643
_cell_angle_gamma 90.000000
_cell_volume 1594.603995
_symmetry_space_group_name_H-M "P 2/M"
_symmetry_group_IT_number 10
_symmetry_cell_setting 'monoclinic'
loop_
_space_group_symop_operation_xyz
x,y,z
-x,y,-z
-x,-y,-z
x,-y,z
loop_
_atom_site_type_symbol
_atom_site_label
_atom_site_fract_x
_atom_site_fract_y
_atom_site_fract_z
Si Si1 0.846302 0.285986 0.602923
Si Si2 0.333226 0.389010 0.816329
Si Si3 0.194906 0.247296 0.080868
Si Si4 0.792024 0.107689 0.400527
Si Si5 0.396472 0.396424 0.257944
Si Si6 0.861807 0.109003 0.166113
Si Si7 0.653509 0.790795 0.032323
Si Si8 0.624549 0.273882 0.466383
O O1 0.799675 0.361256 0.450972
O O2 0.797195 0.177765 0.503081
O O3 0.760864 0.312257 0.586422
O O4 0.029510 0.290502 0.881900
O O5 0.310600 0.500000 0.817192
O O6 0.318009 0.319951 0.892058
O O7 0.500000 0.371517 0.000000
O O8 0.262061 0.320466 0.092396
O O9 0.304608 0.231537 0.331370
O O10 0.181011 0.144561 0.006512
O O11 0.656357 0.140425 0.133813
O O12 0.952095 0.113623 0.561596
O O13 0.760675 0.000000 0.395563
O O14 0.500000 0.409655 0.500000
O O15 0.324194 0.500000 0.126300
O O16 0.507701 0.361688 0.324442
O O17 0.787536 0.179205 0.143443
O O18 0.800586 0.000000 0.093595
O O19 0.483964 0.804607 0.742661
#
# Coordination Sequence:
#
# PCOD8065434 Si02
#       8
#     4   4   4   4   4   4   4   4
#     4  10  21  38  62  85 117 156 197 239 292 346
#     4  10  21  38  59  84 118 155 190 236 298 355
#     4  10  21  39  60  84 119 156 199 243 285 341
#     4   9  20  38  61  84 115 154 195 242 294 351
#     4   9  19  36  58  80 111 153 193 236 286 336
#     4  10  20  38  61  85 114 157 199 238 295 354
#     4  11  20  34  59  86 114 148 196 239 289 349
#     4  11  21  36  58  87 123 152 195 238 294 352
#
# _framework density 20.067678999999998
#
# number of rings (size 3 to 8) (size 9 to 14) (size 15 to 20)
#    0.000    2.000    2.500    1.125    0.000    2.500 
#    0.000    4.375    0.000    9.750    0.000    0.000 
#    0.000    0.000    0.000    0.000    0.000    0.000 
#
# Total GULP energy -396707.678281 kJ/mol
# GULP energy per Si atom -12397.114946 kJ/mol
# Density = 2.002200 g / cm^3
# Si number density = 20.067679 Si / 1000 Ang^3
#
#
#
# Elastic Constant Matrix: (Units=GPa)
#
#
# Indices 1 2 3 4 5 6 
#
# 1 107.6748 48.5032 27.1823 0.0000 9.3617 0.0000
# 2 48.5032 127.1294 41.9303 0.0000 2.1214 0.0000
# 3 27.1823 41.9303 101.0191 0.0000 -10.4534 0.0000
# 4 0.0000 0.0000 0.0000 22.4807 0.0000 -4.2318
# 5 9.3617 2.1214 -10.4534 0.0000 30.7493 0.0000
# 6 0.0000 0.0000 0.0000 -4.2318 0.0000 26.3222
#
#
#
# Elastic Compliance Matrix: (Units=1/GPa)
#
#
# Indices 1 2 3 4 5 6 
#
# 1 0.011858 -0.003784 -0.002038 0.000000 -0.004042 0.000000
# 2 -0.003784 0.010440 -0.003390 0.000000 -0.000720 0.000000
# 3 -0.002038 -0.003390 0.012378 0.000000 0.005062 0.000000
# 4 0.000000 0.000000 0.000000 0.045871 0.000000 0.007375
# 5 -0.004042 -0.000720 0.005062 0.000000 0.035522 0.000000
# 6 0.000000 0.000000 0.000000 0.007375 0.000000 0.039176
#
#
# Mechanical properties :
#
#
# Convention : Reuss Voigt Hill
#
# Bulk Modulus (GPa) = 61.53159 63.45051 62.49105
# Shear Modulus (GPa) = 27.91941 30.45763 29.18852
#
# Velocity S-wave (km/s) = 3.73401 3.90005 3.81793
# Velocity P-wave (km/s) = 7.02275 7.20884 7.11641
#
# Compressibility (1/GPa) = 0.01625181
#
# Stress axis : x y z
#
# Youngs Moduli (GPa) = 84.33185 95.78721 80.78652
#
# Poissons Ratio (x) = 0.36250 0.16466
# Poissons Ratio (y) = 0.31915 0.27383
# Poissons Ratio (z) = 0.17188 0.32467
#
# Static dielectric constant tensor:
#      x y z
#    x 3.595360 0.000000 -0.044210 
#    y 0.000000 3.725410 0.000000 
#    z -0.044210 0.000000 3.750280 
# 
# 
# High freq. dielectric constant tensor:
#      x y z
#    x 1.782970 0.000000 -0.003160 
#    y 0.000000 1.767860 0.000000 
#    z -0.003160 0.000000 1.783340 
# 
# From -- ./inp_files/54056.got.cif
#   From: 2010.06.25/outbox.cif.g09.slc.cpg/sg10_28_cif.got.tgz:54056.got - 2010.06.27 22:07:45.
