data_PCOD8065675
_publ_section_title
;
Structure prediction by ZEFSAII (Michael W. Deem and Ramdas Pophale) SiO2 
 PCOD8065675
Probable space group: P 2/M
;
_chemical_formula_sum "Si O2"
_cell_formula_units_Z 28
_cell_length_a 19.488725
_cell_length_b 14.259765
_cell_length_c 9.032229
_cell_angle_alpha 90.000000
_cell_angle_beta 37.314696
_cell_angle_gamma 90.000000
_cell_volume 1521.602570
_symmetry_space_group_name_H-M "P 2/M"
_symmetry_group_IT_number 10
_symmetry_cell_setting 'monoclinic'
loop_
_space_group_symop_operation_xyz
x,y,z
-x,y,-z
-x,-y,-z
x,-y,z
loop_
_atom_site_type_symbol
_atom_site_label
_atom_site_fract_x
_atom_site_fract_y
_atom_site_fract_z
Si Si1 0.763071 0.752499 0.578839
Si Si2 0.832600 0.000000 0.210344
Si Si3 0.973845 0.200201 0.377982
Si Si4 0.442834 0.252441 0.444281
Si Si5 0.425190 0.891191 0.982822
Si Si6 0.070427 0.000000 0.657181
Si Si7 0.604581 0.398246 0.721036
Si Si8 0.798672 0.805340 0.188462
O O1 0.871820 0.733490 0.496224
O O2 0.693948 0.657671 0.669248
O O3 0.814136 0.781013 0.333522
O O4 0.688433 0.833786 0.784842
O O5 0.823972 0.000000 0.406449
O O6 0.770616 0.914905 0.237314
O O7 0.963038 0.000000 0.945755
O O8 0.000000 0.227024 0.500000
O O9 0.929864 0.092646 0.443540
O O10 0.086497 0.221533 0.091582
O O11 0.500000 0.280273 0.500000
O O12 0.504782 0.161537 0.267199
O O13 0.445480 0.340281 0.330211
O O14 0.309601 0.238417 0.705901
O O15 0.398610 0.000000 0.981771
O O16 0.500000 0.890094 0.000000
O O17 0.655917 0.500000 0.582313
O O18 0.500000 0.421609 0.000000
#
# Coordination Sequence:
#
# PCOD8065675 Si02
#       8
#     4   2   4   4   4   2   4   4
#     4  11  20  37  60  83 115 149 200 236 286 344
#     4   9  16  30  51  70  99 146 205 235 258 317
#     4  11  23  34  52  81 117 153 189 240 290 342
#     4  11  23  39  59  86 126 152 192 238 298 358
#     4  11  22  37  58  86 119 161 201 235 281 340
#     4   9  17  32  48  71 104 148 202 234 270 314
#     4  10  20  40  66  90 112 144 198 250 292 345
#     4  10  21  35  54  78 107 157 195 235 278 335
#
# _framework density 18.40165
#
# number of rings (size 3 to 8) (size 9 to 14) (size 15 to 20)
#    0.000    1.571    5.714    0.643    5.000    0.571 
#    0.000    0.000    0.000    7.286    0.000    0.000 
#    0.000    0.000    0.000    0.000    0.000    0.000 
#
# Total GULP energy -346946.483167 kJ/mol
# GULP energy per Si atom -12390.945827 kJ/mol
# Density = 1.835977 g / cm^3
# Si number density = 18.401650 Si / 1000 Ang^3
#
#
#
# Elastic Constant Matrix: (Units=GPa)
#
#
# Indices 1 2 3 4 5 6 
#
# 1 138.6871 42.6420 42.6563 0.0000 -5.1358 0.0000
# 2 42.6420 117.4504 35.5899 0.0000 0.2975 0.0000
# 3 42.6563 35.5899 97.4522 0.0000 -8.2249 0.0000
# 4 0.0000 0.0000 0.0000 12.8770 0.0000 -2.1908
# 5 -5.1358 0.2975 -8.2249 0.0000 16.2041 0.0000
# 6 0.0000 0.0000 0.0000 -2.1908 0.0000 12.2589
#
#
#
# Elastic Compliance Matrix: (Units=1/GPa)
#
#
# Indices 1 2 3 4 5 6 
#
# 1 0.008878 -0.002344 -0.002914 0.000000 0.001378 0.000000
# 2 -0.002344 0.010257 -0.002924 0.000000 -0.002415 0.000000
# 3 -0.002914 -0.002924 0.013092 0.000000 0.005775 0.000000
# 4 0.000000 0.000000 0.000000 0.080093 0.000000 0.014313
# 5 0.001378 -0.002415 0.005775 0.000000 0.065125 0.000000
# 6 0.000000 0.000000 0.000000 0.014313 0.000000 0.084131
#
#
# Mechanical properties :
#
#
# Convention : Reuss Voigt Hill
#
# Bulk Modulus (GPa) = 63.03404 66.15180 64.59292
# Shear Modulus (GPa) = 17.65354 23.78143 20.71749
#
# Velocity S-wave (km/s) = 3.10069 3.59883 3.35901
# Velocity P-wave (km/s) = 6.86644 7.30039 7.08674
#
# Compressibility (1/GPa) = 0.01586444
#
# Stress axis : x y z
#
# Youngs Moduli (GPa) = 112.63244 97.49102 76.38160
#
# Poissons Ratio (x) = 0.22851 0.22257
# Poissons Ratio (y) = 0.26401 0.22333
# Poissons Ratio (z) = 0.32820 0.28505
#
# Static dielectric constant tensor:
#      x y z
#    x 3.031620 0.000000 0.057480 
#    y 0.000000 3.741040 0.000000 
#    z 0.057480 0.000000 3.370400 
# 
# 
# High freq. dielectric constant tensor:
#      x y z
#    x 1.705970 0.000000 -0.008350 
#    y 0.000000 1.686650 0.000000 
#    z -0.008350 0.000000 1.717140 
# 
# From -- ./inp_files/32807.got.cif
#   From: 2010.06.25/outbox.cif.g09.slc.cpg/sg10_17_cif.got.tgz:32807.got - 2010.06.27 22:07:45.
