data_PCOD8065691
_publ_section_title
;
Structure prediction by ZEFSAII (Michael W. Deem and Ramdas Pophale) SiO2 
 PCOD8065691
Probable space group: P 2/M
;
_chemical_formula_sum "Si O2"
_cell_formula_units_Z 28
_cell_length_a 9.153516
_cell_length_b 17.883008
_cell_length_c 16.184186
_cell_angle_alpha 90.000000
_cell_angle_beta 30.236119
_cell_angle_gamma 90.000000
_cell_volume 1334.057778
_symmetry_space_group_name_H-M "P 2/M"
_symmetry_group_IT_number 10
_symmetry_cell_setting 'monoclinic'
loop_
_space_group_symop_operation_xyz
x,y,z
-x,y,-z
-x,-y,-z
x,-y,z
loop_
_atom_site_type_symbol
_atom_site_label
_atom_site_fract_x
_atom_site_fract_y
_atom_site_fract_z
Si Si1 0.007897 0.658369 0.127297
Si Si2 0.146464 0.182904 0.839931
Si Si3 0.678603 0.161263 0.682646
Si Si4 0.569335 0.583205 0.615665
Si Si5 0.083960 0.413903 0.254484
Si Si6 0.596287 0.329725 0.758973
Si Si7 0.350711 0.912615 0.988008
O O1 0.845338 0.738129 0.211825
O O2 0.773070 0.593339 0.229941
O O3 0.162561 0.638087 0.138231
O O4 0.247287 0.661739 0.937926
O O5 0.476803 0.157273 0.698415
O O6 0.000000 0.192921 0.000000
O O7 0.964081 0.125713 0.872279
O O8 0.682345 0.243069 0.723515
O O9 0.564276 0.103976 0.807419
O O10 0.000000 0.136541 0.500000
O O11 0.619298 0.500000 0.626292
O O12 0.743441 0.593232 0.444774
O O13 0.691987 0.642149 0.622077
O O14 0.171546 0.500000 0.194668
O O15 0.263945 0.382498 0.242288
O O16 0.288900 0.000000 0.023324
O O17 0.500000 0.883809 0.000000
#
# Coordination Sequence:
#
# PCOD8065691 Si02
#       7
#     4   4   4   4   4   4   4
#     4  12  22  38  61  88 121 158 213 267 318 382
#     4  10  20  41  65  96 131 168 213 260 313 379
#     4  11  23  41  67  99 133 171 219 264 313 376
#     4  11  23  41  60  82 121 166 211 267 324 379
#     4  11  26  41  56  86 124 165 212 269 337 387
#     4  12  23  39  62  88 121 163 216 270 312 381
#     4  10  23  44  72 104 136 171 206 248 311 381
#
# _framework density 20.988596000000001
#
# number of rings (size 3 to 8) (size 9 to 14) (size 15 to 20)
#    0.000    1.000    4.286    3.429    2.000    8.571 
#    0.000    0.714    0.000    1.714    0.000    0.000 
#    0.000    0.000    0.000    0.000    0.000    0.000 
#
# Total GULP energy -347216.063045 kJ/mol
# GULP energy per Si atom -12400.573680 kJ/mol
# Density = 2.094082 g / cm^3
# Si number density = 20.988596 Si / 1000 Ang^3
#
#
#
# Elastic Constant Matrix: (Units=GPa)
#
#
# Indices 1 2 3 4 5 6 
#
# 1 112.3471 43.6574 18.0202 0.0000 -12.4885 0.0000
# 2 43.6574 84.8974 11.8140 0.0000 -0.4847 0.0000
# 3 18.0202 11.8140 72.4459 0.0000 -15.8621 0.0000
# 4 0.0000 0.0000 0.0000 21.8771 0.0000 2.4413
# 5 -12.4885 -0.4847 -15.8621 0.0000 35.5986 0.0000
# 6 0.0000 0.0000 0.0000 2.4413 0.0000 39.9528
#
#
#
# Elastic Compliance Matrix: (Units=1/GPa)
#
#
# Indices 1 2 3 4 5 6 
#
# 1 0.011761 -0.005861 -0.001201 0.000000 0.003511 0.000000
# 2 -0.005861 0.014993 -0.001543 0.000000 -0.002540 0.000000
# 3 -0.001201 -0.001543 0.015798 0.000000 0.006597 0.000000
# 4 0.000000 0.000000 0.000000 0.046024 0.000000 -0.002812
# 5 0.003511 -0.002540 0.006597 0.000000 0.032228 0.000000
# 6 0.000000 0.000000 0.000000 -0.002812 0.000000 0.025201
#
#
# Mechanical properties :
#
#
# Convention : Reuss Voigt Hill
#
# Bulk Modulus (GPa) = 39.45948 46.29708 42.87828
# Shear Modulus (GPa) = 29.12677 32.56562 30.84619
#
# Velocity S-wave (km/s) = 3.72928 3.94329 3.83778
# Velocity P-wave (km/s) = 6.11430 6.54514 6.33338
#
# Compressibility (1/GPa) = 0.02534246
#
# Stress axis : x y z
#
# Youngs Moduli (GPa) = 85.02341 66.69734 63.29828
#
# Poissons Ratio (x) = 0.39091 0.07602
# Poissons Ratio (y) = 0.49832 0.09768
# Poissons Ratio (z) = 0.10211 0.10292
#
# Static dielectric constant tensor:
#      x y z
#    x 4.095760 0.000000 -0.190410 
#    y 0.000000 3.624420 0.000000 
#    z -0.190410 0.000000 3.981100 
# 
# 
# High freq. dielectric constant tensor:
#      x y z
#    x 1.831770 0.000000 -0.012890 
#    y 0.000000 1.811560 0.000000 
#    z -0.012890 0.000000 1.814040 
# 
# From -- ./inp_files/62554.got.cif
#   From: 2010.06.25/outbox.cif.g09.slc.cpg/sg10_32_cif.got.tgz:62554.got - 2010.06.27 22:07:45.
