data_PCOD8065536
_publ_section_title
;
Structure prediction by ZEFSAII (Michael W. Deem and Ramdas Pophale) SiO2 
 PCOD8065536
Probable space group: P 2/M
;
_chemical_formula_sum "Si O2"
_cell_formula_units_Z 32
_cell_length_a 20.015699
_cell_length_b 8.444778
_cell_length_c 25.794647
_cell_angle_alpha 90.000000
_cell_angle_beta 158.896012
_cell_angle_gamma 90.000000
_cell_volume 1569.876790
_symmetry_space_group_name_H-M "P 2/M"
_symmetry_group_IT_number 10
_symmetry_cell_setting 'monoclinic'
loop_
_space_group_symop_operation_xyz
x,y,z
-x,y,-z
-x,-y,-z
x,-y,z
loop_
_atom_site_type_symbol
_atom_site_label
_atom_site_fract_x
_atom_site_fract_y
_atom_site_fract_z
Si Si1 0.348591 0.685164 0.660824
Si Si2 0.208781 0.682718 0.374038
Si Si3 0.211505 0.183973 0.665527
Si Si4 0.314540 0.185546 0.153981
Si Si5 0.057035 0.183959 0.368091
Si Si6 0.085303 0.814807 0.180751
Si Si7 0.704116 0.316516 0.164228
Si Si8 0.607901 0.814966 0.675183
O O1 0.308030 0.500000 0.636552
O O2 0.338248 0.768020 0.709001
O O3 0.554306 0.715825 0.789057
O O4 0.197637 0.761429 0.513969
O O5 0.262346 0.500000 0.413631
O O6 0.092936 0.722497 0.341315
O O7 0.082543 0.723742 0.233264
O O8 0.398089 0.781121 0.507207
O O9 0.274046 0.288016 0.759138
O O10 0.000000 0.225117 0.500000
O O11 0.237954 0.000000 0.697961
O O12 0.347513 0.253586 0.235638
O O13 0.364702 0.000000 0.186516
O O14 0.104369 0.219843 0.986397
O O15 0.848195 0.213438 0.235453
O O16 0.089057 0.000000 0.380442
O O17 0.251456 0.744199 0.265669
O O18 0.111409 0.000000 0.210974
O O19 0.738904 0.500000 0.176856
O O20 0.500000 0.261729 0.000000
O O21 0.645002 0.000000 0.704048
#
# Coordination Sequence:
#
# PCOD8065536 Si02
#       8
#     4   4   4   4   4   4   4   4
#     4  12  24  39  64  95 128 164 205 258 315 368
#     4  12  25  40  61  91 126 167 210 257 315 373
#     4  11  23  40  66  96 125 165 212 254 298 360
#     4  10  21  39  64  92 124 163 210 259 310 371
#     4  12  24  42  67  92 122 164 211 258 306 366
#     4  10  22  40  62  91 125 165 210 259 313 370
#     4  11  25  44  67  98 133 166 202 252 315 373
#     4  10  20  38  65  92 122 162 211 261 310 372
#
# _framework density 20.383766000000001
#
# number of rings (size 3 to 8) (size 9 to 14) (size 15 to 20)
#    0.000    1.000    2.500    4.875    0.000    6.500 
#    0.000    0.000    0.000    2.250    0.000    0.000 
#    0.000    0.000    0.000    0.000    0.000    0.000 
#
# Total GULP energy -397038.853128 kJ/mol
# GULP energy per Si atom -12407.464160 kJ/mol
# Density = 2.033737 g / cm^3
# Si number density = 20.383766 Si / 1000 Ang^3
#
#
#
# Elastic Constant Matrix: (Units=GPa)
#
#
# Indices 1 2 3 4 5 6 
#
# 1 125.8080 12.4269 34.6050 0.0000 4.3891 0.0000
# 2 12.4269 43.2357 19.0981 0.0000 -1.9504 0.0000
# 3 34.6050 19.0981 92.3994 0.0000 0.9768 0.0000
# 4 0.0000 0.0000 0.0000 -0.6243 0.0000 -79.1523
# 5 4.3891 -1.9504 0.9768 0.0000 33.6616 0.0000
# 6 0.0000 0.0000 0.0000 -79.1523 0.0000 -213.4596
#
#
#
# Elastic Compliance Matrix: (Units=1/GPa)
#
#
# Indices 1 2 3 4 5 6 
#
# 1 0.008962 -0.001266 -0.003082 0.000000 -0.001152 0.000000
# 2 -0.001266 0.025721 -0.004861 0.000000 0.001796 0.000000
# 3 -0.003082 -0.004861 0.012984 0.000000 -0.000257 0.000000
# 4 0.000000 0.000000 0.000000 0.034812 0.000000 -0.012908
# 5 -0.001152 0.001796 -0.000257 0.000000 0.029969 0.000000
# 6 0.000000 0.000000 0.000000 -0.012908 0.000000 0.000102
#
#
# Mechanical properties :
#
#
# Convention : Reuss Voigt Hill
#
# Bulk Modulus (GPa) = 34.19043 43.74480 38.96762
# Shear Modulus (GPa) = 35.53175 -23.06359 6.23408
#
# Velocity S-wave (km/s) = 4.17962 -3.36738 1.75071
# Velocity P-wave (km/s) = 6.33262 2.52749 4.82132
#
# Compressibility (1/GPa) = 0.02924795
#
# Stress axis : x y z
#
# Youngs Moduli (GPa) = 111.58529 38.87834 77.01518
#
# Poissons Ratio (x) = 0.04923 0.23739
# Poissons Ratio (y) = 0.14129 0.37438
# Poissons Ratio (z) = 0.34395 0.18899
#
# Static dielectric constant tensor:
#      x y z
#    x 3.832550 0.000000 0.141560 
#    y 0.000000 3.752390 0.000000 
#    z 0.141560 0.000000 3.534140 
# 
# 
# High freq. dielectric constant tensor:
#      x y z
#    x 1.813810 0.000000 0.000710 
#    y 0.000000 1.792310 0.000000 
#    z 0.000710 0.000000 1.796900 
# 
# From -- ./inp_files/93822.got.cif
#   From: 2010.06.25/outbox.cif.g09.slc.cpg/sg10_47_cif.got.tgz:93822.got - 2010.06.27 22:07:45.
