data_PCOD8065359
_publ_section_title
;
Structure prediction by ZEFSAII (Michael W. Deem and Ramdas Pophale) SiO2 
 PCOD8065359
Probable space group: P 2/M
;
_chemical_formula_sum "Si O2"
_cell_formula_units_Z 28
_cell_length_a 9.603756
_cell_length_b 13.584768
_cell_length_c 12.415646
_cell_angle_alpha 90.000000
_cell_angle_beta 125.814391
_cell_angle_gamma 90.000000
_cell_volume 1313.526987
_symmetry_space_group_name_H-M "P 2/M"
_symmetry_group_IT_number 10
_symmetry_cell_setting 'monoclinic'
loop_
_space_group_symop_operation_xyz
x,y,z
-x,y,-z
-x,-y,-z
x,-y,z
loop_
_atom_site_type_symbol
_atom_site_label
_atom_site_fract_x
_atom_site_fract_y
_atom_site_fract_z
Si Si1 0.917458 0.734726 0.698170
Si Si2 0.439714 0.682739 0.130788
Si Si3 0.380399 0.384279 0.345894
Si Si4 0.826458 0.890408 0.487994
Si Si5 0.468206 0.109910 0.205928
Si Si6 0.236039 0.387249 0.846877
Si Si7 0.884552 0.105741 0.844057
O O1 0.807036 0.649733 0.703918
O O2 0.814644 0.799142 0.564377
O O3 0.974476 0.812388 0.813408
O O4 0.086023 0.680859 0.729469
O O5 0.430909 0.665010 0.254993
O O6 0.453890 0.800612 0.114084
O O7 0.603361 0.626143 0.158630
O O8 0.276723 0.642434 0.989695
O O9 0.500000 0.352166 0.500000
O O10 0.383428 0.500000 0.328880
O O11 0.656706 0.882099 0.340492
O O12 0.000000 0.875976 0.500000
O O13 0.829157 0.000000 0.543180
O O14 0.316790 0.127985 0.224580
O O15 0.443480 0.000000 0.142755
O O16 0.176647 0.500000 0.817192
O O17 0.895521 0.000000 0.790172
O O18 0.000000 0.102646 0.000000
#
# Coordination Sequence:
#
# PCOD8065359 Si02
#       7
#     4   4   4   4   4   4   4
#     4  12  23  37  62  91 121 162 207 265 316 370
#     4  11  21  44  67  90 127 168 212 264 326 387
#     4  11  24  40  61  89 123 162 210 266 321 375
#     4  10  22  40  62  93 130 170 216 261 315 390
#     4  10  20  37  64  93 127 166 207 256 317 392
#     4  11  25  42  65  92 122 171 223 268 319 382
#     4  10  21  37  57  89 127 161 202 252 313 381
#
# _framework density 21.316654
#
# number of rings (size 3 to 8) (size 9 to 14) (size 15 to 20)
#    0.000    1.286    1.429    5.143    0.000    0.000 
#    0.000    6.429    0.000    4.286    0.000    0.000 
#    0.000    0.000    0.000    0.000    0.000    0.000 
#
# Total GULP energy -347002.373298 kJ/mol
# GULP energy per Si atom -12392.941904 kJ/mol
# Density = 2.126814 g / cm^3
# Si number density = 21.316654 Si / 1000 Ang^3
#
#
#
# Elastic Constant Matrix: (Units=GPa)
#
#
# Indices 1 2 3 4 5 6 
#
# 1 76.4554 22.0889 20.0064 0.0000 11.1102 0.0000
# 2 22.0889 142.3825 23.0476 0.0000 6.8612 0.0000
# 3 20.0064 23.0476 47.7072 0.0000 -0.6709 0.0000
# 4 0.0000 0.0000 0.0000 33.5211 0.0000 -0.2827
# 5 11.1102 6.8612 -0.6709 0.0000 31.6622 0.0000
# 6 0.0000 0.0000 0.0000 -0.2827 0.0000 2.7763
#
#
#
# Elastic Compliance Matrix: (Units=1/GPa)
#
#
# Indices 1 2 3 4 5 6 
#
# 1 0.015818 -0.001201 -0.006130 0.000000 -0.005420 0.000000
# 2 -0.001201 0.007806 -0.003287 0.000000 -0.001340 0.000000
# 3 -0.006130 -0.003287 0.025167 0.000000 0.003396 0.000000
# 4 0.000000 0.000000 0.000000 0.029858 0.000000 0.003040
# 5 -0.005420 -0.001340 0.003396 0.000000 0.033848 0.000000
# 6 0.000000 0.000000 0.000000 0.003040 0.000000 0.360507
#
#
# Mechanical properties :
#
#
# Convention : Reuss Voigt Hill
#
# Bulk Modulus (GPa) = 36.28732 44.09233 40.18982
# Shear Modulus (GPa) = 9.93201 27.01872 18.47537
#
# Velocity S-wave (km/s) = 2.16088 3.56405 2.94719
# Velocity P-wave (km/s) = 4.82554 6.13726 5.52050
#
# Compressibility (1/GPa) = 0.02755784
#
# Stress axis : x y z
#
# Youngs Moduli (GPa) = 63.21916 128.10401 39.73416
#
# Poissons Ratio (x) = 0.15380 0.24356
# Poissons Ratio (y) = 0.07590 0.13059
# Poissons Ratio (z) = 0.38751 0.42102
#
# Static dielectric constant tensor:
#      x y z
#    x 3.992030 0.000000 0.110330 
#    y 0.000000 4.244360 0.000000 
#    z 0.110330 0.000000 3.702750 
# 
# 
# High freq. dielectric constant tensor:
#      x y z
#    x 1.828850 0.000000 0.015910 
#    y 0.000000 1.865590 0.000000 
#    z 0.015910 0.000000 1.819790 
# 
# From -- ./inp_files/43023.got.cif
#   From: 2010.06.25/outbox.cif.g09.slc.cpg/sg10_22_cif.got.tgz:43023.got - 2010.06.27 22:07:45.
