data_PCOD8065821
_publ_section_title
;
Structure prediction by ZEFSAII (Michael W. Deem and Ramdas Pophale) SiO2 
 PCOD8065821
Probable space group: P 2/M
;
_chemical_formula_sum "Si O2"
_cell_formula_units_Z 32
_cell_length_a 25.463274
_cell_length_b 9.079803
_cell_length_c 14.213808
_cell_angle_alpha 90.000000
_cell_angle_beta 146.857419
_cell_angle_gamma 90.000000
_cell_volume 1796.675140
_symmetry_space_group_name_H-M "P 2/M"
_symmetry_group_IT_number 10
_symmetry_cell_setting 'monoclinic'
loop_
_space_group_symop_operation_xyz
x,y,z
-x,y,-z
-x,-y,-z
x,-y,z
loop_
_atom_site_type_symbol
_atom_site_label
_atom_site_fract_x
_atom_site_fract_y
_atom_site_fract_z
Si Si1 0.264907 0.326617 0.626000
Si Si2 0.642285 0.172716 0.071894
Si Si3 0.448227 0.330439 0.780719
Si Si4 0.357715 0.827284 0.145038
Si Si5 0.264907 0.673383 0.168720
Si Si6 0.888354 0.830924 0.725197
Si Si7 0.551774 0.330439 0.436039
Si Si8 0.888354 0.830924 0.939866
O O1 0.258306 0.500000 0.630420
O O2 0.274528 0.249158 0.741938
O O3 0.356050 0.278922 0.700448
O O4 0.168875 0.272817 0.431405
O O5 0.643336 0.000000 0.091511
O O6 0.539045 0.234877 0.949083
O O7 0.662586 0.212321 0.993879
O O8 0.474278 0.500000 0.839750
O O9 0.422872 0.302886 0.634308
O O10 0.274528 0.750843 0.081645
O O11 0.460955 0.765123 0.331947
O O12 0.356664 0.000000 0.161503
O O13 0.258307 0.500000 0.144500
O O14 0.356050 0.721078 0.367702
O O15 0.168874 0.727182 0.075218
O O16 0.866097 0.784271 0.799145
O O17 0.858159 0.000000 0.663913
O O18 1.000000 0.808929 0.870416
O O19 0.525723 0.500000 0.416918
O O20 0.858159 0.000000 0.910565
#
# Coordination Sequence:
#
# PCOD8065821 Si02
#       8
#     4   4   4   4   4   4   4   4
#     4  11  21  32  51  77 103 134 170 207 251 301
#     4  10  21  35  50  70  98 134 175 215 253 294
#     4   9  18  32  48  70 103 137 167 202 247 299
#     4  10  21  35  50  70  98 134 175 215 253 294
#     4  11  21  32  51  77 103 134 170 207 251 301
#     4   9  19  36  56  78 105 135 165 200 245 296
#     4   9  18  32  48  70 103 137 167 202 247 299
#     4   9  19  36  56  78 105 135 165 200 245 296
#
# _framework density 17.810676000000001
#
# number of rings (size 3 to 8) (size 9 to 14) (size 15 to 20)
#    0.000    2.250    0.000    3.750    0.000    8.500 
#    0.000    3.750    0.000    0.750    0.000    5.250 
#    0.000    0.000    0.000    0.000    0.000    0.000 
#
# Total GULP energy -396927.242050 kJ/mol
# GULP energy per Si atom -12403.976314 kJ/mol
# Density = 1.777014 g / cm^3
# Si number density = 17.810676 Si / 1000 Ang^3
#
#
#
# Elastic Constant Matrix: (Units=GPa)
#
#
# Indices 1 2 3 4 5 6 
#
# 1 97.9165 48.9621 38.5601 0.0000 6.4056 0.0000
# 2 48.9621 83.7338 48.5014 0.0000 -0.4645 0.0000
# 3 38.5601 48.5014 95.0656 0.0000 -9.2760 0.0000
# 4 0.0000 0.0000 0.0000 31.8294 0.0000 1.9899
# 5 6.4056 -0.4645 -9.2760 0.0000 17.0742 0.0000
# 6 0.0000 0.0000 0.0000 1.9899 0.0000 29.8531
#
#
#
# Elastic Compliance Matrix: (Units=1/GPa)
#
#
# Indices 1 2 3 4 5 6 
#
# 1 0.015711 -0.007224 -0.003465 0.000000 -0.007973 0.000000
# 2 -0.007224 0.020604 -0.007669 0.000000 -0.000896 0.000000
# 3 -0.003465 -0.007669 0.016836 0.000000 0.010238 0.000000
# 4 0.000000 0.000000 0.000000 0.031549 0.000000 -0.002103
# 5 -0.007973 -0.000896 0.010238 0.000000 0.067097 0.000000
# 6 0.000000 0.000000 0.000000 -0.002103 0.000000 0.033638
#
#
# Mechanical properties :
#
#
# Convention : Reuss Voigt Hill
#
# Bulk Modulus (GPa) = 60.84607 60.97369 60.90988
# Shear Modulus (GPa) = 21.96548 25.13083 23.54816
#
# Velocity S-wave (km/s) = 3.51561 3.76040 3.64007
# Velocity P-wave (km/s) = 7.12153 7.29128 7.20691
#
# Compressibility (1/GPa) = 0.01643491
#
# Stress axis : x y z
#
# Youngs Moduli (GPa) = 63.64855 48.53419 59.39570
#
# Poissons Ratio (x) = 0.35061 0.20581
# Poissons Ratio (y) = 0.45980 0.45552
# Poissons Ratio (z) = 0.22055 0.37222
#
# Static dielectric constant tensor:
#      x y z
#    x 3.318060 0.000000 -0.138400 
#    y 0.000000 3.273580 0.000000 
#    z -0.138400 0.000000 3.180580 
# 
# 
# High freq. dielectric constant tensor:
#      x y z
#    x 1.686400 0.000000 -0.011960 
#    y 0.000000 1.693870 0.000000 
#    z -0.011960 0.000000 1.674520 
# 
# From -- ./inp_files/66465.got.cif
#   From: 2010.06.25/outbox.cif.g09.slc.cpg/sg10_34_cif.got.tgz:66465.got - 2010.06.27 22:07:45.
