data_PCOD8065591
_publ_section_title
;
Structure prediction by ZEFSAII (Michael W. Deem and Ramdas Pophale) SiO2 
 PCOD8065591
Probable space group: P 2/M
;
_chemical_formula_sum "Si O2"
_cell_formula_units_Z 18
_cell_length_a 9.169474
_cell_length_b 20.235184
_cell_length_c 8.285450
_cell_angle_alpha 90.000000
_cell_angle_beta 146.845740
_cell_angle_gamma 90.000000
_cell_volume 840.759288
_symmetry_space_group_name_H-M "P 2/M"
_symmetry_group_IT_number 10
_symmetry_cell_setting 'monoclinic'
loop_
_space_group_symop_operation_xyz
x,y,z
-x,y,-z
-x,-y,-z
x,-y,z
loop_
_atom_site_type_symbol
_atom_site_label
_atom_site_fract_x
_atom_site_fract_y
_atom_site_fract_z
Si Si1 0.053148 0.208070 0.860411
Si Si2 0.557172 0.130165 0.364225
Si Si3 0.592043 0.422337 0.264312
Si Si4 0.081415 0.643988 0.891217
Si Si5 0.721657 0.000000 0.336749
O O1 0.776641 0.185682 0.524384
O O2 0.129652 0.281461 0.871975
O O3 0.286019 0.155926 0.028478
O O4 0.000000 0.207868 0.000000
O O5 0.500000 0.120455 0.500000
O O6 0.677758 0.062824 0.409063
O O7 0.631962 0.500000 0.319591
O O8 0.869978 0.389599 0.574619
O O9 0.500000 0.401939 0.000000
O O10 0.354491 0.396780 0.155806
O O11 0.000000 0.645421 0.000000
O O12 0.000000 0.000000 0.500000
O O13 0.500000 0.000000 0.000000
#
# Coordination Sequence:
#
# PCOD8065591 Si02
#       5
#     4   4   4   4   2
#     4   9  19  36  61  89 115 145 191 248 293 340
#     4  10  20  39  63  84 111 155 199 230 281 357
#     4  11  24  41  59  84 123 165 201 242 297 361
#     4  11  22  39  64  92 119 151 199 256 304 348
#     4  12  25  40  57  86 124 152 186 242 295 330
#
# _framework density 21.409219
#
# number of rings (size 3 to 8) (size 9 to 14) (size 15 to 20)
#    0.000    1.556    0.000    5.000    0.000    8.000 
#    0.000   15.556    0.000    0.000    0.000    0.000 
#    0.000    0.000    0.000    0.000    0.000    0.000 
#
# Total GULP energy -223145.901929 kJ/mol
# GULP energy per Si atom -12396.994552 kJ/mol
# Density = 2.136049 g / cm^3
# Si number density = 21.409219 Si / 1000 Ang^3
#
#
#
# Elastic Constant Matrix: (Units=GPa)
#
#
# Indices 1 2 3 4 5 6 
#
# 1 59.6183 41.9151 21.2710 0.0000 16.5801 0.0000
# 2 41.9151 132.1692 47.0905 0.0000 4.9907 0.0000
# 3 21.2710 47.0905 109.7682 0.0000 26.4020 0.0000
# 4 0.0000 0.0000 0.0000 45.5524 0.0000 22.0699
# 5 16.5801 4.9907 26.4020 0.0000 32.8282 0.0000
# 6 0.0000 0.0000 0.0000 22.0699 0.0000 47.2247
#
#
#
# Elastic Compliance Matrix: (Units=1/GPa)
#
#
# Indices 1 2 3 4 5 6 
#
# 1 0.025574 -0.008227 0.001711 0.000000 -0.013041 0.000000
# 2 -0.008227 0.011701 -0.004955 0.000000 0.006362 0.000000
# 3 0.001711 -0.004955 0.013553 0.000000 -0.011010 0.000000
# 4 0.000000 0.000000 0.000000 0.028378 0.000000 -0.013262
# 5 -0.013041 0.006362 -0.011010 0.000000 0.044936 0.000000
# 6 0.000000 0.000000 0.000000 -0.013262 0.000000 0.027373
#
#
# Mechanical properties :
#
#
# Convention : Reuss Voigt Hill
#
# Bulk Modulus (GPa) = 35.86418 58.01210 46.93814
# Shear Modulus (GPa) = 27.21026 37.87300 32.54163
#
# Velocity S-wave (km/s) = 3.56892 4.21052 3.90292
# Velocity P-wave (km/s) = 5.81128 7.12696 6.50248
#
# Compressibility (1/GPa) = 0.02788298
#
# Stress axis : x y z
#
# Youngs Moduli (GPa) = 39.10180 85.46581 73.78559
#
# Poissons Ratio (x) = 0.70316 -0.12621
# Poissons Ratio (y) = 0.32171 0.36564
# Poissons Ratio (z) = -0.06688 0.42352
#
# Static dielectric constant tensor:
#      x y z
#    x 3.781440 0.000000 0.191850 
#    y 0.000000 3.935280 0.000000 
#    z 0.191850 0.000000 4.271230 
# 
# 
# High freq. dielectric constant tensor:
#      x y z
#    x 1.830400 0.000000 0.014530 
#    y 0.000000 1.852390 0.000000 
#    z 0.014530 0.000000 1.852430 
# 
# From -- ./inp_files/4383.got.cif
#   From: 2010.06.25/outbox.cif.g09.slc.cpg/sg10_3_cif.got.tgz:4383.got - 2010.06.27 22:07:45.
