data_PCOD8065574
_publ_section_title
;
Structure prediction by ZEFSAII (Michael W. Deem and Ramdas Pophale) SiO2 
 PCOD8065574
Probable space group: P 2/M
;
_chemical_formula_sum "Si O2"
_cell_formula_units_Z 28
_cell_length_a 25.611031
_cell_length_b 9.253628
_cell_length_c 9.632341
_cell_angle_alpha 90.000000
_cell_angle_beta 140.311660
_cell_angle_gamma 90.000000
_cell_volume 1457.832060
_symmetry_space_group_name_H-M "P 2/M"
_symmetry_group_IT_number 10
_symmetry_cell_setting 'monoclinic'
loop_
_space_group_symop_operation_xyz
x,y,z
-x,y,-z
-x,-y,-z
x,-y,z
loop_
_atom_site_type_symbol
_atom_site_label
_atom_site_fract_x
_atom_site_fract_y
_atom_site_fract_z
Si Si1 0.655762 0.664180 0.009816
Si Si2 0.509803 0.669624 0.181272
Si Si3 0.920479 0.165913 0.745289
Si Si4 0.763935 0.666063 0.493760
Si Si5 0.750325 0.166322 0.985787
Si Si6 0.669619 0.832305 0.533645
Si Si7 0.925747 0.171285 0.439365
O O1 0.645429 0.500000 0.940060
O O2 0.729483 0.679920 0.268832
O O3 0.571585 0.719041 0.905079
O O4 0.677729 0.756766 0.920514
O O5 0.527623 0.500000 0.236187
O O6 0.583240 0.761311 0.397955
O O7 0.500000 0.708745 0.000000
O O8 0.852860 0.263755 0.679920
O O9 0.938028 0.218318 0.624280
O O10 0.890243 0.000000 0.683214
O O11 0.000000 0.185626 0.000000
O O12 0.768875 0.500000 0.552059
O O13 0.703381 0.750125 0.469989
O O14 0.734079 0.187355 0.789907
O O15 0.747591 0.000000 0.024527
O O16 0.839518 0.232288 0.204642
O O17 0.656701 0.000000 0.471373
O O18 0.000000 0.237600 0.500000
O O19 0.926784 0.000000 0.426150
#
# Coordination Sequence:
#
# PCOD8065574 Si02
#       7
#     4   4   4   4   4   4   4
#     4  10  21  38  62  85 112 155 199 239 286 351
#     4  10  20  39  61  84 117 155 197 241 291 348
#     4  10  21  36  60  91 118 150 196 245 291 345
#     4  11  22  39  61  85 119 159 197 240 291 348
#     4  10  22  39  59  85 119 154 192 240 292 350
#     4  11  24  38  58  90 121 152 196 245 293 347
#     4   9  18  34  57  83 114 152 188 231 288 344
#
# _framework density 19.206603000000001
#
# number of rings (size 3 to 8) (size 9 to 14) (size 15 to 20)
#    0.000    1.857    2.857    0.857    2.000    3.429 
#    0.000    2.857    0.000    0.857    0.000    0.000 
#    0.000    0.000    0.000    0.000    0.000    0.000 
#
# Total GULP energy -347294.868583 kJ/mol
# GULP energy per Si atom -12403.388164 kJ/mol
# Density = 1.916289 g / cm^3
# Si number density = 19.206603 Si / 1000 Ang^3
#
#
#
# Elastic Constant Matrix: (Units=GPa)
#
#
# Indices 1 2 3 4 5 6 
#
# 1 101.2417 36.6177 20.4128 0.0000 18.6435 0.0000
# 2 36.6177 69.9619 30.4372 0.0000 7.8206 0.0000
# 3 20.4128 30.4372 84.5552 0.0000 12.0068 0.0000
# 4 0.0000 0.0000 0.0000 25.6128 0.0000 2.5354
# 5 18.6435 7.8206 12.0068 0.0000 28.8727 0.0000
# 6 0.0000 0.0000 0.0000 2.5354 0.0000 33.0907
#
#
#
# Elastic Compliance Matrix: (Units=1/GPa)
#
#
# Indices 1 2 3 4 5 6 
#
# 1 0.013420 -0.006244 -0.000002 0.000000 -0.006974 0.000000
# 2 -0.006244 0.019983 -0.005834 0.000000 0.001045 0.000000
# 3 -0.000002 -0.005834 0.014563 0.000000 -0.004474 0.000000
# 4 0.000000 0.000000 0.000000 0.039341 0.000000 -0.003014
# 5 -0.006974 0.001045 -0.004474 0.000000 0.040715 0.000000
# 6 0.000000 0.000000 0.000000 -0.003014 0.000000 0.030451
#
#
# Mechanical properties :
#
#
# Convention : Reuss Voigt Hill
#
# Bulk Modulus (GPa) = 42.00699 47.85494 44.93096
# Shear Modulus (GPa) = 26.23733 28.73465 27.48599
#
# Velocity S-wave (km/s) = 3.70003 3.87212 3.78705
# Velocity P-wave (km/s) = 6.33816 6.70530 6.52431
#
# Compressibility (1/GPa) = 0.02380556
#
# Stress axis : x y z
#
# Youngs Moduli (GPa) = 74.51476 50.04311 68.66911
#
# Poissons Ratio (x) = 0.31245 0.00014
# Poissons Ratio (y) = 0.46524 0.40064
# Poissons Ratio (z) = 0.00015 0.29197
#
# Static dielectric constant tensor:
#      x y z
#    x 3.565170 0.000000 0.123350 
#    y 0.000000 3.369420 0.000000 
#    z 0.123350 0.000000 3.521790 
# 
# 
# High freq. dielectric constant tensor:
#      x y z
#    x 1.754720 0.000000 0.005400 
#    y 0.000000 1.728040 0.000000 
#    z 0.005400 0.000000 1.750700 
# 
# From -- ./inp_files/37345.got.cif
#   From: 2010.06.25/outbox.cif.g09.slc.cpg/sg10_19_cif.got.tgz:37345.got - 2010.06.27 22:07:45.
