data_PCOD8065567
_publ_section_title
;
Structure prediction by ZEFSAII (Michael W. Deem and Ramdas Pophale) SiO2 
 PCOD8065567
Probable space group: P 2/M
;
_chemical_formula_sum "Si O2"
_cell_formula_units_Z 28
_cell_length_a 10.284908
_cell_length_b 8.953301
_cell_length_c 30.204153
_cell_angle_alpha 90.000000
_cell_angle_beta 146.652774
_cell_angle_gamma 90.000000
_cell_volume 1528.921247
_symmetry_space_group_name_H-M "P 2/M"
_symmetry_group_IT_number 10
_symmetry_cell_setting 'monoclinic'
loop_
_space_group_symop_operation_xyz
x,y,z
-x,y,-z
-x,-y,-z
x,-y,z
loop_
_atom_site_type_symbol
_atom_site_label
_atom_site_fract_x
_atom_site_fract_y
_atom_site_fract_z
Si Si1 0.365722 0.676860 0.582947
Si Si2 0.378198 0.827234 0.010865
Si Si3 0.836425 0.823135 0.734547
Si Si4 0.902415 0.323422 0.406376
Si Si5 0.302782 0.323388 0.829329
Si Si6 0.412339 0.676772 0.761668
Si Si7 0.160452 0.172746 0.163377
O O1 0.412986 0.500000 0.595711
O O2 0.609566 0.762784 0.643262
O O3 0.262760 0.733349 0.600620
O O4 0.175669 0.725895 0.491113
O O5 0.476236 0.726022 0.078144
O O6 0.439524 0.000000 0.037771
O O7 0.500000 0.776173 0.000000
O O8 0.100353 0.798781 0.929311
O O9 0.822822 0.768725 0.781525
O O10 0.066703 0.755334 0.778058
O O11 0.852345 0.000000 0.735829
O O12 0.896579 0.500000 0.406498
O O13 0.796488 0.262441 0.330131
O O14 0.269985 0.500000 0.822667
O O15 0.354453 0.268162 0.794309
O O16 0.426678 0.500000 0.763267
O O17 0.664548 0.737960 0.818372
O O18 0.229389 0.000000 0.181089
#
# Coordination Sequence:
#
# PCOD8065567 Si02
#       7
#     4   4   4   4   4   4   4
#     4   9  16  30  56  85 108 139 186 231 272 318
#     4  10  20  39  60  80 110 145 184 228 273 323
#     4  11  21  36  56  82 113 146 184 227 274 327
#     4   8  15  30  54  82 111 143 179 225 275 322
#     4  11  24  38  56  83 112 146 185 225 277 330
#     4  10  21  38  57  81 115 148 180 225 277 328
#     4  10  21  36  58  83 107 143 186 224 271 330
#
# _framework density 18.313566000000002
#
# number of rings (size 3 to 8) (size 9 to 14) (size 15 to 20)
#    0.000    2.143    2.857    1.714    0.000    3.143 
#    0.000    5.714    0.000    4.286    0.000    0.000 
#    0.000    0.000    0.000    0.000    0.000    0.000 
#
# Total GULP energy -347203.299746 kJ/mol
# GULP energy per Si atom -12400.117848 kJ/mol
# Density = 1.827188 g / cm^3
# Si number density = 18.313566 Si / 1000 Ang^3
#
#
#
# Elastic Constant Matrix: (Units=GPa)
#
#
# Indices 1 2 3 4 5 6 
#
# 1 113.4418 41.9608 69.2219 0.0000 -2.1930 0.0000
# 2 41.9608 46.7532 37.0697 0.0000 -0.5581 0.0000
# 3 69.2219 37.0697 138.3100 0.0000 -1.4011 0.0000
# 4 0.0000 0.0000 0.0000 -30.1744 0.0000 -0.9506
# 5 -2.1930 -0.5581 -1.4011 0.0000 28.9753 0.0000
# 6 0.0000 0.0000 0.0000 -0.9506 0.0000 26.0529
#
#
#
# Elastic Compliance Matrix: (Units=1/GPa)
#
#
# Indices 1 2 3 4 5 6 
#
# 1 0.015662 -0.009954 -0.005163 0.000000 0.000744 0.000000
# 2 -0.009954 0.033488 -0.003997 0.000000 -0.000302 0.000000
# 3 -0.005163 -0.003997 0.010886 0.000000 0.000059 0.000000
# 4 0.000000 0.000000 0.000000 -0.033103 0.000000 -0.001208
# 5 0.000744 -0.000302 0.000059 0.000000 0.034565 0.000000
# 6 0.000000 0.000000 0.000000 -0.001208 0.000000 0.038339
#
#
# Mechanical properties :
#
#
# Convention : Reuss Voigt Hill
#
# Bulk Modulus (GPa) = 45.85417 66.11222 55.98320
# Shear Modulus (GPa) = 34.40343 14.98759 24.69551
#
# Velocity S-wave (km/s) = 4.33896 2.86385 3.67615
# Velocity P-wave (km/s) = 7.08483 6.86397 6.97527
#
# Compressibility (1/GPa) = 0.02180827
#
# Stress axis : x y z
#
# Youngs Moduli (GPa) = 63.84965 29.86172 91.86122
#
# Poissons Ratio (x) = 0.29724 0.47429
# Poissons Ratio (y) = 0.63554 0.36714
# Poissons Ratio (z) = 0.32966 0.11935
#
# Static dielectric constant tensor:
#      x y z
#    x 3.313660 0.000000 -0.128200 
#    y 0.000000 3.170620 0.000000 
#    z -0.128200 0.000000 3.783730 
# 
# 
# High freq. dielectric constant tensor:
#      x y z
#    x 1.695260 0.000000 0.007450 
#    y 0.000000 1.692400 0.000000 
#    z 0.007450 0.000000 1.727590 
# 
# From -- ./inp_files/37289.got.cif
#   From: 2010.06.25/outbox.cif.g09.slc.cpg/sg10_19_cif.got.tgz:37289.got - 2010.06.27 22:07:45.
