data_PCOD8065347
_publ_section_title
;
Structure prediction by ZEFSAII (Michael W. Deem and Ramdas Pophale) SiO2 
 PCOD8065347
Probable space group: P 2/M
;
_chemical_formula_sum "Si O2"
_cell_formula_units_Z 24
_cell_length_a 10.344310
_cell_length_b 12.731331
_cell_length_c 8.872507
_cell_angle_alpha 90.000000
_cell_angle_beta 84.582074
_cell_angle_gamma 90.000000
_cell_volume 1163.260865
_symmetry_space_group_name_H-M "P 2/M"
_symmetry_group_IT_number 10
_symmetry_cell_setting 'monoclinic'
loop_
_space_group_symop_operation_xyz
x,y,z
-x,y,-z
-x,-y,-z
x,-y,z
loop_
_atom_site_type_symbol
_atom_site_label
_atom_site_fract_x
_atom_site_fract_y
_atom_site_fract_z
Si Si1 0.051841 0.183375 0.338491
Si Si2 0.685389 0.377873 0.309438
Si Si3 0.277238 0.881352 0.117890
Si Si4 0.447714 0.697733 0.165414
Si Si5 0.121933 0.750631 0.892491
Si Si6 0.214728 0.380678 0.371933
O O1 0.174547 0.117049 0.266862
O O2 0.092425 0.305899 0.353902
O O3 0.000000 0.134840 0.500000
O O4 0.933390 0.175674 0.234206
O O5 0.653191 0.500000 0.295288
O O6 0.557519 0.311877 0.280739
O O7 0.801436 0.348025 0.183588
O O8 0.721435 0.348545 0.475993
O O9 0.407598 0.820345 0.153636
O O10 0.314411 0.000000 0.070837
O O11 0.216668 0.822118 0.981274
O O12 0.320865 0.631850 0.227879
O O13 0.500000 0.653033 0.000000
O O14 0.000000 0.705400 0.000000
O O15 0.163473 0.500000 0.380297
#
# Coordination Sequence:
#
# PCOD8065347 Si02
#       6
#     4   4   4   4   4   4
#     4  10  20  37  64  89 123 152 193 249 286 348
#     4  11  22  38  60  87 122 164 198 230 290 356
#     4  10  23  43  64  85 113 154 200 248 310 360
#     4  11  22  40  60  88 117 153 200 257 293 340
#     4  10  21  39  58  88 123 156 193 244 294 343
#     4  10  22  38  60  87 122 166 198 231 288 354
#
# _framework density 20.631656
#
# number of rings (size 3 to 8) (size 9 to 14) (size 15 to 20)
#    0.000    1.667    3.333    1.000    0.000    7.667 
#    0.000    0.000    0.000    8.000    0.000    0.000 
#    0.000    0.000    0.000    0.000    0.000    0.000 
#
# Total GULP energy -297644.766502 kJ/mol
# GULP energy per Si atom -12401.865271 kJ/mol
# Density = 2.058470 g / cm^3
# Si number density = 20.631656 Si / 1000 Ang^3
#
#
#
# Elastic Constant Matrix: (Units=GPa)
#
#
# Indices 1 2 3 4 5 6 
#
# 1 72.0730 32.5403 23.8776 0.0000 4.6565 0.0000
# 2 32.5403 100.4301 29.3912 0.0000 13.5527 0.0000
# 3 23.8776 29.3912 118.0129 0.0000 -8.3847 0.0000
# 4 0.0000 0.0000 0.0000 16.3797 0.0000 0.8413
# 5 4.6565 13.5527 -8.3847 0.0000 37.4092 0.0000
# 6 0.0000 0.0000 0.0000 0.8413 0.0000 13.4194
#
#
#
# Elastic Compliance Matrix: (Units=1/GPa)
#
#
# Indices 1 2 3 4 5 6 
#
# 1 0.016795 -0.004641 -0.002308 0.000000 -0.000926 0.000000
# 2 -0.004641 0.012848 -0.002592 0.000000 -0.004658 0.000000
# 3 -0.002308 -0.002592 0.009830 0.000000 0.003429 0.000000
# 4 0.000000 0.000000 0.000000 0.061249 0.000000 -0.003840
# 5 -0.000926 -0.004658 0.003429 0.000000 0.029303 0.000000
# 6 0.000000 0.000000 0.000000 -0.003840 0.000000 0.074760
#
#
# Mechanical properties :
#
#
# Convention : Reuss Voigt Hill
#
# Bulk Modulus (GPa) = 49.04193 51.34823 50.19508
# Shear Modulus (GPa) = 21.67672 27.08878 24.38275
#
# Velocity S-wave (km/s) = 3.24489 3.62743 3.44148
# Velocity P-wave (km/s) = 6.15313 6.51816 6.33827
#
# Compressibility (1/GPa) = 0.02039072
#
# Stress axis : x y z
#
# Youngs Moduli (GPa) = 59.54238 77.83326 101.73195
#
# Poissons Ratio (x) = 0.36124 0.23480
# Poissons Ratio (y) = 0.27635 0.26366
# Poissons Ratio (z) = 0.13743 0.20172
#
# Static dielectric constant tensor:
#      x y z
#    x 3.809540 0.000000 -0.044140 
#    y 0.000000 3.364420 0.000000 
#    z -0.044140 0.000000 4.024110 
# 
# 
# High freq. dielectric constant tensor:
#      x y z
#    x 1.812780 0.000000 -0.004690 
#    y 0.000000 1.773410 0.000000 
#    z -0.004690 0.000000 1.822270 
# 
# From -- ./inp_files/24019.got.cif
#   From: 2010.06.25/outbox.cif.g09.slc.cpg/sg10_13_cif.got.tgz:24019.got - 2010.06.27 22:07:45.
