data_PCOD8065878
_publ_section_title
;
Structure prediction by ZEFSAII (Michael W. Deem and Ramdas Pophale) SiO2 
 PCOD8065878
Probable space group: P 2/M
;
_chemical_formula_sum "Si O2"
_cell_formula_units_Z 24
_cell_length_a 24.050871
_cell_length_b 9.276852
_cell_length_c 17.481865
_cell_angle_alpha 90.000000
_cell_angle_beta 19.412141
_cell_angle_gamma 90.000000
_cell_volume 1296.370823
_symmetry_space_group_name_H-M "P 2/M"
_symmetry_group_IT_number 10
_symmetry_cell_setting 'monoclinic'
loop_
_space_group_symop_operation_xyz
x,y,z
-x,y,-z
-x,-y,-z
x,-y,z
loop_
_atom_site_type_symbol
_atom_site_label
_atom_site_fract_x
_atom_site_fract_y
_atom_site_fract_z
Si Si1 0.789890 0.333183 0.566949
Si Si2 0.328973 0.167496 0.682068
Si Si3 0.725792 0.834074 0.420216
Si Si4 0.149192 0.167446 0.361594
Si Si5 0.517756 0.834062 0.835933
Si Si6 0.003614 0.666838 0.139869
O O1 0.756137 0.500000 0.626726
O O2 0.868208 0.260325 0.539628
O O3 0.613191 0.260369 0.775272
O O4 0.921324 0.308037 0.328845
O O5 0.500000 0.215491 0.500000
O O6 0.345591 0.201509 0.570564
O O7 0.290411 0.000000 0.747056
O O8 0.183865 0.260229 0.908766
O O9 0.580297 0.795240 0.669527
O O10 0.890514 0.739445 0.221029
O O11 0.780679 0.000000 0.356308
O O12 0.000000 0.215645 0.500000
O O13 0.135103 0.000000 0.402165
O O14 0.322039 0.201420 0.093681
O O15 0.554528 0.000000 0.808273
O O16 0.021994 0.500000 0.095424
#
# Coordination Sequence:
#
# PCOD8065878 Si02
#       6
#     4   4   4   4   4   4
#     4  10  21  36  54  77 104 136 175 216 258 305
#     4  10  21  35  53  79 108 138 172 211 258 310
#     4   9  18  34  55  77 102 134 173 216 260 307
#     4  10  21  35  53  79 108 138 172 211 258 310
#     4   9  18  34  55  77 102 134 173 216 260 307
#     4  10  21  36  54  77 104 136 175 216 258 305
#
# _framework density 18.513221000000001
#
# number of rings (size 3 to 8) (size 9 to 14) (size 15 to 20)
#    0.000    2.333    0.000    2.000    0.000    9.333 
#    0.000    3.333    0.000    4.000    0.000    0.000 
#    0.000    0.000    0.000    0.000    0.000    0.000 
#
# Total GULP energy -297722.558680 kJ/mol
# GULP energy per Si atom -12405.106612 kJ/mol
# Density = 1.847108 g / cm^3
# Si number density = 18.513221 Si / 1000 Ang^3
#
#
#
# Elastic Constant Matrix: (Units=GPa)
#
#
# Indices 1 2 3 4 5 6 
#
# 1 134.6743 70.1705 76.4470 0.0000 -24.1296 0.0000
# 2 70.1705 94.1992 65.9586 0.0000 -12.5690 0.0000
# 3 76.4470 65.9586 118.1581 0.0000 -23.7184 0.0000
# 4 0.0000 0.0000 0.0000 18.6974 0.0000 12.8228
# 5 -24.1296 -12.5690 -23.7184 0.0000 26.5852 0.0000
# 6 0.0000 0.0000 0.0000 12.8228 0.0000 13.9180
#
#
#
# Elastic Compliance Matrix: (Units=1/GPa)
#
#
# Indices 1 2 3 4 5 6 
#
# 1 0.014655 -0.007094 -0.004294 0.000000 0.006117 0.000000
# 2 -0.007094 0.020868 -0.007761 0.000000 -0.003497 0.000000
# 3 -0.004294 -0.007761 0.017121 0.000000 0.007708 0.000000
# 4 0.000000 0.000000 0.000000 0.145271 0.000000 -0.133839
# 5 0.006117 -0.003497 0.007708 0.000000 0.048390 0.000000
# 6 0.000000 0.000000 0.000000 -0.133839 0.000000 0.195157
#
#
# Mechanical properties :
#
#
# Convention : Reuss Voigt Hill
#
# Bulk Modulus (GPa) = 69.70566 85.79821 77.75194
# Shear Modulus (GPa) = 10.31903 20.80382 15.56143
#
# Velocity S-wave (km/s) = 2.36347 3.35584 2.90238
# Velocity P-wave (km/s) = 6.72172 7.83967 7.30212
#
# Compressibility (1/GPa) = 0.01434604
#
# Stress axis : x y z
#
# Youngs Moduli (GPa) = 68.23740 47.91987 58.40774
#
# Poissons Ratio (x) = 0.33995 0.25078
# Poissons Ratio (y) = 0.48408 0.45332
# Poissons Ratio (z) = 0.29298 0.37192
#
# Static dielectric constant tensor:
#      x y z
#    x 3.411500 0.000000 0.066210 
#    y 0.000000 3.422880 0.000000 
#    z 0.066210 0.000000 3.437110 
# 
# 
# High freq. dielectric constant tensor:
#      x y z
#    x 1.718580 0.000000 0.007450 
#    y 0.000000 1.715880 0.000000 
#    z 0.007450 0.000000 1.721370 
# 
# From -- ./inp_files/27215.got.cif
#   From: 2010.06.25/outbox.cif.g09.slc.cpg/sg10_14_cif.got.tgz:27215.got - 2010.06.27 22:07:45.
