data_PCOD8065402
_publ_section_title
;
Structure prediction by ZEFSAII (Michael W. Deem and Ramdas Pophale) SiO2 
 PCOD8065402
Probable space group: P 2/M
;
_chemical_formula_sum "Si O2"
_cell_formula_units_Z 18
_cell_length_a 8.486184
_cell_length_b 20.880775
_cell_length_c 9.816930
_cell_angle_alpha 90.000000
_cell_angle_beta 149.325140
_cell_angle_gamma 90.000000
_cell_volume 887.454123
_symmetry_space_group_name_H-M "P 2/M"
_symmetry_group_IT_number 10
_symmetry_cell_setting 'monoclinic'
loop_
_space_group_symop_operation_xyz
x,y,z
-x,y,-z
-x,-y,-z
x,-y,z
loop_
_atom_site_type_symbol
_atom_site_label
_atom_site_fract_x
_atom_site_fract_y
_atom_site_fract_z
Si Si1 0.269547 0.193254 0.095517
Si Si2 0.077523 0.134995 0.399299
Si Si3 0.349456 0.334212 0.241783
Si Si4 0.135082 0.000000 0.747629
Si Si5 0.637660 0.572880 0.242267
O O1 0.559919 0.148599 0.349470
O O2 0.369149 0.266973 0.178011
O O3 0.000000 0.175484 0.000000
O O4 0.138393 0.183509 0.845675
O O5 0.000000 0.142746 0.500000
O O6 0.991880 0.064453 0.275085
O O7 0.500000 0.325314 0.500000
O O8 0.531013 0.387022 0.292310
O O9 0.000000 0.357680 0.000000
O O10 0.000000 0.000000 0.500000
O O11 0.500000 0.000000 0.000000
O O12 0.524402 0.500000 0.179920
O O13 0.000000 0.577303 0.500000
O O14 0.500000 0.601130 0.000000
#
# Coordination Sequence:
#
# PCOD8065402 Si02
#       5
#     4   4   4   2   4
#     4  11  23  40  57  85 124 154 187 243 298 339
#     4  11  22  39  63  87 112 153 199 238 287 351
#     4  11  23  40  61  86 118 160 199 236 287 349
#     4  10  20  38  59  86 117 146 189 246 291 338
#     4  10  22  40  61  89 123 154 191 246 297 336
#
# _framework density 20.282737999999998
#
# number of rings (size 3 to 8) (size 9 to 14) (size 15 to 20)
#    0.000    1.333    0.000    8.000    0.000    3.556 
#    0.000    3.333    0.000    0.000    0.000    0.000 
#    0.000    0.000    0.000    0.000    0.000    0.000 
#
# Total GULP energy -223232.850016 kJ/mol
# GULP energy per Si atom -12401.825001 kJ/mol
# Density = 2.023657 g / cm^3
# Si number density = 20.282738 Si / 1000 Ang^3
#
#
#
# Elastic Constant Matrix: (Units=GPa)
#
#
# Indices 1 2 3 4 5 6 
#
# 1 84.2359 76.1212 36.9317 0.0000 5.4338 0.0000
# 2 76.1212 121.9783 53.4506 0.0000 -2.0608 0.0000
# 3 36.9317 53.4506 153.0312 0.0000 -3.5251 0.0000
# 4 0.0000 0.0000 0.0000 29.3452 0.0000 7.7759
# 5 5.4338 -2.0608 -3.5251 0.0000 49.6879 0.0000
# 6 0.0000 0.0000 0.0000 7.7759 0.0000 46.8382
#
#
#
# Elastic Compliance Matrix: (Units=1/GPa)
#
#
# Indices 1 2 3 4 5 6 
#
# 1 0.028009 -0.017171 -0.000850 0.000000 -0.003835 0.000000
# 2 -0.017171 0.020208 -0.002856 0.000000 0.002513 0.000000
# 3 -0.000850 -0.002856 0.007750 0.000000 0.000524 0.000000
# 4 0.000000 0.000000 0.000000 0.035645 0.000000 -0.005918
# 5 -0.003835 0.002513 0.000524 0.000000 0.020686 0.000000
# 6 0.000000 0.000000 0.000000 -0.005918 0.000000 0.022333
#
#
# Mechanical properties :
#
#
# Convention : Reuss Voigt Hill
#
# Bulk Modulus (GPa) = 70.36968 76.91693 73.64331
# Shear Modulus (GPa) = 27.60558 38.02373 32.81466
#
# Velocity S-wave (km/s) = 3.69323 4.33446 4.02663
# Velocity P-wave (km/s) = 7.27711 7.94070 7.61613
#
# Compressibility (1/GPa) = 0.01421067
#
# Stress axis : x y z
#
# Youngs Moduli (GPa) = 35.70331 49.48529 129.03956
#
# Poissons Ratio (x) = 0.84972 0.10972
# Poissons Ratio (y) = 0.61307 0.36859
# Poissons Ratio (z) = 0.03036 0.14135
#
# Static dielectric constant tensor:
#      x y z
#    x 3.534710 0.000000 0.056770 
#    y 0.000000 6.587910 0.000000 
#    z 0.056770 0.000000 3.938580 
# 
# 
# High freq. dielectric constant tensor:
#      x y z
#    x 1.781920 0.000000 0.006130 
#    y 0.000000 1.793780 0.000000 
#    z 0.006130 0.000000 1.820920 
# 
# From -- ./inp_files/20658.got.cif
#   From: 2010.06.25/outbox.cif.g09.slc.cpg/sg10_11_cif.got.tgz:20658.got - 2010.06.27 22:07:45.
