data_PCOD8065334
_publ_section_title
;
Structure prediction by ZEFSAII (Michael W. Deem and Ramdas Pophale) SiO2 
 PCOD8065334
Probable space group: P 2/M
;
_chemical_formula_sum "Si O2"
_cell_formula_units_Z 28
_cell_length_a 11.707399
_cell_length_b 16.888752
_cell_length_c 20.396682
_cell_angle_alpha 90.000000
_cell_angle_beta 160.138383
_cell_angle_gamma 90.000000
_cell_volume 1370.176181
_symmetry_space_group_name_H-M "P 2/M"
_symmetry_group_IT_number 10
_symmetry_cell_setting 'monoclinic'
loop_
_space_group_symop_operation_xyz
x,y,z
-x,y,-z
-x,-y,-z
x,-y,z
loop_
_atom_site_type_symbol
_atom_site_label
_atom_site_fract_x
_atom_site_fract_y
_atom_site_fract_z
Si Si1 0.754853 0.303532 0.808626
Si Si2 0.371692 0.593545 0.503493
Si Si3 0.289192 0.212924 0.023958
Si Si4 0.635304 0.835105 0.333707
Si Si5 0.872023 0.000000 0.230072
Si Si6 0.823133 0.000000 0.473189
Si Si7 0.786774 0.294217 0.207130
Si Si8 0.120620 0.159283 0.314530
O O1 0.598814 0.378828 0.687535
O O2 0.472241 0.240785 0.680656
O O3 0.000000 0.331334 0.000000
O O4 0.968526 0.265059 0.866616
O O5 0.500000 0.622192 0.500000
O O6 0.356948 0.500000 0.496599
O O7 0.000875 0.625525 0.321417
O O8 0.379128 0.157354 0.134098
O O9 0.606811 0.270433 0.178402
O O10 0.168532 0.160447 0.897630
O O11 0.000000 0.820248 0.500000
O O12 0.608567 0.917537 0.360999
O O13 0.099317 0.927213 0.331925
O O14 0.500000 0.000000 0.000000
O O15 0.875968 0.000000 0.311249
O O16 0.000000 0.000000 0.500000
O O17 0.036037 0.222451 0.324739
O O18 0.500000 0.306972 0.000000
O O19 0.500000 0.177907 0.500000
#
# Coordination Sequence:
#
# PCOD8065334 Si02
#       8
#     4   4   4   4   2   2   4   4
#     4  10  22  42  64  91 127 165 209 254 308 378
#     4  11  23  39  65  96 127 162 202 256 315 377
#     4  10  21  38  64  93 117 169 208 261 308 365
#     4  10  22  39  65  89 124 164 215 257 315 368
#     4  12  27  41  61  90 125 165 215 259 312 373
#     4  10  26  39  62  91 126 165 208 263 313 359
#     4  10  20  37  63  91 123 162 208 256 313 374
#     4  11  24  38  62  88 124 162 211 262 311 366
#
# _framework density 20.435328999999999
#
# number of rings (size 3 to 8) (size 9 to 14) (size 15 to 20)
#    0.000    1.571    0.000    5.357   12.000    0.571 
#    0.000    3.929    0.000    8.143    0.000    0.000 
#    0.000    0.000    0.000    0.000    0.000    0.000 
#
# Total GULP energy -347029.435055 kJ/mol
# GULP energy per Si atom -12393.908395 kJ/mol
# Density = 2.038882 g / cm^3
# Si number density = 20.435329 Si / 1000 Ang^3
#
#
#
# Elastic Constant Matrix: (Units=GPa)
#
#
# Indices 1 2 3 4 5 6 
#
# 1 99.8548 44.6689 40.1537 0.0000 3.0716 0.0000
# 2 44.6689 115.9263 50.7690 0.0000 -0.9417 0.0000
# 3 40.1537 50.7690 105.9057 0.0000 4.2347 0.0000
# 4 0.0000 0.0000 0.0000 29.1718 0.0000 -2.3391
# 5 3.0716 -0.9417 4.2347 0.0000 47.8353 0.0000
# 6 0.0000 0.0000 0.0000 -2.3391 0.0000 30.6919
#
#
#
# Elastic Compliance Matrix: (Units=1/GPa)
#
#
# Indices 1 2 3 4 5 6 
#
# 1 0.012909 -0.003603 -0.003142 0.000000 -0.000622 0.000000
# 2 -0.003603 0.011946 -0.004395 0.000000 0.000856 0.000000
# 3 -0.003142 -0.004395 0.012781 0.000000 -0.001016 0.000000
# 4 0.000000 0.000000 0.000000 0.034490 0.000000 0.002629
# 5 -0.000622 0.000856 -0.001016 0.000000 0.021052 0.000000
# 6 0.000000 0.000000 0.000000 0.002629 0.000000 0.032782
#
#
# Mechanical properties :
#
#
# Convention : Reuss Voigt Hill
#
# Bulk Modulus (GPa) = 65.12143 65.87446 65.49794
# Shear Modulus (GPa) = 32.60305 33.94616 33.27461
#
# Velocity S-wave (km/s) = 3.99861 4.08014 4.03958
# Velocity P-wave (km/s) = 7.29759 7.38257 7.34020
#
# Compressibility (1/GPa) = 0.01535593
#
# Stress axis : x y z
#
# Youngs Moduli (GPa) = 77.46512 83.70907 78.23985
#
# Poissons Ratio (x) = 0.30161 0.24586
# Poissons Ratio (y) = 0.27911 0.34385
# Poissons Ratio (z) = 0.24342 0.36789
#
# Static dielectric constant tensor:
#      x y z
#    x 3.957990 0.000000 -0.005630 
#    y 0.000000 3.685800 0.000000 
#    z -0.005630 0.000000 3.827250 
# 
# 
# High freq. dielectric constant tensor:
#      x y z
#    x 1.805900 0.000000 -0.006690 
#    y 0.000000 1.777140 0.000000 
#    z -0.006690 0.000000 1.812370 
# 
# From -- ./inp_files/84233.got.cif
#   From: 2010.06.25/outbox.cif.g09.slc.cpg/sg10_43_cif.got.tgz:84233.got - 2010.06.27 22:07:45.
