data_PCOD8065784
_publ_section_title
;
Structure prediction by ZEFSAII (Michael W. Deem and Ramdas Pophale) SiO2 
 PCOD8065784
Probable space group: P 2/M
;
_chemical_formula_sum "Si O2"
_cell_formula_units_Z 32
_cell_length_a 16.509581
_cell_length_b 8.785293
_cell_length_c 24.769655
_cell_angle_alpha 90.000000
_cell_angle_beta 152.930624
_cell_angle_gamma 90.000000
_cell_volume 1634.893782
_symmetry_space_group_name_H-M "P 2/M"
_symmetry_group_IT_number 10
_symmetry_cell_setting 'monoclinic'
loop_
_space_group_symop_operation_xyz
x,y,z
-x,y,-z
-x,-y,-z
x,-y,z
loop_
_atom_site_type_symbol
_atom_site_label
_atom_site_fract_x
_atom_site_fract_y
_atom_site_fract_z
Si Si1 0.048299 0.179758 0.303315
Si Si2 0.182095 0.172152 0.498990
Si Si3 0.303887 0.681071 0.367103
Si Si4 0.695706 0.678234 0.133074
Si Si5 0.788790 0.172406 0.296635
Si Si6 0.610377 0.676946 0.290176
Si Si7 0.848561 0.319183 0.835278
Si Si8 0.772275 0.320430 0.907422
O O1 0.844648 0.237531 0.185369
O O2 0.149708 0.225748 0.418511
O O3 0.152309 0.256021 0.316273
O O4 0.043272 0.000000 0.292669
O O5 0.322164 0.286465 0.609334
O O6 0.000751 0.183615 0.425320
O O7 0.256053 0.000000 0.544382
O O8 0.500000 0.741522 0.500000
O O9 0.297954 0.500000 0.366453
O O10 0.258323 0.744319 0.280028
O O11 0.720313 0.500000 0.138214
O O12 0.713071 0.715752 0.206418
O O13 0.500000 0.733825 0.000000
O O14 0.715192 0.219850 0.310681
O O15 0.730621 0.000000 0.248390
O O16 0.639494 0.500000 0.294631
O O17 0.403462 0.724936 0.163994
O O18 0.841068 0.500000 0.828096
O O19 0.764020 0.255972 0.840960
O O20 0.054966 0.262216 0.957157
O O21 0.785826 0.500000 0.908966
#
# Coordination Sequence:
#
# PCOD8065784 Si02
#       8
#     4   4   4   4   4   4   4   4
#     4  10  22  39  57  80 113 152 190 226 279 351
#     4   9  20  37  53  71 103 147 183 217 271 335
#     4  10  21  34  56  87 115 144 187 243 293 336
#     4  10  21  38  61  86 112 143 184 236 285 330
#     4  10  21  37  54  75 110 150 184 217 265 335
#     4  11  21  30  51  84 108 133 181 236 278 322
#     4   8  15  32  52  72 106 143 175 218 276 331
#     4   8  16  30  50  75 103 140 179 218 271 331
#
# _framework density 19.573138
#
# number of rings (size 3 to 8) (size 9 to 14) (size 15 to 20)
#    0.000    2.500    0.000    3.375    1.750    6.750 
#    0.000    2.500    0.000    0.750    0.000    4.375 
#    0.000    0.000    0.000    0.000    0.000    0.000 
#
# Total GULP energy -396728.861590 kJ/mol
# GULP energy per Si atom -12397.776925 kJ/mol
# Density = 1.952859 g / cm^3
# Si number density = 19.573138 Si / 1000 Ang^3
#
#
#
# Elastic Constant Matrix: (Units=GPa)
#
#
# Indices 1 2 3 4 5 6 
#
# 1 85.8746 13.4949 39.4385 0.0000 -6.1960 0.0000
# 2 13.4949 32.1349 22.1042 0.0000 5.0999 0.0000
# 3 39.4385 22.1042 114.1844 0.0000 -8.6634 0.0000
# 4 0.0000 0.0000 0.0000 12.2116 0.0000 -6.4913
# 5 -6.1960 5.0999 -8.6634 0.0000 22.4255 0.0000
# 6 0.0000 0.0000 0.0000 -6.4913 0.0000 19.2678
#
#
#
# Elastic Compliance Matrix: (Units=1/GPa)
#
#
# Indices 1 2 3 4 5 6 
#
# 1 0.014295 -0.003808 -0.003951 0.000000 0.003289 0.000000
# 2 -0.003808 0.039855 -0.007384 0.000000 -0.012968 0.000000
# 3 -0.003951 -0.007384 0.011947 0.000000 0.005203 0.000000
# 4 0.000000 0.000000 0.000000 0.099754 0.000000 0.033607
# 5 0.003289 -0.012968 0.005203 0.000000 0.050460 0.000000
# 6 0.000000 0.000000 0.000000 0.033607 0.000000 0.063222
#
#
# Mechanical properties :
#
#
# Convention : Reuss Voigt Hill
#
# Bulk Modulus (GPa) = 27.92377 42.47433 35.19905
# Shear Modulus (GPa) = 15.53979 21.25807 18.39893
#
# Velocity S-wave (km/s) = 2.82074 3.29915 3.06928
# Velocity P-wave (km/s) = 4.99060 6.02163 5.53019
#
# Compressibility (1/GPa) = 0.03581178
#
# Stress axis : x y z
#
# Youngs Moduli (GPa) = 69.95469 25.09082 83.70648
#
# Poissons Ratio (x) = 0.09554 0.33070
# Poissons Ratio (y) = 0.26636 0.61810
# Poissons Ratio (z) = 0.27637 0.18527
#
# Static dielectric constant tensor:
#      x y z
#    x 3.565190 0.000000 0.027610 
#    y 0.000000 3.247350 0.000000 
#    z 0.027610 0.000000 3.825540 
# 
# 
# High freq. dielectric constant tensor:
#      x y z
#    x 1.763400 0.000000 0.001850 
#    y 0.000000 1.736680 0.000000 
#    z 0.001850 0.000000 1.767110 
# 
# From -- ./inp_files/89648.got.cif
#   From: 2010.06.25/outbox.cif.g09.slc.cpg/sg10_45_cif.got.tgz:89648.got - 2010.06.27 22:07:45.
