data_PCOD8065343
_publ_section_title
;
Structure prediction by ZEFSAII (Michael W. Deem and Ramdas Pophale) SiO2 
 PCOD8065343
Probable space group: P 2/M
;
_chemical_formula_sum "Si O2"
_cell_formula_units_Z 28
_cell_length_a 11.277247
_cell_length_b 15.500651
_cell_length_c 8.587277
_cell_angle_alpha 90.000000
_cell_angle_beta 56.853038
_cell_angle_gamma 90.000000
_cell_volume 1256.823992
_symmetry_space_group_name_H-M "P 2/M"
_symmetry_group_IT_number 10
_symmetry_cell_setting 'monoclinic'
loop_
_space_group_symop_operation_xyz
x,y,z
-x,y,-z
-x,-y,-z
x,-y,z
loop_
_atom_site_type_symbol
_atom_site_label
_atom_site_fract_x
_atom_site_fract_y
_atom_site_fract_z
Si Si1 0.589205 0.182076 0.153616
Si Si2 0.420839 0.000000 0.717023
Si Si3 0.226661 0.402326 0.088767
Si Si4 0.312146 0.243556 0.213719
Si Si5 0.876736 0.000000 0.212152
Si Si6 0.649981 0.329492 0.312201
Si Si7 0.954622 0.685994 0.201877
Si Si8 0.910458 0.154816 0.422646
O O1 0.536220 0.084714 0.216906
O O2 0.469052 0.245336 0.171984
O O3 0.644594 0.226787 0.272880
O O4 0.705332 0.184992 0.931255
O O5 0.500000 0.000000 0.500000
O O6 0.255271 0.000000 0.807458
O O7 0.255590 0.500000 0.119449
O O8 0.266898 0.341527 0.206085
O O9 0.058120 0.392699 0.174107
O O10 0.321446 0.382300 0.867292
O O11 0.230292 0.197402 0.410759
O O12 0.874077 0.083535 0.321982
O O13 0.000000 0.000000 0.000000
O O14 0.500000 0.358263 0.500000
O O15 0.786998 0.341077 0.327855
O O16 0.994898 0.765618 0.285258
O O17 0.000000 0.718956 0.000000
O O18 0.000000 0.113850 0.500000
#
# Coordination Sequence:
#
# PCOD8065343 Si02
#       8
#     4   2   4   4   2   4   4   4
#     4  10  22  39  64  93 130 176 216 267 323 392
#     4  12  24  41  66  95 128 171 232 266 310 385
#     4  10  22  42  66  94 126 170 222 278 334 398
#     4  10  22  41  64  93 129 170 218 267 340 387
#     4  12  29  42  64 101 141 177 217 276 328 375
#     4  10  20  37  63  93 132 172 220 266 331 393
#     4  10  21  39  66  93 130 175 219 270 330 392
#     4  12  23  40  65  94 132 176 223 266 320 388
#
# _framework density 22.278376999999999
#
# number of rings (size 3 to 8) (size 9 to 14) (size 15 to 20)
#    0.000    1.429    1.429    3.643    2.000    4.571 
#    0.000    7.143    0.000    3.429    0.000    0.000 
#    0.000    0.000    0.000    0.000    0.000    0.000 
#
# Total GULP energy -347044.006117 kJ/mol
# GULP energy per Si atom -12394.428790 kJ/mol
# Density = 2.222767 g / cm^3
# Si number density = 22.278377 Si / 1000 Ang^3
#
#
#
# Elastic Constant Matrix: (Units=GPa)
#
#
# Indices 1 2 3 4 5 6 
#
# 1 110.6127 36.5218 34.7193 0.0000 -11.1553 0.0000
# 2 36.5218 155.3991 54.4455 0.0000 0.9115 0.0000
# 3 34.7193 54.4455 120.7514 0.0000 -13.4904 0.0000
# 4 0.0000 0.0000 0.0000 26.3301 0.0000 4.0894
# 5 -11.1553 0.9115 -13.4904 0.0000 35.1596 0.0000
# 6 0.0000 0.0000 0.0000 4.0894 0.0000 25.8675
#
#
#
# Elastic Compliance Matrix: (Units=1/GPa)
#
#
# Indices 1 2 3 4 5 6 
#
# 1 0.010506 -0.001817 -0.001905 0.000000 0.002649 0.000000
# 2 -0.001817 0.008042 -0.003334 0.000000 -0.002064 0.000000
# 3 -0.001905 -0.003334 0.010735 0.000000 0.003601 0.000000
# 4 0.000000 0.000000 0.000000 0.038935 0.000000 -0.006155
# 5 0.002649 -0.002064 0.003601 0.000000 0.030717 0.000000
# 6 0.000000 0.000000 0.000000 -0.006155 0.000000 0.039632
#
#
# Mechanical properties :
#
#
# Convention : Reuss Voigt Hill
#
# Bulk Modulus (GPa) = 65.92177 70.90404 68.41290
# Shear Modulus (GPa) = 31.69817 34.87656 33.28737
#
# Velocity S-wave (km/s) = 3.77612 3.96092 3.86962
# Velocity P-wave (km/s) = 6.97613 7.26732 7.12322
#
# Compressibility (1/GPa) = 0.01516950
#
# Stress axis : x y z
#
# Youngs Moduli (GPa) = 95.18596 124.34046 93.15236
#
# Poissons Ratio (x) = 0.22593 0.17750
# Poissons Ratio (y) = 0.17295 0.31061
# Poissons Ratio (z) = 0.18137 0.41461
#
# Static dielectric constant tensor:
#      x y z
#    x 4.023830 0.000000 -0.091450 
#    y 0.000000 3.735150 0.000000 
#    z -0.091450 0.000000 4.286650 
# 
# 
# High freq. dielectric constant tensor:
#      x y z
#    x 1.883310 0.000000 -0.004210 
#    y 0.000000 1.848680 0.000000 
#    z -0.004210 0.000000 1.890580 
# 
# From -- ./inp_files/25251.got.cif
#   From: 2010.06.25/outbox.cif.g09.slc.cpg/sg10_13_cif.got.tgz:25251.got - 2010.06.27 22:07:45.
