data_PCOD8065541
_publ_section_title
;
Structure prediction by ZEFSAII (Michael W. Deem and Ramdas Pophale) SiO2 
 PCOD8065541
Probable space group: P 2/M
;
_chemical_formula_sum "Si O2"
_cell_formula_units_Z 32
_cell_length_a 13.845858
_cell_length_b 13.158284
_cell_length_c 13.245252
_cell_angle_alpha 90.000000
_cell_angle_beta 137.505405
_cell_angle_gamma 90.000000
_cell_volume 1630.114033
_symmetry_space_group_name_H-M "P 2/M"
_symmetry_group_IT_number 10
_symmetry_cell_setting 'monoclinic'
loop_
_space_group_symop_operation_xyz
x,y,z
-x,y,-z
-x,-y,-z
x,-y,z
loop_
_atom_site_type_symbol
_atom_site_label
_atom_site_fract_x
_atom_site_fract_y
_atom_site_fract_z
Si Si1 0.412207 0.268091 0.523551
Si Si2 0.134417 0.298387 0.981925
Si Si3 0.932757 0.116641 0.204711
Si Si4 0.843731 0.212033 0.340187
Si Si5 0.576130 0.385277 0.805043
Si Si6 0.752598 0.115409 0.471250
Si Si7 0.375932 0.615965 0.832349
Si Si8 0.840688 0.380438 0.777363
O O1 0.500000 0.215962 0.500000
O O2 0.532906 0.339910 0.664529
O O3 0.367872 0.181672 0.567672
O O4 0.278520 0.338158 0.389826
O O5 0.107705 0.182248 0.925531
O O6 0.995993 0.365503 0.843749
O O7 0.280274 0.333651 0.038583
O O8 0.159862 0.311677 0.121647
O O9 0.845118 0.150952 0.236320
O O10 0.099787 0.130658 0.355813
O O11 0.894609 0.000000 0.151277
O O12 0.763620 0.144485 0.362027
O O13 0.765743 0.318797 0.263565
O O14 0.000000 0.239717 0.500000
O O15 0.620858 0.500000 0.821616
O O16 0.436815 0.373942 0.766913
O O17 0.700894 0.000000 0.436515
O O18 0.336671 0.500000 0.829980
O O19 0.500000 0.657812 0.000000
O O20 0.816850 0.500000 0.782229
#
# Coordination Sequence:
#
# PCOD8065541 Si02
#       8
#     4   4   4   4   4   4   4   4
#     4  12  23  39  62  89 122 161 204 253 300 364
#     4  11  21  38  60  88 122 155 201 255 299 357
#     4  10  21  39  65  93 119 157 206 255 307 359
#     4  10  20  38  66  91 118 154 204 257 297 360
#     4  11  22  37  60  87 121 162 198 242 303 364
#     4  10  21  41  64  89 120 159 204 258 312 351
#     4  10  21  37  57  85 126 165 193 234 304 370
#     4  11  23  39  61  89 122 160 208 254 304 359
#
# _framework density 19.630528000000002
#
# number of rings (size 3 to 8) (size 9 to 14) (size 15 to 20)
#    0.000    1.375    3.750    3.000    0.000    2.500 
#    0.000    3.750    0.000    1.500    0.000    0.000 
#    0.000    0.000    0.000    0.000    0.000    0.000 
#
# Total GULP energy -396759.876442 kJ/mol
# GULP energy per Si atom -12398.746139 kJ/mol
# Density = 1.958585 g / cm^3
# Si number density = 19.630528 Si / 1000 Ang^3
#
#
#
# Elastic Constant Matrix: (Units=GPa)
#
#
# Indices 1 2 3 4 5 6 
#
# 1 74.3198 38.0415 27.2228 0.0000 1.3305 0.0000
# 2 38.0415 131.1992 53.4068 0.0000 -2.9396 0.0000
# 3 27.2228 53.4068 84.6259 0.0000 1.8665 0.0000
# 4 0.0000 0.0000 0.0000 29.4264 0.0000 -4.5460
# 5 1.3305 -2.9396 1.8665 0.0000 29.8344 0.0000
# 6 0.0000 0.0000 0.0000 -4.5460 0.0000 19.7576
#
#
#
# Elastic Compliance Matrix: (Units=1/GPa)
#
#
# Indices 1 2 3 4 5 6 
#
# 1 0.016390 -0.003545 -0.003016 0.000000 -0.000892 0.000000
# 2 -0.003545 0.011084 -0.005890 0.000000 0.001619 0.000000
# 3 -0.003016 -0.005890 0.016537 0.000000 -0.001480 0.000000
# 4 0.000000 0.000000 0.000000 0.035236 0.000000 0.008107
# 5 -0.000892 0.001619 -0.001480 0.000000 0.033810 0.000000
# 6 0.000000 0.000000 0.000000 0.008107 0.000000 0.052479
#
#
# Mechanical properties :
#
#
# Convention : Reuss Voigt Hill
#
# Bulk Modulus (GPa) = 52.33054 58.60968 55.47011
# Shear Modulus (GPa) = 25.40558 27.23528 26.32043
#
# Velocity S-wave (km/s) = 3.60138 3.72882 3.66565
# Velocity P-wave (km/s) = 6.63392 6.96132 6.79959
#
# Compressibility (1/GPa) = 0.01910930
#
# Stress axis : x y z
#
# Youngs Moduli (GPa) = 61.01119 90.22147 60.47104
#
# Poissons Ratio (x) = 0.31982 0.18237
# Poissons Ratio (y) = 0.21627 0.35619
# Poissons Ratio (z) = 0.18400 0.53143
#
# Static dielectric constant tensor:
#      x y z
#    x 3.740220 0.000000 0.103890 
#    y 0.000000 3.482020 0.000000 
#    z 0.103890 0.000000 3.551790 
# 
# 
# High freq. dielectric constant tensor:
#      x y z
#    x 1.773730 0.000000 0.005030 
#    y 0.000000 1.754410 0.000000 
#    z 0.005030 0.000000 1.762360 
# 
# From -- ./inp_files/67353.got.cif
#   From: 2010.06.25/outbox.cif.g09.slc.cpg/sg10_34_cif.got.tgz:67353.got - 2010.06.27 22:07:45.
