data_PCOD8065914
_publ_section_title
;
Structure prediction by ZEFSAII (Michael W. Deem and Ramdas Pophale) SiO2 
 PCOD8065914
Probable space group: P 2/M
;
_chemical_formula_sum "Si O2"
_cell_formula_units_Z 28
_cell_length_a 9.829236
_cell_length_b 7.520943
_cell_length_c 30.660162
_cell_angle_alpha 90.000000
_cell_angle_beta 143.536119
_cell_angle_gamma 90.000000
_cell_volume 1347.050476
_symmetry_space_group_name_H-M "P 2/M"
_symmetry_group_IT_number 10
_symmetry_cell_setting 'monoclinic'
loop_
_space_group_symop_operation_xyz
x,y,z
-x,y,-z
-x,-y,-z
x,-y,z
loop_
_atom_site_type_symbol
_atom_site_label
_atom_site_fract_x
_atom_site_fract_y
_atom_site_fract_z
Si Si1 0.473641 0.293435 0.181503
Si Si2 0.731519 0.000000 0.929265
Si Si3 0.392796 0.000000 0.924190
Si Si4 0.976759 0.300193 0.189203
Si Si5 0.976400 0.792914 0.284137
Si Si6 0.242656 0.788194 0.435821
Si Si7 0.942596 0.202744 0.437906
Si Si8 0.545274 0.291157 0.723987
O O1 0.415298 0.500000 0.159171
O O2 0.728170 0.244035 0.237019
O O3 0.441055 0.232341 0.222600
O O4 0.317803 0.180002 0.109402
O O5 0.596695 0.000000 0.940899
O O6 0.000000 0.000000 0.000000
O O7 0.236880 0.175300 0.878268
O O8 0.500000 0.000000 0.000000
O O9 0.930125 0.500000 0.158690
O O10 0.013987 0.317739 0.250305
O O11 0.215421 0.219789 0.233383
O O12 0.141141 0.720027 0.364137
O O13 0.012319 0.000000 0.282795
O O14 0.500000 0.715835 0.500000
O O15 0.098018 0.708073 0.439540
O O16 0.230920 0.000000 0.434755
O O17 0.673219 0.209694 0.357183
O O18 0.000000 0.292622 0.500000
O O19 0.020948 0.000000 0.461206
O O20 0.522128 0.500000 0.712490
#
# Coordination Sequence:
#
# PCOD8065914 Si02
#       8
#     4   2   2   4   4   4   4   4
#     4  11  22  42  69  95 128 165 211 266 313 368
#     4  12  28  46  70 104 129 164 210 248 315 385
#     4  12  28  48  68 102 131 168 207 245 318 386
#     4  11  24  44  67  96 130 167 213 262 311 374
#     4  11  19  37  66  94 122 170 220 265 319 367
#     4   9  19  33  53  86 126 164 214 270 316 373
#     4  10  21  35  56  87 122 166 211 262 324 372
#     4  10  24  40  62  93 123 169 217 260 321 372
#
# _framework density 20.786155999999998
#
# number of rings (size 3 to 8) (size 9 to 14) (size 15 to 20)
#    0.000    1.429    4.286    0.429    6.000    0.857 
#    0.000    0.000    0.000    2.143    0.000    0.000 
#    0.000    0.000    0.000    0.000    0.000    0.000 
#
# Total GULP energy -347081.327304 kJ/mol
# GULP energy per Si atom -12395.761689 kJ/mol
# Density = 2.073885 g / cm^3
# Si number density = 20.786156 Si / 1000 Ang^3
#
#
#
# Elastic Constant Matrix: (Units=GPa)
#
#
# Indices 1 2 3 4 5 6 
#
# 1 190.6073 24.6236 94.2462 0.0000 2.3762 0.0000
# 2 24.6236 71.7664 41.8840 0.0000 -2.0634 0.0000
# 3 94.2462 41.8840 178.5503 0.0000 0.3604 0.0000
# 4 0.0000 0.0000 0.0000 30.1277 0.0000 -4.1410
# 5 2.3762 -2.0634 0.3604 0.0000 48.3200 0.0000
# 6 0.0000 0.0000 0.0000 -4.1410 0.0000 17.4179
#
#
#
# Elastic Compliance Matrix: (Units=1/GPa)
#
#
# Indices 1 2 3 4 5 6 
#
# 1 0.007110 -0.000300 -0.003682 0.000000 -0.000335 0.000000
# 2 -0.000300 0.016182 -0.003639 0.000000 0.000733 0.000000
# 3 -0.003682 -0.003639 0.008398 0.000000 -0.000037 0.000000
# 4 0.000000 0.000000 0.000000 0.034313 0.000000 0.008158
# 5 -0.000335 0.000733 -0.000037 0.000000 0.020743 0.000000
# 6 0.000000 0.000000 0.000000 0.008158 0.000000 0.059352
#
#
# Mechanical properties :
#
#
# Convention : Reuss Voigt Hill
#
# Bulk Modulus (GPa) = 60.79933 84.71464 72.75698
# Shear Modulus (GPa) = 29.97199 37.85111 33.91155
#
# Velocity S-wave (km/s) = 3.80138 4.27192 4.04350
# Velocity P-wave (km/s) = 6.96999 8.07318 7.54178
#
# Compressibility (1/GPa) = 0.01644755
#
# Stress axis : x y z
#
# Youngs Moduli (GPa) = 140.65099 61.79733 119.08033
#
# Poissons Ratio (x) = 0.01856 0.43842
# Poissons Ratio (y) = 0.04225 0.43332
# Poissons Ratio (z) = 0.51784 0.22487
#
# Static dielectric constant tensor:
#      x y z
#    x 4.078420 0.000000 -0.073850 
#    y 0.000000 2.580510 0.000000 
#    z -0.073850 0.000000 3.718860 
# 
# 
# High freq. dielectric constant tensor:
#      x y z
#    x 1.831430 0.000000 -0.003290 
#    y 0.000000 1.807600 0.000000 
#    z -0.003290 0.000000 1.808110 
# 
# From -- ./inp_files/92143.got.cif
#   From: 2010.06.25/outbox.cif.g09.slc.cpg/sg10_47_cif.got.tgz:92143.got - 2010.06.27 22:07:45.
