data_PCOD8065506
_publ_section_title
;
Structure prediction by ZEFSAII (Michael W. Deem and Ramdas Pophale) SiO2 
 PCOD8065506
Probable space group: P 2/M
;
_chemical_formula_sum "Si O2"
_cell_formula_units_Z 18
_cell_length_a 25.076524
_cell_length_b 8.699737
_cell_length_c 5.178770
_cell_angle_alpha 90.000000
_cell_angle_beta 58.514544
_cell_angle_gamma 90.000000
_cell_volume 963.459375
_symmetry_space_group_name_H-M "P 2/M"
_symmetry_group_IT_number 10
_symmetry_cell_setting 'monoclinic'
loop_
_space_group_symop_operation_xyz
x,y,z
-x,y,-z
-x,-y,-z
x,-y,z
loop_
_atom_site_type_symbol
_atom_site_label
_atom_site_fract_x
_atom_site_fract_y
_atom_site_fract_z
Si Si1 0.957619 0.500000 0.857061
Si Si2 0.837786 0.669874 0.129005
Si Si3 0.642252 0.182913 0.142466
Si Si4 0.215721 0.180861 0.235852
Si Si5 0.570643 0.183450 0.824097
O O1 0.000000 0.500000 0.500000
O O2 0.913083 0.651741 0.968586
O O3 0.000000 0.500000 0.000000
O O4 0.806447 0.500000 0.231656
O O5 0.810967 0.781315 0.414919
O O6 0.825043 0.737623 0.879179
O O7 0.607293 0.247170 0.482890
O O8 0.640929 0.000000 0.141392
O O9 0.713324 0.241800 0.962024
O O10 0.606075 0.248227 0.985211
O O11 0.212388 0.000000 0.200235
O O12 0.570282 0.000000 0.824801
O O13 0.500000 0.246936 0.000000
#
# Coordination Sequence:
#
# PCOD8065506 Si02
#       5
#     2   4   4   4   4
#     4  10  20  38  64  84 106 144 185 220 259 312
#     4  10  22  36  59  85 108 144 185 226 254 327
#     4   9  17  26  41  65  97 137 170 209 271 327
#     4  11  20  35  55  82 118 147 176 221 283 332
#     4   9  15  24  37  58  92 134 177 216 258 314
#
# _framework density 18.682677000000002
#
# number of rings (size 3 to 8) (size 9 to 14) (size 15 to 20)
#    0.667    1.556    0.000    4.667    0.000    6.222 
#    0.000    0.000    0.000   13.333    0.000    0.000 
#    0.000   62.222    0.000    0.000    0.000    0.000 
#
# Total GULP energy -223161.779894 kJ/mol
# GULP energy per Si atom -12397.876661 kJ/mol
# Density = 1.864015 g / cm^3
# Si number density = 18.682677 Si / 1000 Ang^3
#
#
#
# Elastic Constant Matrix: (Units=GPa)
#
#
# Indices 1 2 3 4 5 6 
#
# 1 140.4686 28.6769 55.3520 0.0000 3.7022 0.0000
# 2 28.6769 36.4523 9.6019 0.0000 -1.5962 0.0000
# 3 55.3520 9.6019 140.5259 0.0000 -0.6553 0.0000
# 4 0.0000 0.0000 0.0000 16.6151 0.0000 15.5408
# 5 3.7022 -1.5962 -0.6553 0.0000 44.9866 0.0000
# 6 0.0000 0.0000 0.0000 15.5408 0.0000 -1.6464
#
#
#
# Elastic Compliance Matrix: (Units=1/GPa)
#
#
# Indices 1 2 3 4 5 6 
#
# 1 0.009922 -0.006949 -0.003439 0.000000 -0.001113 0.000000
# 2 -0.006949 0.032844 0.000501 0.000000 0.001744 0.000000
# 3 -0.003439 0.000501 0.008438 0.000000 0.000424 0.000000
# 4 0.000000 0.000000 0.000000 0.006123 0.000000 0.057800
# 5 -0.001113 0.001744 0.000424 0.000000 0.022389 0.000000
# 6 0.000000 0.000000 0.000000 0.057800 0.000000 -0.061796
#
#
# Mechanical properties :
#
#
# Convention : Reuss Voigt Hill
#
# Bulk Modulus (GPa) = 31.81487 56.07869 43.94678
# Shear Modulus (GPa) = 103.79937 26.91213 65.35575
#
# Velocity S-wave (km/s) = 7.46189 3.79949 5.92098
# Velocity P-wave (km/s) = 9.55540 7.02351 8.38557
#
# Compressibility (1/GPa) = 0.03143185
#
# Stress axis : x y z
#
# Youngs Moduli (GPa) = 100.78729 30.44700 118.50738
#
# Poissons Ratio (x) = 0.21156 0.40749
# Poissons Ratio (y) = 0.70032 -0.05936
# Poissons Ratio (z) = 0.34656 -0.01525
#
# Static dielectric constant tensor:
#      x y z
#    x 3.553980 0.000000 -0.019980 
#    y 0.000000 2.927200 0.000000 
#    z -0.019980 0.000000 3.473630 
# 
# 
# High freq. dielectric constant tensor:
#      x y z
#    x 1.737910 0.000000 0.007680 
#    y 0.000000 1.673090 0.000000 
#    z 0.007680 0.000000 1.740240 
# 
# From -- ./inp_files/12960.got.cif
#   From: 2010.06.25/outbox.cif.g09.slc.cpg/sg10_7_cif.got.tgz:12960.got - 2010.06.27 22:07:45.
