data_PCOD8065453
_publ_section_title
;
Structure prediction by ZEFSAII (Michael W. Deem and Ramdas Pophale) SiO2 
 PCOD8065453
Probable space group: P 2/M
;
_chemical_formula_sum "Si O2"
_cell_formula_units_Z 28
_cell_length_a 22.090509
_cell_length_b 9.085672
_cell_length_c 24.487877
_cell_angle_alpha 90.000000
_cell_angle_beta 17.504778
_cell_angle_gamma 90.000000
_cell_volume 1478.327188
_symmetry_space_group_name_H-M "P 2/M"
_symmetry_group_IT_number 10
_symmetry_cell_setting 'monoclinic'
loop_
_space_group_symop_operation_xyz
x,y,z
-x,y,-z
-x,-y,-z
x,-y,z
loop_
_atom_site_type_symbol
_atom_site_label
_atom_site_fract_x
_atom_site_fract_y
_atom_site_fract_z
Si Si1 0.560477 0.170054 0.008415
Si Si2 0.212125 0.834637 0.787761
Si Si3 0.853830 0.829946 0.577277
Si Si4 0.029129 0.324910 0.323600
Si Si5 0.387061 0.326885 0.734139
Si Si6 0.978213 0.326943 0.143171
Si Si7 0.822520 0.673947 0.392209
O O1 0.743764 0.267653 0.871366
O O2 0.627357 0.000000 0.949259
O O3 0.500000 0.222242 0.000000
O O4 0.376191 0.196006 0.207950
O O5 0.372309 0.751781 0.688140
O O6 0.189786 0.751977 0.749403
O O7 0.288254 0.000000 0.711633
O O8 0.000000 0.832397 0.000000
O O9 0.000000 0.777758 0.500000
O O10 0.898404 0.732342 0.486459
O O11 0.897542 0.000000 0.525839
O O12 0.032289 0.500000 0.322516
O O13 0.925109 0.261521 0.358248
O O14 0.389295 0.500000 0.720634
O O15 0.591348 0.272493 0.587382
O O16 0.203627 0.282154 0.931639
O O17 0.942077 0.500000 0.167850
O O18 0.947205 0.273115 0.231903
O O19 0.828068 0.500000 0.390833
#
# Coordination Sequence:
#
# PCOD8065453 Si02
#       7
#     4   4   4   4   4   4   4
#     4  10  20  38  62  83 108 147 188 224 267 327
#     4   9  17  30  49  76 107 133 164 219 279 314
#     4  10  20  38  62  83 108 147 188 224 267 327
#     4  11  23  37  56  86 121 146 178 232 288 335
#     4   9  17  32  54  74  97 136 182 217 253 312
#     4   9  17  32  54  74  97 136 182 217 253 312
#     4   9  20  36  52  75 106 142 178 216 262 318
#
# _framework density 18.940327
#
# number of rings (size 3 to 8) (size 9 to 14) (size 15 to 20)
#    0.000    2.429    1.429    0.857    0.000    4.571 
#    0.000    9.286    0.000    3.429    0.000    0.000 
#    0.000    0.000    0.000    0.000    0.000    0.000 
#
# Total GULP energy -347224.193850 kJ/mol
# GULP energy per Si atom -12400.864066 kJ/mol
# Density = 1.889722 g / cm^3
# Si number density = 18.940327 Si / 1000 Ang^3
#
#
#
# Elastic Constant Matrix: (Units=GPa)
#
#
# Indices 1 2 3 4 5 6 
#
# 1 184.0104 57.4724 78.4181 0.0000 -10.9178 0.0000
# 2 57.4724 63.2424 37.7160 0.0000 -4.1822 0.0000
# 3 78.4181 37.7160 115.5093 0.0000 -4.4432 0.0000
# 4 0.0000 0.0000 0.0000 21.4063 0.0000 3.3862
# 5 -10.9178 -4.1822 -4.4432 0.0000 29.0421 0.0000
# 6 0.0000 0.0000 0.0000 3.3862 0.0000 4.8940
#
#
#
# Elastic Compliance Matrix: (Units=1/GPa)
#
#
# Indices 1 2 3 4 5 6 
#
# 1 0.009133 -0.005609 -0.004293 0.000000 0.001969 0.000000
# 2 -0.005609 0.023181 -0.003736 0.000000 0.000658 0.000000
# 3 -0.004293 -0.003736 0.012784 0.000000 -0.000196 0.000000
# 4 0.000000 0.000000 0.000000 0.052457 0.000000 -0.036295
# 5 0.001969 0.000658 -0.000196 0.000000 0.035238 0.000000
# 6 0.000000 0.000000 0.000000 -0.036295 0.000000 0.229445
#
#
# Mechanical properties :
#
#
# Convention : Reuss Voigt Hill
#
# Bulk Modulus (GPa) = 56.11002 78.88612 67.49807
# Shear Modulus (GPa) = 12.64374 23.67886 18.16130
#
# Velocity S-wave (km/s) = 2.58651 3.53963 3.09992
# Velocity P-wave (km/s) = 6.21362 7.64497 6.96615
#
# Compressibility (1/GPa) = 0.01782213
#
# Stress axis : x y z
#
# Youngs Moduli (GPa) = 109.49756 43.13891 78.22306
#
# Poissons Ratio (x) = 0.24197 0.33580
# Poissons Ratio (y) = 0.61418 0.29222
# Poissons Ratio (z) = 0.47006 0.16116
#
# Static dielectric constant tensor:
#      x y z
#    x 3.673670 0.000000 -0.034770 
#    y 0.000000 3.303200 0.000000 
#    z -0.034770 0.000000 3.508140 
# 
# 
# High freq. dielectric constant tensor:
#      x y z
#    x 1.735890 0.000000 0.001620 
#    y 0.000000 1.715740 0.000000 
#    z 0.001620 0.000000 1.743850 
# 
# From -- ./inp_files/90341.got.cif
#   From: 2010.06.25/outbox.cif.g09.slc.cpg/sg10_46_cif.got.tgz:90341.got - 2010.06.27 22:07:45.
