data_PCOD8065387
_publ_section_title
;
Structure prediction by ZEFSAII (Michael W. Deem and Ramdas Pophale) SiO2 
 PCOD8065387
Probable space group: P 2/M
;
_chemical_formula_sum "Si O2"
_cell_formula_units_Z 22
_cell_length_a 23.632767
_cell_length_b 10.955417
_cell_length_c 25.775688
_cell_angle_alpha 90.000000
_cell_angle_beta 10.819891
_cell_angle_gamma 90.000000
_cell_volume 1252.765138
_symmetry_space_group_name_H-M "P 2/M"
_symmetry_group_IT_number 10
_symmetry_cell_setting 'monoclinic'
loop_
_space_group_symop_operation_xyz
x,y,z
-x,y,-z
-x,-y,-z
x,-y,z
loop_
_atom_site_type_symbol
_atom_site_label
_atom_site_fract_x
_atom_site_fract_y
_atom_site_fract_z
Si Si1 0.925337 0.257145 0.506952
Si Si2 0.271533 0.359008 0.102596
Si Si3 0.168671 0.354247 0.001853
Si Si4 0.157539 0.355096 0.602545
Si Si5 0.161126 0.645610 0.803579
Si Si6 0.141151 0.000000 0.317348
O O1 0.000000 0.277482 0.500000
O O2 0.130860 0.346720 0.286976
O O3 0.016111 0.122876 0.403004
O O4 0.569776 0.280326 0.822266
O O5 0.358100 0.500000 0.015822
O O6 0.023445 0.311547 0.285156
O O7 0.168868 0.500000 0.000792
O O8 0.505971 0.301934 0.702148
O O9 0.994442 0.303093 0.208648
O O10 0.009245 0.303305 0.093641
O O11 0.165771 0.500000 0.596823
O O12 0.500000 0.695620 0.500000
O O13 0.157905 0.500000 0.805560
O O14 0.000000 0.695786 0.000000
O O15 0.000000 0.000000 0.500000
O O16 0.500000 0.000000 0.000000
#
# Coordination Sequence:
#
# PCOD8065387 Si02
#       6
#     4   4   4   4   4   2
#     4  11  22  36  54  73  94 122 153 192 238 283
#     4  11  22  34  49  72 100 125 153 193 237 283
#     4   9  15  24  37  50  70 105 144 181 221 260
#     4   9  17  28  40  55  78 111 147 179 214 262
#     4   9  15  21  30  47  69  93 130 184 232 257
#     4  10  20  38  58  74  92 118 156 192 226 276
#
# _framework density 17.561152
#
# number of rings (size 3 to 8) (size 9 to 14) (size 15 to 20)
#    0.000    2.182    0.000    5.455    0.000    9.455 
#    0.000    0.000    0.000    0.000    0.000    0.000 
#    0.000    0.000    0.000    0.000    0.000    0.000 
#
# Total GULP energy -272727.450179 kJ/mol
# GULP energy per Si atom -12396.702281 kJ/mol
# Density = 1.752118 g / cm^3
# Si number density = 17.561152 Si / 1000 Ang^3
#
#
#
# Elastic Constant Matrix: (Units=GPa)
#
#
# Indices 1 2 3 4 5 6 
#
# 1 110.0013 22.6964 56.5178 0.0000 -0.9636 0.0000
# 2 22.6964 31.5544 27.7892 0.0000 -8.1731 0.0000
# 3 56.5178 27.7892 173.1832 0.0000 -2.6778 0.0000
# 4 0.0000 0.0000 0.0000 17.3982 0.0000 3.8042
# 5 -0.9636 -8.1731 -2.6778 0.0000 39.7795 0.0000
# 6 0.0000 0.0000 0.0000 3.8042 0.0000 1.5503
#
#
#
# Elastic Compliance Matrix: (Units=1/GPa)
#
#
# Indices 1 2 3 4 5 6 
#
# 1 0.011860 -0.006309 -0.002877 0.000000 -0.001203 0.000000
# 2 -0.006309 0.042439 -0.004623 0.000000 0.008255 0.000000
# 3 -0.002877 -0.004623 0.007447 0.000000 -0.000518 0.000000
# 4 0.000000 0.000000 0.000000 0.124015 0.000000 -0.304305
# 5 -0.001203 0.008255 -0.000518 0.000000 0.026771 0.000000
# 6 0.000000 0.000000 0.000000 -0.304305 0.000000 1.391725
#
#
# Mechanical properties :
#
#
# Convention : Reuss Voigt Hill
#
# Bulk Modulus (GPa) = 29.30119 58.74953 44.02536
# Shear Modulus (GPa) = 3.04275 25.59465 14.31870
#
# Velocity S-wave (km/s) = 1.31773 3.82181 2.85855
# Velocity P-wave (km/s) = 4.36311 7.28024 6.00161
#
# Compressibility (1/GPa) = 0.03412830
#
# Stress axis : x y z
#
# Youngs Moduli (GPa) = 84.31724 23.56330 134.28379
#
# Poissons Ratio (x) = 0.14865 0.38630
# Poissons Ratio (y) = 0.53192 0.62084
# Poissons Ratio (z) = 0.24256 0.10894
#
# Static dielectric constant tensor:
#      x y z
#    x 3.415190 0.000000 0.013660 
#    y 0.000000 4.287420 0.000000 
#    z 0.013660 0.000000 3.512230 
# 
# 
# High freq. dielectric constant tensor:
#      x y z
#    x 1.687820 0.000000 0.006250 
#    y 0.000000 1.595810 0.000000 
#    z 0.006250 0.000000 1.704340 
# 
# From -- ./inp_files/87417.got.cif
#   From: 2010.06.25/outbox.cif.g09.slc.cpg/sg10_44_cif.got.tgz:87417.got - 2010.06.27 22:07:45.
