data_PCOD8065719
_publ_section_title
;
Structure prediction by ZEFSAII (Michael W. Deem and Ramdas Pophale) SiO2 
 PCOD8065719
Probable space group: P 2/M
;
_chemical_formula_sum "Si O2"
_cell_formula_units_Z 24
_cell_length_a 7.952770
_cell_length_b 8.919426
_cell_length_c 29.070354
_cell_angle_alpha 90.000000
_cell_angle_beta 144.451824
_cell_angle_gamma 90.000000
_cell_volume 1198.867474
_symmetry_space_group_name_H-M "P 2/M"
_symmetry_group_IT_number 10
_symmetry_cell_setting 'monoclinic'
loop_
_space_group_symop_operation_xyz
x,y,z
-x,y,-z
-x,-y,-z
x,-y,z
loop_
_atom_site_type_symbol
_atom_site_label
_atom_site_fract_x
_atom_site_fract_y
_atom_site_fract_z
Si Si1 0.655825 0.173649 0.335024
Si Si2 0.192052 0.326898 0.408572
Si Si3 0.855661 0.828847 0.844246
Si Si4 0.231341 0.321361 0.312057
Si Si5 0.251140 0.675313 0.863429
Si Si6 0.125265 0.337119 0.979787
O O1 0.464940 0.196162 0.246514
O O2 0.507013 0.251319 0.346362
O O3 0.964898 0.241853 0.390584
O O4 0.695057 0.000000 0.356308
O O5 0.500000 0.301968 0.500000
O O6 0.099587 0.500000 0.387037
O O7 0.213601 0.265416 0.360913
O O8 0.073425 0.715446 0.868690
O O9 0.952303 0.000000 0.858793
O O10 0.892527 0.776107 0.904860
O O11 0.268982 0.500000 0.317535
O O12 0.931876 0.265134 0.221484
O O13 0.292104 0.500000 0.866308
O O14 0.566779 0.746276 0.942510
O O15 0.159170 0.500000 0.961349
O O16 0.000000 0.378854 0.000000
#
# Coordination Sequence:
#
# PCOD8065719 Si02
#       6
#     4   4   4   4   4   4
#     4  10  22  39  59  85 117 154 193 233 283 344
#     4  10  22  39  62  91 118 147 187 237 290 343
#     4  10  21  36  53  76 106 144 185 225 274 327
#     4   9  19  37  61  85 113 151 192 236 285 338
#     4   9  18  34  54  77 103 140 186 227 272 324
#     4  10  21  33  50  78 109 141 182 230 273 321
#
# _framework density 20.018892000000001
#
# number of rings (size 3 to 8) (size 9 to 14) (size 15 to 20)
#    0.000    2.333    0.000    1.500    2.333    6.667 
#    0.000    3.333    0.000    0.000    0.000    0.000 
#    0.000    0.000    0.000    0.000    0.000    0.000 
#
# Total GULP energy -297379.539174 kJ/mol
# GULP energy per Si atom -12390.814132 kJ/mol
# Density = 1.997333 g / cm^3
# Si number density = 20.018892 Si / 1000 Ang^3
#
#
#
# Elastic Constant Matrix: (Units=GPa)
#
#
# Indices 1 2 3 4 5 6 
#
# 1 67.5488 22.8391 19.1304 0.0000 3.7884 0.0000
# 2 22.8391 44.9420 29.7627 0.0000 4.0749 0.0000
# 3 19.1304 29.7627 62.2213 0.0000 0.7652 0.0000
# 4 0.0000 0.0000 0.0000 27.6725 0.0000 -1.7863
# 5 3.7884 4.0749 0.7652 0.0000 33.9327 0.0000
# 6 0.0000 0.0000 0.0000 -1.7863 0.0000 20.9903
#
#
#
# Elastic Compliance Matrix: (Units=1/GPa)
#
#
# Indices 1 2 3 4 5 6 
#
# 1 0.018032 -0.007915 -0.001745 0.000000 -0.001023 0.000000
# 2 -0.007915 0.036478 -0.014976 0.000000 -0.003159 0.000000
# 3 -0.001745 -0.014976 0.023754 0.000000 0.001458 0.000000
# 4 0.000000 0.000000 0.000000 0.036337 0.000000 0.003092
# 5 -0.001023 -0.003159 0.001458 0.000000 0.029931 0.000000
# 6 0.000000 0.000000 0.000000 0.003092 0.000000 0.047904
#
#
# Mechanical properties :
#
#
# Convention : Reuss Voigt Hill
#
# Bulk Modulus (GPa) = 34.49420 35.35295 34.92357
# Shear Modulus (GPa) = 19.89084 23.38442 21.63763
#
# Velocity S-wave (km/s) = 3.15557 3.42148 3.29121
# Velocity P-wave (km/s) = 5.52676 5.77121 5.65030
#
# Compressibility (1/GPa) = 0.02899038
#
# Stress axis : x y z
#
# Youngs Moduli (GPa) = 55.45706 27.41412 42.09814
#
# Poissons Ratio (x) = 0.21698 0.07348
# Poissons Ratio (y) = 0.43894 0.63047
# Poissons Ratio (z) = 0.09680 0.41056
#
# Static dielectric constant tensor:
#      x y z
#    x 3.529810 0.000000 -0.005540 
#    y 0.000000 3.463480 0.000000 
#    z -0.005540 0.000000 4.011660 
# 
# 
# High freq. dielectric constant tensor:
#      x y z
#    x 1.774600 0.000000 -0.001820 
#    y 0.000000 1.765430 0.000000 
#    z -0.001820 0.000000 1.788470 
# 
# From -- ./inp_files/27333.got.cif
#   From: 2010.06.25/outbox.cif.g09.slc.cpg/sg10_14_cif.got.tgz:27333.got - 2010.06.27 22:07:45.
