data_PCOD8065055
_publ_section_title
;
Structure prediction by ZEFSAII (Michael W. Deem and Ramdas Pophale) SiO2 
 PCOD8065055
Probable space group: P 2/M
;
_chemical_formula_sum "Si O2"
_cell_formula_units_Z 24
_cell_length_a 15.698002
_cell_length_b 8.798021
_cell_length_c 9.965490
_cell_angle_alpha 90.000000
_cell_angle_beta 72.380606
_cell_angle_gamma 90.000000
_cell_volume 1311.780449
_symmetry_space_group_name_H-M "P 2/M"
_symmetry_group_IT_number 10
_symmetry_cell_setting 'monoclinic'
loop_
_space_group_symop_operation_xyz
x,y,z
-x,y,-z
-x,-y,-z
x,-y,z
loop_
_atom_site_type_symbol
_atom_site_label
_atom_site_fract_x
_atom_site_fract_y
_atom_site_fract_z
Si Si1 0.739433 0.822642 0.027780
Si Si2 0.926378 0.320857 0.931457
Si Si3 0.597301 0.678902 0.588886
Si Si4 0.590763 0.819593 0.310038
Si Si5 0.271216 0.825864 0.272741
Si Si6 0.066502 0.823852 0.354328
O O1 0.661709 0.769327 0.164389
O O2 0.759840 0.000000 0.030754
O O3 0.830040 0.738242 0.024234
O O4 0.709440 0.783167 0.890964
O O5 0.923291 0.500000 0.932988
O O6 0.953672 0.266098 0.771180
O O7 0.000000 0.258481 0.000000
O O8 0.589505 0.500000 0.568976
O O9 0.624919 0.759345 0.436902
O O10 0.502887 0.743480 0.685241
O O11 0.671901 0.713145 0.663425
O O12 0.578533 0.000000 0.321994
O O13 0.167498 0.798075 0.356009
O O14 0.298602 0.000000 0.289177
O O15 0.000000 0.761860 0.500000
O O16 0.048917 0.000000 0.331985
#
# Coordination Sequence:
#
# PCOD8065055 Si02
#       6
#     4   4   4   4   4   4
#     4   9  20  37  58  80 101 133 178 221 259 304
#     4  10  21  35  52  78 111 142 171 209 261 316
#     4  11  22  35  52  78 109 140 173 209 256 314
#     4  10  20  37  58  78 102 135 175 219 263 303
#     4   9  18  35  55  77 105 135 172 217 261 305
#     4   9  19  36  57  79 103 136 180 223 258 300
#
# _framework density 18.295743999999999
#
# number of rings (size 3 to 8) (size 9 to 14) (size 15 to 20)
#    0.000    2.333    0.000    4.500    0.000    7.667 
#    0.000    8.333    0.000    0.000    0.000    0.000 
#    0.000    0.000    0.000    0.000    0.000    0.000 
#
# Total GULP energy -297666.454148 kJ/mol
# GULP energy per Si atom -12402.768923 kJ/mol
# Density = 1.825410 g / cm^3
# Si number density = 18.295744 Si / 1000 Ang^3
#
#
#
# Elastic Constant Matrix: (Units=GPa)
#
#
# Indices 1 2 3 4 5 6 
#
# 1 114.3764 40.1301 81.9585 0.0000 2.7293 0.0000
# 2 40.1301 59.6417 29.2350 0.0000 -0.5991 0.0000
# 3 81.9585 29.2350 122.7023 0.0000 -24.6334 0.0000
# 4 0.0000 0.0000 0.0000 15.9585 0.0000 8.4099
# 5 2.7293 -0.5991 -24.6334 0.0000 36.9239 0.0000
# 6 0.0000 0.0000 0.0000 8.4099 0.0000 25.9626
#
#
#
# Elastic Compliance Matrix: (Units=1/GPa)
#
#
# Indices 1 2 3 4 5 6 
#
# 1 0.023667 -0.007968 -0.016496 0.000000 -0.012884 0.000000
# 2 -0.007968 0.021984 0.000316 0.000000 0.001156 0.000000
# 3 -0.016496 0.000316 0.022330 0.000000 0.016121 0.000000
# 4 0.000000 0.000000 0.000000 0.075561 0.000000 -0.024476
# 5 -0.012884 0.001156 0.016121 0.000000 0.038809 0.000000
# 6 0.000000 0.000000 0.000000 -0.024476 0.000000 0.046445
#
#
# Mechanical properties :
#
#
# Convention : Reuss Voigt Hill
#
# Bulk Modulus (GPa) = 50.79945 66.59641 58.69793
# Shear Modulus (GPa) = 17.62717 25.46213 21.54465
#
# Velocity S-wave (km/s) = 3.10733 3.73459 3.43531
# Velocity P-wave (km/s) = 6.37965 7.42127 6.92009
#
# Compressibility (1/GPa) = 0.01968525
#
# Stress axis : x y z
#
# Youngs Moduli (GPa) = 42.25346 45.48665 44.78359
#
# Poissons Ratio (x) = 0.36242 0.73876
# Poissons Ratio (y) = 0.33666 -0.01415
# Poissons Ratio (z) = 0.69702 -0.01438
#
# Static dielectric constant tensor:
#      x y z
#    x 3.382850 0.000000 -0.113340 
#    y 0.000000 3.303970 0.000000 
#    z -0.113340 0.000000 3.523100 
# 
# 
# High freq. dielectric constant tensor:
#      x y z
#    x 1.711210 0.000000 -0.002430 
#    y 0.000000 1.709610 0.000000 
#    z -0.002430 0.000000 1.712710 
# 
# From -- ./inp_files/27096.got.cif
#   From: 2010.06.25/outbox.cif.g09.slc.cpg/sg10_14_cif.got.tgz:27096.got - 2010.06.27 22:07:45.
