data_PCOD8065352
_publ_section_title
;
Structure prediction by ZEFSAII (Michael W. Deem and Ramdas Pophale) SiO2 
 PCOD8065352
Probable space group: P 2/M
;
_chemical_formula_sum "Si O2"
_cell_formula_units_Z 28
_cell_length_a 17.760337
_cell_length_b 7.451081
_cell_length_c 21.618941
_cell_angle_alpha 90.000000
_cell_angle_beta 151.811800
_cell_angle_gamma 90.000000
_cell_volume 1351.408116
_symmetry_space_group_name_H-M "P 2/M"
_symmetry_group_IT_number 10
_symmetry_cell_setting 'monoclinic'
loop_
_space_group_symop_operation_xyz
x,y,z
-x,y,-z
-x,-y,-z
x,-y,z
loop_
_atom_site_type_symbol
_atom_site_label
_atom_site_fract_x
_atom_site_fract_y
_atom_site_fract_z
Si Si1 0.540094 0.000000 0.100512
Si Si2 0.086777 0.000000 0.627885
Si Si3 0.733907 0.713085 0.556684
Si Si4 0.618856 0.713904 0.721006
Si Si5 0.977869 0.708978 0.319866
Si Si6 0.172847 0.713959 0.241641
Si Si7 0.312519 0.291642 0.982257
Si Si8 0.816367 0.712978 0.979423
O O1 0.725890 0.000000 0.248540
O O2 0.500000 0.000000 0.000000
O O3 0.468782 0.820284 0.078980
O O4 0.035758 0.821397 0.627493
O O5 0.000000 0.000000 0.500000
O O6 0.736708 0.500000 0.561985
O O7 0.562180 0.785523 0.410374
O O8 0.769830 0.790490 0.650853
O O9 0.867623 0.778739 0.605526
O O10 0.621973 0.500000 0.723252
O O11 0.709935 0.787706 0.726490
O O12 0.705002 0.790736 0.844437
O O13 0.993289 0.500000 0.348572
O O14 0.823201 0.745080 0.166390
O O15 0.174236 0.500000 0.243614
O O16 0.995188 0.786060 0.099353
O O17 0.361036 0.500000 0.019345
O O18 0.249564 0.222085 0.002553
O O19 0.818757 0.500000 0.979188
#
# Coordination Sequence:
#
# PCOD8065352 Si02
#       8
#     2   2   4   4   4   4   4   4
#     4  12  24  42  66  94 117 147 193 237 291 362
#     4  12  28  46  64  94 125 147 185 239 297 364
#     4   9  16  27  46  73 107 149 196 235 277 341
#     4   9  16  23  38  71 113 149 190 244 289 327
#     4  10  20  39  65  89 119 159 196 237 290 350
#     4   9  14  23  40  67 106 151 194 239 286 328
#     4  10  20  37  64  92 119 154 199 245 286 341
#     4   9  16  27  44  72 108 148 193 237 284 337
#
# _framework density 20.719131000000001
#
# number of rings (size 3 to 8) (size 9 to 14) (size 15 to 20)
#    0.000    2.286    2.857    0.857    0.000    5.714 
#    0.000    1.429    0.000    0.000    0.000    6.000 
#    0.000    0.000    0.000    0.000    0.000    0.000 
#
# Total GULP energy -347205.599820 kJ/mol
# GULP energy per Si atom -12400.199994 kJ/mol
# Density = 2.067197 g / cm^3
# Si number density = 20.719131 Si / 1000 Ang^3
#
#
#
# Elastic Constant Matrix: (Units=GPa)
#
#
# Indices 1 2 3 4 5 6 
#
# 1 162.0984 45.8865 85.6745 0.0000 1.7962 0.0000
# 2 45.8865 62.5255 28.9628 0.0000 4.0174 0.0000
# 3 85.6745 28.9628 169.7935 0.0000 -1.6931 0.0000
# 4 0.0000 0.0000 0.0000 6.0088 0.0000 -4.5215
# 5 1.7962 4.0174 -1.6931 0.0000 43.8924 0.0000
# 6 0.0000 0.0000 0.0000 -4.5215 0.0000 -39.9073
#
#
#
# Elastic Compliance Matrix: (Units=1/GPa)
#
#
# Indices 1 2 3 4 5 6 
#
# 1 0.009815 -0.005325 -0.004045 0.000000 -0.000070 0.000000
# 2 -0.005325 0.020383 -0.000807 0.000000 -0.001679 0.000000
# 3 -0.004045 -0.000807 0.008074 0.000000 0.000551 0.000000
# 4 0.000000 0.000000 0.000000 0.153350 0.000000 -0.017374
# 5 -0.000070 -0.001679 0.000551 0.000000 0.022961 0.000000
# 6 0.000000 0.000000 0.000000 -0.017374 0.000000 -0.023090
#
#
# Mechanical properties :
#
#
# Convention : Reuss Voigt Hill
#
# Bulk Modulus (GPa) = 55.80840 79.49611 67.65225
# Shear Modulus (GPa) = 22.95488 17.59167 20.27327
#
# Velocity S-wave (km/s) = 3.33214 2.91702 3.13146
# Velocity P-wave (km/s) = 6.46516 7.05670 6.76740
#
# Compressibility (1/GPa) = 0.01791845
#
# Stress axis : x y z
#
# Youngs Moduli (GPa) = 101.88355 49.06061 123.86071
#
# Poissons Ratio (x) = 0.26125 0.50100
# Poissons Ratio (y) = 0.54253 0.09992
# Poissons Ratio (z) = 0.41211 0.03958
#
# Static dielectric constant tensor:
#      x y z
#    x 3.790110 0.000000 -0.045500 
#    y 0.000000 3.335370 0.000000 
#    z -0.045500 0.000000 3.800570 
# 
# 
# High freq. dielectric constant tensor:
#      x y z
#    x 1.813970 0.000000 0.005200 
#    y 0.000000 1.788160 0.000000 
#    z 0.005200 0.000000 1.811900 
# 
# From -- ./inp_files/85048.got.cif
#   From: 2010.06.25/outbox.cif.g09.slc.cpg/sg10_43_cif.got.tgz:85048.got - 2010.06.27 22:07:45.
