data_PCOD8065122
_publ_section_title
;
Structure prediction by ZEFSAII (Michael W. Deem and Ramdas Pophale) SiO2 
 PCOD8065122
Probable space group: P 2/M
;
_chemical_formula_sum "Si O2"
_cell_formula_units_Z 24
_cell_length_a 11.613526
_cell_length_b 7.297065
_cell_length_c 22.979445
_cell_angle_alpha 90.000000
_cell_angle_beta 144.636437
_cell_angle_gamma 90.000000
_cell_volume 1127.073827
_symmetry_space_group_name_H-M "P 2/M"
_symmetry_group_IT_number 10
_symmetry_cell_setting 'monoclinic'
loop_
_space_group_symop_operation_xyz
x,y,z
-x,y,-z
-x,-y,-z
x,-y,z
loop_
_atom_site_type_symbol
_atom_site_label
_atom_site_fract_x
_atom_site_fract_y
_atom_site_fract_z
Si Si1 0.022664 0.783288 0.576555
Si Si2 0.588911 0.783171 0.201098
Si Si3 0.852174 0.781999 0.987173
Si Si4 0.669552 0.787826 0.109512
Si Si5 0.227409 0.500000 0.452852
Si Si6 0.038904 0.789222 0.184436
Si Si7 0.698512 0.500000 0.652427
O O1 0.869874 0.678940 0.556600
O O2 0.000000 0.726759 0.500000
O O3 0.250242 0.722969 0.684508
O O4 0.986750 0.000000 0.571606
O O5 0.667316 0.700655 0.172494
O O6 0.576298 0.000000 0.194668
O O7 0.366704 0.703853 0.119173
O O8 0.931675 0.713132 0.082260
O O9 0.847145 0.000000 0.985355
O O10 0.000000 0.702490 0.000000
O O11 0.886551 0.758317 0.173863
O O12 0.613041 0.000000 0.091895
O O13 0.500000 0.692978 0.000000
O O14 0.462613 0.500000 0.559607
O O15 0.207013 0.500000 0.373949
O O16 0.233018 0.677518 0.282694
O O17 0.102685 0.000000 0.202849
#
# Coordination Sequence:
#
# PCOD8065122 Si02
#       7
#     4   4   4   4   2   4   2
#     4  10  22  41  68  96 120 156 211 264 312 367
#     4   9  16  29  52  84 118 151 191 241 292 351
#     4   9  17  30  52  84 122 160 193 232 295 369
#     4   9  14  25  51  81 110 150 192 231 286 348
#     4  11  25  46  63  86 125 161 202 267 322 362
#     4  10  20  37  59  85 120 160 201 249 302 362
#     4  11  26  42  61  89 122 163 213 254 307 381
#
# _framework density 21.294080000000001
#
# number of rings (size 3 to 8) (size 9 to 14) (size 15 to 20)
#    0.000    2.333    1.667    1.250    0.000    4.000 
#    0.000    6.667    0.000    0.000    0.000    0.000 
#    0.000    0.000    0.000    0.000    0.000    0.000 
#
# Total GULP energy -297411.688809 kJ/mol
# GULP energy per Si atom -12392.153700 kJ/mol
# Density = 2.124561 g / cm^3
# Si number density = 21.294080 Si / 1000 Ang^3
#
#
#
# Elastic Constant Matrix: (Units=GPa)
#
#
# Indices 1 2 3 4 5 6 
#
# 1 145.1912 23.9872 83.9141 0.0000 -4.5298 0.0000
# 2 23.9872 78.0965 37.7713 0.0000 2.4233 0.0000
# 3 83.9141 37.7713 192.6310 0.0000 -8.0195 0.0000
# 4 0.0000 0.0000 0.0000 -12.8277 0.0000 22.9394
# 5 -4.5298 2.4233 -8.0195 0.0000 31.2372 0.0000
# 6 0.0000 0.0000 0.0000 22.9394 0.0000 0.2952
#
#
#
# Elastic Compliance Matrix: (Units=1/GPa)
#
#
# Indices 1 2 3 4 5 6 
#
# 1 0.009280 -0.001014 -0.003825 0.000000 0.000442 0.000000
# 2 -0.001014 0.014361 -0.002453 0.000000 -0.001891 0.000000
# 3 -0.003825 -0.002453 0.007403 0.000000 0.001536 0.000000
# 4 0.000000 0.000000 0.000000 -0.000557 0.000000 0.043282
# 5 0.000442 -0.001891 0.001536 0.000000 0.032618 0.000000
# 6 0.000000 0.000000 0.000000 0.043282 0.000000 0.024203
#
#
# Mechanical properties :
#
#
# Convention : Reuss Voigt Hill
#
# Bulk Modulus (GPa) = 60.75649 78.58487 69.67068
# Shear Modulus (GPa) = 46.56443 21.75734 34.16088
#
# Velocity S-wave (km/s) = 4.68132 3.19996 4.00965
# Velocity P-wave (km/s) = 7.60354 7.11601 7.36381
#
# Compressibility (1/GPa) = 0.01645915
#
# Stress axis : x y z
#
# Youngs Moduli (GPa) = 107.76397 69.63231 135.08914
#
# Poissons Ratio (x) = 0.07060 0.51674
# Poissons Ratio (y) = 0.10926 0.33137
# Poissons Ratio (z) = 0.41221 0.17081
#
# Static dielectric constant tensor:
#      x y z
#    x 3.928760 0.000000 -0.097460 
#    y 0.000000 3.535700 0.000000 
#    z -0.097460 0.000000 4.057770 
# 
# 
# High freq. dielectric constant tensor:
#      x y z
#    x 1.830650 0.000000 -0.007120 
#    y 0.000000 1.819500 0.000000 
#    z -0.007120 0.000000 1.843050 
# 
# From -- ./inp_files/88764.got.cif
#   From: 2010.06.25/outbox.cif.g09.slc.cpg/sg10_45_cif.got.tgz:88764.got - 2010.06.27 22:07:45.
