data_PCOD8065860
_publ_section_title
;
Structure prediction by ZEFSAII (Michael W. Deem and Ramdas Pophale) SiO2 
 PCOD8065860
Probable space group: P 2/M
;
_chemical_formula_sum "Si O2"
_cell_formula_units_Z 32
_cell_length_a 15.851162
_cell_length_b 10.327980
_cell_length_c 15.927934
_cell_angle_alpha 90.000000
_cell_angle_beta 140.724842
_cell_angle_gamma 90.000000
_cell_volume 1650.709786
_symmetry_space_group_name_H-M "P 2/M"
_symmetry_group_IT_number 10
_symmetry_cell_setting 'monoclinic'
loop_
_space_group_symop_operation_xyz
x,y,z
-x,y,-z
-x,-y,-z
x,-y,z
loop_
_atom_site_type_symbol
_atom_site_label
_atom_site_fract_x
_atom_site_fract_y
_atom_site_fract_z
Si Si1 0.304646 0.852709 0.552840
Si Si2 0.510306 0.148945 0.158311
Si Si3 0.094542 0.735652 0.501453
Si Si4 0.648951 0.845231 0.594484
Si Si5 0.148887 0.151899 0.110699
Si Si6 0.207578 0.853322 0.968104
Si Si7 0.121845 0.642506 0.783682
Si Si8 0.320517 0.644169 0.792283
O O1 0.426267 0.803557 0.704612
O O2 0.164433 0.839259 0.493942
O O3 0.308265 0.786137 0.463673
O O4 0.331398 0.000000 0.553211
O O5 0.566508 0.245561 0.130332
O O6 0.553480 0.000000 0.171080
O O7 0.353205 0.160970 0.041709
O O8 0.208266 0.651501 0.633591
O O9 0.000000 0.803441 0.500000
O O10 0.005796 0.643009 0.375318
O O11 0.500000 0.795791 0.500000
O O12 0.753842 0.787932 0.743416
O O13 0.653259 0.000000 0.601285
O O14 0.138008 0.000000 0.118532
O O15 0.212664 0.182742 0.069632
O O16 0.000000 0.212805 0.000000
O O17 0.110406 0.753808 0.845362
O O18 0.153162 0.000000 0.913497
O O19 0.128028 0.500000 0.830588
O O20 0.254748 0.667471 0.832023
O O21 0.384235 0.500000 0.836233
#
# Coordination Sequence:
#
# PCOD8065860 Si02
#       8
#     4   4   4   4   4   4   4   4
#     4   9  17  28  48  76 105 134 169 213 260 311
#     4   9  18  33  50  74 108 138 166 208 263 309
#     4   9  18  32  50  73 101 132 169 214 260 306
#     4   9  16  27  46  72 101 134 173 217 262 308
#     4   9  18  31  48  72 103 135 170 213 260 309
#     4  10  21  35  52  74 104 139 171 209 259 313
#     4  10  21  35  52  75 103 136 176 216 254 304
#     4   9  18  34  55  76  99 133 175 216 256 303
#
# _framework density 19.3856
#
# number of rings (size 3 to 8) (size 9 to 14) (size 15 to 20)
#    0.000    2.750    0.000    1.125    1.750    6.750 
#    0.000    5.000    0.000    0.375    0.000    0.000 
#    0.000    6.750    0.000    0.000    0.000    0.000 
#
# Total GULP energy -396574.268374 kJ/mol
# GULP energy per Si atom -12392.945887 kJ/mol
# Density = 1.934148 g / cm^3
# Si number density = 19.385600 Si / 1000 Ang^3
#
#
#
# Elastic Constant Matrix: (Units=GPa)
#
#
# Indices 1 2 3 4 5 6 
#
# 1 77.6759 16.9142 24.0323 0.0000 -2.1266 0.0000
# 2 16.9142 56.0198 20.0914 0.0000 -7.8045 0.0000
# 3 24.0323 20.0914 78.7880 0.0000 -2.3874 0.0000
# 4 0.0000 0.0000 0.0000 11.4729 0.0000 -6.3339
# 5 -2.1266 -7.8045 -2.3874 0.0000 30.7754 0.0000
# 6 0.0000 0.0000 0.0000 -6.3339 0.0000 2.9101
#
#
#
# Elastic Compliance Matrix: (Units=1/GPa)
#
#
# Indices 1 2 3 4 5 6 
#
# 1 0.014693 -0.003123 -0.003687 0.000000 -0.000063 0.000000
# 2 -0.003123 0.020985 -0.004254 0.000000 0.004776 0.000000
# 3 -0.003687 -0.004254 0.014896 0.000000 -0.000178 0.000000
# 4 0.000000 0.000000 0.000000 -0.432352 0.000000 -0.941030
# 5 -0.000063 0.004776 -0.000178 0.000000 0.033687 0.000000
# 6 0.000000 0.000000 0.000000 -0.941030 0.000000 -1.704552
#
#
# Mechanical properties :
#
#
# Convention : Reuss Voigt Hill
#
# Bulk Modulus (GPa) = 35.15403 37.17327 36.16365
# Shear Modulus (GPa) = -2.47398 19.12806 8.32704
#
# Velocity S-wave (km/s) = -1.13091 3.14461 2.07480
# Velocity P-wave (km/s) = 4.05810 5.69228 4.94319
#
# Compressibility (1/GPa) = 0.02844624
#
# Stress axis : x y z
#
# Youngs Moduli (GPa) = 68.05916 47.65382 67.13009
#
# Poissons Ratio (x) = 0.14880 0.24753
# Poissons Ratio (y) = 0.21252 0.28557
# Poissons Ratio (z) = 0.25096 0.20272
#
# Static dielectric constant tensor:
#      x y z
#    x 3.652430 0.000000 -0.063280 
#    y 0.000000 3.111400 0.000000 
#    z -0.063280 0.000000 3.630320 
# 
# 
# High freq. dielectric constant tensor:
#      x y z
#    x 1.753460 0.000000 -0.001820 
#    y 0.000000 1.698440 0.000000 
#    z -0.001820 0.000000 1.764760 
# 
# From -- ./inp_files/67385.got.cif
#   From: 2010.06.25/outbox.cif.g09.slc.cpg/sg10_34_cif.got.tgz:67385.got - 2010.06.27 22:07:45.
