data_PCOD8065841
_publ_section_title
;
Structure prediction by ZEFSAII (Michael W. Deem and Ramdas Pophale) SiO2 
 PCOD8065841
Probable space group: P 2/M
;
_chemical_formula_sum "Si O2"
_cell_formula_units_Z 24
_cell_length_a 17.761767
_cell_length_b 9.622384
_cell_length_c 23.976867
_cell_angle_alpha 90.000000
_cell_angle_beta 19.381689
_cell_angle_gamma 90.000000
_cell_volume 1359.927538
_symmetry_space_group_name_H-M "P 2/M"
_symmetry_group_IT_number 10
_symmetry_cell_setting 'monoclinic'
loop_
_space_group_symop_operation_xyz
x,y,z
-x,y,-z
-x,-y,-z
x,-y,z
loop_
_atom_site_type_symbol
_atom_site_label
_atom_site_fract_x
_atom_site_fract_y
_atom_site_fract_z
Si Si1 0.053572 0.338108 0.026273
Si Si2 0.848309 0.839096 0.381747
Si Si3 0.236075 0.838115 0.684770
Si Si4 0.976426 0.343319 0.451898
Si Si5 0.246961 0.838833 0.183400
Si Si6 0.432017 0.339722 0.339290
O O1 0.008988 0.500000 0.069775
O O2 0.892890 0.250069 0.178677
O O3 0.314592 0.296253 0.855066
O O4 0.000000 0.300905 0.000000
O O5 0.863597 0.799639 0.306220
O O6 0.655203 0.749964 0.547463
O O7 0.096140 0.806702 0.234139
O O8 0.780407 0.000000 0.436998
O O9 0.500000 0.798416 0.500000
O O10 0.201205 0.000000 0.723236
O O11 0.045841 0.500000 0.387588
O O12 0.722414 0.312770 0.607309
O O13 0.000000 0.315633 0.500000
O O14 0.151685 0.238852 0.302957
O O15 0.246684 0.000000 0.198350
O O16 0.500000 0.781863 0.000000
O O17 0.426452 0.500000 0.362535
#
# Coordination Sequence:
#
# PCOD8065841 Si02
#       6
#     4   4   4   4   4   4
#     4  10  21  35  51  73  99 126 158 196 237 282
#     4   9  18  33  51  71  96 126 160 197 237 281
#     4  10  21  35  51  73  99 126 158 196 237 282
#     4   9  18  32  49  70  97 127 159 197 238 280
#     4   9  18  32  49  70  97 127 159 197 238 280
#     4   9  18  33  51  71  96 126 160 197 237 281
#
# _framework density 17.647998999999999
#
# number of rings (size 3 to 8) (size 9 to 14) (size 15 to 20)
#    0.000    2.667    0.000    1.000    0.000    4.000 
#    0.000    0.000    0.000    0.000    0.000    0.000 
#    0.000    0.000    0.000    0.000    0.000    0.000 
#
# Total GULP energy -297604.801606 kJ/mol
# GULP energy per Si atom -12400.200067 kJ/mol
# Density = 1.760783 g / cm^3
# Si number density = 17.647999 Si / 1000 Ang^3
#
#
#
# Elastic Constant Matrix: (Units=GPa)
#
#
# Indices 1 2 3 4 5 6 
#
# 1 96.4335 50.4687 68.0261 0.0000 3.6506 0.0000
# 2 50.4687 63.5169 69.5528 0.0000 5.7533 0.0000
# 3 68.0261 69.5528 154.5566 0.0000 -3.8247 0.0000
# 4 0.0000 0.0000 0.0000 34.4410 0.0000 9.4605
# 5 3.6506 5.7533 -3.8247 0.0000 22.8962 0.0000
# 6 0.0000 0.0000 0.0000 9.4605 0.0000 25.4846
#
#
#
# Elastic Compliance Matrix: (Units=1/GPa)
#
#
# Indices 1 2 3 4 5 6 
#
# 1 0.018440 -0.011217 -0.003084 0.000000 -0.000637 0.000000
# 2 -0.011217 0.040418 -0.013514 0.000000 -0.010625 0.000000
# 3 -0.003084 -0.013514 0.014064 0.000000 0.006237 0.000000
# 4 0.000000 0.000000 0.000000 0.032332 0.000000 -0.012002
# 5 -0.000637 -0.010625 0.006237 0.000000 0.047489 0.000000
# 6 0.000000 0.000000 0.000000 -0.012002 0.000000 0.043695
#
#
# Mechanical properties :
#
#
# Convention : Reuss Voigt Hill
#
# Bulk Modulus (GPa) = 57.83650 76.73359 67.28504
# Shear Modulus (GPa) = 19.39251 24.99499 22.19375
#
# Velocity S-wave (km/s) = 3.31849 3.76747 3.55008
# Velocity P-wave (km/s) = 6.89395 7.90566 7.41708
#
# Compressibility (1/GPa) = 0.01729012
#
# Stress axis : x y z
#
# Youngs Moduli (GPa) = 54.23005 24.74153 71.10579
#
# Poissons Ratio (x) = 0.27753 0.21929
# Poissons Ratio (y) = 0.60831 0.96096
# Poissons Ratio (z) = 0.16724 0.33437
#
# Static dielectric constant tensor:
#      x y z
#    x 3.401320 0.000000 -0.170170 
#    y 0.000000 3.287970 0.000000 
#    z -0.170170 0.000000 3.370610 
# 
# 
# High freq. dielectric constant tensor:
#      x y z
#    x 1.691630 0.000000 -0.013590 
#    y 0.000000 1.681480 0.000000 
#    z -0.013590 0.000000 1.678470 
# 
# From -- ./inp_files/27214.got.cif
#   From: 2010.06.25/outbox.cif.g09.slc.cpg/sg10_14_cif.got.tgz:27214.got - 2010.06.27 22:07:45.
