data_PCOD8065898
_publ_section_title
;
Structure prediction by ZEFSAII (Michael W. Deem and Ramdas Pophale) SiO2 
 PCOD8065898
Probable space group: P 2/M
;
_chemical_formula_sum "Si O2"
_cell_formula_units_Z 24
_cell_length_a 10.964379
_cell_length_b 9.296965
_cell_length_c 16.813427
_cell_angle_alpha 90.000000
_cell_angle_beta 131.363138
_cell_angle_gamma 90.000000
_cell_volume 1286.332448
_symmetry_space_group_name_H-M "P 2/M"
_symmetry_group_IT_number 10
_symmetry_cell_setting 'monoclinic'
loop_
_space_group_symop_operation_xyz
x,y,z
-x,y,-z
-x,-y,-z
x,-y,z
loop_
_atom_site_type_symbol
_atom_site_label
_atom_site_fract_x
_atom_site_fract_y
_atom_site_fract_z
Si Si1 0.476557 0.828882 0.753989
Si Si2 0.816827 0.332962 0.437982
Si Si3 0.186462 0.667666 0.381101
Si Si4 0.615516 0.829105 0.979920
Si Si5 0.305315 0.837886 0.296887
Si Si6 0.958507 0.162485 0.186003
O O1 0.299597 0.760012 0.668156
O O2 0.553184 0.769353 0.868751
O O3 0.592696 0.775298 0.732529
O O4 0.459834 0.000000 0.747625
O O5 0.794782 0.500000 0.407269
O O6 0.770122 0.301321 0.509146
O O7 0.000000 0.283323 0.500000
O O8 0.175188 0.500000 0.357772
O O9 0.326502 0.739044 0.385276
O O10 0.010713 0.739752 0.284424
O O11 0.612453 0.000000 0.976088
O O12 0.500000 0.769847 0.000000
O O13 0.798911 0.773557 0.074717
O O14 0.111988 0.837126 0.190694
O O15 0.362332 0.000000 0.341867
O O16 0.923425 0.000000 0.201435
#
# Coordination Sequence:
#
# PCOD8065898 Si02
#       6
#     4   4   4   4   4   4
#     4  10  21  35  55  84 109 135 178 222 263 314
#     4  10  23  40  55  74 107 145 178 217 266 320
#     4   9  18  34  56  77 100 139 183 216 257 314
#     4   9  18  32  53  81 110 139 175 219 263 314
#     4   8  17  33  53  81 110 138 172 217 268 314
#     4   8  16  32  54  77 106 140 170 214 269 311
#
# _framework density 18.657695
#
# number of rings (size 3 to 8) (size 9 to 14) (size 15 to 20)
#    1.000    2.000    0.000    0.000    2.333    3.667 
#    0.000    7.500    0.000    2.000    0.000    0.000 
#    0.000    0.000    0.000    0.000    0.000    0.000 
#
# Total GULP energy -297398.149384 kJ/mol
# GULP energy per Si atom -12391.589558 kJ/mol
# Density = 1.861523 g / cm^3
# Si number density = 18.657695 Si / 1000 Ang^3
#
#
#
# Elastic Constant Matrix: (Units=GPa)
#
#
# Indices 1 2 3 4 5 6 
#
# 1 70.3977 13.3210 8.1035 0.0000 -5.4742 0.0000
# 2 13.3210 47.7304 28.5412 0.0000 -4.8394 0.0000
# 3 8.1035 28.5412 83.0949 0.0000 2.5682 0.0000
# 4 0.0000 0.0000 0.0000 15.5240 0.0000 2.5760
# 5 -5.4742 -4.8394 2.5682 0.0000 31.9853 0.0000
# 6 0.0000 0.0000 0.0000 2.5760 0.0000 21.5818
#
#
#
# Elastic Compliance Matrix: (Units=1/GPa)
#
#
# Indices 1 2 3 4 5 6 
#
# 1 0.015122 -0.003898 -0.000198 0.000000 0.002014 0.000000
# 2 -0.003898 0.028104 -0.009407 0.000000 0.004340 0.000000
# 3 -0.000198 -0.009407 0.015368 0.000000 -0.002691 0.000000
# 4 0.000000 0.000000 0.000000 0.065718 0.000000 -0.007844
# 5 0.002014 0.004340 -0.002691 0.000000 0.032482 0.000000
# 6 0.000000 0.000000 0.000000 -0.007844 0.000000 0.047272
#
#
# Mechanical properties :
#
#
# Convention : Reuss Voigt Hill
#
# Bulk Modulus (GPa) = 31.65745 33.46161 32.55953
# Shear Modulus (GPa) = 20.69529 23.90204 22.29866
#
# Velocity S-wave (km/s) = 3.33409 3.58310 3.46084
# Velocity P-wave (km/s) = 5.64144 5.92382 5.78435
#
# Compressibility (1/GPa) = 0.03158814
#
# Stress axis : x y z
#
# Youngs Moduli (GPa) = 66.12894 35.58205 65.06992
#
# Poissons Ratio (x) = 0.13868 0.01290
# Poissons Ratio (y) = 0.25774 0.61212
# Poissons Ratio (z) = 0.01311 0.33473
#
# Static dielectric constant tensor:
#      x y z
#    x 3.416420 0.000000 0.002360 
#    y 0.000000 3.120640 0.000000 
#    z 0.002360 0.000000 3.370090 
# 
# 
# High freq. dielectric constant tensor:
#      x y z
#    x 1.722450 0.000000 0.005650 
#    y 0.000000 1.696530 0.000000 
#    z 0.005650 0.000000 1.715900 
# 
# From -- ./inp_files/76051.got.cif
#   From: 2010.06.25/outbox.cif.g09.slc.cpg/sg10_39_cif.got.tgz:76051.got - 2010.06.27 22:07:45.
