data_PCOD8065241
_publ_section_title
;
Structure prediction by ZEFSAII (Michael W. Deem and Ramdas Pophale) SiO2 
 PCOD8065241
Probable space group: P 2/M
;
_chemical_formula_sum "Si O2"
_cell_formula_units_Z 28
_cell_length_a 11.179743
_cell_length_b 8.625465
_cell_length_c 14.900814
_cell_angle_alpha 90.000000
_cell_angle_beta 114.052572
_cell_angle_gamma 90.000000
_cell_volume 1312.129972
_symmetry_space_group_name_H-M "P 2/M"
_symmetry_group_IT_number 10
_symmetry_cell_setting 'monoclinic'
loop_
_space_group_symop_operation_xyz
x,y,z
-x,y,-z
-x,-y,-z
x,-y,z
loop_
_atom_site_type_symbol
_atom_site_label
_atom_site_fract_x
_atom_site_fract_y
_atom_site_fract_z
Si Si1 0.397032 0.819371 0.146095
Si Si2 0.309414 0.316151 0.943958
Si Si3 0.655140 0.681453 0.247661
Si Si4 0.032765 0.319127 0.914901
Si Si5 0.234212 0.321456 0.244508
Si Si6 0.349602 0.819302 0.452854
Si Si7 0.849872 0.681907 0.460550
O O1 0.528985 0.778077 0.242333
O O2 0.282227 0.724363 0.159721
O O3 0.367954 0.000000 0.141477
O O4 0.409274 0.760361 0.046288
O O5 0.324490 0.500000 0.956795
O O6 0.328579 0.261462 0.848691
O O7 0.166839 0.246755 0.921415
O O8 0.624260 0.500000 0.246030
O O9 0.782479 0.723352 0.345044
O O10 0.056140 0.500000 0.938063
O O11 0.921750 0.293772 0.805497
O O12 0.000000 0.238988 0.000000
O O13 0.268693 0.500000 0.276255
O O14 0.296677 0.210522 0.337247
O O15 0.500000 0.752902 0.500000
O O16 0.245559 0.745568 0.490628
O O17 0.353283 0.000000 0.475163
O O18 0.859320 0.500000 0.481205
O O19 0.000000 0.749228 0.500000
#
# Coordination Sequence:
#
# PCOD8065241 Si02
#       7
#     4   4   4   4   4   4   4
#     4  12  24  38  57  87 128 164 200 246 300 364
#     4  10  20  37  61  88 119 157 202 247 299 360
#     4  10  22  39  63  89 118 157 205 254 302 358
#     4   9  17  33  59  89 118 150 193 247 301 355
#     4  11  22  38  66  93 119 156 203 254 306 360
#     4  11  25  44  65  93 130 169 209 258 320 383
#     4  10  23  43  68  97 126 160 213 272 318 369
#
# _framework density 21.339348000000001
#
# number of rings (size 3 to 8) (size 9 to 14) (size 15 to 20)
#    0.000    1.571    1.429    3.429    2.000    6.571 
#    0.000    2.143    0.000    0.000    0.000    0.000 
#    0.000    0.000    0.000    0.000    0.000    0.000 
#
# Total GULP energy -347064.899718 kJ/mol
# GULP energy per Si atom -12395.174990 kJ/mol
# Density = 2.129078 g / cm^3
# Si number density = 21.339348 Si / 1000 Ang^3
#
#
#
# Elastic Constant Matrix: (Units=GPa)
#
#
# Indices 1 2 3 4 5 6 
#
# 1 113.7062 24.5151 44.6208 0.0000 9.6640 0.0000
# 2 24.5151 42.1210 23.2175 0.0000 7.0672 0.0000
# 3 44.6208 23.2175 117.4377 0.0000 8.7229 0.0000
# 4 0.0000 0.0000 0.0000 11.0404 0.0000 -4.6016
# 5 9.6640 7.0672 8.7229 0.0000 34.9359 0.0000
# 6 0.0000 0.0000 0.0000 -4.6016 0.0000 19.2252
#
#
#
# Elastic Compliance Matrix: (Units=1/GPa)
#
#
# Indices 1 2 3 4 5 6 
#
# 1 0.011150 -0.004468 -0.003252 0.000000 -0.001369 0.000000
# 2 -0.004468 0.029039 -0.003769 0.000000 -0.003697 0.000000
# 3 -0.003252 -0.003769 0.010568 0.000000 -0.000977 0.000000
# 4 0.000000 0.000000 0.000000 0.100614 0.000000 0.024082
# 5 -0.001369 -0.003697 -0.000977 0.000000 0.029994 0.000000
# 6 0.000000 0.000000 0.000000 0.024082 0.000000 0.057779
#
#
# Mechanical properties :
#
#
# Convention : Reuss Voigt Hill
#
# Bulk Modulus (GPa) = 35.99544 50.88575 43.44059
# Shear Modulus (GPa) = 18.42424 25.10108 21.76266
#
# Velocity S-wave (km/s) = 2.94154 3.43342 3.19695
# Velocity P-wave (km/s) = 5.33307 6.29409 5.83340
#
# Compressibility (1/GPa) = 0.02778130
#
# Stress axis : x y z
#
# Youngs Moduli (GPa) = 89.68487 34.43621 94.62267
#
# Poissons Ratio (x) = 0.15385 0.30768
# Poissons Ratio (y) = 0.40068 0.35663
# Poissons Ratio (z) = 0.29162 0.12979
#
# Static dielectric constant tensor:
#      x y z
#    x 4.249500 0.000000 0.099320 
#    y 0.000000 3.426070 0.000000 
#    z 0.099320 0.000000 3.920920 
# 
# 
# High freq. dielectric constant tensor:
#      x y z
#    x 1.853480 0.000000 0.009440 
#    y 0.000000 1.801500 0.000000 
#    z 0.009440 0.000000 1.846330 
# 
# From -- ./inp_files/63365.got.cif
#   From: 2010.06.25/outbox.cif.g09.slc.cpg/sg10_32_cif.got.tgz:63365.got - 2010.06.27 22:07:45.
