data_PCOD8065618
_publ_section_title
;
Structure prediction by ZEFSAII (Michael W. Deem and Ramdas Pophale) SiO2 
 PCOD8065618
Probable space group: P 2/M
;
_chemical_formula_sum "Si O2"
_cell_formula_units_Z 28
_cell_length_a 9.736052
_cell_length_b 8.832030
_cell_length_c 21.554520
_cell_angle_alpha 90.000000
_cell_angle_beta 47.181463
_cell_angle_gamma 90.000000
_cell_volume 1359.526942
_symmetry_space_group_name_H-M "P 2/M"
_symmetry_group_IT_number 10
_symmetry_cell_setting 'monoclinic'
loop_
_space_group_symop_operation_xyz
x,y,z
-x,y,-z
-x,-y,-z
x,-y,z
loop_
_atom_site_type_symbol
_atom_site_label
_atom_site_fract_x
_atom_site_fract_y
_atom_site_fract_z
Si Si1 0.112763 0.673970 0.065697
Si Si2 0.273193 0.177276 0.806307
Si Si3 0.173121 0.673536 0.188876
Si Si4 0.857701 0.677969 0.490459
Si Si5 0.852535 0.177608 0.361965
Si Si6 0.569525 0.677976 0.364234
Si Si7 0.434762 0.677131 0.872153
O O1 0.054074 0.500000 0.072270
O O2 0.193986 0.697046 0.109261
O O3 0.933933 0.778171 0.107815
O O4 0.272399 0.725792 0.969258
O O5 0.317542 0.261587 0.729062
O O6 0.419616 0.228792 0.813540
O O7 0.289101 0.000000 0.789919
O O8 0.121471 0.500000 0.220805
O O9 0.368369 0.721876 0.158725
O O10 0.012486 0.782148 0.263572
O O11 0.877812 0.500000 0.473055
O O12 0.913180 0.760630 0.410209
O O13 0.647772 0.722947 0.574882
O O14 0.000000 0.733674 0.500000
O O15 0.656227 0.250618 0.400138
O O16 0.825269 0.000000 0.373795
O O17 0.597905 0.500000 0.359351
O O18 0.424046 0.500000 0.859928
#
# Coordination Sequence:
#
# PCOD8065618 Si02
#       7
#     4   4   4   4   4   4   4
#     4  10  20  39  65  91 120 162 216 266 309 364
#     4  12  25  39  59  91 130 168 207 255 316 374
#     4  10  21  39  65  92 123 164 213 262 308 364
#     4  10  24  45  70  98 125 159 206 257 306 363
#     4  12  25  41  64  96 132 167 203 249 312 375
#     4  11  23  43  69  93 121 164 214 258 302 362
#     4  10  22  39  62  91 123 164 215 265 312 365
#
# _framework density 20.595397999999999
#
# number of rings (size 3 to 8) (size 9 to 14) (size 15 to 20)
#    0.000    1.286    1.429    4.286    2.000    7.714 
#    0.000    0.000    0.000    2.571    0.000    0.000 
#    0.000    0.000    0.000    0.000    0.000    0.000 
#
# Total GULP energy -347405.963771 kJ/mol
# GULP energy per Si atom -12407.355849 kJ/mol
# Density = 2.054852 g / cm^3
# Si number density = 20.595398 Si / 1000 Ang^3
#
#
#
# Elastic Constant Matrix: (Units=GPa)
#
#
# Indices 1 2 3 4 5 6 
#
# 1 142.8252 34.5413 25.7798 0.0000 6.0255 0.0000
# 2 34.5413 58.6868 22.3424 0.0000 7.6365 0.0000
# 3 25.7798 22.3424 72.1941 0.0000 4.7321 0.0000
# 4 0.0000 0.0000 0.0000 5.4728 0.0000 -0.9763
# 5 6.0255 7.6365 4.7321 0.0000 36.3543 0.0000
# 6 0.0000 0.0000 0.0000 -0.9763 0.0000 5.7220
#
#
#
# Elastic Compliance Matrix: (Units=1/GPa)
#
#
# Indices 1 2 3 4 5 6 
#
# 1 0.008337 -0.004244 -0.001645 0.000000 -0.000276 0.000000
# 2 -0.004244 0.021879 -0.005043 0.000000 -0.003236 0.000000
# 3 -0.001645 -0.005043 0.016049 0.000000 -0.000757 0.000000
# 4 0.000000 0.000000 0.000000 0.188459 0.000000 0.032154
# 5 -0.000276 -0.003236 -0.000757 0.000000 0.028331 0.000000
# 6 0.000000 0.000000 0.000000 0.032154 0.000000 0.180250
#
#
# Mechanical properties :
#
#
# Convention : Reuss Voigt Hill
#
# Bulk Modulus (GPa) = 40.98529 48.78145 44.88337
# Shear Modulus (GPa) = 10.56406 22.24600 16.40503
#
# Velocity S-wave (km/s) = 2.26726 3.29012 2.82536
# Velocity P-wave (km/s) = 5.17662 6.17820 5.69946
#
# Compressibility (1/GPa) = 0.02439900
#
# Stress axis : x y z
#
# Youngs Moduli (GPa) = 119.95202 45.70637 62.30740
#
# Poissons Ratio (x) = 0.19400 0.10251
# Poissons Ratio (y) = 0.50913 0.31423
# Poissons Ratio (z) = 0.19736 0.23051
#
# Static dielectric constant tensor:
#      x y z
#    x 3.969680 0.000000 0.003010 
#    y 0.000000 3.553100 0.000000 
#    z 0.003010 0.000000 3.721250 
# 
# 
# High freq. dielectric constant tensor:
#      x y z
#    x 1.823930 0.000000 0.003140 
#    y 0.000000 1.790580 0.000000 
#    z 0.003140 0.000000 1.810780 
# 
# From -- ./inp_files/82173.got.cif
#   From: 2010.06.25/outbox.cif.g09.slc.cpg/sg10_42_cif.got.tgz:82173.got - 2010.06.27 22:07:45.
