data_PCOD8065509
_publ_section_title
;
Structure prediction by ZEFSAII (Michael W. Deem and Ramdas Pophale) SiO2 
 PCOD8065509
Probable space group: P 2/M
;
_chemical_formula_sum "Si O2"
_cell_formula_units_Z 28
_cell_length_a 15.305242
_cell_length_b 8.840403
_cell_length_c 20.950232
_cell_angle_alpha 90.000000
_cell_angle_beta 151.388355
_cell_angle_gamma 90.000000
_cell_volume 1357.434855
_symmetry_space_group_name_H-M "P 2/M"
_symmetry_group_IT_number 10
_symmetry_cell_setting 'monoclinic'
loop_
_space_group_symop_operation_xyz
x,y,z
-x,y,-z
-x,-y,-z
x,-y,z
loop_
_atom_site_type_symbol
_atom_site_label
_atom_site_fract_x
_atom_site_fract_y
_atom_site_fract_z
Si Si1 0.114351 0.822474 0.157622
Si Si2 0.309626 0.820193 0.404534
Si Si3 0.822266 0.833156 0.426457
Si Si4 0.065839 0.819642 0.363151
Si Si5 0.334383 0.179556 0.939639
Si Si6 0.488282 0.323296 0.164171
Si Si7 0.272414 0.822240 0.132153
O O1 0.162927 0.765325 0.258624
O O2 0.276587 0.785878 0.210806
O O3 0.085202 0.000000 0.137016
O O4 0.920166 0.753812 0.015058
O O5 0.500000 0.750769 0.500000
O O6 0.226086 0.760691 0.417806
O O7 0.329772 0.000000 0.420598
O O8 0.698375 0.727276 0.301878
O O9 0.000000 0.856818 0.500000
O O10 0.874884 0.760086 0.528997
O O11 0.731331 0.000000 0.378540
O O12 0.057133 0.000000 0.357144
O O13 0.862434 0.760654 0.212686
O O14 0.371525 0.242725 0.034148
O O15 0.332220 0.000000 0.943287
O O16 0.500000 0.234429 0.000000
O O17 0.472113 0.500000 0.142666
O O18 0.423930 0.273624 0.193376
O O19 0.300558 0.000000 0.136389
#
# Coordination Sequence:
#
# PCOD8065509 Si02
#       7
#     4   4   4   4   4   4   4
#     4   8  15  28  49  78 107 137 180 237 295 336
#     4   9  16  24  40  73 113 140 165 216 287 351
#     4  10  21  39  62  86 112 147 193 243 292 341
#     4   9  18  32  55  86 114 141 182 239 297 345
#     4  10  20  38  64  88 110 142 189 246 296 339
#     4  12  25  37  54  84 120 157 193 227 280 350
#     4   9  17  32  55  78 103 140 188 241 286 331
#
# _framework density 20.627139
#
# number of rings (size 3 to 8) (size 9 to 14) (size 15 to 20)
#    0.000    2.429    0.000    3.857    2.000    5.143 
#    0.000    2.143    0.000    0.000    0.000    1.000 
#    0.000    0.000    0.000    0.000    0.000    0.000 
#
# Total GULP energy -346906.122431 kJ/mol
# GULP energy per Si atom -12389.504373 kJ/mol
# Density = 2.058019 g / cm^3
# Si number density = 20.627139 Si / 1000 Ang^3
#
#
#
# Elastic Constant Matrix: (Units=GPa)
#
#
# Indices 1 2 3 4 5 6 
#
# 1 110.1984 11.5868 26.0621 0.0000 -4.1917 0.0000
# 2 11.5868 30.2379 12.0916 0.0000 0.3842 0.0000
# 3 26.0621 12.0916 82.8070 0.0000 -4.2304 0.0000
# 4 0.0000 0.0000 0.0000 8.2785 0.0000 0.2918
# 5 -4.1917 0.3842 -4.2304 0.0000 41.0934 0.0000
# 6 0.0000 0.0000 0.0000 0.2918 0.0000 -1.0695
#
#
#
# Elastic Compliance Matrix: (Units=1/GPa)
#
#
# Indices 1 2 3 4 5 6 
#
# 1 0.010037 -0.002770 -0.002715 0.000000 0.000770 0.000000
# 2 -0.002770 0.035917 -0.004428 0.000000 -0.001074 0.000000
# 3 -0.002715 -0.004428 0.013637 0.000000 0.001168 0.000000
# 4 0.000000 0.000000 0.000000 0.119644 0.000000 0.032644
# 5 0.000770 -0.001074 0.001168 0.000000 0.024544 0.000000
# 6 0.000000 0.000000 0.000000 0.032644 0.000000 -0.926095
#
#
# Mechanical properties :
#
#
# Convention : Reuss Voigt Hill
#
# Bulk Modulus (GPa) = 25.14774 35.85828 30.50301
# Shear Modulus (GPa) = -7.25442 21.22732 6.98645
#
# Velocity S-wave (km/s) = -1.87738 3.21143 1.84238
# Velocity P-wave (km/s) = 2.74201 5.58326 4.39838
#
# Compressibility (1/GPa) = 0.03976500
#
# Stress axis : x y z
#
# Youngs Moduli (GPa) = 99.62873 27.84218 73.32965
#
# Poissons Ratio (x) = 0.07713 0.19910
# Poissons Ratio (y) = 0.27599 0.32468
# Poissons Ratio (z) = 0.27051 0.12327
#
# Static dielectric constant tensor:
#      x y z
#    x 4.025840 0.000000 -0.093820 
#    y 0.000000 3.039820 0.000000 
#    z -0.093820 0.000000 4.571100 
# 
# 
# High freq. dielectric constant tensor:
#      x y z
#    x 1.826750 0.000000 0.000150 
#    y 0.000000 1.726640 0.000000 
#    z 0.000150 0.000000 1.815060 
# 
# From -- ./inp_files/84975.got.cif
#   From: 2010.06.25/outbox.cif.g09.slc.cpg/sg10_43_cif.got.tgz:84975.got - 2010.06.27 22:07:45.
