data_PCOD8065271
_publ_section_title
;
Structure prediction by ZEFSAII (Michael W. Deem and Ramdas Pophale) SiO2 
 PCOD8065271
Probable space group: P 2/M
;
_chemical_formula_sum "Si O2"
_cell_formula_units_Z 32
_cell_length_a 26.886458
_cell_length_b 9.267783
_cell_length_c 20.970180
_cell_angle_alpha 90.000000
_cell_angle_beta 161.277175
_cell_angle_gamma 90.000000
_cell_volume 1677.272107
_symmetry_space_group_name_H-M "P 2/M"
_symmetry_group_IT_number 10
_symmetry_cell_setting 'monoclinic'
loop_
_space_group_symop_operation_xyz
x,y,z
-x,y,-z
-x,-y,-z
x,-y,z
loop_
_atom_site_type_symbol
_atom_site_label
_atom_site_fract_x
_atom_site_fract_y
_atom_site_fract_z
Si Si1 0.929385 0.667185 0.513987
Si Si2 0.933264 0.336707 0.852028
Si Si3 0.537414 0.166961 0.226256
Si Si4 0.108341 0.663094 0.938710
Si Si5 0.633335 0.167554 0.481399
Si Si6 0.859436 0.171500 0.555913
Si Si7 0.459636 0.330386 0.379911
Si Si8 0.760650 0.333929 0.177902
O O1 0.924025 0.500000 0.528358
O O2 0.866407 0.768090 0.493127
O O3 0.818483 0.694163 0.319442
O O4 0.105260 0.711569 0.709208
O O5 0.867682 0.500000 0.778477
O O6 0.801936 0.228024 0.669260
O O7 0.069968 0.329285 0.966797
O O8 0.000000 0.282497 0.000000
O O9 0.529388 0.193994 0.292456
O O10 0.699597 0.224805 0.394228
O O11 0.521534 0.000000 0.190420
O O12 0.394541 0.245317 0.020366
O O13 0.084469 0.500000 0.884009
O O14 0.005028 0.769853 0.772002
O O15 0.285981 0.711346 0.148990
O O16 0.571177 0.250571 0.466792
O O17 0.645763 0.000000 0.513001
O O18 0.870862 0.000000 0.568439
O O19 0.500000 0.276591 0.500000
O O20 0.489814 0.500000 0.410992
O O21 0.719360 0.500000 0.117324
#
# Coordination Sequence:
#
# PCOD8065271 Si02
#       8
#     4   4   4   4   4   4   4   4
#     4   9  20  40  62  90 120 147 189 239 287 339
#     4  10  20  37  62  87 112 148 195 243 291 343
#     4  10  23  40  56  82 122 158 193 235 281 341
#     4  10  21  37  59  86 114 149 192 241 292 343
#     4  11  23  39  57  84 121 157 193 237 287 345
#     4  11  23  39  58  83 119 159 193 234 285 340
#     4  10  22  41  62  85 115 149 192 247 299 348
#     4   9  20  39  64  89 117 151 189 238 287 336
#
# _framework density 19.078598
#
# number of rings (size 3 to 8) (size 9 to 14) (size 15 to 20)
#    0.000    2.000    1.250    2.250    1.750    6.500 
#    0.000    5.000    0.000    0.000    0.000    0.000 
#    0.000    0.000    0.000    0.000    0.000    0.000 
#
# Total GULP energy -396886.278008 kJ/mol
# GULP energy per Si atom -12402.696188 kJ/mol
# Density = 1.903517 g / cm^3
# Si number density = 19.078598 Si / 1000 Ang^3
#
#
#
# Elastic Constant Matrix: (Units=GPa)
#
#
# Indices 1 2 3 4 5 6 
#
# 1 93.7391 38.2257 20.5769 0.0000 -0.9236 0.0000
# 2 38.2257 62.4320 45.1854 0.0000 -1.5767 0.0000
# 3 20.5769 45.1854 93.6039 0.0000 -0.1715 0.0000
# 4 0.0000 0.0000 0.0000 2.3067 0.0000 -1.1122
# 5 -0.9236 -1.5767 -0.1715 0.0000 25.0092 0.0000
# 6 0.0000 0.0000 0.0000 -1.1122 0.0000 28.6910
#
#
#
# Elastic Compliance Matrix: (Units=1/GPa)
#
#
# Indices 1 2 3 4 5 6 
#
# 1 0.014387 -0.010024 0.001676 0.000000 -0.000089 0.000000
# 2 -0.010024 0.031657 -0.013075 0.000000 0.001536 0.000000
# 3 0.001676 -0.013075 0.016626 0.000000 -0.000648 0.000000
# 4 0.000000 0.000000 0.000000 0.441774 0.000000 0.017126
# 5 -0.000089 0.001536 -0.000648 0.000000 0.040074 0.000000
# 6 0.000000 0.000000 0.000000 0.017126 0.000000 0.035518
#
#
# Mechanical properties :
#
#
# Convention : Reuss Voigt Hill
#
# Bulk Modulus (GPa) = 50.44717 50.86121 50.65419
# Shear Modulus (GPa) = 7.94294 20.92051 14.43172
#
# Velocity S-wave (km/s) = 2.04262 3.31500 2.75332
# Velocity P-wave (km/s) = 5.66235 6.43187 6.05934
#
# Compressibility (1/GPa) = 0.01982272
#
# Stress axis : x y z
#
# Youngs Moduli (GPa) = 69.50817 31.58844 60.14829
#
# Poissons Ratio (x) = 0.31664 -0.10082
# Poissons Ratio (y) = 0.69675 0.78647
# Poissons Ratio (z) = -0.11650 0.41303
#
# Static dielectric constant tensor:
#      x y z
#    x 3.543260 0.000000 0.028300 
#    y 0.000000 3.387940 0.000000 
#    z 0.028300 0.000000 3.433040 
# 
# 
# High freq. dielectric constant tensor:
#      x y z
#    x 1.752480 0.000000 -0.000560 
#    y 0.000000 1.734690 0.000000 
#    z -0.000560 0.000000 1.746190 
# 
# From -- ./inp_files/87020.got.cif
#   From: 2010.06.25/outbox.cif.g09.slc.cpg/sg10_44_cif.got.tgz:87020.got - 2010.06.27 22:07:45.
