data_PCOD8065262
_publ_section_title
;
Structure prediction by ZEFSAII (Michael W. Deem and Ramdas Pophale) SiO2 
 PCOD8065262
Probable space group: P 2/M
;
_chemical_formula_sum "Si O2"
_cell_formula_units_Z 28
_cell_length_a 5.187418
_cell_length_b 29.163788
_cell_length_c 10.124482
_cell_angle_alpha 90.000000
_cell_angle_beta 59.080196
_cell_angle_gamma 90.000000
_cell_volume 1314.008742
_symmetry_space_group_name_H-M "P 2/M"
_symmetry_group_IT_number 10
_symmetry_cell_setting 'monoclinic'
loop_
_space_group_symop_operation_xyz
x,y,z
-x,y,-z
-x,-y,-z
x,-y,z
loop_
_atom_site_type_symbol
_atom_site_label
_atom_site_fract_x
_atom_site_fract_y
_atom_site_fract_z
Si Si1 0.653796 0.446218 0.095271
Si Si2 0.850993 0.815810 0.900965
Si Si3 0.822450 0.678061 0.428347
Si Si4 0.607126 0.947199 0.327140
Si Si5 0.312801 0.423719 0.437272
Si Si6 0.751491 0.091500 0.820835
Si Si7 0.142682 0.285734 0.101414
O O1 0.610679 0.500000 0.134027
O O2 0.496744 0.418336 0.253897
O O3 0.500000 0.431049 0.000000
O O4 0.000000 0.432141 0.000000
O O5 0.897134 0.857028 0.783640
O O6 0.975647 0.765689 0.827695
O O7 0.500000 0.807752 0.000000
O O8 0.000000 0.831703 0.000000
O O9 0.500000 0.703014 0.500000
O O10 0.770901 0.625393 0.479540
O O11 0.000000 0.703347 0.500000
O O12 0.014706 0.679833 0.244156
O O13 0.500000 0.931730 0.500000
O O14 0.412684 0.917612 0.274702
O O15 0.968145 0.941765 0.222561
O O16 0.528547 0.000000 0.320111
O O17 0.500000 0.450968 0.500000
O O18 0.000000 0.451030 0.500000
O O19 0.500000 0.085638 0.000000
O O20 0.500000 0.290601 0.000000
O O21 0.000000 0.300239 0.000000
#
# Coordination Sequence:
#
# PCOD8065262 Si02
#       7
#     4   4   4   4   4   4   4
#     4  10  21  38  60  86 115 151 200 249 289 341
#     4   9  18  34  57  85 113 141 178 233 290 332
#     4  10  21  39  56  82 121 151 186 236 287 339
#     4  11  24  40  56  79 117 156 187 228 283 339
#     4  10  21  38  57  83 118 154 189 234 292 345
#     4  11  21  37  61  85 110 143 191 240 277 330
#     4  10  20  37  62  85 109 148 192 228 277 345
#
# _framework density 21.308838000000002
#
# number of rings (size 3 to 8) (size 9 to 14) (size 15 to 20)
#    0.000    1.857    0.000    4.714    0.000    3.429 
#    0.000   19.286    0.000    0.000    0.000    0.000 
#    0.000    0.000    0.000    0.000    0.000    0.000 
#
# Total GULP energy -347025.846562 kJ/mol
# GULP energy per Si atom -12393.780234 kJ/mol
# Density = 2.126034 g / cm^3
# Si number density = 21.308838 Si / 1000 Ang^3
#
#
#
# Elastic Constant Matrix: (Units=GPa)
#
#
# Indices 1 2 3 4 5 6 
#
# 1 211.2600 21.7623 74.9400 0.0000 17.1207 0.0000
# 2 21.7623 67.4824 51.7351 0.0000 6.1684 0.0000
# 3 74.9400 51.7351 152.7475 0.0000 11.0558 0.0000
# 4 0.0000 0.0000 0.0000 10.0234 0.0000 -1.6381
# 5 17.1207 6.1684 11.0558 0.0000 42.8690 0.0000
# 6 0.0000 0.0000 0.0000 -1.6381 0.0000 8.6557
#
#
#
# Elastic Compliance Matrix: (Units=1/GPa)
#
#
# Indices 1 2 3 4 5 6 
#
# 1 0.005852 0.000504 -0.002922 0.000000 -0.001656 0.000000
# 2 0.000504 0.020116 -0.006967 0.000000 -0.001299 0.000000
# 3 -0.002922 -0.006967 0.010377 0.000000 -0.000507 0.000000
# 4 0.000000 0.000000 0.000000 0.102951 0.000000 0.019483
# 5 -0.001656 -0.001299 -0.000507 0.000000 0.024306 0.000000
# 6 0.000000 0.000000 0.000000 0.019483 0.000000 0.119218
#
#
# Mechanical properties :
#
#
# Convention : Reuss Voigt Hill
#
# Bulk Modulus (GPa) = 56.89603 80.92943 68.91273
# Shear Modulus (GPa) = 16.26298 31.17978 23.72138
#
# Velocity S-wave (km/s) = 2.76561 3.82937 3.34011
# Velocity P-wave (km/s) = 6.07921 7.59038 6.87643
#
# Compressibility (1/GPa) = 0.01757592
#
# Stress axis : x y z
#
# Youngs Moduli (GPa) = 170.87142 49.71255 96.37041
#
# Poissons Ratio (x) = -0.02507 0.28161
# Poissons Ratio (y) = -0.08618 0.67137
# Poissons Ratio (z) = 0.49932 0.34632
#
# Static dielectric constant tensor:
#      x y z
#    x 3.131640 0.000000 0.111480 
#    y 0.000000 3.829480 0.000000 
#    z 0.111480 0.000000 3.653980 
# 
# 
# High freq. dielectric constant tensor:
#      x y z
#    x 1.873600 0.000000 0.007320 
#    y 0.000000 1.816340 0.000000 
#    z 0.007320 0.000000 1.818410 
# 
# From -- ./inp_files/15874.got.cif
#   From: 2010.06.25/outbox.cif.g09.slc.cpg/sg10_8_cif.got.tgz:15874.got - 2010.06.27 22:07:45.
