data_PCOD8065475
_publ_section_title
;
Structure prediction by ZEFSAII (Michael W. Deem and Ramdas Pophale) SiO2 
 PCOD8065475
Probable space group: P 2/M
;
_chemical_formula_sum "Si O2"
_cell_formula_units_Z 32
_cell_length_a 12.477337
_cell_length_b 8.620022
_cell_length_c 14.522682
_cell_angle_alpha 90.000000
_cell_angle_beta 90.962155
_cell_angle_gamma 90.000000
_cell_volume 1561.765660
_symmetry_space_group_name_H-M "P 2/M"
_symmetry_group_IT_number 10
_symmetry_cell_setting 'monoclinic'
loop_
_space_group_symop_operation_xyz
x,y,z
-x,y,-z
-x,-y,-z
x,-y,z
loop_
_atom_site_type_symbol
_atom_site_label
_atom_site_fract_x
_atom_site_fract_y
_atom_site_fract_z
Si Si1 0.319177 0.816773 0.724419
Si Si2 0.384735 0.820040 0.526944
Si Si3 0.826522 0.321416 0.985465
Si Si4 0.889505 0.181706 0.794744
Si Si5 0.532586 0.680509 0.785044
Si Si6 0.888488 0.320098 0.187982
Si Si7 0.387785 0.819153 0.038282
Si Si8 0.694335 0.179816 0.665417
O O1 0.335405 0.750330 0.620679
O O2 0.410456 0.738795 0.789000
O O3 0.203270 0.774147 0.761374
O O4 0.332968 0.000000 0.730889
O O5 0.500000 0.745520 0.500000
O O6 0.296262 0.795285 0.444738
O O7 0.405127 0.000000 0.546556
O O8 0.838824 0.500000 0.956017
O O9 0.858844 0.215377 0.900013
O O10 0.704750 0.280165 0.011945
O O11 0.895176 0.285248 0.078037
O O12 0.799547 0.239990 0.720958
O O13 0.997916 0.270122 0.768295
O O14 0.908949 0.000000 0.784277
O O15 0.537167 0.500000 0.808815
O O16 0.609259 0.778456 0.854197
O O17 0.588203 0.720520 0.688928
O O18 0.866452 0.500000 0.205132
O O19 0.366394 0.000000 0.021015
O O20 0.500000 0.761429 0.000000
O O21 0.673116 0.000000 0.688587
#
# Coordination Sequence:
#
# PCOD8065475 Si02
#       8
#     4   4   4   4   4   4   4   4
#     4  11  22  39  64  90 120 158 203 252 302 360
#     4   9  17  34  63  93 120 154 196 247 304 358
#     4  11  23  39  60  86 118 158 201 249 305 361
#     4  11  23  39  64  91 119 158 208 255 295 352
#     4  12  23  35  56  86 123 160 193 238 301 361
#     4  11  25  43  61  85 123 163 202 250 306 362
#     4  11  23  37  55  82 117 158 202 248 295 353
#     4  10  20  38  62  90 120 152 198 249 297 353
#
# _framework density 20.489630999999999
#
# number of rings (size 3 to 8) (size 9 to 14) (size 15 to 20)
#    0.000    1.250    2.500    4.125    0.000    7.000 
#    0.000    2.500    0.000    3.750    0.000    0.000 
#    0.000    0.000    0.000    0.000    0.000    0.000 
#
# Total GULP energy -396819.961456 kJ/mol
# GULP energy per Si atom -12400.623795 kJ/mol
# Density = 2.044300 g / cm^3
# Si number density = 20.489631 Si / 1000 Ang^3
#
#
#
# Elastic Constant Matrix: (Units=GPa)
#
#
# Indices 1 2 3 4 5 6 
#
# 1 105.9879 15.6899 22.4733 0.0000 14.8563 0.0000
# 2 15.6899 42.8323 20.0068 0.0000 6.7085 0.0000
# 3 22.4733 20.0068 69.5922 0.0000 10.7039 0.0000
# 4 0.0000 0.0000 0.0000 13.0379 0.0000 -1.5496
# 5 14.8563 6.7085 10.7039 0.0000 25.3085 0.0000
# 6 0.0000 0.0000 0.0000 -1.5496 0.0000 30.5480
#
#
#
# Elastic Compliance Matrix: (Units=1/GPa)
#
#
# Indices 1 2 3 4 5 6 
#
# 1 0.010904 -0.002233 -0.002124 0.000000 -0.004911 0.000000
# 2 -0.002233 0.027837 -0.006790 0.000000 -0.003196 0.000000
# 3 -0.002124 -0.006790 0.017690 0.000000 -0.004435 0.000000
# 4 0.000000 0.000000 0.000000 0.077165 0.000000 0.003914
# 5 -0.004911 -0.003196 -0.004435 0.000000 0.045118 0.000000
# 6 0.000000 0.000000 0.000000 0.003914 0.000000 0.032934
#
#
# Mechanical properties :
#
#
# Convention : Reuss Voigt Hill
#
# Bulk Modulus (GPa) = 29.29415 37.19469 33.24442
# Shear Modulus (GPa) = 20.38148 24.46170 22.42159
#
# Velocity S-wave (km/s) = 3.15734 3.45897 3.31159
# Velocity P-wave (km/s) = 5.25546 5.84337 5.55720
#
# Compressibility (1/GPa) = 0.03413651
#
# Stress axis : x y z
#
# Youngs Moduli (GPa) = 91.70681 35.92332 56.53066
#
# Poissons Ratio (x) = 0.08022 0.12007
# Poissons Ratio (y) = 0.20479 0.38385
# Poissons Ratio (z) = 0.19479 0.24392
#
# Static dielectric constant tensor:
#      x y z
#    x 3.748640 0.000000 0.097310 
#    y 0.000000 3.476830 0.000000 
#    z 0.097310 0.000000 3.818990 
# 
# 
# High freq. dielectric constant tensor:
#      x y z
#    x 1.801710 0.000000 0.006720 
#    y 0.000000 1.786650 0.000000 
#    z 0.006720 0.000000 1.798810 
# 
# From -- ./inp_files/58132.got.cif
#   From: 2010.06.25/outbox.cif.g09.slc.cpg/sg10_30_cif.got.tgz:58132.got - 2010.06.27 22:07:45.
