data_PCOD8065279
_publ_section_title
;
Structure prediction by ZEFSAII (Michael W. Deem and Ramdas Pophale) SiO2 
 PCOD8065279
Probable space group: P 2/M
;
_chemical_formula_sum "Si O2"
_cell_formula_units_Z 28
_cell_length_a 22.472997
_cell_length_b 8.290841
_cell_length_c 8.914937
_cell_angle_alpha 90.000000
_cell_angle_beta 126.668695
_cell_angle_gamma 90.000000
_cell_volume 1332.316745
_symmetry_space_group_name_H-M "P 2/M"
_symmetry_group_IT_number 10
_symmetry_cell_setting 'monoclinic'
loop_
_space_group_symop_operation_xyz
x,y,z
-x,y,-z
-x,-y,-z
x,-y,z
loop_
_atom_site_type_symbol
_atom_site_label
_atom_site_fract_x
_atom_site_fract_y
_atom_site_fract_z
Si Si1 0.285665 0.808759 0.587575
Si Si2 0.138302 0.812974 0.527706
Si Si3 0.994367 0.312132 0.157366
Si Si4 0.575420 0.313756 0.691737
Si Si5 0.143787 0.687254 0.863369
Si Si6 0.573348 0.811424 0.016523
Si Si7 0.718665 0.186796 0.758285
O O1 0.211106 0.744150 0.554239
O O2 0.288612 0.746151 0.421690
O O3 0.287875 0.000000 0.593716
O O4 0.356894 0.743507 0.784437
O O5 0.068109 0.715523 0.363109
O O6 0.147927 0.789743 0.718582
O O7 0.126458 0.000000 0.473149
O O8 0.979837 0.500000 0.115761
O O9 0.923805 0.240191 0.139733
O O10 0.000000 0.231780 0.000000
O O11 0.500000 0.254997 0.500000
O O12 0.591693 0.500000 0.680079
O O13 0.568344 0.289495 0.857808
O O14 0.640973 0.204977 0.725345
O O15 0.131228 0.500000 0.804675
O O16 0.219792 0.706884 0.067307
O O17 0.582062 0.000000 0.991512
O O18 0.500000 0.776986 0.000000
O O19 0.742555 0.000000 0.796840
#
# Coordination Sequence:
#
# PCOD8065279 Si02
#       7
#     4   4   4   4   4   4   4
#     4   9  20  37  57  85 116 146 186 239 293 343
#     4  11  22  37  59  86 117 153 195 242 291 345
#     4  10  22  40  60  83 115 155 196 240 292 349
#     4  11  24  40  58  85 121 157 194 237 288 346
#     4  11  23  39  59  85 118 153 191 236 290 350
#     4  10  20  37  62  88 115 152 198 243 289 343
#     4  11  22  39  63  87 114 149 192 240 289 342
#
# _framework density 21.016026
#
# number of rings (size 3 to 8) (size 9 to 14) (size 15 to 20)
#    0.000    1.571    0.000    4.714    0.000    6.857 
#    0.000    4.286    0.000    0.000    0.000    0.000 
#    0.000    0.000    0.000    0.000    0.000    0.000 
#
# Total GULP energy -347376.834490 kJ/mol
# GULP energy per Si atom -12406.315518 kJ/mol
# Density = 2.096819 g / cm^3
# Si number density = 21.016026 Si / 1000 Ang^3
#
#
#
# Elastic Constant Matrix: (Units=GPa)
#
#
# Indices 1 2 3 4 5 6 
#
# 1 158.9861 10.8171 65.6511 0.0000 1.5921 0.0000
# 2 10.8171 27.1855 0.1087 0.0000 -0.7645 0.0000
# 3 65.6511 0.1087 159.3847 0.0000 0.6743 0.0000
# 4 0.0000 0.0000 0.0000 25.0712 0.0000 4.3395
# 5 1.5921 -0.7645 0.6743 0.0000 47.1902 0.0000
# 6 0.0000 0.0000 0.0000 4.3395 0.0000 19.3403
#
#
#
# Elastic Compliance Matrix: (Units=1/GPa)
#
#
# Indices 1 2 3 4 5 6 
#
# 1 0.007836 -0.003113 -0.003224 0.000000 -0.000269 0.000000
# 2 -0.003113 0.038038 0.001253 0.000000 0.000703 0.000000
# 3 -0.003224 0.001253 0.007601 0.000000 0.000020 0.000000
# 4 0.000000 0.000000 0.000000 0.041498 0.000000 -0.009311
# 5 -0.000269 0.000703 0.000020 0.000000 0.021211 0.000000
# 6 0.000000 0.000000 0.000000 -0.009311 0.000000 0.053795
#
#
# Mechanical properties :
#
#
# Convention : Reuss Voigt Hill
#
# Bulk Modulus (GPa) = 23.09081 55.41224 39.25153
# Shear Modulus (GPa) = 25.69618 36.25230 30.97424
#
# Velocity S-wave (km/s) = 3.50050 4.15780 3.84323
# Velocity P-wave (km/s) = 5.22963 7.03375 6.19769
#
# Compressibility (1/GPa) = 0.04330727
#
# Stress axis : x y z
#
# Youngs Moduli (GPa) = 127.62015 26.28977 131.55655
#
# Poissons Ratio (x) = 0.08183 0.42418
# Poissons Ratio (y) = 0.39722 -0.16486
# Poissons Ratio (z) = 0.41149 -0.03294
#
# Static dielectric constant tensor:
#      x y z
#    x 4.037010 0.000000 -0.034600 
#    y 0.000000 3.440780 0.000000 
#    z -0.034600 0.000000 3.876140 
# 
# 
# High freq. dielectric constant tensor:
#      x y z
#    x 1.841280 0.000000 -0.000760 
#    y 0.000000 1.801190 0.000000 
#    z -0.000760 0.000000 1.838270 
# 
# From -- ./inp_files/34261.got.cif
#   From: 2010.06.25/outbox.cif.g09.slc.cpg/sg10_18_cif.got.tgz:34261.got - 2010.06.27 22:07:45.
