data_PCOD8065737
_publ_section_title
;
Structure prediction by ZEFSAII (Michael W. Deem and Ramdas Pophale) SiO2 
 PCOD8065737
Probable space group: P 2/M
;
_chemical_formula_sum "Si O2"
_cell_formula_units_Z 32
_cell_length_a 11.720101
_cell_length_b 9.194649
_cell_length_c 21.248490
_cell_angle_alpha 90.000000
_cell_angle_beta 128.079716
_cell_angle_gamma 90.000000
_cell_volume 1802.411573
_symmetry_space_group_name_H-M "P 2/M"
_symmetry_group_IT_number 10
_symmetry_cell_setting 'monoclinic'
loop_
_space_group_symop_operation_xyz
x,y,z
-x,y,-z
-x,-y,-z
x,-y,z
loop_
_atom_site_type_symbol
_atom_site_label
_atom_site_fract_x
_atom_site_fract_y
_atom_site_fract_z
Si Si1 0.591846 0.331284 0.352631
Si Si2 0.036669 0.327056 0.111304
Si Si3 0.093482 0.326741 0.269313
Si Si4 0.151553 0.673302 0.719196
Si Si5 0.861947 0.837657 0.410104
Si Si6 0.409159 0.672342 0.409990
Si Si7 0.222789 0.326567 0.058415
Si Si8 0.468805 0.331282 0.810401
O O1 0.633238 0.500000 0.375016
O O2 0.736411 0.237285 0.408244
O O3 0.482481 0.279492 0.369604
O O4 0.519648 0.302665 0.260335
O O5 0.042485 0.500000 0.116385
O O6 0.074243 0.261628 0.192521
O O7 0.151785 0.268992 0.099311
O O8 0.874815 0.277289 0.034285
O O9 0.097517 0.500000 0.267891
O O10 0.243074 0.268996 0.351780
O O11 0.954730 0.273201 0.261883
O O12 0.148571 0.500000 0.710051
O O13 0.095948 0.742525 0.635904
O O14 0.317391 0.730120 0.787454
O O15 0.000000 0.846013 0.500000
O O16 0.813308 0.000000 0.373162
O O17 0.500000 0.738050 0.500000
O O18 0.406528 0.500000 0.415191
O O19 0.227723 0.500000 0.063750
O O20 0.386769 0.262009 0.108476
O O21 0.469997 0.500000 0.825782
#
# Coordination Sequence:
#
# PCOD8065737 Si02
#       8
#     4   4   4   4   4   4   4   4
#     4   9  17  29  47  68  89 113 147 186 224 265
#     4   8  13  20  32  54  82 120 153 176 220 270
#     4   9  16  26  39  59  92 121 148 188 225 265
#     4   9  18  30  46  67  89 119 152 185 226 267
#     4  10  21  34  48  65  87 115 149 190 230 267
#     4   9  17  26  39  63  88 113 146 185 227 265
#     4   8  12  19  34  54  83 118 152 181 213 268
#     4   8  13  23  37  57  82 110 144 182 219 253
#
# _framework density 17.753992
#
# number of rings (size 3 to 8) (size 9 to 14) (size 15 to 20)
#    0.000    3.250    0.000    2.625    1.750    4.000 
#    0.000    0.625    0.000    4.875    0.000    0.000 
#    0.000    8.000    0.000   32.875    0.000   26.250 
#
# Total GULP energy -396490.632004 kJ/mol
# GULP energy per Si atom -12390.332250 kJ/mol
# Density = 1.771358 g / cm^3
# Si number density = 17.753992 Si / 1000 Ang^3
#
#
#
# Elastic Constant Matrix: (Units=GPa)
#
#
# Indices 1 2 3 4 5 6 
#
# 1 133.6582 13.1365 75.4078 0.0000 10.4091 0.0000
# 2 13.1365 18.4656 9.2425 0.0000 5.0657 0.0000
# 3 75.4078 9.2425 130.5913 0.0000 17.5169 0.0000
# 4 0.0000 0.0000 0.0000 4.8675 0.0000 0.9556
# 5 10.4091 5.0657 17.5169 0.0000 28.2012 0.0000
# 6 0.0000 0.0000 0.0000 0.9556 0.0000 1.5384
#
#
#
# Elastic Compliance Matrix: (Units=1/GPa)
#
#
# Indices 1 2 3 4 5 6 
#
# 1 0.011544 -0.005192 -0.006384 0.000000 0.000637 0.000000
# 2 -0.005192 0.060322 -0.000082 0.000000 -0.008869 0.000000
# 3 -0.006384 -0.000082 0.012034 0.000000 -0.005104 0.000000
# 4 0.000000 0.000000 0.000000 0.233976 0.000000 -0.145337
# 5 0.000637 -0.008869 -0.005104 0.000000 0.039988 0.000000
# 6 0.000000 0.000000 0.000000 -0.145337 0.000000 0.740303
#
#
# Mechanical properties :
#
#
# Convention : Reuss Voigt Hill
#
# Bulk Modulus (GPa) = 16.50567 53.14319 34.82443
# Shear Modulus (GPa) = 4.37952 19.24998 11.81475
#
# Velocity S-wave (km/s) = 1.57230 3.29639 2.58247
# Velocity P-wave (km/s) = 3.55151 6.66980 5.34320
#
# Compressibility (1/GPa) = 0.06058526
#
# Stress axis : x y z
#
# Youngs Moduli (GPa) = 86.62362 16.57767 83.09649
#
# Poissons Ratio (x) = 0.08607 0.53049
# Poissons Ratio (y) = 0.44975 0.00679
# Poissons Ratio (z) = 0.55300 0.00135
#
# Static dielectric constant tensor:
#      x y z
#    x 3.642530 0.000000 0.202270 
#    y 0.000000 2.712480 0.000000 
#    z 0.202270 0.000000 3.545500 
# 
# 
# High freq. dielectric constant tensor:
#      x y z
#    x 1.690990 0.000000 0.014310 
#    y 0.000000 1.609690 0.000000 
#    z 0.014310 0.000000 1.690180 
# 
# From -- ./inp_files/83635.got.cif
#   From: 2010.06.25/outbox.cif.g09.slc.cpg/sg10_42_cif.got.tgz:83635.got - 2010.06.27 22:07:45.
