data_PCOD8065546
_publ_section_title
;
Structure prediction by ZEFSAII (Michael W. Deem and Ramdas Pophale) SiO2 
 PCOD8065546
Probable space group: P 2/M
;
_chemical_formula_sum "Si O2"
_cell_formula_units_Z 20
_cell_length_a 18.888701
_cell_length_b 11.271534
_cell_length_c 9.183102
_cell_angle_alpha 90.000000
_cell_angle_beta 151.642114
_cell_angle_gamma 90.000000
_cell_volume 928.640405
_symmetry_space_group_name_H-M "P 2/M"
_symmetry_group_IT_number 10
_symmetry_cell_setting 'monoclinic'
loop_
_space_group_symop_operation_xyz
x,y,z
-x,y,-z
-x,-y,-z
x,-y,z
loop_
_atom_site_type_symbol
_atom_site_label
_atom_site_fract_x
_atom_site_fract_y
_atom_site_fract_z
Si Si1 0.066573 0.264085 0.782265
Si Si2 0.834708 0.864721 0.551589
Si Si3 0.569011 0.500000 0.826717
Si Si4 0.747424 0.500000 0.854273
Si Si5 0.714723 0.134066 0.649680
Si Si6 0.439972 0.735264 0.044661
O O1 0.000000 0.257592 0.500000
O O2 0.941526 0.234151 0.675485
O O3 0.140478 0.389796 0.953100
O O4 0.195767 0.165829 0.040640
O O5 0.822664 0.846748 0.704269
O O6 0.886277 0.000000 0.609952
O O7 0.674610 0.842884 0.187490
O O8 0.645339 0.500000 0.810147
O O9 0.385826 0.500000 0.507310
O O10 0.633488 0.618938 0.017227
O O11 0.570965 0.217412 0.385069
O O12 0.658772 0.000000 0.555419
O O13 0.500000 0.690684 0.000000
#
# Coordination Sequence:
#
# PCOD8065546 Si02
#       6
#     4   4   2   2   4   4
#     4  12  24  41  61  89 123 163 208 251 304 360
#     4  10  22  40  64  94 129 162 196 246 309 367
#     4  11  21  42  65  89 119 158 206 256 307 358
#     4  11  25  42  64  82 120 168 206 248 310 366
#     4  10  21  40  64  91 125 165 203 247 303 363
#     4  10  20  38  67  95 122 156 205 253 300 360
#
# _framework density 21.536861999999999
#
# number of rings (size 3 to 8) (size 9 to 14) (size 15 to 20)
#    0.000    1.400    2.000    3.600    0.000    6.400 
#    0.000    3.000    0.000    3.600    0.000    0.000 
#    0.000    0.000    0.000    0.000    0.000    0.000 
#
# Total GULP energy -247905.479773 kJ/mol
# GULP energy per Si atom -12395.273989 kJ/mol
# Density = 2.148784 g / cm^3
# Si number density = 21.536862 Si / 1000 Ang^3
#
#
#
# Elastic Constant Matrix: (Units=GPa)
#
#
# Indices 1 2 3 4 5 6 
#
# 1 37.3317 43.5308 19.0724 0.0000 10.4105 0.0000
# 2 43.5308 131.9241 29.1923 0.0000 2.5354 0.0000
# 3 19.0724 29.1923 90.2590 0.0000 -16.7718 0.0000
# 4 0.0000 0.0000 0.0000 67.0743 0.0000 42.6061
# 5 10.4105 2.5354 -16.7718 0.0000 30.7830 0.0000
# 6 0.0000 0.0000 0.0000 42.6061 0.0000 69.9134
#
#
#
# Elastic Compliance Matrix: (Units=1/GPa)
#
#
# Indices 1 2 3 4 5 6 
#
# 1 0.058786 -0.016310 -0.011784 0.000000 -0.024958 0.000000
# 2 -0.016310 0.012845 0.000134 0.000000 0.004531 0.000000
# 3 -0.011784 0.000134 0.015871 0.000000 0.012622 0.000000
# 4 0.000000 0.000000 0.000000 0.024325 0.000000 -0.014824
# 5 -0.024958 0.004531 0.012622 0.000000 0.047430 0.000000
# 6 0.000000 0.000000 0.000000 -0.014824 0.000000 0.023337
#
#
# Mechanical properties :
#
#
# Convention : Reuss Voigt Hill
#
# Bulk Modulus (GPa) = 31.66444 49.23398 40.44921
# Shear Modulus (GPa) = 20.07685 44.73542 32.40613
#
# Velocity S-wave (km/s) = 3.05652 4.56253 3.88323
# Velocity P-wave (km/s) = 5.21448 7.11797 6.23924
#
# Compressibility (1/GPa) = 0.03158117
#
# Stress axis : x y z
#
# Youngs Moduli (GPa) = 17.01090 77.84974 63.00642
#
# Poissons Ratio (x) = 1.26974 0.74249
# Poissons Ratio (y) = 0.27745 -0.00843
# Poissons Ratio (z) = 0.20046 -0.01042
#
# Static dielectric constant tensor:
#      x y z
#    x 3.660920 0.000000 -0.007760 
#    y 0.000000 3.821020 0.000000 
#    z -0.007760 0.000000 4.214920 
# 
# 
# High freq. dielectric constant tensor:
#      x y z
#    x 1.821490 0.000000 0.000540 
#    y 0.000000 1.850830 0.000000 
#    z 0.000540 0.000000 1.863920 
# 
# From -- ./inp_files/32482.got.cif
#   From: 2010.06.25/outbox.cif.g09.slc.cpg/sg10_17_cif.got.tgz:32482.got - 2010.06.27 22:07:45.
