data_PCOD8065594
_publ_section_title
;
Structure prediction by ZEFSAII (Michael W. Deem and Ramdas Pophale) SiO2 
 PCOD8065594
Probable space group: P 2/M
;
_chemical_formula_sum "Si O2"
_cell_formula_units_Z 32
_cell_length_a 12.658545
_cell_length_b 14.383411
_cell_length_c 17.729362
_cell_angle_alpha 90.000000
_cell_angle_beta 29.892121
_cell_angle_gamma 90.000000
_cell_volume 1608.753087
_symmetry_space_group_name_H-M "P 2/M"
_symmetry_group_IT_number 10
_symmetry_cell_setting 'monoclinic'
loop_
_space_group_symop_operation_xyz
x,y,z
-x,y,-z
-x,-y,-z
x,-y,z
loop_
_atom_site_type_symbol
_atom_site_label
_atom_site_fract_x
_atom_site_fract_y
_atom_site_fract_z
Si Si1 0.653945 0.394411 0.837557
Si Si2 0.881041 0.891222 0.281770
Si Si3 0.655843 0.893160 0.967208
Si Si4 0.503776 0.897271 0.765715
Si Si5 0.794218 0.175474 0.167936
Si Si6 0.763794 0.723120 0.631575
Si Si7 0.414240 0.741017 0.476319
Si Si8 0.139617 0.602855 0.562646
O O1 0.598647 0.500000 0.843675
O O2 0.635727 0.315795 0.783497
O O3 0.888558 0.393513 0.725448
O O4 0.500000 0.363194 0.000000
O O5 0.862863 0.873036 0.203348
O O6 0.689241 0.842698 0.445507
O O7 0.858163 0.000000 0.310653
O O8 0.104494 0.851923 0.177168
O O9 0.558584 0.881212 0.109518
O O10 0.681066 0.000000 0.929069
O O11 0.500000 0.846229 0.000000
O O12 0.304306 0.896620 0.832009
O O13 0.658494 0.810430 0.652925
O O14 0.610931 0.000000 0.691276
O O15 0.611943 0.252305 0.296088
O O16 0.000000 0.221207 0.000000
O O17 0.779368 0.633040 0.569406
O O18 0.000000 0.759943 0.500000
O O19 0.500000 0.698138 0.500000
O O20 0.231834 0.671215 0.566968
O O21 0.226553 0.500000 0.523713
#
# Coordination Sequence:
#
# PCOD8065594 Si02
#       8
#     4   4   4   4   4   4   4   4
#     4   9  19  37  63  93 118 148 194 243 290 343
#     4  10  21  37  59  84 116 156 195 243 289 335
#     4   9  19  35  53  79 116 158 196 229 280 343
#     4  11  22  35  56  86 118 156 200 241 283 343
#     4  11  21  39  63  84 113 152 203 253 289 334
#     4  10  21  37  58  86 118 155 195 236 289 345
#     4  10  23  39  57  88 115 146 194 243 294 354
#     4  10  20  39  63  85 115 152 190 237 295 352
#
# _framework density 19.891181
#
# number of rings (size 3 to 8) (size 9 to 14) (size 15 to 20)
#    0.000    2.000    2.500    0.750    0.000    8.750 
#    0.000    0.000    0.000    0.375    0.000    0.000 
#    0.000    0.000    0.000    0.000    0.000    0.000 
#
# Total GULP energy -396539.606634 kJ/mol
# GULP energy per Si atom -12391.862707 kJ/mol
# Density = 1.984591 g / cm^3
# Si number density = 19.891181 Si / 1000 Ang^3
#
#
#
# Elastic Constant Matrix: (Units=GPa)
#
#
# Indices 1 2 3 4 5 6 
#
# 1 127.1095 33.4032 38.4537 0.0000 -10.1420 0.0000
# 2 33.4032 97.3307 45.0838 0.0000 -4.2950 0.0000
# 3 38.4537 45.0838 115.3242 0.0000 8.4626 0.0000
# 4 0.0000 0.0000 0.0000 11.7576 0.0000 -8.5383
# 5 -10.1420 -4.2950 8.4626 0.0000 25.4618 0.0000
# 6 0.0000 0.0000 0.0000 -8.5383 0.0000 22.1623
#
#
#
# Elastic Compliance Matrix: (Units=1/GPa)
#
#
# Indices 1 2 3 4 5 6 
#
# 1 0.009538 -0.001775 -0.002812 0.000000 0.004434 0.000000
# 2 -0.001775 0.013254 -0.004819 0.000000 0.003130 0.000000
# 3 -0.002812 -0.004819 0.011925 0.000000 -0.005896 0.000000
# 4 0.000000 0.000000 0.000000 0.118089 0.000000 0.045495
# 5 0.004434 0.003130 -0.005896 0.000000 0.043529 0.000000
# 6 0.000000 0.000000 0.000000 0.045495 0.000000 0.062649
#
#
# Mechanical properties :
#
#
# Convention : Reuss Voigt Hill
#
# Bulk Modulus (GPa) = 62.87305 63.73842 63.30574
# Shear Modulus (GPa) = 17.66168 26.73126 22.19647
#
# Velocity S-wave (km/s) = 2.98302 3.66987 3.34413
# Velocity P-wave (km/s) = 6.59861 7.07604 6.84149
#
# Compressibility (1/GPa) = 0.01590507
#
# Stress axis : x y z
#
# Youngs Moduli (GPa) = 104.84129 75.44955 83.85467
#
# Poissons Ratio (x) = 0.13395 0.23578
# Poissons Ratio (y) = 0.18613 0.40410
# Poissons Ratio (z) = 0.29479 0.36360
#
# Static dielectric constant tensor:
#      x y z
#    x 3.927750 0.000000 -0.193170 
#    y 0.000000 3.426870 0.000000 
#    z -0.193170 0.000000 3.649900 
# 
# 
# High freq. dielectric constant tensor:
#      x y z
#    x 1.786720 0.000000 -0.001410 
#    y 0.000000 1.752040 0.000000 
#    z -0.001410 0.000000 1.773830 
# 
# From -- ./inp_files/76976.got.cif
#   From: 2010.06.25/outbox.cif.g09.slc.cpg/sg10_39_cif.got.tgz:76976.got - 2010.06.27 22:07:45.
