data_PCOD8065981
_publ_section_title
;
Structure prediction by ZEFSAII (Michael W. Deem and Ramdas Pophale) SiO2 
 PCOD8065981
Probable space group: P 2/M
;
_chemical_formula_sum "Si O2"
_cell_formula_units_Z 28
_cell_length_a 20.178867
_cell_length_b 9.340078
_cell_length_c 22.975648
_cell_angle_alpha 90.000000
_cell_angle_beta 19.377203
_cell_angle_gamma 90.000000
_cell_volume 1436.722399
_symmetry_space_group_name_H-M "P 2/M"
_symmetry_group_IT_number 10
_symmetry_cell_setting 'monoclinic'
loop_
_space_group_symop_operation_xyz
x,y,z
-x,y,-z
-x,-y,-z
x,-y,z
loop_
_atom_site_type_symbol
_atom_site_label
_atom_site_fract_x
_atom_site_fract_y
_atom_site_fract_z
Si Si1 0.937629 0.839039 0.488465
Si Si2 0.387377 0.169441 0.537543
Si Si3 0.659347 0.839039 0.914559
Si Si4 0.060021 0.167840 0.112854
Si Si5 0.648914 0.342656 0.651720
Si Si6 0.458608 0.832159 0.714268
Si Si7 0.252982 0.657342 0.047652
O O1 0.774072 0.734556 0.597919
O O2 0.000000 0.780068 0.500000
O O3 0.122962 0.839184 0.292346
O O4 0.849317 0.000000 0.567889
O O5 0.500000 0.237315 0.500000
O O6 0.506635 0.219060 0.380849
O O7 0.155815 0.219068 0.731669
O O8 0.394878 0.000000 0.535044
O O9 0.658100 0.734559 0.969909
O O10 0.597699 0.000000 0.985095
O O11 0.500000 0.780063 0.000000
O O12 0.088031 0.246806 0.151675
O O13 0.061859 0.000000 0.125349
O O14 0.232359 0.205388 0.922546
O O15 0.741434 0.500000 0.561045
O O16 0.631087 0.246810 0.608619
O O17 0.427846 0.364237 0.857386
O O18 0.499762 0.000000 0.687446
O O19 0.165994 0.500000 0.136484
#
# Coordination Sequence:
#
# PCOD8065981 Si02
#       7
#     4   4   4   4   4   4   4
#     4  10  21  36  55  78 104 137 177 221 269 322
#     4   9  18  32  53  83 113 139 177 229 277 327
#     4  10  21  36  55  78 104 137 177 221 269 322
#     4   9  18  33  54  79 108 143 181 223 272 325
#     4  10  21  36  54  77 106 140 178 223 271 320
#     4   9  18  33  54  79 108 143 181 223 272 325
#     4  10  21  36  54  77 106 140 178 223 271 320
#
# _framework density 19.488803000000001
#
# number of rings (size 3 to 8) (size 9 to 14) (size 15 to 20)
#    0.000    2.429    0.000    1.714    2.000    4.571 
#    0.000    2.857    0.000    1.714    0.000    4.000 
#    0.000    0.000    0.000    0.000    0.000    0.000 
#
# Total GULP energy -347108.791500 kJ/mol
# GULP energy per Si atom -12396.742554 kJ/mol
# Density = 1.944445 g / cm^3
# Si number density = 19.488803 Si / 1000 Ang^3
#
#
#
# Elastic Constant Matrix: (Units=GPa)
#
#
# Indices 1 2 3 4 5 6 
#
# 1 176.0470 67.9110 46.2554 0.0000 -12.4669 0.0000
# 2 67.9110 86.8546 28.3655 0.0000 -8.0576 0.0000
# 3 46.2554 28.3655 72.9522 0.0000 -8.5375 0.0000
# 4 0.0000 0.0000 0.0000 11.9236 0.0000 1.1531
# 5 -12.4669 -8.0576 -8.5375 0.0000 35.0999 0.0000
# 6 0.0000 0.0000 0.0000 1.1531 0.0000 6.2386
#
#
#
# Elastic Compliance Matrix: (Units=1/GPa)
#
#
# Indices 1 2 3 4 5 6 
#
# 1 0.008819 -0.005743 -0.003239 0.000000 0.001026 0.000000
# 2 -0.005743 0.017043 -0.002847 0.000000 0.001180 0.000000
# 3 -0.003239 -0.002847 0.017145 0.000000 0.002366 0.000000
# 4 0.000000 0.000000 0.000000 0.085394 0.000000 -0.015783
# 5 0.001026 0.001180 0.002366 0.000000 0.029701 0.000000
# 6 0.000000 0.000000 0.000000 -0.015783 0.000000 0.163210
#
#
# Mechanical properties :
#
#
# Convention : Reuss Voigt Hill
#
# Bulk Modulus (GPa) = 51.68072 68.99086 60.33579
# Shear Modulus (GPa) = 14.22797 23.54055 18.88426
#
# Velocity S-wave (km/s) = 2.70489 3.47926 3.11622
# Velocity P-wave (km/s) = 6.02752 7.18453 6.63130
#
# Compressibility (1/GPa) = 0.01934958
#
# Stress axis : x y z
#
# Youngs Moduli (GPa) = 113.38813 58.67471 58.32514
#
# Poissons Ratio (x) = 0.33695 0.18891
# Poissons Ratio (y) = 0.65116 0.16608
# Poissons Ratio (z) = 0.36725 0.16707
#
# Static dielectric constant tensor:
#      x y z
#    x 2.425300 0.000000 0.231690 
#    y 0.000000 3.693480 0.000000 
#    z 0.231690 0.000000 3.565010 
# 
# 
# High freq. dielectric constant tensor:
#      x y z
#    x 1.758100 0.000000 0.000350 
#    y 0.000000 1.737960 0.000000 
#    z 0.000350 0.000000 1.759800 
# 
# From -- ./inp_files/90336.got.cif
#   From: 2010.06.25/outbox.cif.g09.slc.cpg/sg10_46_cif.got.tgz:90336.got - 2010.06.27 22:07:45.
