data_PCOD8065426
_publ_section_title
;
Structure prediction by ZEFSAII (Michael W. Deem and Ramdas Pophale) SiO2 
 PCOD8065426
Probable space group: P 2/M
;
_chemical_formula_sum "Si O2"
_cell_formula_units_Z 32
_cell_length_a 20.925648
_cell_length_b 9.213938
_cell_length_c 26.548347
_cell_angle_alpha 90.000000
_cell_angle_beta 18.465927
_cell_angle_gamma 90.000000
_cell_volume 1621.307845
_symmetry_space_group_name_H-M "P 2/M"
_symmetry_group_IT_number 10
_symmetry_cell_setting 'monoclinic'
loop_
_space_group_symop_operation_xyz
x,y,z
-x,y,-z
-x,-y,-z
x,-y,z
loop_
_atom_site_type_symbol
_atom_site_label
_atom_site_fract_x
_atom_site_fract_y
_atom_site_fract_z
Si Si1 0.716643 0.668172 0.099407
Si Si2 0.966456 0.828852 0.622469
Si Si3 0.766907 0.828960 0.165150
Si Si4 0.351646 0.332591 0.299037
Si Si5 0.584451 0.836952 0.845451
Si Si6 0.136208 0.837219 0.192543
Si Si7 0.985521 0.329232 0.209887
Si Si8 0.473955 0.670163 0.461247
O O1 0.749037 0.500000 0.089989
O O2 0.705303 0.764436 0.157582
O O3 0.503676 0.691865 0.231395
O O4 0.899536 0.723399 0.926726
O O5 0.756775 0.778695 0.753976
O O6 0.978328 0.781656 0.672038
O O7 0.143552 0.749605 0.461533
O O8 0.993968 0.000000 0.596789
O O9 0.633349 0.758636 0.309054
O O10 0.726354 0.000000 0.195265
O O11 0.000000 0.791417 0.000000
O O12 0.304181 0.500000 0.326493
O O13 0.450335 0.269154 0.175285
O O14 0.637747 0.000000 0.786864
O O15 0.370599 0.836604 0.033572
O O16 0.089673 0.734994 0.180902
O O17 0.068030 0.000000 0.228856
O O18 0.012596 0.500000 0.193158
O O19 0.752394 0.282795 0.383934
O O20 0.500000 0.710297 0.500000
O O21 0.511387 0.500000 0.423757
#
# Coordination Sequence:
#
# PCOD8065426 Si02
#       8
#     4   4   4   4   4   4   4   4
#     4  10  22  41  63  86 118 161 202 243 291 353
#     4  10  22  38  57  83 117 155 198 247 299 361
#     4  11  25  42  63  94 128 159 195 243 292 340
#     4  11  23  38  58  86 118 154 199 249 300 350
#     4  10  20  38  61  83 112 155 201 245 298 361
#     4  10  21  37  59  86 115 153 198 244 298 356
#     4  10  21  39  62  88 118 153 198 247 293 346
#     4  10  22  41  67  94 122 161 201 237 286 349
#
# _framework density 19.737151999999998
#
# number of rings (size 3 to 8) (size 9 to 14) (size 15 to 20)
#    0.000    1.750    1.250    2.250    1.750    8.250 
#    0.000    0.000    0.000    2.250    0.000    0.000 
#    0.000    0.000    0.000    0.000    0.000    0.000 
#
# Total GULP energy -396855.011818 kJ/mol
# GULP energy per Si atom -12401.719119 kJ/mol
# Density = 1.969223 g / cm^3
# Si number density = 19.737152 Si / 1000 Ang^3
#
#
#
# Elastic Constant Matrix: (Units=GPa)
#
#
# Indices 1 2 3 4 5 6 
#
# 1 95.1639 45.9703 30.6196 0.0000 1.5835 0.0000
# 2 45.9703 54.3252 34.5816 0.0000 0.1543 0.0000
# 3 30.6196 34.5816 94.4402 0.0000 -3.9209 0.0000
# 4 0.0000 0.0000 0.0000 26.0002 0.0000 1.7444
# 5 1.5835 0.1543 -3.9209 0.0000 30.1574 0.0000
# 6 0.0000 0.0000 0.0000 1.7444 0.0000 31.9310
#
#
#
# Elastic Compliance Matrix: (Units=1/GPa)
#
#
# Indices 1 2 3 4 5 6 
#
# 1 0.017806 -0.014821 -0.000384 0.000000 -0.000909 0.000000
# 2 -0.014821 0.036387 -0.008540 0.000000 -0.000518 0.000000
# 3 -0.000384 -0.008540 0.013918 0.000000 0.001873 0.000000
# 4 0.000000 0.000000 0.000000 0.038603 0.000000 -0.002109
# 5 -0.000909 -0.000518 0.001873 0.000000 0.033453 0.000000
# 6 0.000000 0.000000 0.000000 -0.002109 0.000000 0.031433
#
#
# Mechanical properties :
#
#
# Convention : Reuss Voigt Hill
#
# Bulk Modulus (GPa) = 48.49313 51.80804 50.15059
# Shear Modulus (GPa) = 22.12740 26.46822 24.29781
#
# Velocity S-wave (km/s) = 3.35192 3.66599 3.51247
# Velocity P-wave (km/s) = 6.29312 6.65021 6.47412
#
# Compressibility (1/GPa) = 0.02062148
#
# Stress axis : x y z
#
# Youngs Moduli (GPa) = 56.16016 27.48232 71.84831
#
# Poissons Ratio (x) = 0.40731 0.02758
# Poissons Ratio (y) = 0.83234 0.61361
# Poissons Ratio (z) = 0.02156 0.23471
#
# Static dielectric constant tensor:
#      x y z
#    x 3.598570 0.000000 -0.063930 
#    y 0.000000 3.493230 0.000000 
#    z -0.063930 0.000000 3.785130 
# 
# 
# High freq. dielectric constant tensor:
#      x y z
#    x 1.776610 0.000000 -0.000340 
#    y 0.000000 1.759860 0.000000 
#    z -0.000340 0.000000 1.783790 
# 
# From -- ./inp_files/93568.got.cif
#   From: 2010.06.25/outbox.cif.g09.slc.cpg/sg10_47_cif.got.tgz:93568.got - 2010.06.27 22:07:45.
