data_PCOD8065745
_publ_section_title
;
Structure prediction by ZEFSAII (Michael W. Deem and Ramdas Pophale) SiO2 
 PCOD8065745
Probable space group: P 2/M
;
_chemical_formula_sum "Si O2"
_cell_formula_units_Z 32
_cell_length_a 23.810403
_cell_length_b 14.402451
_cell_length_c 9.535321
_cell_angle_alpha 90.000000
_cell_angle_beta 144.726670
_cell_angle_gamma 90.000000
_cell_volume 1888.311610
_symmetry_space_group_name_H-M "P 2/M"
_symmetry_group_IT_number 10
_symmetry_cell_setting 'monoclinic'
loop_
_space_group_symop_operation_xyz
x,y,z
-x,y,-z
-x,-y,-z
x,-y,z
loop_
_atom_site_type_symbol
_atom_site_label
_atom_site_fract_x
_atom_site_fract_y
_atom_site_fract_z
Si Si1 0.600207 0.393485 0.392219
Si Si2 0.298361 0.606618 0.117355
Si Si3 0.715582 0.289742 0.396736
Si Si4 0.093537 0.608843 0.281159
Si Si5 0.515323 0.101727 0.801849
Si Si6 0.585099 0.290414 0.868887
Si Si7 0.655712 0.101377 0.352451
Si Si8 0.088826 0.610208 0.589916
O O1 0.583413 0.500000 0.316768
O O2 0.683509 0.384330 0.680390
O O3 0.634055 0.339151 0.324276
O O4 0.498737 0.353340 0.237529
O O5 0.309443 0.500000 0.089063
O O6 0.380242 0.667846 0.207613
O O7 0.190501 0.644342 0.863751
O O8 0.817222 0.341757 0.613271
O O9 0.732620 0.184691 0.489322
O O10 0.677768 0.290507 0.160594
O O11 0.115796 0.500000 0.325745
O O12 0.079330 0.645571 0.410654
O O13 0.000000 0.634319 0.000000
O O14 0.546224 0.185347 0.761622
O O15 0.403522 0.114623 0.622990
O O16 0.528319 0.000000 0.755632
O O17 0.580656 0.107483 0.072566
O O18 0.707978 0.000000 0.459436
O O19 0.083035 0.500000 0.582495
O O20 0.000000 0.652534 0.500000
#
# Coordination Sequence:
#
# PCOD8065745 Si02
#       8
#     4   4   4   4   4   4   4   4
#     4  11  23  32  44  68 102 142 170 195 236 293
#     4  10  21  35  48  66  98 138 172 204 239 286
#     4  11  20  32  51  76 100 126 167 208 250 292
#     4  10  21  34  50  74 103 128 156 209 258 285
#     4   8  14  26  46  71  97 126 163 204 243 287
#     4  11  19  32  50  71 100 133 170 203 243 288
#     4   8  14  27  47  71  98 127 160 199 247 296
#     4   9  18  34  53  68  88 126 171 205 241 290
#
# _framework density 16.946356999999999
#
# number of rings (size 3 to 8) (size 9 to 14) (size 15 to 20)
#    0.000    2.250    2.500    2.250    1.750    3.000 
#    0.000    0.000    0.000    2.625    0.000    0.000 
#    0.000    1.000    0.000    0.000    0.000    0.000 
#
# Total GULP energy -396727.515598 kJ/mol
# GULP energy per Si atom -12397.734862 kJ/mol
# Density = 1.690779 g / cm^3
# Si number density = 16.946357 Si / 1000 Ang^3
#
#
#
# Elastic Constant Matrix: (Units=GPa)
#
#
# Indices 1 2 3 4 5 6 
#
# 1 59.8316 15.9141 5.5038 0.0000 9.7110 0.0000
# 2 15.9141 81.8760 11.7995 0.0000 3.8187 0.0000
# 3 5.5038 11.7995 54.2096 0.0000 7.0517 0.0000
# 4 0.0000 0.0000 0.0000 9.8061 0.0000 1.0153
# 5 9.7110 3.8187 7.0517 0.0000 22.9883 0.0000
# 6 0.0000 0.0000 0.0000 1.0153 0.0000 18.2115
#
#
#
# Elastic Compliance Matrix: (Units=1/GPa)
#
#
# Indices 1 2 3 4 5 6 
#
# 1 0.018796 -0.003277 -0.000243 0.000000 -0.007321 0.000000
# 2 -0.003277 0.013218 -0.002540 0.000000 -0.000032 0.000000
# 3 -0.000243 -0.002540 0.019744 0.000000 -0.005532 0.000000
# 4 0.000000 0.000000 0.000000 0.102569 0.000000 -0.005718
# 5 -0.007321 -0.000032 -0.005532 0.000000 0.048295 0.000000
# 6 0.000000 0.000000 0.000000 -0.005718 0.000000 0.055229
#
#
# Mechanical properties :
#
#
# Convention : Reuss Voigt Hill
#
# Bulk Modulus (GPa) = 25.22808 29.15023 27.18916
# Shear Modulus (GPa) = 17.65634 21.04782 19.35208
#
# Velocity S-wave (km/s) = 3.23134 3.52806 3.38296
# Velocity P-wave (km/s) = 5.37042 5.81680 5.59806
#
# Compressibility (1/GPa) = 0.03963836
#
# Stress axis : x y z
#
# Youngs Moduli (GPa) = 53.20353 75.65384 50.64808
#
# Poissons Ratio (x) = 0.24791 0.01229
# Poissons Ratio (y) = 0.17434 0.12866
# Poissons Ratio (z) = 0.01291 0.19218
#
# Static dielectric constant tensor:
#      x y z
#    x 3.109320 0.000000 -0.025180 
#    y 0.000000 3.354940 0.000000 
#    z -0.025180 0.000000 3.001440 
# 
# 
# High freq. dielectric constant tensor:
#      x y z
#    x 1.644410 0.000000 -0.005660 
#    y 0.000000 1.639160 0.000000 
#    z -0.005660 0.000000 1.632330 
# 
# From -- ./inp_files/29521.got.cif
#   From: 2010.06.25/outbox.cif.g09.slc.cpg/sg10_15_cif.got.tgz:29521.got - 2010.06.27 22:07:45.
