data_PCOD8065413
_publ_section_title
;
Structure prediction by ZEFSAII (Michael W. Deem and Ramdas Pophale) SiO2 
 PCOD8065413
Probable space group: P 2/M
;
_chemical_formula_sum "Si O2"
_cell_formula_units_Z 32
_cell_length_a 25.812485
_cell_length_b 8.572053
_cell_length_c 14.545357
_cell_angle_alpha 90.000000
_cell_angle_beta 150.165009
_cell_angle_gamma 90.000000
_cell_volume 1601.162716
_symmetry_space_group_name_H-M "P 2/M"
_symmetry_group_IT_number 10
_symmetry_cell_setting 'monoclinic'
loop_
_space_group_symop_operation_xyz
x,y,z
-x,y,-z
-x,-y,-z
x,-y,z
loop_
_atom_site_type_symbol
_atom_site_label
_atom_site_fract_x
_atom_site_fract_y
_atom_site_fract_z
Si Si1 0.885546 0.316674 0.328981
Si Si2 0.718763 0.316945 0.927632
Si Si3 0.269899 0.181246 0.778106
Si Si4 0.986761 0.815289 0.877361
Si Si5 0.758332 0.816573 0.472393
Si Si6 0.336390 0.319147 0.498327
Si Si7 0.558318 0.182182 0.811618
Si Si8 0.796824 0.818056 0.863650
O O1 0.896009 0.500000 0.339988
O O2 0.831219 0.270787 0.340608
O O3 0.000000 0.239089 0.500000
O O4 0.817708 0.256105 0.138414
O O5 0.699538 0.500000 0.911209
O O6 0.617510 0.225606 0.808398
O O7 0.738468 0.279608 0.851936
O O8 0.284966 0.225370 0.695022
O O9 0.246328 0.000000 0.754306
O O10 0.372146 0.229422 0.992856
O O11 0.878142 0.759252 0.665972
O O12 0.990190 0.000000 0.890437
O O13 0.083150 0.761194 0.961490
O O14 0.000000 0.743038 0.000000
O O15 0.684847 0.723205 0.428578
O O16 0.749449 0.000000 0.479346
O O17 0.313710 0.500000 0.444950
O O18 0.454991 0.283444 0.656560
O O19 0.260149 0.213524 0.320091
O O20 0.530310 0.000000 0.768719
O O21 0.789968 0.000000 0.877215
#
# Coordination Sequence:
#
# PCOD8065413 Si02
#       8
#     4   4   4   4   4   4   4   4
#     4   9  19  35  54  79 118 161 193 228 283 344
#     4  10  21  38  58  85 120 154 192 239 287 341
#     4   9  20  36  59  87 114 147 194 245 287 331
#     4   9  17  33  58  84 114 152 190 232 281 334
#     4  10  20  38  60  86 119 154 192 237 287 341
#     4  12  25  40  59  86 115 151 194 240 292 349
#     4  10  21  41  63  85 113 150 195 244 293 341
#     4  11  22  38  61  88 117 154 195 238 288 344
#
# _framework density 19.985476999999999
#
# number of rings (size 3 to 8) (size 9 to 14) (size 15 to 20)
#    0.000    2.000    1.250    2.250    1.750    2.750 
#    0.000    6.875    0.000    0.000    0.000    0.000 
#    0.000    0.000    0.000    0.000    0.000    0.000 
#
# Total GULP energy -396894.379498 kJ/mol
# GULP energy per Si atom -12402.949359 kJ/mol
# Density = 1.993999 g / cm^3
# Si number density = 19.985477 Si / 1000 Ang^3
#
#
#
# Elastic Constant Matrix: (Units=GPa)
#
#
# Indices 1 2 3 4 5 6 
#
# 1 110.4619 16.8015 24.4314 0.0000 6.4086 0.0000
# 2 16.8015 36.1787 17.9026 0.0000 3.9816 0.0000
# 3 24.4314 17.9026 52.8899 0.0000 19.3903 0.0000
# 4 0.0000 0.0000 0.0000 21.2669 0.0000 3.2702
# 5 6.4086 3.9816 19.3903 0.0000 34.6263 0.0000
# 6 0.0000 0.0000 0.0000 3.2702 0.0000 27.0280
#
#
#
# Elastic Compliance Matrix: (Units=1/GPa)
#
#
# Indices 1 2 3 4 5 6 
#
# 1 0.010348 -0.002872 -0.004060 0.000000 0.000689 0.000000
# 2 -0.002872 0.034268 -0.011354 0.000000 0.002949 0.000000
# 3 -0.004060 -0.011354 0.030039 0.000000 -0.014764 0.000000
# 4 0.000000 0.000000 0.000000 0.047913 0.000000 -0.005797
# 5 0.000689 0.002949 -0.014764 0.000000 0.036681 0.000000
# 6 0.000000 0.000000 0.000000 -0.005797 0.000000 0.037700
#
#
# Mechanical properties :
#
#
# Convention : Reuss Voigt Hill
#
# Bulk Modulus (GPa) = 26.25902 35.31126 30.78514
# Shear Modulus (GPa) = 20.30743 25.94391 23.12567
#
# Velocity S-wave (km/s) = 3.19111 3.60688 3.40534
# Velocity P-wave (km/s) = 5.17157 5.92055 5.55869
#
# Compressibility (1/GPa) = 0.03808215
#
# Stress axis : x y z
#
# Youngs Moduli (GPa) = 96.63855 29.18160 33.29035
#
# Poissons Ratio (x) = 0.08381 0.13517
# Poissons Ratio (y) = 0.27756 0.37797
# Poissons Ratio (z) = 0.39238 0.33132
#
# Static dielectric constant tensor:
#      x y z
#    x 3.627160 0.000000 0.052940 
#    y 0.000000 3.368600 0.000000 
#    z 0.052940 0.000000 3.762640 
# 
# 
# High freq. dielectric constant tensor:
#      x y z
#    x 1.785520 0.000000 0.004670 
#    y 0.000000 1.762470 0.000000 
#    z 0.004670 0.000000 1.780490 
# 
# From -- ./inp_files/71645.got.cif
#   From: 2010.06.25/outbox.cif.g09.slc.cpg/sg10_36_cif.got.tgz:71645.got - 2010.06.27 22:07:45.
