data_PCOD8065803
_publ_section_title
;
Structure prediction by ZEFSAII (Michael W. Deem and Ramdas Pophale) SiO2 
 PCOD8065803
Probable space group: P 2/M
;
_chemical_formula_sum "Si O2"
_cell_formula_units_Z 32
_cell_length_a 14.068368
_cell_length_b 9.174144
_cell_length_c 14.068371
_cell_angle_alpha 90.000000
_cell_angle_beta 91.229716
_cell_angle_gamma 90.000000
_cell_volume 1815.319406
_symmetry_space_group_name_H-M "P 2/M"
_symmetry_group_IT_number 10
_symmetry_cell_setting 'monoclinic'
loop_
_space_group_symop_operation_xyz
x,y,z
-x,y,-z
-x,-y,-z
x,-y,z
loop_
_atom_site_type_symbol
_atom_site_label
_atom_site_fract_x
_atom_site_fract_y
_atom_site_fract_z
Si Si1 0.750920 0.672864 0.897597
Si Si2 0.242987 0.830068 0.599818
Si Si3 0.406720 0.333298 0.251238
Si Si4 0.897597 0.327136 0.750920
Si Si5 0.266422 0.671092 0.889949
Si Si6 0.110051 0.328908 0.733578
Si Si7 0.599818 0.169932 0.242987
Si Si8 0.748762 0.666702 0.593280
O O1 0.759440 0.500000 0.898907
O O2 0.654028 0.717208 0.841741
O O3 0.842011 0.736567 0.842011
O O4 0.750181 0.733994 0.004600
O O5 0.151460 0.750784 0.642182
O O6 0.335416 0.795484 0.664584
O O7 0.263593 0.771412 0.495935
O O8 0.220543 0.000000 0.594739
O O9 0.440936 0.500000 0.240054
O O10 0.495935 0.228588 0.263593
O O11 0.344191 0.316724 0.344191
O O12 0.898907 0.500000 0.759439
O O13 0.841741 0.282792 0.654028
O O14 0.004600 0.266006 0.750181
O O15 0.288534 0.500000 0.891501
O O16 0.172238 0.707251 0.827762
O O17 0.357818 0.750784 0.848540
O O18 0.108499 0.500000 0.711466
O O19 0.594739 0.000000 0.220542
O O20 0.759946 0.500000 0.559064
#
# Coordination Sequence:
#
# PCOD8065803 Si02
#       8
#     4   4   4   4   4   4   4   4
#     4   8  15  29  49  74 101 125 153 193 238 279
#     4  10  21  35  49  67  95 128 159 196 240 282
#     4   9  18  33  52  72  95 124 157 194 236 283
#     4   8  15  29  49  74 101 125 153 193 238 279
#     4   9  17  30  50  74  98 126 160 195 230 274
#     4   9  17  30  50  74  98 126 160 195 230 274
#     4  10  21  35  49  67  95 128 159 196 240 282
#     4   9  18  33  52  72  95 124 157 194 236 283
#
# _framework density 17.627752000000001
#
# number of rings (size 3 to 8) (size 9 to 14) (size 15 to 20)
#    0.000    3.000    0.000    2.250    0.000    4.000 
#    0.000   11.250    0.000    2.250    0.000    3.500 
#    0.000    0.000    0.000    0.000    0.000    0.000 
#
# Total GULP energy -396774.557927 kJ/mol
# GULP energy per Si atom -12399.204935 kJ/mol
# Density = 1.758763 g / cm^3
# Si number density = 17.627752 Si / 1000 Ang^3
#
#
#
# Elastic Constant Matrix: (Units=GPa)
#
#
# Indices 1 2 3 4 5 6 
#
# 1 122.1637 39.4279 52.2906 0.0000 -6.1406 0.0000
# 2 39.4279 46.4319 39.4279 0.0000 -2.8618 0.0000
# 3 52.2906 39.4279 122.1636 0.0000 -6.1406 0.0000
# 4 0.0000 0.0000 0.0000 9.5634 0.0000 6.6821
# 5 -6.1406 -2.8618 -6.1406 0.0000 13.4342 0.0000
# 6 0.0000 0.0000 0.0000 6.6821 0.0000 9.5634
#
#
#
# Elastic Compliance Matrix: (Units=1/GPa)
#
#
# Indices 1 2 3 4 5 6 
#
# 1 0.011899 -0.007892 -0.002413 0.000000 0.002655 0.000000
# 2 -0.007892 0.034954 -0.007892 0.000000 0.000232 0.000000
# 3 -0.002413 -0.007892 0.011899 0.000000 0.002655 0.000000
# 4 0.000000 0.000000 0.000000 0.204311 0.000000 -0.142756
# 5 0.002655 0.000232 0.002655 0.000000 0.076913 0.000000
# 6 0.000000 0.000000 0.000000 -0.142756 0.000000 0.204312
#
#
# Mechanical properties :
#
#
# Convention : Reuss Voigt Hill
#
# Bulk Modulus (GPa) = 44.72363 61.45021 53.08692
# Shear Modulus (GPa) = 8.50148 17.15306 12.82727
#
# Velocity S-wave (km/s) = 2.19847 3.12279 2.70047
# Velocity P-wave (km/s) = 5.64540 6.92373 6.31699
#
# Compressibility (1/GPa) = 0.02235955
#
# Stress axis : x y z
#
# Youngs Moduli (GPa) = 84.04129 28.60936 84.04120
#
# Poissons Ratio (x) = 0.22577 0.20277
# Poissons Ratio (y) = 0.66322 0.66322
# Poissons Ratio (z) = 0.20277 0.22577
#
# Static dielectric constant tensor:
#      x y z
#    x 3.423580 0.000000 -0.079150 
#    y 0.000000 2.987580 0.000000 
#    z -0.079150 0.000000 3.423590 
# 
# 
# High freq. dielectric constant tensor:
#      x y z
#    x 1.685230 0.000000 -0.003230 
#    y 0.000000 1.651130 0.000000 
#    z -0.003230 0.000000 1.685230 
# 
# From -- ./inp_files/66160.got.cif
#   From: 2010.06.25/outbox.cif.g09.slc.cpg/sg10_34_cif.got.tgz:66160.got - 2010.06.27 22:07:45.
