data_PCOD8065861
_publ_section_title
;
Structure prediction by ZEFSAII (Michael W. Deem and Ramdas Pophale) SiO2 
 PCOD8065861
Probable space group: P 2/M
;
_chemical_formula_sum "Si O2"
_cell_formula_units_Z 32
_cell_length_a 10.021405
_cell_length_b 14.104070
_cell_length_c 26.515973
_cell_angle_alpha 90.000000
_cell_angle_beta 152.856960
_cell_angle_gamma 90.000000
_cell_volume 1709.813598
_symmetry_space_group_name_H-M "P 2/M"
_symmetry_group_IT_number 10
_symmetry_cell_setting 'monoclinic'
loop_
_space_group_symop_operation_xyz
x,y,z
-x,y,-z
-x,-y,-z
x,-y,z
loop_
_atom_site_type_symbol
_atom_site_label
_atom_site_fract_x
_atom_site_fract_y
_atom_site_fract_z
Si Si1 0.897862 0.391380 0.081632
Si Si2 0.788910 0.609041 0.158092
Si Si3 0.261709 0.760735 0.785190
Si Si4 0.805837 0.107526 0.575700
Si Si5 0.588559 0.108926 0.975110
Si Si6 0.276272 0.887838 0.562834
Si Si7 0.277163 0.892806 0.205949
Si Si8 0.250067 0.738514 0.122816
O O1 0.971408 0.500000 0.095095
O O2 0.940350 0.368136 0.155249
O O3 0.121644 0.333818 0.121333
O O4 0.559060 0.370291 0.957032
O O5 0.851261 0.500000 0.193449
O O6 0.916239 0.681185 0.242650
O O7 0.454483 0.827457 0.886400
O O8 0.473029 0.703212 0.817096
O O9 0.030102 0.825793 0.679671
O O10 0.500000 0.106003 0.500000
O O11 0.741255 0.153228 0.499215
O O12 0.932998 0.000000 0.615684
O O13 0.487699 0.000000 0.933493
O O14 0.500000 0.147978 0.000000
O O15 0.933675 0.119615 0.092259
O O16 0.575245 0.857713 0.692083
O O17 0.000000 0.846592 0.500000
O O18 0.262227 0.000000 0.554112
O O19 0.386741 0.830298 0.196213
O O20 0.375862 0.000000 0.227858
O O21 0.000000 0.769394 0.000000
#
# Coordination Sequence:
#
# PCOD8065861 Si02
#       8
#     4   4   4   4   4   4   4   4
#     4   9  19  36  55  78 115 156 191 226 270 338
#     4   9  19  35  57  82 111 153 193 228 277 337
#     4  12  23  35  57  83 120 147 184 236 291 343
#     4  10  23  40  58  82 110 147 196 245 286 323
#     4  10  22  34  49  77 112 152 186 220 277 338
#     4   9  18  35  55  72  97 141 194 235 265 308
#     4  10  21  35  52  74 109 151 189 224 267 331
#     4  12  22  33  49  86 120 152 181 221 285 345
#
# _framework density 18.715491
#
# number of rings (size 3 to 8) (size 9 to 14) (size 15 to 20)
#    0.000    1.875    2.500    1.875    5.250    3.000 
#    0.000    0.000    0.000    0.375    0.000    0.875 
#    0.000    5.000    0.000    0.000    0.000    0.000 
#
# Total GULP energy -396578.985910 kJ/mol
# GULP energy per Si atom -12393.093310 kJ/mol
# Density = 1.867289 g / cm^3
# Si number density = 18.715491 Si / 1000 Ang^3
#
#
#
# Elastic Constant Matrix: (Units=GPa)
#
#
# Indices 1 2 3 4 5 6 
#
# 1 127.8005 54.6137 41.1623 0.0000 -22.7196 0.0000
# 2 54.6137 84.9207 47.8959 0.0000 -19.8636 0.0000
# 3 41.1623 47.8959 96.2888 0.0000 -25.6456 0.0000
# 4 0.0000 0.0000 0.0000 11.9629 0.0000 0.5528
# 5 -22.7196 -19.8636 -25.6456 0.0000 26.1288 0.0000
# 6 0.0000 0.0000 0.0000 0.5528 0.0000 33.4628
#
#
#
# Elastic Compliance Matrix: (Units=1/GPa)
#
#
# Indices 1 2 3 4 5 6 
#
# 1 0.011383 -0.005803 -0.000702 0.000000 0.004798 0.000000
# 2 -0.005803 0.020058 -0.006471 0.000000 0.003852 0.000000
# 3 -0.000702 -0.006471 0.016831 0.000000 0.010990 0.000000
# 4 0.000000 0.000000 0.000000 0.083656 0.000000 -0.001382
# 5 0.004798 0.003852 0.010990 0.000000 0.056159 0.000000
# 6 0.000000 0.000000 0.000000 -0.001382 0.000000 0.029907
#
#
# Mechanical properties :
#
#
# Convention : Reuss Voigt Hill
#
# Bulk Modulus (GPa) = 44.79910 66.26153 55.53032
# Shear Modulus (GPa) = 19.88970 25.33342 22.61156
#
# Velocity S-wave (km/s) = 3.26351 3.68313 3.47965
# Velocity P-wave (km/s) = 6.17977 7.31907 6.77341
#
# Compressibility (1/GPa) = 0.02232188
#
# Stress axis : x y z
#
# Youngs Moduli (GPa) = 87.84724 49.85543 59.41253
#
# Poissons Ratio (x) = 0.28929 0.04171
# Poissons Ratio (y) = 0.50974 0.38445
# Poissons Ratio (z) = 0.06168 0.32260
#
# Static dielectric constant tensor:
#      x y z
#    x 3.869260 0.000000 -0.225990 
#    y 0.000000 3.434480 0.000000 
#    z -0.225990 0.000000 3.346560 
# 
# 
# High freq. dielectric constant tensor:
#      x y z
#    x 1.746120 0.000000 -0.010810 
#    y 0.000000 1.706010 0.000000 
#    z -0.010810 0.000000 1.701050 
# 
# From -- ./inp_files/54000.got.cif
#   From: 2010.06.25/outbox.cif.g09.slc.cpg/sg10_27_cif.got.tgz:54000.got - 2010.06.27 22:07:45.
