data_PCOD8065901
_publ_section_title
;
Structure prediction by ZEFSAII (Michael W. Deem and Ramdas Pophale) SiO2 
 PCOD8065901
Probable space group: P 2/M
;
_chemical_formula_sum "Si O2"
_cell_formula_units_Z 28
_cell_length_a 13.923135
_cell_length_b 9.148721
_cell_length_c 19.076013
_cell_angle_alpha 90.000000
_cell_angle_beta 144.610200
_cell_angle_gamma 90.000000
_cell_volume 1407.231759
_symmetry_space_group_name_H-M "P 2/M"
_symmetry_group_IT_number 10
_symmetry_cell_setting 'monoclinic'
loop_
_space_group_symop_operation_xyz
x,y,z
-x,y,-z
-x,-y,-z
x,-y,z
loop_
_atom_site_type_symbol
_atom_site_label
_atom_site_fract_x
_atom_site_fract_y
_atom_site_fract_z
Si Si1 0.859876 0.829830 0.471267
Si Si2 0.719716 0.827304 0.946503
Si Si3 0.335372 0.333620 0.946331
Si Si4 0.968647 0.167520 0.282208
Si Si5 0.470467 0.670061 0.703105
Si Si6 0.911894 0.833116 0.798925
Si Si7 0.413831 0.668866 0.379293
O O1 0.693148 0.738526 0.359096
O O2 0.000000 0.777945 0.500000
O O3 0.919684 0.795453 0.584941
O O4 0.818669 0.000000 0.435617
O O5 0.641818 0.764956 0.971477
O O6 0.632975 0.750255 0.829390
O O7 0.688232 0.000000 0.925701
O O8 0.915623 0.790654 0.060679
O O9 0.295321 0.500000 0.944510
O O10 0.500000 0.323715 0.000000
O O11 0.189345 0.272791 0.810308
O O12 0.076420 0.197207 0.277121
O O13 0.905817 0.000000 0.246131
O O14 0.478024 0.500000 0.727522
O O15 0.468698 0.693895 0.618119
O O16 0.763830 0.739294 0.742503
O O17 0.868292 0.000000 0.788450
O O18 0.500000 0.738296 0.500000
O O19 0.379427 0.500000 0.372636
#
# Coordination Sequence:
#
# PCOD8065901 Si02
#       7
#     4   4   4   4   4   4   4
#     4  10  22  39  59  85 115 154 200 242 291 351
#     4  10  22  40  60  84 118 157 197 242 295 354
#     4  10  21  35  55  85 116 149 193 242 291 345
#     4   9  19  36  56  82 115 151 194 239 289 348
#     4  11  24  40  59  87 121 155 196 247 299 353
#     4   9  19  36  59  86 113 149 196 244 292 343
#     4  10  22  39  60  87 119 156 196 238 293 355
#
# _framework density 19.897219
#
# number of rings (size 3 to 8) (size 9 to 14) (size 15 to 20)
#    0.000    2.143    0.000    3.000    2.000    6.857 
#    0.000    2.857    0.000    0.000    0.000    0.000 
#    0.000    0.000    0.000    0.000    0.000    0.000 
#
# Total GULP energy -347288.681456 kJ/mol
# GULP energy per Si atom -12403.167195 kJ/mol
# Density = 1.985193 g / cm^3
# Si number density = 19.897219 Si / 1000 Ang^3
#
#
#
# Elastic Constant Matrix: (Units=GPa)
#
#
# Indices 1 2 3 4 5 6 
#
# 1 76.3869 44.5794 45.8877 0.0000 12.8656 0.0000
# 2 44.5794 94.1152 53.7175 0.0000 10.3458 0.0000
# 3 45.8877 53.7175 105.3851 0.0000 4.8071 0.0000
# 4 0.0000 0.0000 0.0000 -6.1750 0.0000 -3.6794
# 5 12.8656 10.3458 4.8071 0.0000 30.5985 0.0000
# 6 0.0000 0.0000 0.0000 -3.6794 0.0000 30.5173
#
#
#
# Elastic Compliance Matrix: (Units=1/GPa)
#
#
# Indices 1 2 3 4 5 6 
#
# 1 0.021116 -0.006003 -0.005864 0.000000 -0.005927 0.000000
# 2 -0.006003 0.017167 -0.006030 0.000000 -0.002333 0.000000
# 3 -0.005864 -0.006030 0.015018 0.000000 0.002145 0.000000
# 4 0.000000 0.000000 0.000000 -0.151088 0.000000 -0.018216
# 5 -0.005927 -0.002333 0.002145 0.000000 0.035625 0.000000
# 6 0.000000 0.000000 0.000000 -0.018216 0.000000 0.030572
#
#
# Mechanical properties :
#
#
# Convention : Reuss Voigt Hill
#
# Bulk Modulus (GPa) = 57.12243 62.69514 59.90879
# Shear Modulus (GPa) = 497.96926 19.76833 258.86879
#
# Velocity S-wave (km/s) = 15.83711 3.15544 11.41864
# Velocity P-wave (km/s) = 19.05754 6.69728 14.28362
#
# Compressibility (1/GPa) = 0.01750626
#
# Stress axis : x y z
#
# Youngs Moduli (GPa) = 47.35789 58.25108 66.58596
#
# Poissons Ratio (x) = 0.34970 0.39046
# Poissons Ratio (y) = 0.28431 0.40152
# Poissons Ratio (z) = 0.27771 0.35126
#
# Static dielectric constant tensor:
#      x y z
#    x 3.514500 0.000000 -0.108510 
#    y 0.000000 3.659580 0.000000 
#    z -0.108510 0.000000 3.704970 
# 
# 
# High freq. dielectric constant tensor:
#      x y z
#    x 1.772810 0.000000 -0.001270 
#    y 0.000000 1.776120 0.000000 
#    z -0.001270 0.000000 1.780200 
# 
# From -- ./inp_files/84958.got.cif
#   From: 2010.06.25/outbox.cif.g09.slc.cpg/sg10_43_cif.got.tgz:84958.got - 2010.06.27 22:07:45.
