data_PCOD8065075
_publ_section_title
;
Structure prediction by ZEFSAII (Michael W. Deem and Ramdas Pophale) SiO2 
 PCOD8065075
Probable space group: P 2/M
;
_chemical_formula_sum "Si O2"
_cell_formula_units_Z 32
_cell_length_a 26.417038
_cell_length_b 8.986474
_cell_length_c 15.272556
_cell_angle_alpha 90.000000
_cell_angle_beta 26.251930
_cell_angle_gamma 90.000000
_cell_volume 1603.690908
_symmetry_space_group_name_H-M "P 2/M"
_symmetry_group_IT_number 10
_symmetry_cell_setting 'monoclinic'
loop_
_space_group_symop_operation_xyz
x,y,z
-x,y,-z
-x,-y,-z
x,-y,z
loop_
_atom_site_type_symbol
_atom_site_label
_atom_site_fract_x
_atom_site_fract_y
_atom_site_fract_z
Si Si1 0.266079 0.171366 0.222396
Si Si2 0.615949 0.828609 0.785509
Si Si3 0.863099 0.323200 0.962793
Si Si4 0.659836 0.823936 0.525818
Si Si5 0.907198 0.175364 0.072719
Si Si6 0.564689 0.326453 0.170308
Si Si7 0.619003 0.673554 0.280558
Si Si8 0.969376 0.675400 0.451269
O O1 0.285536 0.190284 0.295765
O O2 0.150629 0.254845 0.384544
O O3 0.257114 0.000000 0.208808
O O4 0.371207 0.241614 0.006548
O O5 0.656267 0.761226 0.630792
O O6 0.587123 0.000000 0.811915
O O7 0.500000 0.749383 0.000000
O O8 0.863594 0.500000 0.971814
O O9 0.924696 0.252750 0.951702
O O10 0.732791 0.261402 0.151588
O O11 0.934748 0.273066 0.766429
O O12 0.782372 0.777863 0.299002
O O13 0.562929 0.739043 0.620846
O O14 0.640102 0.000000 0.549379
O O15 0.921039 0.000000 0.037976
O O16 0.000000 0.232355 0.000000
O O17 0.558278 0.500000 0.157585
O O18 0.631505 0.299218 0.157410
O O19 0.500000 0.747493 0.500000
O O20 0.614227 0.500000 0.309665
O O21 0.954163 0.500000 0.473843
O O22 0.000000 0.733614 0.500000
#
# Coordination Sequence:
#
# PCOD8065075 Si02
#       8
#     4   4   4   4   4   4   4   4
#     4  11  22  36  59  86 114 151 195 239 287 349
#     4   9  17  33  56  80 109 149 190 234 288 346
#     4  10  21  39  62  86 116 153 195 245 294 346
#     4  10  20  37  58  81 114 154 198 242 290 345
#     4  10  23  40  60  85 117 158 201 245 293 350
#     4  11  21  35  58  87 117 149 186 236 294 355
#     4   9  18  34  58  84 110 146 190 231 284 350
#     4  10  22  41  62  85 119 160 197 241 299 355
#
# _framework density 19.953970000000002
#
# number of rings (size 3 to 8) (size 9 to 14) (size 15 to 20)
#    0.000    2.000    1.250    2.250    1.750    4.500 
#    0.000    4.375    0.000    3.375    0.000    0.000 
#    0.000    0.000    0.000    0.000    0.000    0.000 
#
# Total GULP energy -396786.218931 kJ/mol
# GULP energy per Si atom -12399.569342 kJ/mol
# Density = 1.990855 g / cm^3
# Si number density = 19.953970 Si / 1000 Ang^3
#
#
#
# Elastic Constant Matrix: (Units=GPa)
#
#
# Indices 1 2 3 4 5 6 
#
# 1 137.9154 58.3384 64.3120 0.0000 -10.8830 0.0000
# 2 58.3384 109.6821 52.1268 0.0000 -17.7073 0.0000
# 3 64.3120 52.1268 123.4833 0.0000 -12.2294 0.0000
# 4 0.0000 0.0000 0.0000 28.9691 0.0000 -4.4853
# 5 -10.8830 -17.7073 -12.2294 0.0000 44.3669 0.0000
# 6 0.0000 0.0000 0.0000 -4.4853 0.0000 28.2747
#
#
#
# Elastic Compliance Matrix: (Units=1/GPa)
#
#
# Indices 1 2 3 4 5 6 
#
# 1 0.010715 -0.003810 -0.003971 0.000000 0.000013 0.000000
# 2 -0.003810 0.013255 -0.003269 0.000000 0.003455 0.000000
# 3 -0.003971 -0.003269 0.011638 0.000000 0.000929 0.000000
# 4 0.000000 0.000000 0.000000 0.035389 0.000000 0.005614
# 5 0.000013 0.003455 0.000929 0.000000 0.024178 0.000000
# 6 0.000000 0.000000 0.000000 0.005614 0.000000 0.036258
#
#
# Mechanical properties :
#
#
# Convention : Reuss Voigt Hill
#
# Bulk Modulus (GPa) = 74.02616 80.07059 77.04837
# Shear Modulus (GPa) = 31.63845 33.40905 32.52375
#
# Velocity S-wave (km/s) = 3.98624 4.09627 4.04163
# Velocity P-wave (km/s) = 7.63975 7.91121 7.77667
#
# Compressibility (1/GPa) = 0.01350874
#
# Stress axis : x y z
#
# Youngs Moduli (GPa) = 93.32530 75.44307 85.92212
#
# Poissons Ratio (x) = 0.28743 0.34120
# Poissons Ratio (y) = 0.35556 0.28088
# Poissons Ratio (z) = 0.37060 0.24663
#
# Static dielectric constant tensor:
#      x y z
#    x 3.727080 0.000000 -0.075470 
#    y 0.000000 3.292850 0.000000 
#    z -0.075470 0.000000 3.597400 
# 
# 
# High freq. dielectric constant tensor:
#      x y z
#    x 1.794170 0.000000 0.000750 
#    y 0.000000 1.743480 0.000000 
#    z 0.000750 0.000000 1.788570 
# 
# From -- ./inp_files/71555.got.cif
#   From: 2010.06.25/outbox.cif.g09.slc.cpg/sg10_36_cif.got.tgz:71555.got - 2010.06.27 22:07:45.
