data_PCOD8065906
_publ_section_title
;
Structure prediction by ZEFSAII (Michael W. Deem and Ramdas Pophale) SiO2 
 PCOD8065906
Probable space group: P 2/M
;
_chemical_formula_sum "Si O2"
_cell_formula_units_Z 32
_cell_length_a 20.949231
_cell_length_b 8.831318
_cell_length_c 26.306826
_cell_angle_alpha 90.000000
_cell_angle_beta 20.730550
_cell_angle_gamma 90.000000
_cell_volume 1722.792203
_symmetry_space_group_name_H-M "P 2/M"
_symmetry_group_IT_number 10
_symmetry_cell_setting 'monoclinic'
loop_
_space_group_symop_operation_xyz
x,y,z
-x,y,-z
-x,-y,-z
x,-y,z
loop_
_atom_site_type_symbol
_atom_site_label
_atom_site_fract_x
_atom_site_fract_y
_atom_site_fract_z
Si Si1 0.300250 0.679520 0.149212
Si Si2 0.803131 0.175136 0.140142
Si Si3 0.525808 0.179424 0.151517
Si Si4 0.512478 0.820312 0.277951
Si Si5 0.249904 0.677036 0.549077
Si Si6 0.497936 0.174851 0.443768
Si Si7 0.803960 0.320862 0.663503
Si Si8 0.160239 0.321255 0.146752
O O1 0.308199 0.500000 0.142351
O O2 0.204829 0.734680 0.271700
O O3 0.197207 0.738579 0.176303
O O4 0.500000 0.748842 0.000000
O O5 0.686005 0.243289 0.180406
O O6 0.695930 0.198947 0.272586
O O7 0.834176 0.000000 0.104663
O O8 0.000000 0.254276 0.000000
O O9 0.524418 0.234713 0.211077
O O10 0.349630 0.242987 0.255312
O O11 0.523008 0.000000 0.150114
O O12 0.708687 0.239494 0.990326
O O13 0.329839 0.757904 0.439567
O O14 0.504971 0.000000 0.288131
O O15 0.265015 0.500000 0.527753
O O16 0.354402 0.722538 0.521927
O O17 0.044199 0.725329 0.712398
O O18 0.500000 0.229912 0.500000
O O19 0.438303 0.000000 0.483364
O O20 0.776171 0.500000 0.678871
O O21 0.000000 0.267610 0.500000
O O22 0.194659 0.500000 0.116578
#
# Coordination Sequence:
#
# PCOD8065906 Si02
#       8
#     4   4   4   4   4   4   4   4
#     4   9  16  32  56  77 100 133 176 227 267 309
#     4   8  14  28  51  75  97 128 176 220 252 297
#     4  11  23  37  54  79 113 146 178 225 279 325
#     4   9  20  37  54  76 110 146 178 220 271 326
#     4  10  21  35  56  83 110 143 182 229 275 318
#     4   9  18  33  54  78 107 144 182 220 264 322
#     4  10  21  36  58  81 103 138 184 229 271 323
#     4  10  21  37  56  79 108 142 184 225 269 327
#
# _framework density 18.574497999999998
#
# number of rings (size 3 to 8) (size 9 to 14) (size 15 to 20)
#    0.000    2.500    1.250    1.500    1.750    3.500 
#    0.000    3.750    0.000    6.000    0.000    0.000 
#    0.000    0.000    0.000    0.000    0.000    0.000 
#
# Total GULP energy -396734.604172 kJ/mol
# GULP energy per Si atom -12397.956380 kJ/mol
# Density = 1.853222 g / cm^3
# Si number density = 18.574498 Si / 1000 Ang^3
#
#
#
# Elastic Constant Matrix: (Units=GPa)
#
#
# Indices 1 2 3 4 5 6 
#
# 1 138.5070 28.1789 80.6481 0.0000 21.6816 0.0000
# 2 28.1789 31.8042 35.3371 0.0000 1.4540 0.0000
# 3 80.6481 35.3371 163.5746 0.0000 3.5094 0.0000
# 4 0.0000 0.0000 0.0000 23.5559 0.0000 -1.4194
# 5 21.6816 1.4540 3.5094 0.0000 34.3077 0.0000
# 6 0.0000 0.0000 0.0000 -1.4194 0.0000 21.3556
#
#
#
# Elastic Compliance Matrix: (Units=1/GPa)
#
#
# Indices 1 2 3 4 5 6 
#
# 1 0.012095 -0.005183 -0.004695 0.000000 -0.006944 0.000000
# 2 -0.005183 0.043618 -0.006913 0.000000 0.002134 0.000000
# 3 -0.004695 -0.006913 0.009873 0.000000 0.002250 0.000000
# 4 0.000000 0.000000 0.000000 0.042623 0.000000 0.002833
# 5 -0.006944 0.002134 0.002250 0.000000 0.033216 0.000000
# 6 0.000000 0.000000 0.000000 0.002833 0.000000 0.047014
#
#
# Mechanical properties :
#
#
# Convention : Reuss Voigt Hill
#
# Bulk Modulus (GPa) = 31.24518 69.13488 50.19003
# Shear Modulus (GPa) = 21.48800 28.49198 24.98999
#
# Velocity S-wave (km/s) = 3.40495 3.92079 3.67194
# Velocity P-wave (km/s) = 5.68474 7.60249 6.71246
#
# Compressibility (1/GPa) = 0.03200494
#
# Stress axis : x y z
#
# Youngs Moduli (GPa) = 82.68122 22.92629 101.28396
#
# Poissons Ratio (x) = 0.11882 0.47548
# Poissons Ratio (y) = 0.42850 0.70022
# Poissons Ratio (z) = 0.38815 0.15850
#
# Static dielectric constant tensor:
#      x y z
#    x 3.666280 0.000000 0.012160 
#    y 0.000000 3.098370 0.000000 
#    z 0.012160 0.000000 3.592190 
# 
# 
# High freq. dielectric constant tensor:
#      x y z
#    x 1.729930 0.000000 0.002020 
#    y 0.000000 1.688720 0.000000 
#    z 0.002020 0.000000 1.730440 
# 
# From -- ./inp_files/93654.got.cif
#   From: 2010.06.25/outbox.cif.g09.slc.cpg/sg10_47_cif.got.tgz:93654.got - 2010.06.27 22:07:45.
