data_PCOD8065845
_publ_section_title
;
Structure prediction by ZEFSAII (Michael W. Deem and Ramdas Pophale) SiO2 
 PCOD8065845
Probable space group: P 2/M
;
_chemical_formula_sum "Si O2"
_cell_formula_units_Z 32
_cell_length_a 9.451821
_cell_length_b 14.235464
_cell_length_c 15.233610
_cell_angle_alpha 90.000000
_cell_angle_beta 60.114118
_cell_angle_gamma 90.000000
_cell_volume 1777.128535
_symmetry_space_group_name_H-M "P 2/M"
_symmetry_group_IT_number 10
_symmetry_cell_setting 'monoclinic'
loop_
_space_group_symop_operation_xyz
x,y,z
-x,y,-z
-x,-y,-z
x,-y,z
loop_
_atom_site_type_symbol
_atom_site_label
_atom_site_fract_x
_atom_site_fract_y
_atom_site_fract_z
Si Si1 0.519235 0.607936 0.851187
Si Si2 0.077784 0.894159 0.559104
Si Si3 0.463519 0.108828 0.108835
Si Si4 0.971211 0.243650 0.110129
Si Si5 0.912340 0.108786 0.781005
Si Si6 0.766600 0.607825 0.923947
Si Si7 0.455390 0.106177 0.418654
Si Si8 0.406042 0.769880 0.779520
O O1 0.537808 0.500000 0.815488
O O2 0.673317 0.638836 0.863517
O O3 0.507307 0.674290 0.769096
O O4 0.352969 0.622541 0.956966
O O5 0.264021 0.896368 0.478385
O O6 0.000000 0.839796 0.500000
O O7 0.027367 0.848050 0.667841
O O8 0.004927 0.000000 0.587000
O O9 0.274407 0.126753 0.189390
O O10 0.580412 0.163895 0.139253
O O11 0.510729 0.000000 0.101949
O O12 0.500000 0.146734 0.000000
O O13 0.779260 0.256487 0.186051
O O14 0.041836 0.156479 0.142040
O O15 0.066647 0.335965 0.113252
O O16 0.000000 0.222234 0.000000
O O17 0.947072 0.000000 0.787076
O O18 0.818006 0.500000 0.900219
O O19 0.500000 0.145622 0.500000
O O20 0.519094 0.177362 0.326541
O O21 0.525710 0.000000 0.381184
#
# Coordination Sequence:
#
# PCOD8065845 Si02
#       8
#     4   4   4   4   4   4   4   4
#     4   9  19  36  59  81 103 137 178 222 270 323
#     4   9  17  32  54  75  94 124 177 237 277 303
#     4  10  21  35  51  74 109 153 189 220 261 317
#     4  12  23  33  48  78 112 146 178 212 260 315
#     4  10  21  36  52  73 107 147 186 226 267 313
#     4   9  19  37  57  77 106 141 177 219 266 314
#     4  10  21  37  54  75 106 145 185 226 271 316
#     4  12  22  32  55  80 110 142 181 223 270 329
#
# _framework density 18.006575999999999
#
# number of rings (size 3 to 8) (size 9 to 14) (size 15 to 20)
#    0.000    1.875    1.250    4.125    1.750    5.000 
#    0.000    0.000    0.000    0.375    0.000    0.875 
#    0.000   10.000    0.000    0.000    0.000    0.000 
#
# Total GULP energy -396721.588741 kJ/mol
# GULP energy per Si atom -12397.549648 kJ/mol
# Density = 1.796559 g / cm^3
# Si number density = 18.006576 Si / 1000 Ang^3
#
#
#
# Elastic Constant Matrix: (Units=GPa)
#
#
# Indices 1 2 3 4 5 6 
#
# 1 110.3200 50.1921 38.1989 0.0000 7.0824 0.0000
# 2 50.1921 87.5948 49.3503 0.0000 12.5599 0.0000
# 3 38.1989 49.3503 99.2704 0.0000 5.7780 0.0000
# 4 0.0000 0.0000 0.0000 22.2853 0.0000 3.7152
# 5 7.0824 12.5599 5.7780 0.0000 27.6266 0.0000
# 6 0.0000 0.0000 0.0000 3.7152 0.0000 28.4839
#
#
#
# Elastic Compliance Matrix: (Units=1/GPa)
#
#
# Indices 1 2 3 4 5 6 
#
# 1 0.012472 -0.006166 -0.001732 0.000000 -0.000032 0.000000
# 2 -0.006166 0.019821 -0.007135 0.000000 -0.005938 0.000000
# 3 -0.001732 -0.007135 0.014246 0.000000 0.000708 0.000000
# 4 0.000000 0.000000 0.000000 0.045870 0.000000 -0.005983
# 5 -0.000032 -0.005938 0.000708 0.000000 0.038757 0.000000
# 6 0.000000 0.000000 0.000000 -0.005983 0.000000 0.035888
#
#
# Mechanical properties :
#
#
# Convention : Reuss Voigt Hill
#
# Bulk Modulus (GPa) = 60.70915 63.62975 62.16945
# Shear Modulus (GPa) = 24.67803 26.30876 25.49339
#
# Velocity S-wave (km/s) = 3.70604 3.82653 3.76677
# Velocity P-wave (km/s) = 7.21812 7.41194 7.31567
#
# Compressibility (1/GPa) = 0.01647198
#
# Stress axis : x y z
#
# Youngs Moduli (GPa) = 80.18242 50.45235 70.19611
#
# Poissons Ratio (x) = 0.31109 0.12157
# Poissons Ratio (y) = 0.49440 0.50086
# Poissons Ratio (z) = 0.13887 0.35999
#
# Static dielectric constant tensor:
#      x y z
#    x 3.482630 0.000000 0.067880 
#    y 0.000000 3.275470 0.000000 
#    z 0.067880 0.000000 3.295910 
# 
# 
# High freq. dielectric constant tensor:
#      x y z
#    x 1.713270 0.000000 0.005560 
#    y 0.000000 1.675830 0.000000 
#    z 0.005560 0.000000 1.680190 
# 
# From -- ./inp_files/29535.got.cif
#   From: 2010.06.25/outbox.cif.g09.slc.cpg/sg10_15_cif.got.tgz:29535.got - 2010.06.27 22:07:45.
