data_PCOD8065851
_publ_section_title
;
Structure prediction by ZEFSAII (Michael W. Deem and Ramdas Pophale) SiO2 
 PCOD8065851
Probable space group: P 2/M
;
_chemical_formula_sum "Si O2"
_cell_formula_units_Z 32
_cell_length_a 14.253120
_cell_length_b 8.941275
_cell_length_c 15.739580
_cell_angle_alpha 90.000000
_cell_angle_beta 62.940172
_cell_angle_gamma 90.000000
_cell_volume 1786.290363
_symmetry_space_group_name_H-M "P 2/M"
_symmetry_group_IT_number 10
_symmetry_cell_setting 'monoclinic'
loop_
_space_group_symop_operation_xyz
x,y,z
-x,y,-z
-x,-y,-z
x,-y,z
loop_
_atom_site_type_symbol
_atom_site_label
_atom_site_fract_x
_atom_site_fract_y
_atom_site_fract_z
Si Si1 0.795504 0.170468 0.906901
Si Si2 0.734061 0.826368 0.743543
Si Si3 0.945162 0.676234 0.609476
Si Si4 0.300525 0.675995 0.895674
Si Si5 0.021010 0.173816 0.743871
Si Si6 0.486906 0.824184 0.239252
Si Si7 0.554068 0.175461 0.395185
Si Si8 0.775049 0.177595 0.238709
O O1 0.735151 0.201116 0.843751
O O2 0.919169 0.202625 0.843852
O O3 0.776935 0.000000 0.944881
O O4 0.751330 0.285592 0.993138
O O5 0.826678 0.738052 0.658676
O O6 0.622867 0.767540 0.754106
O O7 0.751044 0.000000 0.715271
O O8 0.940091 0.500000 0.620034
O O9 0.000000 0.727803 0.500000
O O10 0.014327 0.738539 0.658472
O O11 0.304152 0.500000 0.881494
O O12 0.418788 0.739382 0.846389
O O13 0.227967 0.747667 0.852461
O O14 0.121590 0.232256 0.754526
O O15 0.031487 0.000000 0.716395
O O16 0.486283 0.785107 0.339619
O O17 0.504162 0.000000 0.216907
O O18 0.500000 0.252279 0.500000
O O19 0.673619 0.233178 0.334196
O O20 0.558475 0.000000 0.408102
O O21 0.773890 0.000000 0.225540
#
# Coordination Sequence:
#
# PCOD8065851 Si02
#       8
#     4   4   4   4   4   4   4   4
#     4   9  18  34  52  72  99 128 166 216 265 306
#     4   9  19  35  56  78  98 130 176 220 258 297
#     4  10  21  35  51  75 110 146 172 202 252 307
#     4  11  22  34  50  74 103 136 170 202 249 314
#     4   9  19  35  56  78  98 130 176 220 258 297
#     4   9  18  34  54  75 101 132 168 213 258 297
#     4   8  14  26  47  75 102 126 156 198 248 297
#     4   9  18  34  54  75 101 132 168 213 258 297
#
# _framework density 17.91422
#
# number of rings (size 3 to 8) (size 9 to 14) (size 15 to 20)
#    0.000    2.750    0.000    3.000    0.000    6.000 
#    0.000    7.500    0.000    6.000    0.000    0.000 
#    0.000    0.000    0.000    0.000    0.000    0.000 
#
# Total GULP energy -396814.021720 kJ/mol
# GULP energy per Si atom -12400.438179 kJ/mol
# Density = 1.787345 g / cm^3
# Si number density = 17.914220 Si / 1000 Ang^3
#
#
#
# Elastic Constant Matrix: (Units=GPa)
#
#
# Indices 1 2 3 4 5 6 
#
# 1 172.0996 43.2473 63.8908 0.0000 4.2550 0.0000
# 2 43.2473 61.0187 46.9344 0.0000 0.1386 0.0000
# 3 63.8908 46.9344 126.5578 0.0000 3.2247 0.0000
# 4 0.0000 0.0000 0.0000 23.2667 0.0000 -0.1738
# 5 4.2550 0.1386 3.2247 0.0000 11.9257 0.0000
# 6 0.0000 0.0000 0.0000 -0.1738 0.0000 14.2896
#
#
#
# Elastic Compliance Matrix: (Units=1/GPa)
#
#
# Indices 1 2 3 4 5 6 
#
# 1 0.007677 -0.003491 -0.002530 0.000000 -0.002014 0.000000
# 2 -0.003491 0.024566 -0.007424 0.000000 0.002967 0.000000
# 3 -0.002530 -0.007424 0.011989 0.000000 -0.002253 0.000000
# 4 0.000000 0.000000 0.000000 0.042984 0.000000 0.000523
# 5 -0.002014 0.002967 -0.002253 0.000000 0.085146 0.000000
# 6 0.000000 0.000000 0.000000 0.000523 0.000000 0.069987
#
#
# Mechanical properties :
#
#
# Convention : Reuss Voigt Hill
#
# Bulk Modulus (GPa) = 57.65784 74.20235 65.93010
# Shear Modulus (GPa) = 18.18065 23.60332 20.89199
#
# Velocity S-wave (km/s) = 3.18916 3.63378 3.41871
# Velocity P-wave (km/s) = 6.76878 7.68873 7.24338
#
# Compressibility (1/GPa) = 0.01734369
#
# Stress axis : x y z
#
# Youngs Moduli (GPa) = 130.26521 40.70687 83.40886
#
# Poissons Ratio (x) = 0.14209 0.21099
# Poissons Ratio (y) = 0.45470 0.61921
# Poissons Ratio (z) = 0.32952 0.30220
#
# Static dielectric constant tensor:
#      x y z
#    x 3.549650 0.000000 -0.016890 
#    y 0.000000 3.067990 0.000000 
#    z -0.016890 0.000000 3.361450 
# 
# 
# High freq. dielectric constant tensor:
#      x y z
#    x 1.699660 0.000000 0.000340 
#    y 0.000000 1.671540 0.000000 
#    z 0.000340 0.000000 1.694700 
# 
# From -- ./inp_files/66558.got.cif
#   From: 2010.06.25/outbox.cif.g09.slc.cpg/sg10_34_cif.got.tgz:66558.got - 2010.06.27 22:07:45.
