data_PCOD8065643
_publ_section_title
;
Structure prediction by ZEFSAII (Michael W. Deem and Ramdas Pophale) SiO2 
 PCOD8065643
Probable space group: P 2/M
;
_chemical_formula_sum "Si O2"
_cell_formula_units_Z 32
_cell_length_a 12.305815
_cell_length_b 9.057129
_cell_length_c 15.092241
_cell_angle_alpha 90.000000
_cell_angle_beta 86.684979
_cell_angle_gamma 90.000000
_cell_volume 1679.296370
_symmetry_space_group_name_H-M "P 2/M"
_symmetry_group_IT_number 10
_symmetry_cell_setting 'monoclinic'
loop_
_space_group_symop_operation_xyz
x,y,z
-x,y,-z
-x,-y,-z
x,-y,z
loop_
_atom_site_type_symbol
_atom_site_label
_atom_site_fract_x
_atom_site_fract_y
_atom_site_fract_z
Si Si1 0.596128 0.675402 0.431537
Si Si2 0.553778 0.827156 0.904658
Si Si3 0.241503 0.327001 0.052270
Si Si4 0.033220 0.324816 0.364376
Si Si5 0.396381 0.170496 0.752439
Si Si6 0.194699 0.172263 0.876795
Si Si7 0.024242 0.326952 0.166957
Si Si8 0.171457 0.324437 0.517978
O O1 0.500000 0.731512 0.500000
O O2 0.598779 0.500000 0.426993
O O3 0.575032 0.733551 0.334192
O O4 0.709903 0.740394 0.464369
O O5 0.665366 0.736221 0.887629
O O6 0.475925 0.781073 0.827893
O O7 0.580179 0.000000 0.902235
O O8 0.500000 0.780510 0.000000
O O9 0.257934 0.500000 0.038225
O O10 0.125350 0.290634 0.100267
O O11 0.251660 0.246573 0.958088
O O12 0.033620 0.500000 0.367201
O O13 0.051208 0.267213 0.264137
O O14 0.131302 0.267665 0.423051
O O15 0.916272 0.268142 0.405492
O O16 0.272082 0.200152 0.788523
O O17 0.413546 0.000000 0.727598
O O18 0.077825 0.241714 0.866733
O O19 0.182544 0.000000 0.897555
O O20 0.996187 0.500000 0.169301
O O21 0.177282 0.500000 0.518493
#
# Coordination Sequence:
#
# PCOD8065643 Si02
#       8
#     4   4   4   4   4   4   4   4
#     4  10  21  35  54  83 115 144 180 229 281 337
#     4  10  20  40  62  79 108 148 194 240 281 336
#     4  11  23  36  54  83 115 146 184 234 290 341
#     4   8  14  27  49  73 100 137 176 215 263 322
#     4  10  22  39  60  83 108 147 193 237 286 335
#     4  11  22  38  58  79 108 149 194 233 277 338
#     4  10  21  35  52  81 117 146 178 229 286 336
#     4   8  14  27  49  75 101 135 177 215 261 320
#
# _framework density 19.055599000000001
#
# number of rings (size 3 to 8) (size 9 to 14) (size 15 to 20)
#    0.000    2.250    1.250    2.625    0.000    6.500 
#    0.000    2.500    0.000    0.750    0.000    3.500 
#    0.000    0.000    0.000    0.000    0.000    0.000 
#
# Total GULP energy -396808.663412 kJ/mol
# GULP energy per Si atom -12400.270732 kJ/mol
# Density = 1.901223 g / cm^3
# Si number density = 19.055599 Si / 1000 Ang^3
#
#
#
# Elastic Constant Matrix: (Units=GPa)
#
#
# Indices 1 2 3 4 5 6 
#
# 1 135.5116 47.2706 58.6023 0.0000 10.4434 0.0000
# 2 47.2706 43.4263 27.7722 0.0000 -3.3058 0.0000
# 3 58.6023 27.7722 103.8864 0.0000 3.2513 0.0000
# 4 0.0000 0.0000 0.0000 23.6207 0.0000 3.3470
# 5 10.4434 -3.3058 3.2513 0.0000 27.9653 0.0000
# 6 0.0000 0.0000 0.0000 3.3470 0.0000 21.1164
#
#
#
# Elastic Compliance Matrix: (Units=1/GPa)
#
#
# Indices 1 2 3 4 5 6 
#
# 1 0.014449 -0.013435 -0.004356 0.000000 -0.006478 0.000000
# 2 -0.013435 0.040760 -0.003639 0.000000 0.010259 0.000000
# 3 -0.004356 -0.003639 0.013066 0.000000 -0.000322 0.000000
# 4 0.000000 0.000000 0.000000 0.043308 0.000000 -0.006865
# 5 -0.006478 0.010259 -0.000322 0.000000 0.039428 0.000000
# 6 0.000000 0.000000 0.000000 -0.006865 0.000000 0.048445
#
#
# Mechanical properties :
#
#
# Convention : Reuss Voigt Hill
#
# Bulk Modulus (GPa) = 39.34730 61.12383 50.23556
# Shear Modulus (GPa) = 19.93707 24.48577 22.21142
#
# Velocity S-wave (km/s) = 3.23810 3.58853 3.41781
# Velocity P-wave (km/s) = 5.88845 7.02255 6.48036
#
# Compressibility (1/GPa) = 0.02541471
#
# Stress axis : x y z
#
# Youngs Moduli (GPa) = 69.20765 24.53366 76.53369
#
# Poissons Ratio (x) = 0.32962 0.33341
# Poissons Ratio (y) = 0.92984 0.27848
# Poissons Ratio (z) = 0.30149 0.08927
#
# Static dielectric constant tensor:
#      x y z
#    x 3.675480 0.000000 0.122200 
#    y 0.000000 3.136650 0.000000 
#    z 0.122200 0.000000 3.712960 
# 
# 
# High freq. dielectric constant tensor:
#      x y z
#    x 1.751270 0.000000 0.006970 
#    y 0.000000 1.708380 0.000000 
#    z 0.006970 0.000000 1.745600 
# 
# From -- ./inp_files/63817.got.cif
#   From: 2010.06.25/outbox.cif.g09.slc.cpg/sg10_32_cif.got.tgz:63817.got - 2010.06.27 22:07:45.
