data_PCOD8065911
_publ_section_title
;
Structure prediction by ZEFSAII (Michael W. Deem and Ramdas Pophale) SiO2 
 PCOD8065911
Probable space group: P 2/M
;
_chemical_formula_sum "Si O2"
_cell_formula_units_Z 28
_cell_length_a 18.564213
_cell_length_b 8.866148
_cell_length_c 16.875396
_cell_angle_alpha 90.000000
_cell_angle_beta 148.596151
_cell_angle_gamma 90.000000
_cell_volume 1447.301582
_symmetry_space_group_name_H-M "P 2/M"
_symmetry_group_IT_number 10
_symmetry_cell_setting 'monoclinic'
loop_
_space_group_symop_operation_xyz
x,y,z
-x,y,-z
-x,-y,-z
x,-y,z
loop_
_atom_site_type_symbol
_atom_site_label
_atom_site_fract_x
_atom_site_fract_y
_atom_site_fract_z
Si Si1 0.879037 0.173446 0.949468
Si Si2 0.728306 0.678244 0.079685
Si Si3 0.257928 0.175426 0.447170
Si Si4 0.553194 0.826487 0.227476
Si Si5 0.026217 0.322036 0.802669
Si Si6 0.654312 0.666107 0.176816
Si Si7 0.339482 0.324760 0.360736
O O1 0.736178 0.230302 0.778317
O O2 0.862988 0.000000 0.960984
O O3 0.913334 0.277075 0.055902
O O4 0.000000 0.193172 0.000000
O O5 0.707230 0.500000 0.057831
O O6 0.865212 0.728958 0.162467
O O7 0.742782 0.731775 0.185449
O O8 0.593886 0.744997 0.910423
O O9 0.377986 0.203292 0.623236
O O10 0.292272 0.270311 0.402095
O O11 0.114022 0.233400 0.348128
O O12 0.243492 0.000000 0.410801
O O13 0.659150 0.770660 0.258672
O O14 0.525410 0.000000 0.185338
O O15 0.998941 0.500000 0.775347
O O16 0.708454 0.500000 0.252214
O O17 0.500000 0.654640 0.000000
O O18 0.500000 0.293754 0.500000
O O19 0.301419 0.500000 0.316327
#
# Coordination Sequence:
#
# PCOD8065911 Si02
#       7
#     4   4   4   4   4   4   4
#     4  11  23  40  62  86 115 153 189 228 284 343
#     4   9  20  37  58  86 115 145 188 236 282 334
#     4  11  24  41  57  82 118 154 189 230 286 345
#     4  10  21  35  56  86 116 149 189 231 280 338
#     4  11  23  39  61  86 113 149 194 240 281 332
#     4   8  15  32  56  81 112 148 185 230 281 332
#     4  11  25  42  62  88 114 146 192 240 281 330
#
# _framework density 19.346347999999999
#
# number of rings (size 3 to 8) (size 9 to 14) (size 15 to 20)
#    0.000    1.857    1.429    3.000    2.000    7.714 
#    0.000    0.714    0.000    4.286    0.000    0.000 
#    0.000    0.000    0.000    0.000    0.000    0.000 
#
# Total GULP energy -347235.640012 kJ/mol
# GULP energy per Si atom -12401.272858 kJ/mol
# Density = 1.930231 g / cm^3
# Si number density = 19.346348 Si / 1000 Ang^3
#
#
#
# Elastic Constant Matrix: (Units=GPa)
#
#
# Indices 1 2 3 4 5 6 
#
# 1 87.7131 15.9121 8.3368 0.0000 20.2630 0.0000
# 2 15.9121 42.4086 22.3012 0.0000 10.7466 0.0000
# 3 8.3368 22.3012 50.5299 0.0000 15.8627 0.0000
# 4 0.0000 0.0000 0.0000 -68.8804 0.0000 37.9216
# 5 20.2630 10.7466 15.8627 0.0000 24.7532 0.0000
# 6 0.0000 0.0000 0.0000 37.9216 0.0000 -0.6106
#
#
#
# Elastic Compliance Matrix: (Units=1/GPa)
#
#
# Indices 1 2 3 4 5 6 
#
# 1 0.014682 -0.004097 0.003255 0.000000 -0.012326 0.000000
# 2 -0.004097 0.032534 -0.012896 0.000000 -0.002506 0.000000
# 3 0.003255 -0.012896 0.030074 0.000000 -0.016339 0.000000
# 4 0.000000 0.000000 0.000000 0.000437 0.000000 0.027165
# 5 -0.012326 -0.002506 -0.016339 0.000000 0.062047 0.000000
# 6 0.000000 0.000000 0.000000 0.027165 0.000000 0.049342
#
#
# Mechanical properties :
#
#
# Convention : Reuss Voigt Hill
#
# Bulk Modulus (GPa) = 20.07443 30.41686 25.24564
# Shear Modulus (GPa) = 21.44109 -0.00744 10.71683
#
# Velocity S-wave (km/s) = 3.33269 -0.06208 2.35616
# Velocity P-wave (km/s) = 5.02075 3.96879 4.52544
#
# Compressibility (1/GPa) = 0.04981463
#
# Stress axis : x y z
#
# Youngs Moduli (GPa) = 68.10969 30.73695 33.25149
#
# Poissons Ratio (x) = 0.12594 -0.10825
# Poissons Ratio (y) = 0.27907 0.42881
# Poissons Ratio (z) = -0.22173 0.39638
#
# Static dielectric constant tensor:
#      x y z
#    x 4.096040 0.000000 -0.016830 
#    y 0.000000 3.620680 0.000000 
#    z -0.016830 0.000000 3.448200 
# 
# 
# High freq. dielectric constant tensor:
#      x y z
#    x 1.763530 0.000000 -0.003720 
#    y 0.000000 1.759380 0.000000 
#    z -0.003720 0.000000 1.740390 
# 
# From -- ./inp_files/79305.got.cif
#   From: 2010.06.25/outbox.cif.g09.slc.cpg/sg10_40_cif.got.tgz:79305.got - 2010.06.27 22:07:45.
