data_PCOD8065818
_publ_section_title
;
Structure prediction by ZEFSAII (Michael W. Deem and Ramdas Pophale) SiO2 
 PCOD8065818
Probable space group: P 2/M
;
_chemical_formula_sum "Si O2"
_cell_formula_units_Z 28
_cell_length_a 29.610981
_cell_length_b 8.937730
_cell_length_c 9.341360
_cell_angle_alpha 90.000000
_cell_angle_beta 37.820190
_cell_angle_gamma 90.000000
_cell_volume 1515.939881
_symmetry_space_group_name_H-M "P 2/M"
_symmetry_group_IT_number 10
_symmetry_cell_setting 'monoclinic'
loop_
_space_group_symop_operation_xyz
x,y,z
-x,y,-z
-x,-y,-z
x,-y,z
loop_
_atom_site_type_symbol
_atom_site_label
_atom_site_fract_x
_atom_site_fract_y
_atom_site_fract_z
Si Si1 0.937330 0.826250 0.547543
Si Si2 0.773579 0.826257 0.970566
Si Si3 0.640132 0.821845 0.809946
Si Si4 0.499166 0.178257 0.664394
Si Si5 0.069447 0.675807 0.734171
Si Si6 0.219083 0.822108 0.369269
Si Si7 0.640025 0.821366 0.487462
O O1 0.856639 0.797611 0.819371
O O2 0.946969 0.724985 0.385562
O O3 0.000000 0.775930 0.500000
O O4 0.945200 0.000000 0.484036
O O5 0.764691 0.761771 0.832048
O O6 0.755045 0.000000 0.008837
O O7 0.714143 0.754771 0.228019
O O8 0.716202 0.765463 0.689283
O O9 0.634619 0.758307 0.662483
O O10 0.637630 0.000000 0.815505
O O11 0.572465 0.759461 0.073575
O O12 0.500000 0.240721 0.500000
O O13 0.570850 0.236867 0.568952
O O14 0.498112 0.000000 0.664253
O O15 0.081593 0.500000 0.710271
O O16 0.142157 0.754188 0.616478
O O17 0.000000 0.728452 0.000000
O O18 0.211481 0.000000 0.389116
O O19 0.641095 0.000000 0.490357
#
# Coordination Sequence:
#
# PCOD8065818 Si02
#       7
#     4   4   4   4   4   4   4
#     4   9  18  32  51  74  98 125 160 201 243 288
#     4   8  14  25  39  57  83 114 147 184 227 274
#     4   9  16  24  36  58  86 116 151 190 230 271
#     4   9  15  22  33  51  82 124 157 180 219 276
#     4  10  21  35  50  70  97 128 161 197 238 286
#     4   9  17  30  47  65  88 119 155 194 235 280
#     4   9  15  22  34  55  86 119 149 186 230 275
#
# _framework density 18.470389000000001
#
# number of rings (size 3 to 8) (size 9 to 14) (size 15 to 20)
#    0.000    3.000    0.000    2.571    0.000    7.714 
#    0.000    2.857    0.000    0.000    0.000    0.000 
#    0.000   16.571    0.000    0.000    0.000    1.714 
#
# Total GULP energy -347099.025701 kJ/mol
# GULP energy per Si atom -12396.393775 kJ/mol
# Density = 1.842835 g / cm^3
# Si number density = 18.470389 Si / 1000 Ang^3
#
#
#
# Elastic Constant Matrix: (Units=GPa)
#
#
# Indices 1 2 3 4 5 6 
#
# 1 174.3718 10.4427 92.4466 0.0000 -13.3535 0.0000
# 2 10.4427 11.7859 20.3398 0.0000 -4.2294 0.0000
# 3 92.4466 20.3398 181.9230 0.0000 -10.5510 0.0000
# 4 0.0000 0.0000 0.0000 10.9194 0.0000 2.2704
# 5 -13.3535 -4.2294 -10.5510 0.0000 30.9882 0.0000
# 6 0.0000 0.0000 0.0000 2.2704 0.0000 5.6425
#
#
#
# Elastic Compliance Matrix: (Units=1/GPa)
#
#
# Indices 1 2 3 4 5 6 
#
# 1 0.007985 0.000603 -0.004000 0.000000 0.002161 0.000000
# 2 0.000603 0.108674 -0.011815 0.000000 0.011069 0.000000
# 3 -0.004000 -0.011815 0.008831 0.000000 -0.000329 0.000000
# 4 0.000000 0.000000 0.000000 0.099942 0.000000 -0.040213
# 5 0.002161 0.011069 -0.000329 0.000000 0.034600 0.000000
# 6 0.000000 0.000000 0.000000 -0.040213 0.000000 0.193406
#
#
# Mechanical properties :
#
#
# Convention : Reuss Voigt Hill
#
# Bulk Modulus (GPa) = 10.51881 68.28211 39.40046
# Shear Modulus (GPa) = 9.69838 25.83346 17.76592
#
# Velocity S-wave (km/s) = 2.29394 3.74390 3.10475
# Velocity P-wave (km/s) = 3.56701 7.46577 5.85070
#
# Compressibility (1/GPa) = 0.09506778
#
# Stress axis : x y z
#
# Youngs Moduli (GPa) = 125.23869 9.20182 113.23519
#
# Poissons Ratio (x) = -0.00555 0.45290
# Poissons Ratio (y) = -0.07557 1.33786
# Poissons Ratio (z) = 0.50091 0.10872
#
# Static dielectric constant tensor:
#      x y z
#    x 3.564430 0.000000 -0.061800 
#    y 0.000000 2.697470 0.000000 
#    z -0.061800 0.000000 3.689160 
# 
# 
# High freq. dielectric constant tensor:
#      x y z
#    x 1.725250 0.000000 -0.008990 
#    y 0.000000 1.642660 0.000000 
#    z -0.008990 0.000000 1.728940 
# 
# From -- ./inp_files/37903.got.cif
#   From: 2010.06.25/outbox.cif.g09.slc.cpg/sg10_19_cif.got.tgz:37903.got - 2010.06.27 22:07:45.
