data_PCOD8065658
_publ_section_title
;
Structure prediction by ZEFSAII (Michael W. Deem and Ramdas Pophale) SiO2 
 PCOD8065658
Probable space group: P 2/M
;
_chemical_formula_sum "Si O2"
_cell_formula_units_Z 28
_cell_length_a 29.927071
_cell_length_b 7.878481
_cell_length_c 9.153939
_cell_angle_alpha 90.000000
_cell_angle_beta 40.543490
_cell_angle_gamma 90.000000
_cell_volume 1402.958448
_symmetry_space_group_name_H-M "P 2/M"
_symmetry_group_IT_number 10
_symmetry_cell_setting 'monoclinic'
loop_
_space_group_symop_operation_xyz
x,y,z
-x,y,-z
-x,-y,-z
x,-y,z
loop_
_atom_site_type_symbol
_atom_site_label
_atom_site_fract_x
_atom_site_fract_y
_atom_site_fract_z
Si Si1 0.332745 0.689623 0.497948
Si Si2 0.799196 0.191400 0.328269
Si Si3 0.199622 0.308826 0.357839
Si Si4 0.428001 0.000000 0.600120
Si Si5 0.075094 0.807666 0.486378
Si Si6 0.572189 0.000000 0.742215
Si Si7 0.925132 0.305299 0.832374
Si Si8 0.329862 0.304572 0.843102
O O1 0.364243 0.500000 0.399100
O O2 0.264102 0.698903 0.573043
O O3 0.312413 0.721018 0.716406
O O4 0.387026 0.830720 0.309750
O O5 0.801621 0.190768 0.497355
O O6 0.790004 0.000000 0.295176
O O7 0.870122 0.267091 0.093365
O O8 0.210241 0.500000 0.386284
O O9 0.129558 0.300942 0.441043
O O10 0.261885 0.252586 0.099144
O O11 0.500000 0.000000 0.500000
O O12 0.441193 0.000000 0.395764
O O13 0.388671 0.172229 0.745515
O O14 0.090102 0.800434 0.276010
O O15 0.999532 0.739329 0.712574
O O16 0.081605 0.000000 0.522897
O O17 0.500000 0.000000 0.000000
O O18 0.922898 0.500000 0.791158
O O19 0.352825 0.500000 0.818064
#
# Coordination Sequence:
#
# PCOD8065658 Si02
#       8
#     4   4   4   2   4   2   4   4
#     4  10  20  40  64  89 118 159 202 245 292 350
#     4  12  24  38  58  88 120 154 196 250 302 355
#     4  11  23  39  58  86 118 155 195 243 301 358
#     4  10  22  38  62  90 121 158 193 236 290 347
#     4  11  22  38  60  86 114 152 199 250 298 354
#     4  10  22  40  60  92 125 156 197 240 288 349
#     4  11  22  39  60  83 114 156 200 247 296 358
#     4   9  21  39  63  88 118 155 202 244 286 348
#
# _framework density 19.957825
#
# number of rings (size 3 to 8) (size 9 to 14) (size 15 to 20)
#    0.000    1.429    0.714    6.000    2.000    3.429 
#    0.000    2.857    0.000    0.000    0.000    0.000 
#    0.000    0.000    0.000    0.000    0.000    0.000 
#
# Total GULP energy -347324.834623 kJ/mol
# GULP energy per Si atom -12404.458379 kJ/mol
# Density = 1.991240 g / cm^3
# Si number density = 19.957825 Si / 1000 Ang^3
#
#
#
# Elastic Constant Matrix: (Units=GPa)
#
#
# Indices 1 2 3 4 5 6 
#
# 1 113.0887 30.7247 54.1804 0.0000 -21.9177 0.0000
# 2 30.7247 119.1098 50.2626 0.0000 -12.9052 0.0000
# 3 54.1804 50.2626 142.9511 0.0000 -15.6654 0.0000
# 4 0.0000 0.0000 0.0000 27.1381 0.0000 -2.2952
# 5 -21.9177 -12.9052 -15.6654 0.0000 24.1011 0.0000
# 6 0.0000 0.0000 0.0000 -2.2952 0.0000 28.0867
#
#
#
# Elastic Compliance Matrix: (Units=1/GPa)
#
#
# Indices 1 2 3 4 5 6 
#
# 1 0.012387 -0.000800 -0.003473 0.000000 0.008578 0.000000
# 2 -0.000800 0.010153 -0.002962 0.000000 0.002784 0.000000
# 3 -0.003473 -0.002962 0.009511 0.000000 0.001437 0.000000
# 4 0.000000 0.000000 0.000000 0.037105 0.000000 0.003032
# 5 0.008578 0.002784 0.001437 0.000000 0.051718 0.000000
# 6 0.000000 0.000000 0.000000 0.003032 0.000000 0.035852
#
#
# Mechanical properties :
#
#
# Convention : Reuss Voigt Hill
#
# Bulk Modulus (GPa) = 56.88067 71.72056 64.30061
# Shear Modulus (GPa) = 28.23965 31.86398 30.05182
#
# Velocity S-wave (km/s) = 3.76568 4.00004 3.88463
# Velocity P-wave (km/s) = 6.88981 7.57284 7.23938
#
# Compressibility (1/GPa) = 0.01758067
#
# Stress axis : x y z
#
# Youngs Moduli (GPa) = 80.73226 98.48885 105.14471
#
# Poissons Ratio (x) = 0.07879 0.36520
# Poissons Ratio (y) = 0.06459 0.31141
# Poissons Ratio (z) = 0.28041 0.29169
#
# Static dielectric constant tensor:
#      x y z
#    x 3.393990 0.000000 -0.031840 
#    y 0.000000 3.819950 0.000000 
#    z -0.031840 0.000000 3.540220 
# 
# 
# High freq. dielectric constant tensor:
#      x y z
#    x 1.768600 0.000000 -0.001660 
#    y 0.000000 1.798560 0.000000 
#    z -0.001660 0.000000 1.772260 
# 
# From -- ./inp_files/37167.got.cif
#   From: 2010.06.25/outbox.cif.g09.slc.cpg/sg10_19_cif.got.tgz:37167.got - 2010.06.27 22:07:45.
