data_PCOD8065760
_publ_section_title
;
Structure prediction by ZEFSAII (Michael W. Deem and Ramdas Pophale) SiO2 
 PCOD8065760
Probable space group: P 2/M
;
_chemical_formula_sum "Si O2"
_cell_formula_units_Z 32
_cell_length_a 11.353447
_cell_length_b 9.061558
_cell_length_c 20.512422
_cell_angle_alpha 90.000000
_cell_angle_beta 126.767280
_cell_angle_gamma 90.000000
_cell_volume 1690.518100
_symmetry_space_group_name_H-M "P 2/M"
_symmetry_group_IT_number 10
_symmetry_cell_setting 'monoclinic'
loop_
_space_group_symop_operation_xyz
x,y,z
-x,y,-z
-x,-y,-z
x,-y,z
loop_
_atom_site_type_symbol
_atom_site_label
_atom_site_fract_x
_atom_site_fract_y
_atom_site_fract_z
Si Si1 0.839001 0.169958 0.759026
Si Si2 0.865939 0.171353 0.917690
Si Si3 0.057225 0.325341 0.617719
Si Si4 0.546857 0.824332 0.828619
Si Si5 0.901504 0.675074 0.223335
Si Si6 0.773609 0.674384 0.452121
Si Si7 0.388386 0.175066 0.905750
Si Si8 0.492085 0.173777 0.329407
O O1 0.891067 0.193471 0.849861
O O2 0.668237 0.217788 0.696022
O O3 0.938885 0.275305 0.748440
O O4 0.860019 0.000000 0.744719
O O5 0.711861 0.240812 0.890695
O O6 0.861908 0.000000 0.934724
O O7 0.000000 0.250368 0.000000
O O8 0.057511 0.500000 0.616122
O O9 0.109012 0.267923 0.705340
O O10 0.167785 0.267628 0.598723
O O11 0.890116 0.274060 0.545831
O O12 0.450378 0.766557 0.856949
O O13 0.486416 0.771288 0.738433
O O14 0.553991 0.000000 0.831585
O O15 0.888064 0.500000 0.213227
O O16 0.770863 0.749553 0.137938
O O17 0.752390 0.500000 0.445291
O O18 0.616461 0.749072 0.414518
O O19 0.366663 0.000000 0.899969
O O20 0.500000 0.224377 0.000000
O O21 0.511722 0.000000 0.339930
#
# Coordination Sequence:
#
# PCOD8065760 Si02
#       8
#     4   4   4   4   4   4   4   4
#     4   9  19  34  51  73 100 134 172 208 250 301
#     4   8  14  25  48  74  93 119 162 212 247 279
#     4   8  17  33  52  77 103 133 169 206 251 301
#     4   8  15  28  45  71 101 126 157 200 249 295
#     4  11  22  36  53  72 103 138 168 205 254 304
#     4   9  16  31  56  78  99 128 170 213 247 297
#     4  10  21  34  52  77 102 131 168 207 246 300
#     4   9  17  31  50  75 105 131 161 209 260 299
#
# _framework density 18.929107999999999
#
# number of rings (size 3 to 8) (size 9 to 14) (size 15 to 20)
#    0.000    3.000    0.000    3.375    1.750    0.750 
#    0.000    3.750    0.000    4.875    0.000    0.000 
#    0.000    0.000    0.000    0.000    0.000    0.000 
#
# Total GULP energy -396609.688664 kJ/mol
# GULP energy per Si atom -12394.052771 kJ/mol
# Density = 1.888603 g / cm^3
# Si number density = 18.929108 Si / 1000 Ang^3
#
#
#
# Elastic Constant Matrix: (Units=GPa)
#
#
# Indices 1 2 3 4 5 6 
#
# 1 82.0103 28.3216 37.7002 0.0000 14.9084 0.0000
# 2 28.3216 34.1699 30.0647 0.0000 7.2935 0.0000
# 3 37.7002 30.0647 105.9911 0.0000 28.2100 0.0000
# 4 0.0000 0.0000 0.0000 22.7604 0.0000 4.6962
# 5 14.9084 7.2935 28.2100 0.0000 29.0305 0.0000
# 6 0.0000 0.0000 0.0000 4.6962 0.0000 20.6996
#
#
#
# Elastic Compliance Matrix: (Units=1/GPa)
#
#
# Indices 1 2 3 4 5 6 
#
# 1 0.018134 -0.012591 -0.001675 0.000000 -0.004521 0.000000
# 2 -0.012591 0.047777 -0.010251 0.000000 0.004424 0.000000
# 3 -0.001675 -0.010251 0.016219 0.000000 -0.012324 0.000000
# 4 0.000000 0.000000 0.000000 0.046094 0.000000 -0.010458
# 5 -0.004521 0.004424 -0.012324 0.000000 0.047633 0.000000
# 6 0.000000 0.000000 0.000000 -0.010458 0.000000 0.050683
#
#
# Mechanical properties :
#
#
# Convention : Reuss Voigt Hill
#
# Bulk Modulus (GPa) = 30.21647 46.03826 38.12736
# Shear Modulus (GPa) = 17.44565 22.90376 20.17470
#
# Velocity S-wave (km/s) = 3.03913 3.48224 3.26821
# Velocity P-wave (km/s) = 5.32097 6.36728 5.86749
#
# Compressibility (1/GPa) = 0.03309453
#
# Stress axis : x y z
#
# Youngs Moduli (GPa) = 55.14556 20.93072 61.65788
#
# Poissons Ratio (x) = 0.26354 0.10329
# Poissons Ratio (y) = 0.69435 0.63205
# Poissons Ratio (z) = 0.09238 0.21456
#
# Static dielectric constant tensor:
#      x y z
#    x 3.575110 0.000000 0.109670 
#    y 0.000000 2.932100 0.000000 
#    z 0.109670 0.000000 3.732450 
# 
# 
# High freq. dielectric constant tensor:
#      x y z
#    x 1.734280 0.000000 0.016610 
#    y 0.000000 1.687610 0.000000 
#    z 0.016610 0.000000 1.740110 
# 
# From -- ./inp_files/83603.got.cif
#   From: 2010.06.25/outbox.cif.g09.slc.cpg/sg10_42_cif.got.tgz:83603.got - 2010.06.27 22:07:45.
