data_PCOD8065366
_publ_section_title
;
Structure prediction by ZEFSAII (Michael W. Deem and Ramdas Pophale) SiO2 
 PCOD8065366
Probable space group: P 2/M
;
_chemical_formula_sum "Si O2"
_cell_formula_units_Z 28
_cell_length_a 12.222110
_cell_length_b 13.716396
_cell_length_c 8.722912
_cell_angle_alpha 90.000000
_cell_angle_beta 64.544648
_cell_angle_gamma 90.000000
_cell_volume 1320.374723
_symmetry_space_group_name_H-M "P 2/M"
_symmetry_group_IT_number 10
_symmetry_cell_setting 'monoclinic'
loop_
_space_group_symop_operation_xyz
x,y,z
-x,y,-z
-x,-y,-z
x,-y,z
loop_
_atom_site_type_symbol
_atom_site_label
_atom_site_fract_x
_atom_site_fract_y
_atom_site_fract_z
Si Si1 0.781557 0.763442 0.271320
Si Si2 0.381904 0.220361 0.360689
Si Si3 0.630291 0.888634 0.162275
Si Si4 0.768418 0.889966 0.777421
Si Si5 0.830059 0.614656 0.981915
Si Si6 0.632752 0.606432 0.858668
Si Si7 0.983915 0.256756 0.686152
O O1 0.657731 0.751967 0.443692
O O2 0.752705 0.853989 0.176067
O O3 0.892123 0.787105 0.319654
O O4 0.812896 0.666784 0.155583
O O5 0.518405 0.181002 0.272577
O O6 0.290094 0.139693 0.348938
O O7 0.361104 0.319752 0.282882
O O8 0.600148 0.000000 0.226810
O O9 0.658740 0.879803 0.965233
O O10 0.883511 0.826696 0.755838
O O11 0.815707 0.000000 0.737944
O O12 0.844480 0.500000 0.003980
O O13 0.714204 0.643158 0.950000
O O14 0.946652 0.652515 0.816931
O O15 0.678633 0.500000 0.773785
O O16 0.500000 0.597195 0.000000
O O17 0.000000 0.291769 0.500000
#
# Coordination Sequence:
#
# PCOD8065366 Si02
#       7
#     4   4   4   4   4   4   4
#     4  12  25  41  65  94 137 175 216 273 336 393
#     4  12  22  41  66  96 136 174 217 277 324 395
#     4  11  25  43  67  99 133 177 226 274 336 400
#     4  11  23  42  68  97 128 174 224 274 329 394
#     4  11  24  44  69  99 136 178 224 275 337 401
#     4  10  20  37  65  96 129 172 221 270 328 390
#     4  12  24  46  67  96 131 173 225 282 329 395
#
# _framework density 21.206101
#
# number of rings (size 3 to 8) (size 9 to 14) (size 15 to 20)
#    0.000    0.714    4.286    3.429    0.000    5.714 
#    0.000    1.429    0.000    4.286    0.000    0.000 
#    0.000    0.000    0.000    0.000    0.000    0.000 
#
# Total GULP energy -347209.145273 kJ/mol
# GULP energy per Si atom -12400.326617 kJ/mol
# Density = 2.115783 g / cm^3
# Si number density = 21.206101 Si / 1000 Ang^3
#
#
#
# Elastic Constant Matrix: (Units=GPa)
#
#
# Indices 1 2 3 4 5 6 
#
# 1 106.2580 31.9867 20.8374 0.0000 0.7684 0.0000
# 2 31.9867 115.2271 56.7091 0.0000 2.0690 0.0000
# 3 20.8374 56.7091 135.2271 0.0000 1.1845 0.0000
# 4 0.0000 0.0000 0.0000 9.5561 0.0000 -1.4019
# 5 0.7684 2.0690 1.1845 0.0000 32.1443 0.0000
# 6 0.0000 0.0000 0.0000 -1.4019 0.0000 26.9019
#
#
#
# Elastic Compliance Matrix: (Units=1/GPa)
#
#
# Indices 1 2 3 4 5 6 
#
# 1 0.010295 -0.002616 -0.000489 0.000000 -0.000060 0.000000
# 2 -0.002616 0.011610 -0.004461 0.000000 -0.000520 0.000000
# 3 -0.000489 -0.004461 0.009341 0.000000 -0.000045 0.000000
# 4 0.000000 0.000000 0.000000 0.105451 0.000000 0.005495
# 5 -0.000060 -0.000520 -0.000045 0.000000 0.031146 0.000000
# 6 0.000000 0.000000 0.000000 0.005495 0.000000 0.037458
#
#
# Mechanical properties :
#
#
# Convention : Reuss Voigt Hill
#
# Bulk Modulus (GPa) = 62.05719 63.97540 63.01630
# Shear Modulus (GPa) = 22.14300 30.19906 26.17103
#
# Velocity S-wave (km/s) = 3.23488 3.77778 3.51683
# Velocity P-wave (km/s) = 6.57875 7.01874 6.80231
#
# Compressibility (1/GPa) = 0.01611417
#
# Stress axis : x y z
#
# Youngs Moduli (GPa) = 97.13560 86.13591 107.05032
#
# Poissons Ratio (x) = 0.22535 0.05231
# Poissons Ratio (y) = 0.25413 0.47754
# Poissons Ratio (z) = 0.04747 0.38424
#
# Static dielectric constant tensor:
#      x y z
#    x 3.977470 0.000000 0.023390 
#    y 0.000000 4.213200 0.000000 
#    z 0.023390 0.000000 3.898950 
# 
# 
# High freq. dielectric constant tensor:
#      x y z
#    x 1.843680 0.000000 0.001590 
#    y 0.000000 1.828720 0.000000 
#    z 0.001590 0.000000 1.833210 
# 
# From -- ./inp_files/25160.got.cif
#   From: 2010.06.25/outbox.cif.g09.slc.cpg/sg10_13_cif.got.tgz:25160.got - 2010.06.27 22:07:45.
