data_PCOD8065243
_publ_section_title
;
Structure prediction by ZEFSAII (Michael W. Deem and Ramdas Pophale) SiO2 
 PCOD8065243
Probable space group: P 2/M
;
_chemical_formula_sum "Si O2"
_cell_formula_units_Z 32
_cell_length_a 22.611789
_cell_length_b 8.877919
_cell_length_c 15.201986
_cell_angle_alpha 90.000000
_cell_angle_beta 148.713433
_cell_angle_gamma 90.000000
_cell_volume 1584.821850
_symmetry_space_group_name_H-M "P 2/M"
_symmetry_group_IT_number 10
_symmetry_cell_setting 'monoclinic'
loop_
_space_group_symop_operation_xyz
x,y,z
-x,y,-z
-x,-y,-z
x,-y,z
loop_
_atom_site_type_symbol
_atom_site_label
_atom_site_fract_x
_atom_site_fract_y
_atom_site_fract_z
Si Si1 0.368270 0.822037 0.332882
Si Si2 0.232898 0.677729 0.634976
Si Si3 0.687712 0.328357 0.560621
Si Si4 0.666398 0.174655 0.069473
Si Si5 0.756567 0.177455 0.998725
Si Si6 0.405355 0.826082 0.719107
Si Si7 0.010472 0.823617 0.280998
Si Si8 0.054415 0.671723 0.159450
O O1 0.500000 0.775832 0.500000
O O2 0.306385 0.745705 0.336388
O O3 0.352031 0.000000 0.320891
O O4 0.309603 0.756072 0.170090
O O5 0.237083 0.500000 0.632442
O O6 0.320588 0.742769 0.676274
O O7 0.105505 0.732026 0.454111
O O8 0.265142 0.728308 0.773371
O O9 0.647191 0.500000 0.518101
O O10 0.600281 0.240044 0.386581
O O11 0.810167 0.317325 0.671021
O O12 0.532613 0.195356 0.916444
O O13 0.701562 0.000000 0.124186
O O14 0.699737 0.238515 0.015877
O O15 0.888944 0.222653 0.166921
O O16 0.740886 0.000000 0.974749
O O17 0.370315 0.000000 0.671082
O O18 0.008346 0.781089 0.175931
O O19 0.034872 0.000000 0.321965
O O20 0.015681 0.500000 0.129208
O O21 0.000000 0.730118 0.000000
#
# Coordination Sequence:
#
# PCOD8065243 Si02
#       8
#     4   4   4   4   4   4   4   4
#     4  10  20  37  61  88 121 162 206 252 301 355
#     4  12  25  41  61  89 125 159 197 251 312 366
#     4  11  22  35  56  87 123 161 196 242 300 357
#     4  10  22  42  66  90 118 155 202 252 306 364
#     4   9  20  39  62  90 121 157 204 256 302 351
#     4  11  22  39  65  93 121 157 201 250 303 365
#     4  11  22  38  62  88 118 159 207 253 297 354
#     4  10  21  37  56  82 119 160 197 241 301 357
#
# _framework density 20.191542999999999
#
# number of rings (size 3 to 8) (size 9 to 14) (size 15 to 20)
#    0.000    1.500    1.250    4.125    0.000    6.000 
#    0.000    5.000    0.000    0.000    0.000    0.000 
#    0.000    0.000    0.000    0.000    0.000    0.000 
#
# Total GULP energy -396970.540194 kJ/mol
# GULP energy per Si atom -12405.329381 kJ/mol
# Density = 2.014559 g / cm^3
# Si number density = 20.191543 Si / 1000 Ang^3
#
#
#
# Elastic Constant Matrix: (Units=GPa)
#
#
# Indices 1 2 3 4 5 6 
#
# 1 113.8738 43.9518 53.5209 0.0000 -9.8787 0.0000
# 2 43.9518 91.4550 50.5765 0.0000 0.2768 0.0000
# 3 53.5209 50.5765 127.9551 0.0000 -15.7937 0.0000
# 4 0.0000 0.0000 0.0000 22.4953 0.0000 -1.2370
# 5 -9.8787 0.2768 -15.7937 0.0000 35.8965 0.0000
# 6 0.0000 0.0000 0.0000 -1.2370 0.0000 -0.8115
#
#
#
# Elastic Compliance Matrix: (Units=1/GPa)
#
#
# Indices 1 2 3 4 5 6 
#
# 1 0.011997 -0.004003 -0.003198 0.000000 0.001925 0.000000
# 2 -0.004003 0.015578 -0.004900 0.000000 -0.003378 0.000000
# 3 -0.003198 -0.004900 0.011617 0.000000 0.004269 0.000000
# 4 0.000000 0.000000 0.000000 0.041016 0.000000 -0.062522
# 5 0.001925 -0.003378 0.004269 0.000000 0.030292 0.000000
# 6 0.000000 0.000000 0.000000 -0.062522 0.000000 -1.136982
#
#
# Mechanical properties :
#
#
# Convention : Reuss Voigt Hill
#
# Bulk Modulus (GPa) = 66.71336 69.93138 68.32237
# Shear Modulus (GPa) = -5.01361 23.86504 9.42571
#
# Velocity S-wave (km/s) = -1.57747 3.44165 2.16293
# Velocity P-wave (km/s) = 5.45840 7.10651 6.33627
#
# Compressibility (1/GPa) = 0.01498950
#
# Stress axis : x y z
#
# Youngs Moduli (GPa) = 83.35613 64.19291 86.08217
#
# Poissons Ratio (x) = 0.25694 0.27531
# Poissons Ratio (y) = 0.33364 0.42182
# Poissons Ratio (z) = 0.26660 0.31456
#
# Static dielectric constant tensor:
#      x y z
#    x 3.724020 0.000000 -0.079960 
#    y 0.000000 3.574140 0.000000 
#    z -0.079960 0.000000 3.839880 
# 
# 
# High freq. dielectric constant tensor:
#      x y z
#    x 1.793090 0.000000 -0.004010 
#    y 0.000000 1.775370 0.000000 
#    z -0.004010 0.000000 1.803090 
# 
# From -- ./inp_files/71643.got.cif
#   From: 2010.06.25/outbox.cif.g09.slc.cpg/sg10_36_cif.got.tgz:71643.got - 2010.06.27 22:07:45.
