data_PCOD8065794
_publ_section_title
;
Structure prediction by ZEFSAII (Michael W. Deem and Ramdas Pophale) SiO2 
 PCOD8065794
Probable space group: P 2/M
;
_chemical_formula_sum "Si O2"
_cell_formula_units_Z 18
_cell_length_a 7.994506
_cell_length_b 18.926259
_cell_length_c 5.537471
_cell_angle_alpha 90.000000
_cell_angle_beta 58.171329
_cell_angle_gamma 90.000000
_cell_volume 711.864197
_symmetry_space_group_name_H-M "P 2/M"
_symmetry_group_IT_number 10
_symmetry_cell_setting 'monoclinic'
loop_
_space_group_symop_operation_xyz
x,y,z
-x,y,-z
-x,-y,-z
x,-y,z
loop_
_atom_site_type_symbol
_atom_site_label
_atom_site_fract_x
_atom_site_fract_y
_atom_site_fract_z
Si Si1 0.500000 0.379306 0.500000
Si Si2 0.767756 0.917895 0.169173
Si Si3 0.218397 0.140643 0.340972
Si Si4 0.168449 0.423147 0.066202
Si Si5 0.708450 0.300126 0.714265
O O1 0.671569 0.329354 0.475231
O O2 0.388526 0.426210 0.783294
O O3 0.674321 0.887864 0.493969
O O4 0.718553 0.000000 0.192098
O O5 0.676108 0.881444 0.994365
O O6 0.000000 0.901424 0.000000
O O7 0.189903 0.224604 0.375492
O O8 0.000000 0.106170 0.500000
O O9 0.142671 0.500000 0.215424
O O10 0.151458 0.357398 0.261064
O O11 0.000000 0.412819 0.000000
O O12 0.500000 0.291077 0.000000
#
# Coordination Sequence:
#
# PCOD8065794 Si02
#       5
#     2   4   4   4   4
#     4  10  23  40  62  88 123 174 210 272 325 392
#     4   9  18  34  57  91 126 158 205 264 324 384
#     4  10  21  34  62  91 120 164 210 265 321 384
#     4  10  23  41  64  92 124 164 216 273 328 390
#     4  10  24  40  59  87 124 166 211 263 325 389
#
# _framework density 25.285720000000001
#
# number of rings (size 3 to 8) (size 9 to 14) (size 15 to 20)
#    0.000    2.222    0.000    1.000    9.333    8.444 
#    0.000    2.222    0.000    4.000    0.000    0.000 
#    0.000    0.000    0.000    0.000    0.000    0.000 
#
# Total GULP energy -223106.387098 kJ/mol
# GULP energy per Si atom -12394.799283 kJ/mol
# Density = 2.522817 g / cm^3
# Si number density = 25.285720 Si / 1000 Ang^3
#
#
#
# Elastic Constant Matrix: (Units=GPa)
#
#
# Indices 1 2 3 4 5 6 
#
# 1 66.8687 41.3246 32.3500 0.0000 38.8935 0.0000
# 2 41.3246 209.5810 54.4876 0.0000 54.2479 0.0000
# 3 32.3500 54.4876 141.8593 0.0000 40.3382 0.0000
# 4 0.0000 0.0000 0.0000 24.2861 0.0000 -12.7855
# 5 38.8935 54.2479 40.3382 0.0000 54.1649 0.0000
# 6 0.0000 0.0000 0.0000 -12.7855 0.0000 -11.2319
#
#
#
# Elastic Compliance Matrix: (Units=1/GPa)
#
#
# Indices 1 2 3 4 5 6 
#
# 1 0.025764 -0.000327 -0.000739 0.000000 -0.017623 0.000000
# 2 -0.000327 0.006520 -0.000812 0.000000 -0.005691 0.000000
# 3 -0.000739 -0.000812 0.009068 0.000000 -0.005410 0.000000
# 4 0.000000 0.000000 0.000000 0.025747 0.000000 -0.029308
# 5 -0.017623 -0.005691 -0.005410 0.000000 0.040845 0.000000
# 6 0.000000 0.000000 0.000000 -0.029308 0.000000 -0.055671
#
#
# Mechanical properties :
#
#
# Convention : Reuss Voigt Hill
#
# Bulk Modulus (GPa) = 26.59715 74.95925 50.77820
# Shear Modulus (GPa) = 72.93012 32.78695 52.85854
#
# Velocity S-wave (km/s) = 5.37634 3.60482 4.57710
# Velocity P-wave (km/s) = 7.00582 6.85825 6.93243
#
# Compressibility (1/GPa) = 0.03759801
#
# Stress axis : x y z
#
# Youngs Moduli (GPa) = 38.81376 153.37780 110.28161
#
# Poissons Ratio (x) = 0.05008 0.08147
# Poissons Ratio (y) = 0.01267 0.08950
# Poissons Ratio (z) = 0.02867 0.12447
#
# Static dielectric constant tensor:
#      x y z
#    x 4.366320 0.000000 0.284560 
#    y 0.000000 4.360880 0.000000 
#    z 0.284560 0.000000 4.723180 
# 
# 
# High freq. dielectric constant tensor:
#      x y z
#    x 2.012390 0.000000 0.002620 
#    y 0.000000 1.999950 0.000000 
#    z 0.002620 0.000000 2.012770 
# 
# From -- ./inp_files/4429.got.cif
#   From: 2010.06.25/outbox.cif.g09.slc.cpg/sg10_3_cif.got.tgz:4429.got - 2010.06.27 22:07:45.
