data_PCOD8065203
_publ_section_title
;
Structure prediction by ZEFSAII (Michael W. Deem and Ramdas Pophale) SiO2 
 PCOD8065203
Probable space group: P 2/M
;
_chemical_formula_sum "Si O2"
_cell_formula_units_Z 24
_cell_length_a 9.951757
_cell_length_b 18.878533
_cell_length_c 9.951749
_cell_angle_alpha 90.000000
_cell_angle_beta 134.983218
_cell_angle_gamma 90.000000
_cell_volume 1322.451003
_symmetry_space_group_name_H-M "P 2/M"
_symmetry_group_IT_number 10
_symmetry_cell_setting 'monoclinic'
loop_
_space_group_symop_operation_xyz
x,y,z
-x,y,-z
-x,-y,-z
x,-y,z
loop_
_atom_site_type_symbol
_atom_site_label
_atom_site_fract_x
_atom_site_fract_y
_atom_site_fract_z
Si Si1 0.629206 0.917255 0.966520
Si Si2 0.033480 0.917255 0.370794
Si Si3 0.718699 0.579025 0.891738
Si Si4 0.413212 0.322439 0.586789
Si Si5 0.586128 0.837831 0.413872
Si Si6 0.891737 0.579025 0.718699
O O1 0.563526 0.875472 0.789296
O O2 0.600682 0.000000 0.917762
O O3 0.500000 0.893559 0.000000
O O4 0.848224 0.899016 0.151776
O O5 0.000000 0.893560 0.500000
O O6 0.210703 0.875471 0.436474
O O7 0.082238 0.000000 0.399317
O O8 0.639666 0.500000 0.866115
O O9 0.552434 0.636807 0.788490
O O10 0.800990 0.580232 0.800990
O O11 0.885458 0.598682 0.114542
O O12 0.500000 0.323532 0.500000
O O13 0.384134 0.242450 0.615866
O O14 0.211510 0.363193 0.447567
O O15 0.500000 0.840455 0.500000
O O16 0.866114 0.500000 0.639666
#
# Coordination Sequence:
#
# PCOD8065203 Si02
#       6
#     4   4   4   4   4   4
#     4  10  20  37  61  81 100 137 184 223 264 319
#     4  10  20  37  61  81 100 137 184 223 264 319
#     4   8  13  22  38  59  86 128 178 215 245 296
#     4   9  17  27  39  61 101 142 165 199 264 320
#     4  11  23  35  51  83 120 145 171 219 277 327
#     4   8  13  22  38  59  86 128 178 215 245 296
#
# _framework density 18.148122000000001
#
# number of rings (size 3 to 8) (size 9 to 14) (size 15 to 20)
#    0.000    2.667    1.667    2.000    0.000    5.333 
#    0.000    5.000    0.000    0.000    0.000    0.000 
#    0.000    5.333    0.000    0.000    0.000    0.000 
#
# Total GULP energy -297533.017740 kJ/mol
# GULP energy per Si atom -12397.209072 kJ/mol
# Density = 1.810682 g / cm^3
# Si number density = 18.148122 Si / 1000 Ang^3
#
#
#
# Elastic Constant Matrix: (Units=GPa)
#
#
# Indices 1 2 3 4 5 6 
#
# 1 58.6286 46.0854 41.4936 0.0000 17.1824 0.0000
# 2 46.0854 119.8571 79.0798 0.0000 19.6611 0.0000
# 3 41.4936 79.0798 131.2459 0.0000 26.0891 0.0000
# 4 0.0000 0.0000 0.0000 -3.7193 0.0000 -1.1967
# 5 17.1824 19.6611 26.0891 0.0000 28.2922 0.0000
# 6 0.0000 0.0000 0.0000 -1.1967 0.0000 -1.7115
#
#
#
# Elastic Compliance Matrix: (Units=1/GPa)
#
#
# Indices 1 2 3 4 5 6 
#
# 1 0.027242 -0.007449 -0.002283 0.000000 -0.009263 0.000000
# 2 -0.007449 0.016016 -0.007324 0.000000 0.000148 0.000000
# 3 -0.002283 -0.007324 0.014041 0.000000 -0.006471 0.000000
# 4 0.000000 0.000000 0.000000 -0.346901 0.000000 0.242543
# 5 -0.009263 0.000148 -0.006471 0.000000 0.046835 0.000000
# 6 0.000000 0.000000 0.000000 0.242543 0.000000 -0.753851
#
#
# Mechanical properties :
#
#
# Convention : Reuss Voigt Hill
#
# Bulk Modulus (GPa) = 43.13034 71.44994 57.29014
# Shear Modulus (GPa) = -5.23682 14.11045 4.43681
#
# Velocity S-wave (km/s) = -1.70055 2.79142 1.56527
# Velocity P-wave (km/s) = 4.46783 7.06012 5.90791
#
# Compressibility (1/GPa) = 0.02318554
#
# Stress axis : x y z
#
# Youngs Moduli (GPa) = 36.70749 62.43929 71.22233
#
# Poissons Ratio (x) = 0.46510 0.16262
# Poissons Ratio (y) = 0.27343 0.52166
# Poissons Ratio (z) = 0.08381 0.45733
#
# Static dielectric constant tensor:
#      x y z
#    x 2.965430 0.000000 0.368820 
#    y 0.000000 3.510240 0.000000 
#    z 0.368820 0.000000 3.584370 
# 
# 
# High freq. dielectric constant tensor:
#      x y z
#    x 1.657000 0.000000 0.030800 
#    y 0.000000 1.703550 0.000000 
#    z 0.030800 0.000000 1.708680 
# 
# From -- ./inp_files/20277.got.cif
#   From: 2010.06.25/outbox.cif.g09.slc.cpg/sg10_11_cif.got.tgz:20277.got - 2010.06.27 22:07:45.
