data_PCOD8065704
_publ_section_title
;
Structure prediction by ZEFSAII (Michael W. Deem and Ramdas Pophale) SiO2 
 PCOD8065704
Probable space group: P 2/M
;
_chemical_formula_sum "Si O2"
_cell_formula_units_Z 20
_cell_length_a 9.977456
_cell_length_b 10.535722
_cell_length_c 13.644816
_cell_angle_alpha 90.000000
_cell_angle_beta 39.021864
_cell_angle_gamma 90.000000
_cell_volume 903.084080
_symmetry_space_group_name_H-M "P 2/M"
_symmetry_group_IT_number 10
_symmetry_cell_setting 'monoclinic'
loop_
_space_group_symop_operation_xyz
x,y,z
-x,y,-z
-x,-y,-z
x,-y,z
loop_
_atom_site_type_symbol
_atom_site_label
_atom_site_fract_x
_atom_site_fract_y
_atom_site_fract_z
Si Si1 0.208556 0.756431 0.818812
Si Si2 0.754784 0.500000 0.116718
Si Si3 0.958611 0.260237 0.304894
Si Si4 0.659379 0.857420 0.833740
Si Si5 0.747365 0.500000 0.889826
Si Si6 0.365562 0.145345 0.371014
O O1 0.331678 0.627670 0.783348
O O2 0.136718 0.747817 0.748287
O O3 0.388643 0.862347 0.732562
O O4 0.000000 0.789597 0.000000
O O5 0.727464 0.500000 0.017142
O O6 0.000000 0.500000 0.000000
O O7 0.761479 0.248194 0.491374
O O8 0.107851 0.141978 0.249465
O O9 0.113748 0.381784 0.229948
O O10 0.653808 0.797647 0.728211
O O11 0.575948 0.000000 0.867591
O O12 0.500000 0.784699 0.000000
O O13 0.500000 0.500000 0.000000
O O14 0.276830 0.000000 0.428325
#
# Coordination Sequence:
#
# PCOD8065704 Si02
#       6
#     4   2   4   4   2   4
#     4  11  22  41  71  96 133 182 229 279 333 402
#     4  10  20  45  67  97 133 169 224 285 339 386
#     4  12  23  41  66  98 137 176 218 278 349 397
#     4  10  22  42  67  92 128 179 229 280 336 398
#     4  12  26  43  72 106 135 175 232 288 331 403
#     4  11  26  44  65 101 142 178 225 284 343 404
#
# _framework density 22.146332000000001
#
# number of rings (size 3 to 8) (size 9 to 14) (size 15 to 20)
#    0.000    1.000    4.000    3.600    2.800    5.200 
#    0.000    4.000    0.000    0.000    0.000    0.000 
#    0.000    0.000    0.000    0.000    0.000    0.000 
#
# Total GULP energy -247821.897945 kJ/mol
# GULP energy per Si atom -12391.094897 kJ/mol
# Density = 2.209593 g / cm^3
# Si number density = 22.146332 Si / 1000 Ang^3
#
#
#
# Elastic Constant Matrix: (Units=GPa)
#
#
# Indices 1 2 3 4 5 6 
#
# 1 154.3848 44.2253 90.9282 0.0000 10.8365 0.0000
# 2 44.2253 66.0766 45.5310 0.0000 6.0787 0.0000
# 3 90.9282 45.5310 185.5657 0.0000 19.9665 0.0000
# 4 0.0000 0.0000 0.0000 26.2697 0.0000 -8.9439
# 5 10.8365 6.0787 19.9665 0.0000 42.8307 0.0000
# 6 0.0000 0.0000 0.0000 -8.9439 0.0000 27.3265
#
#
#
# Elastic Compliance Matrix: (Units=1/GPa)
#
#
# Indices 1 2 3 4 5 6 
#
# 1 0.009894 -0.003946 -0.003865 0.000000 -0.000142 0.000000
# 2 -0.003946 0.019798 -0.002873 0.000000 -0.000472 0.000000
# 3 -0.003865 -0.002873 0.008252 0.000000 -0.002461 0.000000
# 4 0.000000 0.000000 0.000000 0.042840 0.000000 0.014022
# 5 -0.000142 -0.000472 -0.002461 0.000000 0.024598 0.000000
# 6 0.000000 0.000000 0.000000 0.014022 0.000000 0.041184
#
#
# Mechanical properties :
#
#
# Convention : Reuss Voigt Hill
#
# Bulk Modulus (GPa) = 60.32584 85.26624 72.79604
# Shear Modulus (GPa) = 28.82502 34.30822 31.56662
#
# Velocity S-wave (km/s) = 3.61164 3.94021 3.77950
# Velocity P-wave (km/s) = 6.68511 7.69969 7.21027
#
# Compressibility (1/GPa) = 0.01657665
#
# Stress axis : x y z
#
# Youngs Moduli (GPa) = 101.07397 50.50907 121.17573
#
# Poissons Ratio (x) = 0.19931 0.46829
# Poissons Ratio (y) = 0.39883 0.34820
# Poissons Ratio (z) = 0.39061 0.14514
#
# Static dielectric constant tensor:
#      x y z
#    x 3.970060 0.000000 0.100730 
#    y 0.000000 2.529590 0.000000 
#    z 0.100730 0.000000 4.260980 
# 
# 
# High freq. dielectric constant tensor:
#      x y z
#    x 1.888270 0.000000 0.002880 
#    y 0.000000 1.858250 0.000000 
#    z 0.002880 0.000000 1.874950 
# 
# From -- ./inp_files/41891.got.cif
#   From: 2010.06.25/outbox.cif.g09.slc.cpg/sg10_21_cif.got.tgz:41891.got - 2010.06.27 22:07:45.
