data_PCOD8065797
_publ_section_title
;
Structure prediction by ZEFSAII (Michael W. Deem and Ramdas Pophale) SiO2 
 PCOD8065797
Probable space group: P 2/M
;
_chemical_formula_sum "Si O2"
_cell_formula_units_Z 28
_cell_length_a 21.339070
_cell_length_b 9.833171
_cell_length_c 7.182028
_cell_angle_alpha 90.000000
_cell_angle_beta 88.156745
_cell_angle_gamma 90.000000
_cell_volume 1506.230353
_symmetry_space_group_name_H-M "P 2/M"
_symmetry_group_IT_number 10
_symmetry_cell_setting 'monoclinic'
loop_
_space_group_symop_operation_xyz
x,y,z
-x,y,-z
-x,-y,-z
x,-y,z
loop_
_atom_site_type_symbol
_atom_site_label
_atom_site_fract_x
_atom_site_fract_y
_atom_site_fract_z
Si Si1 0.079447 0.347120 0.812560
Si Si2 0.834087 0.842682 0.709850
Si Si3 0.056572 0.653164 0.251220
Si Si4 0.499529 0.660772 0.793286
Si Si5 0.185148 0.845531 0.866108
Si Si6 0.601514 0.660875 0.490290
Si Si7 0.721285 0.844974 0.447581
O O1 0.101459 0.500000 0.764065
O O2 0.135083 0.244311 0.756198
O O3 0.016667 0.312201 0.698712
O O4 0.064692 0.332724 0.030686
O O5 0.895620 0.754826 0.649734
O O6 0.777602 0.806080 0.579652
O O7 0.853299 0.000000 0.693013
O O8 0.809898 0.804194 0.918901
O O9 0.071949 0.500000 0.316053
O O10 0.496954 0.500000 0.807049
O O11 0.562437 0.702584 0.677856
O O12 0.437900 0.708577 0.686944
O O13 0.500000 0.726567 0.000000
O O14 0.253404 0.826542 0.765727
O O15 0.162041 0.000000 0.844819
O O16 0.615182 0.500000 0.484407
O O17 0.665760 0.741514 0.490063
O O18 0.698615 0.000000 0.483995
#
# Coordination Sequence:
#
# PCOD8065797 Si02
#       7
#     4   4   4   4   4   4   4
#     4   8  14  26  45  68  92 117 149 196 250 292
#     4   9  18  32  48  65  88 123 163 196 232 283
#     4   8  14  26  45  68  92 117 149 196 250 292
#     4   8  15  31  54  78 104 128 152 190 232 266
#     4   9  18  32  48  65  88 123 163 196 232 283
#     4   9  18  32  52  77  99 125 162 192 221 272
#     4  10  21  35  48  67 100 132 156 193 238 272
#
# _framework density 18.589455000000001
#
# number of rings (size 3 to 8) (size 9 to 14) (size 15 to 20)
#    0.000    3.286    0.000    1.714    0.000    2.857 
#    0.000    5.000    0.000    5.143    0.000    0.000 
#    0.000    0.000    0.000    0.000    0.000    0.000 
#
# Total GULP energy -347068.752802 kJ/mol
# GULP energy per Si atom -12395.312600 kJ/mol
# Density = 1.854714 g / cm^3
# Si number density = 18.589455 Si / 1000 Ang^3
#
#
#
# Elastic Constant Matrix: (Units=GPa)
#
#
# Indices 1 2 3 4 5 6 
#
# 1 107.9371 61.4642 19.5670 0.0000 0.6991 0.0000
# 2 61.4642 72.7309 15.0699 0.0000 1.1875 0.0000
# 3 19.5670 15.0699 60.2436 0.0000 3.8250 0.0000
# 4 0.0000 0.0000 0.0000 12.8170 0.0000 2.2003
# 5 0.6991 1.1875 3.8250 0.0000 19.7658 0.0000
# 6 0.0000 0.0000 0.0000 2.2003 0.0000 21.2309
#
#
#
# Elastic Compliance Matrix: (Units=1/GPa)
#
#
# Indices 1 2 3 4 5 6 
#
# 1 0.018132 -0.014877 -0.002211 0.000000 0.000680 0.000000
# 2 -0.014877 0.026707 -0.001802 0.000000 -0.000730 0.000000
# 3 -0.002211 -0.001802 0.017977 0.000000 -0.003292 0.000000
# 4 0.000000 0.000000 0.000000 0.079435 0.000000 -0.008232
# 5 0.000680 -0.000730 -0.003292 0.000000 0.051249 0.000000
# 6 0.000000 0.000000 0.000000 -0.008232 0.000000 0.047954
#
#
# Mechanical properties :
#
#
# Convention : Reuss Voigt Hill
#
# Bulk Modulus (GPa) = 39.94229 48.12374 44.03301
# Shear Modulus (GPa) = 17.38642 20.41677 18.90160
#
# Velocity S-wave (km/s) = 3.06156 3.31765 3.19218
# Velocity P-wave (km/s) = 5.83358 6.37335 6.10943
#
# Compressibility (1/GPa) = 0.02503612
#
# Stress axis : x y z
#
# Youngs Moduli (GPa) = 55.14976 37.44378 55.62538
#
# Poissons Ratio (x) = 0.55703 0.12300
# Poissons Ratio (y) = 0.82044 0.10026
# Poissons Ratio (z) = 0.12195 0.06749
#
# Static dielectric constant tensor:
#      x y z
#    x 3.389300 0.000000 0.000170 
#    y 0.000000 3.276620 0.000000 
#    z 0.000170 0.000000 3.707510 
# 
# 
# High freq. dielectric constant tensor:
#      x y z
#    x 1.708650 0.000000 -0.000810 
#    y 0.000000 1.700510 0.000000 
#    z -0.000810 0.000000 1.728150 
# 
# From -- ./inp_files/33484.got.cif
#   From: 2010.06.25/outbox.cif.g09.slc.cpg/sg10_17_cif.got.tgz:33484.got - 2010.06.27 22:07:45.
