data_PCOD8065470
_publ_section_title
;
Structure prediction by ZEFSAII (Michael W. Deem and Ramdas Pophale) SiO2 
 PCOD8065470
Probable space group: P 2/M
;
_chemical_formula_sum "Si O2"
_cell_formula_units_Z 32
_cell_length_a 10.711836
_cell_length_b 8.787547
_cell_length_c 16.136359
_cell_angle_alpha 90.000000
_cell_angle_beta 85.784020
_cell_angle_gamma 90.000000
_cell_volume 1514.817573
_symmetry_space_group_name_H-M "P 2/M"
_symmetry_group_IT_number 10
_symmetry_cell_setting 'monoclinic'
loop_
_space_group_symop_operation_xyz
x,y,z
-x,y,-z
-x,-y,-z
x,-y,z
loop_
_atom_site_type_symbol
_atom_site_label
_atom_site_fract_x
_atom_site_fract_y
_atom_site_fract_z
Si Si1 0.958659 0.674392 0.368500
Si Si2 0.209600 0.178654 0.376392
Si Si3 0.134096 0.819253 0.962099
Si Si4 0.844374 0.826955 0.225149
Si Si5 0.373405 0.179824 0.054459
Si Si6 0.420288 0.173576 0.674832
Si Si7 0.301993 0.323215 0.529706
Si Si8 0.362788 0.678980 0.234707
O O1 0.000630 0.500000 0.369025
O O2 0.936881 0.723884 0.274761
O O3 0.835870 0.704416 0.427805
O O4 0.068129 0.773448 0.404247
O O5 0.306170 0.250457 0.438202
O O6 0.243266 0.241935 0.283711
O O7 0.223994 0.000000 0.378838
O O8 0.250552 0.760074 0.011456
O O9 0.134578 0.000000 0.964556
O O10 0.154588 0.761096 0.867679
O O11 0.000000 0.755460 0.000000
O O12 0.705573 0.818069 0.266606
O O13 0.894748 0.000000 0.225368
O O14 0.377174 0.262171 0.141566
O O15 0.367336 0.000000 0.069381
O O16 0.500000 0.224555 0.000000
O O17 0.401868 0.238874 0.583225
O O18 0.516010 0.278909 0.718359
O O19 0.469532 0.000000 0.666815
O O20 0.337228 0.500000 0.523362
O O21 0.342761 0.500000 0.235079
#
# Coordination Sequence:
#
# PCOD8065470 Si02
#       8
#     4   4   4   4   4   4   4   4
#     4  10  21  37  59  88 124 162 198 244 302 363
#     4  12  25  40  60  86 119 160 206 253 302 360
#     4   9  18  32  55  88 121 154 199 252 304 357
#     4   9  18  34  59  88 117 155 199 247 294 353
#     4  10  21  40  65  91 122 163 209 256 308 372
#     4  10  20  38  62  88 117 154 206 251 296 360
#     4  10  21  39  62  90 124 160 198 246 306 363
#     4  12  26  42  61  88 122 158 201 253 313 368
#
# _framework density 21.124656000000002
#
# number of rings (size 3 to 8) (size 9 to 14) (size 15 to 20)
#    0.000    1.750    0.000    4.500    1.750    6.250 
#    0.000    3.125    0.000    0.750    0.000    0.000 
#    0.000    0.000    0.000    0.000    0.000    0.000 
#
# Total GULP energy -396917.371115 kJ/mol
# GULP energy per Si atom -12403.667847 kJ/mol
# Density = 2.107658 g / cm^3
# Si number density = 21.124656 Si / 1000 Ang^3
#
#
#
# Elastic Constant Matrix: (Units=GPa)
#
#
# Indices 1 2 3 4 5 6 
#
# 1 83.2993 25.9897 19.7748 0.0000 20.1894 0.0000
# 2 25.9897 87.3177 42.9410 0.0000 -5.5334 0.0000
# 3 19.7748 42.9410 113.3316 0.0000 16.2425 0.0000
# 4 0.0000 0.0000 0.0000 25.4616 0.0000 9.0143
# 5 20.1894 -5.5334 16.2425 0.0000 23.0863 0.0000
# 6 0.0000 0.0000 0.0000 9.0143 0.0000 24.1236
#
#
#
# Elastic Compliance Matrix: (Units=1/GPa)
#
#
# Indices 1 2 3 4 5 6 
#
# 1 0.018888 -0.008282 0.002774 0.000000 -0.020455 0.000000
# 2 -0.008282 0.019144 -0.008345 0.000000 0.017703 0.000000
# 3 0.002774 -0.008345 0.013497 0.000000 -0.013922 0.000000
# 4 0.000000 0.000000 0.000000 0.045263 0.000000 -0.016913
# 5 -0.020455 0.017703 -0.013922 0.000000 0.075242 0.000000
# 6 0.000000 0.000000 0.000000 -0.016913 0.000000 0.047773
#
#
# Mechanical properties :
#
#
# Convention : Reuss Voigt Hill
#
# Bulk Modulus (GPa) = 41.97961 51.26215 46.62088
# Shear Modulus (GPa) = 19.57293 27.55051 23.56172
#
# Velocity S-wave (km/s) = 3.04722 3.61527 3.34333
# Velocity P-wave (km/s) = 5.68298 6.46112 6.08450
#
# Compressibility (1/GPa) = 0.02382109
#
# Stress axis : x y z
#
# Youngs Moduli (GPa) = 52.94311 52.23661 74.09046
#
# Poissons Ratio (x) = 0.43265 -0.20553
# Poissons Ratio (y) = 0.43850 0.61832
# Poissons Ratio (z) = -0.14687 0.43594
#
# Static dielectric constant tensor:
#      x y z
#    x 3.933880 0.000000 0.023060 
#    y 0.000000 3.654960 0.000000 
#    z 0.023060 0.000000 4.001700 
# 
# 
# High freq. dielectric constant tensor:
#      x y z
#    x 1.837230 0.000000 0.001680 
#    y 0.000000 1.812410 0.000000 
#    z 0.001680 0.000000 1.839890 
# 
# From -- ./inp_files/63771.got.cif
#   From: 2010.06.25/outbox.cif.g09.slc.cpg/sg10_32_cif.got.tgz:63771.got - 2010.06.27 22:07:45.
