data_PCOD8065065
_publ_section_title
;
Structure prediction by ZEFSAII (Michael W. Deem and Ramdas Pophale) SiO2 
 PCOD8065065
Probable space group: P 2/M
;
_chemical_formula_sum "Si O2"
_cell_formula_units_Z 24
_cell_length_a 16.515377
_cell_length_b 11.553875
_cell_length_c 11.177000
_cell_angle_alpha 90.000000
_cell_angle_beta 145.107378
_cell_angle_gamma 90.000000
_cell_volume 1220.022952
_symmetry_space_group_name_H-M "P 2/M"
_symmetry_group_IT_number 10
_symmetry_cell_setting 'monoclinic'
loop_
_space_group_symop_operation_xyz
x,y,z
-x,y,-z
-x,-y,-z
x,-y,z
loop_
_atom_site_type_symbol
_atom_site_label
_atom_site_fract_x
_atom_site_fract_y
_atom_site_fract_z
Si Si1 0.500000 0.314574 0.500000
Si Si2 0.814401 0.133328 0.499825
Si Si3 0.583187 0.255744 0.345140
Si Si4 0.935524 0.747104 0.296196
Si Si5 0.267406 0.500000 0.221754
Si Si6 0.020781 0.500000 0.742163
Si Si7 0.677204 0.864015 0.076648
Si Si8 0.714401 0.500000 0.483529
O O1 0.532789 0.239818 0.421410
O O2 0.361235 0.389405 0.299634
O O3 0.727564 0.183473 0.506294
O O4 0.729106 0.157699 0.274181
O O5 0.965282 0.198236 0.685815
O O6 0.844957 0.000000 0.556774
O O7 0.613609 0.388473 0.342510
O O8 0.471739 0.199848 0.118805
O O9 0.780724 0.804536 0.104291
O O10 0.000000 0.785538 0.500000
O O11 0.932897 0.609235 0.280739
O O12 0.227818 0.500000 0.312437
O O13 0.115233 0.500000 0.975408
O O14 0.851885 0.500000 0.563735
O O15 0.661913 0.000000 0.030470
#
# Coordination Sequence:
#
# PCOD8065065 Si02
#       8
#     2   4   4   4   2   2   4   2
#     4   9  20  36  55  84 112 144 183 229 280 334
#     4  10  20  37  58  80 111 150 191 232 271 324
#     4  11  20  37  57  82 113 146 183 236 276 329
#     4  10  21  35  56  84 118 146 179 227 284 332
#     4   9  19  35  57  78 107 148 189 223 265 331
#     4  12  19  35  57  86 113 148 178 226 280 338
#     4  10  21  37  59  84 109 149 197 227 265 332
#     4  10  22  36  55  85 113 139 190 230 276 333
#
# _framework density 19.671761
#
# number of rings (size 3 to 8) (size 9 to 14) (size 15 to 20)
#    0.000    1.833    1.667    3.500    0.000    4.000 
#    0.000    4.167    0.000    0.000    0.000    4.667 
#    0.000    0.000    0.000    0.000    0.000    0.000 
#
# Total GULP energy -297583.960713 kJ/mol
# GULP energy per Si atom -12399.331696 kJ/mol
# Density = 1.962699 g / cm^3
# Si number density = 19.671761 Si / 1000 Ang^3
#
#
#
# Elastic Constant Matrix: (Units=GPa)
#
#
# Indices 1 2 3 4 5 6 
#
# 1 96.0685 35.5547 12.8441 0.0000 18.4676 0.0000
# 2 35.5547 122.4939 24.8656 0.0000 13.3058 0.0000
# 3 12.8441 24.8656 32.9001 0.0000 16.2858 0.0000
# 4 0.0000 0.0000 0.0000 20.8173 0.0000 8.4187
# 5 18.4676 13.3058 16.2858 0.0000 27.3064 0.0000
# 6 0.0000 0.0000 0.0000 8.4187 0.0000 25.4880
#
#
#
# Elastic Compliance Matrix: (Units=1/GPa)
#
#
# Indices 1 2 3 4 5 6 
#
# 1 0.012937 -0.003148 0.001277 0.000000 -0.007977 0.000000
# 2 -0.003148 0.010414 -0.007355 0.000000 0.001441 0.000000
# 3 0.001277 -0.007355 0.048397 0.000000 -0.026144 0.000000
# 4 0.000000 0.000000 0.000000 0.055443 0.000000 -0.018313
# 5 -0.007977 0.001441 -0.026144 0.000000 0.056907 0.000000
# 6 0.000000 0.000000 0.000000 -0.018313 0.000000 0.045283
#
#
# Mechanical properties :
#
#
# Convention : Reuss Voigt Hill
#
# Bulk Modulus (GPa) = 18.76297 44.22126 31.49212
# Shear Modulus (GPa) = 18.82552 26.60221 22.71387
#
# Velocity S-wave (km/s) = 3.09687 3.68136 3.40169
# Velocity P-wave (km/s) = 4.72718 6.37167 5.61001
#
# Compressibility (1/GPa) = 0.05329645
#
# Stress axis : x y z
#
# Youngs Moduli (GPa) = 77.29780 96.02586 20.66253
#
# Poissons Ratio (x) = 0.30227 -0.02639
# Poissons Ratio (y) = 0.24332 0.15198
# Poissons Ratio (z) = -0.09874 0.70628
#
# Static dielectric constant tensor:
#      x y z
#    x 3.721970 0.000000 0.314870 
#    y 0.000000 3.565400 0.000000 
#    z 0.314870 0.000000 3.353610 
# 
# 
# High freq. dielectric constant tensor:
#      x y z
#    x 1.774860 0.000000 0.027430 
#    y 0.000000 1.767510 0.000000 
#    z 0.027430 0.000000 1.742250 
# 
# From -- ./inp_files/53763.got.cif
#   From: 2010.06.25/outbox.cif.g09.slc.cpg/sg10_27_cif.got.tgz:53763.got - 2010.06.27 22:07:45.
