data_PCOD8065185
_publ_section_title
;
Structure prediction by ZEFSAII (Michael W. Deem and Ramdas Pophale) SiO2 
 PCOD8065185
Probable space group: P 2/M
;
_chemical_formula_sum "Si O2"
_cell_formula_units_Z 28
_cell_length_a 27.578305
_cell_length_b 9.107715
_cell_length_c 7.925657
_cell_angle_alpha 90.000000
_cell_angle_beta 43.650374
_cell_angle_gamma 90.000000
_cell_volume 1374.112984
_symmetry_space_group_name_H-M "P 2/M"
_symmetry_group_IT_number 10
_symmetry_cell_setting 'monoclinic'
loop_
_space_group_symop_operation_xyz
x,y,z
-x,y,-z
-x,-y,-z
x,-y,z
loop_
_atom_site_type_symbol
_atom_site_label
_atom_site_fract_x
_atom_site_fract_y
_atom_site_fract_z
Si Si1 0.917290 0.831163 0.714470
Si Si2 0.849215 0.328331 0.201533
Si Si3 0.425741 0.826736 0.118205
Si Si4 0.843721 0.827289 0.553977
Si Si5 0.281397 0.334930 0.994677
Si Si6 0.429524 0.331035 0.764470
Si Si7 0.296804 0.333844 0.577733
O O1 0.887133 0.777108 0.609830
O O2 0.000000 0.810720 0.500000
O O3 0.895561 0.000000 0.799803
O O4 0.888449 0.736228 0.940950
O O5 0.866754 0.500000 0.166778
O O6 0.875455 0.250534 0.307446
O O7 0.765299 0.300504 0.398075
O O8 0.362136 0.774961 0.395997
O O9 0.425811 0.000000 0.111604
O O10 0.500000 0.766471 0.000000
O O11 0.411743 0.764392 0.970106
O O12 0.847639 0.000000 0.514243
O O13 0.762849 0.778363 0.782083
O O14 0.261805 0.500000 0.103395
O O15 0.364686 0.308980 0.801500
O O16 0.262339 0.311253 0.847674
O O17 0.500000 0.270238 0.500000
O O18 0.439739 0.500000 0.792389
O O19 0.324830 0.500000 0.484691
#
# Coordination Sequence:
#
# PCOD8065185 Si02
#       7
#     4   4   4   4   4   4   4
#     4  10  23  44  67  92 126 168 211 254 305 370
#     4  11  23  40  65  95 127 163 206 257 310 367
#     4  11  24  38  53  79 115 153 195 247 304 362
#     4  11  23  39  63  93 126 164 205 254 310 370
#     4  10  20  37  60  87 118 152 200 254 303 360
#     4  10  21  37  58  81 108 149 198 247 299 361
#     4  10  21  38  61  86 115 156 200 248 301 360
#
# _framework density 20.376781999999999
#
# number of rings (size 3 to 8) (size 9 to 14) (size 15 to 20)
#    0.000    1.571    1.429    3.000    0.000    9.714 
#    0.000    2.857    0.000    0.000    0.000    0.000 
#    0.000    0.000    0.000    0.000    0.000    0.000 
#
# Total GULP energy -347301.765350 kJ/mol
# GULP energy per Si atom -12403.634477 kJ/mol
# Density = 2.033040 g / cm^3
# Si number density = 20.376782 Si / 1000 Ang^3
#
#
#
# Elastic Constant Matrix: (Units=GPa)
#
#
# Indices 1 2 3 4 5 6 
#
# 1 106.3382 48.3612 50.2808 0.0000 16.1000 0.0000
# 2 48.3612 88.9524 52.9674 0.0000 10.0251 0.0000
# 3 50.2808 52.9674 91.5848 0.0000 10.8265 0.0000
# 4 0.0000 0.0000 0.0000 32.7326 0.0000 -2.3070
# 5 16.1000 10.0251 10.8265 0.0000 32.8845 0.0000
# 6 0.0000 0.0000 0.0000 -2.3070 0.0000 21.6153
#
#
#
# Elastic Compliance Matrix: (Units=1/GPa)
#
#
# Indices 1 2 3 4 5 6 
#
# 1 0.014321 -0.004472 -0.004795 0.000000 -0.004070 0.000000
# 2 -0.004472 0.018676 -0.008253 0.000000 -0.000787 0.000000
# 3 -0.004795 -0.008253 0.018468 0.000000 -0.001217 0.000000
# 4 0.000000 0.000000 0.000000 0.030782 0.000000 0.003285
# 5 -0.004070 -0.000787 -0.001217 0.000000 0.033042 0.000000
# 6 0.000000 0.000000 0.000000 0.003285 0.000000 0.046614
#
#
# Mechanical properties :
#
#
# Convention : Reuss Voigt Hill
#
# Bulk Modulus (GPa) = 60.88113 65.56602 63.22358
# Shear Modulus (GPa) = 24.70109 26.46422 25.58265
#
# Velocity S-wave (km/s) = 3.48547 3.60772 3.54712
# Velocity P-wave (km/s) = 6.79268 7.04279 6.91887
#
# Compressibility (1/GPa) = 0.01642545
#
# Stress axis : x y z
#
# Youngs Moduli (GPa) = 69.82630 53.54328 54.14713
#
# Poissons Ratio (x) = 0.23946 0.25963
# Poissons Ratio (y) = 0.31228 0.44688
# Poissons Ratio (z) = 0.33481 0.44190
#
# Static dielectric constant tensor:
#      x y z
#    x 3.846640 0.000000 0.022280 
#    y 0.000000 3.630920 0.000000 
#    z 0.022280 0.000000 3.573020 
# 
# 
# High freq. dielectric constant tensor:
#      x y z
#    x 1.806060 0.000000 0.005760 
#    y 0.000000 1.790370 0.000000 
#    z 0.005760 0.000000 1.796180 
# 
# From -- ./inp_files/37975.got.cif
#   From: 2010.06.25/outbox.cif.g09.slc.cpg/sg10_19_cif.got.tgz:37975.got - 2010.06.27 22:07:45.
