data_PCOD8065699
_publ_section_title
;
Structure prediction by ZEFSAII (Michael W. Deem and Ramdas Pophale) SiO2 
 PCOD8065699
Probable space group: P 2/M
;
_chemical_formula_sum "Si O2"
_cell_formula_units_Z 20
_cell_length_a 14.119569
_cell_length_b 11.732988
_cell_length_c 10.947038
_cell_angle_alpha 90.000000
_cell_angle_beta 32.134363
_cell_angle_gamma 90.000000
_cell_volume 964.632800
_symmetry_space_group_name_H-M "P 2/M"
_symmetry_group_IT_number 10
_symmetry_cell_setting 'monoclinic'
loop_
_space_group_symop_operation_xyz
x,y,z
-x,y,-z
-x,-y,-z
x,-y,z
loop_
_atom_site_type_symbol
_atom_site_label
_atom_site_fract_x
_atom_site_fract_y
_atom_site_fract_z
Si Si1 0.986778 0.500000 0.366752
Si Si2 0.780046 0.871148 0.455196
Si Si3 0.571543 0.500000 0.786014
Si Si4 0.884609 0.740016 0.850754
Si Si5 0.540755 0.741109 0.097148
Si Si6 0.291764 0.869948 0.740403
O O1 0.084469 0.605896 0.197049
O O2 0.000000 0.500000 0.500000
O O3 0.783081 0.500000 0.550326
O O4 0.581230 0.832465 0.702586
O O5 0.808750 0.857914 0.279032
O O6 0.925463 0.800652 0.373089
O O7 0.801424 0.000000 0.474329
O O8 0.498325 0.615280 0.802401
O O9 0.500000 0.500000 0.000000
O O10 0.745827 0.776095 0.895940
O O11 0.797014 0.776549 0.074810
O O12 0.500000 0.742193 0.000000
O O13 0.500000 0.842251 0.500000
O O14 0.266031 0.000000 0.818223
#
# Coordination Sequence:
#
# PCOD8065699 Si02
#       6
#     2   4   2   4   4   4
#     4  12  24  42  69  99 133 176 223 264 336 405
#     4  11  24  42  67  97 131 175 221 270 332 396
#     4  10  20  42  65  89 124 173 220 266 321 389
#     4  12  24  41  69  99 129 174 224 277 324 391
#     4  11  23  41  65  94 133 174 220 272 328 396
#     4  10  21  43  71  95 129 178 224 270 332 393
#
# _framework density 20.733277999999999
#
# number of rings (size 3 to 8) (size 9 to 14) (size 15 to 20)
#    0.000    1.000    4.000    4.200    0.000    2.800 
#    0.000    4.500    0.000    0.000    0.000    0.000 
#    0.000    0.000    0.000    0.000    0.000    0.000 
#
# Total GULP energy -247976.818713 kJ/mol
# GULP energy per Si atom -12398.840936 kJ/mol
# Density = 2.068609 g / cm^3
# Si number density = 20.733278 Si / 1000 Ang^3
#
#
#
# Elastic Constant Matrix: (Units=GPa)
#
#
# Indices 1 2 3 4 5 6 
#
# 1 98.9428 51.1943 29.4231 0.0000 -24.2427 0.0000
# 2 51.1943 146.5117 55.5301 0.0000 6.3929 0.0000
# 3 29.4231 55.5301 97.5600 0.0000 -12.6919 0.0000
# 4 0.0000 0.0000 0.0000 23.0281 0.0000 11.5519
# 5 -24.2427 6.3929 -12.6919 0.0000 43.9753 0.0000
# 6 0.0000 0.0000 0.0000 11.5519 0.0000 19.6200
#
#
#
# Elastic Compliance Matrix: (Units=1/GPa)
#
#
# Indices 1 2 3 4 5 6 
#
# 1 0.015384 -0.005709 -0.000186 0.000000 0.009257 0.000000
# 2 -0.005709 0.011166 -0.005460 0.000000 -0.006346 0.000000
# 3 -0.000186 -0.005460 0.014030 0.000000 0.004741 0.000000
# 4 0.000000 0.000000 0.000000 0.061627 0.000000 -0.036285
# 5 0.009257 -0.006346 0.004741 0.000000 0.030134 0.000000
# 6 0.000000 0.000000 0.000000 -0.036285 0.000000 0.072332
#
#
# Mechanical properties :
#
#
# Convention : Reuss Voigt Hill
#
# Bulk Modulus (GPa) = 55.95345 68.36773 62.16059
# Shear Modulus (GPa) = 21.42779 31.11581 26.27180
#
# Velocity S-wave (km/s) = 3.21829 3.87818 3.56354
# Velocity P-wave (km/s) = 6.39185 7.28698 6.85404
#
# Compressibility (1/GPa) = 0.01787200
#
# Stress axis : x y z
#
# Youngs Moduli (GPa) = 65.00132 89.55372 71.27354
#
# Poissons Ratio (x) = 0.51127 0.01325
# Poissons Ratio (y) = 0.37110 0.38913
# Poissons Ratio (z) = 0.01208 0.48893
#
# Static dielectric constant tensor:
#      x y z
#    x 3.785020 0.000000 -0.272780 
#    y 0.000000 4.128330 0.000000 
#    z -0.272780 0.000000 3.784570 
# 
# 
# High freq. dielectric constant tensor:
#      x y z
#    x 1.806210 0.000000 -0.028350 
#    y 0.000000 1.814220 0.000000 
#    z -0.028350 0.000000 1.817780 
# 
# From -- ./inp_files/46474.got.cif
#   From: 2010.06.25/outbox.cif.g09.slc.cpg/sg10_24_cif.got.tgz:46474.got - 2010.06.27 22:07:45.
