data_PCOD8065125
_publ_section_title
;
Structure prediction by ZEFSAII (Michael W. Deem and Ramdas Pophale) SiO2 
 PCOD8065125
Probable space group: P 2/M
;
_chemical_formula_sum "Si O2"
_cell_formula_units_Z 32
_cell_length_a 11.876154
_cell_length_b 18.007469
_cell_length_c 13.965582
_cell_angle_alpha 90.000000
_cell_angle_beta 32.702698
_cell_angle_gamma 90.000000
_cell_volume 1613.639005
_symmetry_space_group_name_H-M "P 2/M"
_symmetry_group_IT_number 10
_symmetry_cell_setting 'monoclinic'
loop_
_space_group_symop_operation_xyz
x,y,z
-x,y,-z
-x,-y,-z
x,-y,z
loop_
_atom_site_type_symbol
_atom_site_label
_atom_site_fract_x
_atom_site_fract_y
_atom_site_fract_z
Si Si1 0.501202 0.161427 0.216114
Si Si2 0.287701 0.918728 0.208841
Si Si3 0.672631 0.831792 0.454720
Si Si4 0.902281 0.586770 0.843442
Si Si5 0.906370 0.911982 0.843066
Si Si6 0.529386 0.664301 0.192723
Si Si7 0.205761 0.413667 0.294733
Si Si8 0.338041 0.340494 0.532463
O O1 0.315525 0.138709 0.275738
O O2 0.419689 0.139990 0.378975
O O3 0.545682 0.247817 0.173464
O O4 0.714977 0.117879 0.043463
O O5 0.119293 0.890430 0.251378
O O6 0.224781 0.000000 0.295062
O O7 0.500000 0.927254 0.000000
O O8 0.500000 0.849245 0.500000
O O9 0.730259 0.745172 0.417358
O O10 0.879085 0.875801 0.275785
O O11 0.874755 0.500000 0.880753
O O12 0.831782 0.609562 0.787397
O O13 0.139764 0.608255 0.692083
O O14 0.760874 0.631065 0.020056
O O15 0.914171 0.000000 0.851130
O O16 0.395144 0.633729 0.200414
O O17 0.435866 0.637991 0.360403
O O18 0.264310 0.500000 0.262918
O O19 0.000000 0.393440 0.500000
O O20 0.500000 0.358708 0.500000
#
# Coordination Sequence:
#
# PCOD8065125 Si02
#       8
#     4   4   4   4   4   4   4   4
#     4  10  21  37  59  87 115 150 187 237 287 335
#     4   8  16  33  55  81 113 148 181 218 276 340
#     4  10  23  41  59  82 112 150 197 239 281 339
#     4  11  23  38  61  88 117 154 192 238 290 347
#     4  10  21  38  60  85 117 153 186 232 288 342
#     4  11  22  37  60  90 117 151 195 239 290 346
#     4  10  20  37  59  85 121 158 188 228 289 351
#     4  10  23  43  61  80 114 156 196 244 294 340
#
# _framework density 19.830953999999998
#
# number of rings (size 3 to 8) (size 9 to 14) (size 15 to 20)
#    0.000    2.000    1.250    2.625    0.000    8.500 
#    0.000    6.250    0.000    0.000    0.000    0.000 
#    0.000    0.000    0.000    0.000    0.000    0.000 
#
# Total GULP energy -396881.953193 kJ/mol
# GULP energy per Si atom -12402.561037 kJ/mol
# Density = 1.978582 g / cm^3
# Si number density = 19.830954 Si / 1000 Ang^3
#
#
#
# Elastic Constant Matrix: (Units=GPa)
#
#
# Indices 1 2 3 4 5 6 
#
# 1 71.6360 15.1516 10.5091 0.0000 -6.9565 0.0000
# 2 15.1516 54.3597 22.6326 0.0000 -3.4280 0.0000
# 3 10.5091 22.6326 76.4982 0.0000 -6.7927 0.0000
# 4 0.0000 0.0000 0.0000 21.7711 0.0000 -28.7897
# 5 -6.9565 -3.4280 -6.7927 0.0000 19.2640 0.0000
# 6 0.0000 0.0000 0.0000 -28.7897 0.0000 -8.2721
#
#
#
# Elastic Compliance Matrix: (Units=1/GPa)
#
#
# Indices 1 2 3 4 5 6 
#
# 1 0.015284 -0.003723 -0.000585 0.000000 0.004650 0.000000
# 2 -0.003723 0.021935 -0.005937 0.000000 0.000465 0.000000
# 3 -0.000585 -0.005937 0.015275 0.000000 0.004118 0.000000
# 4 0.000000 0.000000 0.000000 0.008199 0.000000 -0.028535
# 5 0.004650 0.000465 0.004118 0.000000 0.055125 0.000000
# 6 0.000000 0.000000 0.000000 -0.028535 0.000000 -0.021578
#
#
# Mechanical properties :
#
#
# Convention : Reuss Voigt Hill
#
# Bulk Modulus (GPa) = 31.24663 33.23116 32.23889
# Shear Modulus (GPa) = 39.87321 16.83266 28.35293
#
# Velocity S-wave (km/s) = 4.48890 2.91659 3.78528
# Velocity P-wave (km/s) = 6.53128 5.30430 5.94951
#
# Compressibility (1/GPa) = 0.03200345
#
# Stress axis : x y z
#
# Youngs Moduli (GPa) = 65.42608 45.58950 65.46761
#
# Poissons Ratio (x) = 0.16974 0.03831
# Poissons Ratio (y) = 0.24360 0.38867
# Poissons Ratio (z) = 0.03829 0.27066
#
# Static dielectric constant tensor:
#      x y z
#    x 3.777660 0.000000 0.011700 
#    y 0.000000 3.564910 0.000000 
#    z 0.011700 0.000000 3.602640 
# 
# 
# High freq. dielectric constant tensor:
#      x y z
#    x 1.770770 0.000000 -0.002010 
#    y 0.000000 1.772340 0.000000 
#    z -0.002010 0.000000 1.779010 
# 
# From -- ./inp_files/65391.got.cif
#   From: 2010.06.25/outbox.cif.g09.slc.cpg/sg10_33_cif.got.tgz:65391.got - 2010.06.27 22:07:45.
