data_PCOD8065742
_publ_section_title
;
Structure prediction by ZEFSAII (Michael W. Deem and Ramdas Pophale) SiO2 
 PCOD8065742
Probable space group: P 2/M
;
_chemical_formula_sum "Si O2"
_cell_formula_units_Z 24
_cell_length_a 11.786287
_cell_length_b 9.286414
_cell_length_c 23.499389
_cell_angle_alpha 90.000000
_cell_angle_beta 30.279596
_cell_angle_gamma 90.000000
_cell_volume 1296.885985
_symmetry_space_group_name_H-M "P 2/M"
_symmetry_group_IT_number 10
_symmetry_cell_setting 'monoclinic'
loop_
_space_group_symop_operation_xyz
x,y,z
-x,y,-z
-x,-y,-z
x,-y,z
loop_
_atom_site_type_symbol
_atom_site_label
_atom_site_fract_x
_atom_site_fract_y
_atom_site_fract_z
Si Si1 0.394020 0.166762 0.795299
Si Si2 0.908652 0.171468 0.177640
Si Si3 0.632123 0.166432 0.063662
Si Si4 0.868637 0.828586 0.716530
Si Si5 0.173669 0.660397 0.374773
Si Si6 0.733773 0.170989 0.372839
O O1 0.215718 0.220265 0.825898
O O2 0.300756 0.190829 0.899390
O O3 0.611656 0.262450 0.691579
O O4 0.457919 0.000000 0.758135
O O5 0.778863 0.231466 0.289599
O O6 0.918641 0.000000 0.176797
O O7 0.165882 0.233410 0.062194
O O8 0.382890 0.228477 0.157213
O O9 0.620243 0.000000 0.054223
O O10 0.934723 0.753943 0.628884
O O11 0.052298 0.779360 0.682808
O O12 0.868199 0.000000 0.707472
O O13 0.235811 0.500000 0.325771
O O14 0.000000 0.649102 0.500000
O O15 0.500000 0.234377 0.500000
O O16 0.716540 0.000000 0.379395
#
# Coordination Sequence:
#
# PCOD8065742 Si02
#       6
#     4   4   4   4   4   4
#     4   9  17  29  49  76  99 125 161 200 243 290
#     4   9  16  26  45  72 103 134 158 196 246 284
#     4   8  14  26  44  71 100 125 161 201 241 285
#     4   9  18  32  51  72  97 127 163 205 238 283
#     4  10  21  34  49  70  97 129 162 200 246 292
#     4   9  18  29  42  69 104 132 162 200 241 283
#
# _framework density 18.505866999999999
#
# number of rings (size 3 to 8) (size 9 to 14) (size 15 to 20)
#    0.000    3.000    0.000    2.000    2.333    4.000 
#    0.000    3.333    0.000    9.500    0.000    4.667 
#    0.000    0.000    0.000    0.000    0.000    0.000 
#
# Total GULP energy -297383.910399 kJ/mol
# GULP energy per Si atom -12390.996267 kJ/mol
# Density = 1.846375 g / cm^3
# Si number density = 18.505867 Si / 1000 Ang^3
#
#
#
# Elastic Constant Matrix: (Units=GPa)
#
#
# Indices 1 2 3 4 5 6 
#
# 1 120.8864 12.9542 66.5147 0.0000 -14.3785 0.0000
# 2 12.9542 31.5052 19.8266 0.0000 -2.6036 0.0000
# 3 66.5147 19.8266 132.5711 0.0000 -2.2063 0.0000
# 4 0.0000 0.0000 0.0000 7.6009 0.0000 3.9282
# 5 -14.3785 -2.6036 -2.2063 0.0000 22.5151 0.0000
# 6 0.0000 0.0000 0.0000 3.9282 0.0000 1.7633
#
#
#
# Elastic Compliance Matrix: (Units=1/GPa)
#
#
# Indices 1 2 3 4 5 6 
#
# 1 0.012566 -0.000739 -0.006072 0.000000 0.007344 0.000000
# 2 -0.000739 0.035367 -0.004866 0.000000 0.003141 0.000000
# 3 -0.006072 -0.004866 0.011262 0.000000 -0.003337 0.000000
# 4 0.000000 0.000000 0.000000 -0.869568 0.000000 1.937173
# 5 0.007344 0.003141 -0.003337 0.000000 0.049141 0.000000
# 6 0.000000 0.000000 0.000000 1.937173 0.000000 -3.748401
#
#
# Mechanical properties :
#
#
# Convention : Reuss Voigt Hill
#
# Bulk Modulus (GPa) = 27.90152 53.72820 40.81486
# Shear Modulus (GPa) = -1.11748 18.75367 8.81809
#
# Velocity S-wave (km/s) = -0.77792 3.18683 2.18526
# Velocity P-wave (km/s) = 3.78193 6.52972 5.33574
#
# Compressibility (1/GPa) = 0.03584034
#
# Stress axis : x y z
#
# Youngs Moduli (GPa) = 79.58050 28.27529 88.79531
#
# Poissons Ratio (x) = 0.02089 0.53916
# Poissons Ratio (y) = 0.05879 0.43211
# Poissons Ratio (z) = 0.48321 0.13760
#
# Static dielectric constant tensor:
#      x y z
#    x 3.615620 0.000000 -0.126920 
#    y 0.000000 2.974490 0.000000 
#    z -0.126920 0.000000 3.748480 
# 
# 
# High freq. dielectric constant tensor:
#      x y z
#    x 1.718220 0.000000 -0.005820 
#    y 0.000000 1.651810 0.000000 
#    z -0.005820 0.000000 1.728730 
# 
# From -- ./inp_files/45154.got.cif
#   From: 2010.06.25/outbox.cif.g09.slc.cpg/sg10_23_cif.got.tgz:45154.got - 2010.06.27 22:07:45.
