data_PCOD8065136
_publ_section_title
;
Structure prediction by ZEFSAII (Michael W. Deem and Ramdas Pophale) SiO2 
 PCOD8065136
Probable space group: P 2/M
;
_chemical_formula_sum "Si O2"
_cell_formula_units_Z 28
_cell_length_a 21.403027
_cell_length_b 14.027180
_cell_length_c 4.977336
_cell_angle_alpha 90.000000
_cell_angle_beta 83.328821
_cell_angle_gamma 90.000000
_cell_volume 1484.198583
_symmetry_space_group_name_H-M "P 2/M"
_symmetry_group_IT_number 10
_symmetry_cell_setting 'monoclinic'
loop_
_space_group_symop_operation_xyz
x,y,z
-x,y,-z
-x,-y,-z
x,-y,z
loop_
_atom_site_type_symbol
_atom_site_label
_atom_site_fract_x
_atom_site_fract_y
_atom_site_fract_z
Si Si1 0.958612 0.606521 0.259028
Si Si2 0.958948 0.105548 0.281974
Si Si3 0.851884 0.752156 0.351178
Si Si4 0.770418 0.222065 0.900710
Si Si5 0.646057 0.767987 0.716469
Si Si6 0.666180 0.110722 0.169198
Si Si7 0.543330 0.391911 0.734219
O O1 0.940505 0.500000 0.175308
O O2 0.893523 0.658002 0.360044
O O3 0.000000 0.605697 0.500000
O O4 0.000000 0.656000 0.000000
O O5 0.896414 0.162106 0.236630
O O6 0.000000 0.155453 0.500000
O O7 0.939027 0.000000 0.389368
O O8 0.000000 0.099736 0.000000
O O9 0.799943 0.728741 0.149689
O O10 0.823264 0.787091 0.647661
O O11 0.738605 0.122189 0.021987
O O12 0.711596 0.279615 0.794886
O O13 0.657885 0.832314 0.449469
O O14 0.600488 0.680990 0.674622
O O15 0.620807 0.839774 0.965411
O O16 0.649470 0.000000 0.218213
O O17 0.500000 0.385233 0.500000
O O18 0.569269 0.500000 0.760463
O O19 0.500000 0.359699 0.000000
#
# Coordination Sequence:
#
# PCOD8065136 Si02
#       7
#     4   4   4   4   4   4   4
#     4  10  21  37  56  77 101 139 185 230 287 350
#     4  10  21  35  49  71 102 134 171 224 290 338
#     4  12  20  35  56  78 107 137 188 232 284 341
#     4  10  22  35  54  82 112 143 189 229 281 343
#     4  10  20  39  58  85 125 154 191 243 286 334
#     4  10  20  37  60  81 114 160 198 230 280 340
#     4  10  21  38  66  97 121 156 201 239 285 341
#
# _framework density 18.865402
#
# number of rings (size 3 to 8) (size 9 to 14) (size 15 to 20)
#    0.857    0.857    1.429    3.857    0.000    1.143 
#    0.000    1.429    0.000    8.571    0.000    0.000 
#    0.000    0.000    0.000    0.000    0.000    0.000 
#
# Total GULP energy -346870.903839 kJ/mol
# GULP energy per Si atom -12388.246566 kJ/mol
# Density = 1.882246 g / cm^3
# Si number density = 18.865402 Si / 1000 Ang^3
#
#
#
# Elastic Constant Matrix: (Units=GPa)
#
#
# Indices 1 2 3 4 5 6 
#
# 1 77.1082 49.5915 26.6104 0.0000 1.5569 0.0000
# 2 49.5915 101.0200 30.4323 0.0000 -7.2386 0.0000
# 3 26.6104 30.4323 123.8928 0.0000 9.2733 0.0000
# 4 0.0000 0.0000 0.0000 24.5906 0.0000 4.4712
# 5 1.5569 -7.2386 9.2733 0.0000 25.9833 0.0000
# 6 0.0000 0.0000 0.0000 4.4712 0.0000 33.3785
#
#
#
# Elastic Compliance Matrix: (Units=1/GPa)
#
#
# Indices 1 2 3 4 5 6 
#
# 1 0.019632 -0.009360 -0.001679 0.000000 -0.003185 0.000000
# 2 -0.009360 0.015578 -0.002243 0.000000 0.005701 0.000000
# 3 -0.001679 -0.002243 0.009270 0.000000 -0.003833 0.000000
# 4 0.000000 0.000000 0.000000 0.041681 0.000000 -0.005583
# 5 -0.003185 0.005701 -0.003833 0.000000 0.041633 0.000000
# 6 0.000000 0.000000 0.000000 -0.005583 0.000000 0.030707
#
#
# Mechanical properties :
#
#
# Convention : Reuss Voigt Hill
#
# Bulk Modulus (GPa) = 55.81525 57.25438 56.53482
# Shear Modulus (GPa) = 26.17273 29.81627 27.99450
#
# Velocity S-wave (km/s) = 3.72874 3.97983 3.85633
# Velocity P-wave (km/s) = 6.94178 7.17868 7.06122
#
# Compressibility (1/GPa) = 0.01791625
#
# Stress axis : x y z
#
# Youngs Moduli (GPa) = 50.93608 64.19255 107.87535
#
# Poissons Ratio (x) = 0.60085 0.18115
# Poissons Ratio (y) = 0.47676 0.24195
# Poissons Ratio (z) = 0.08553 0.14397
#
# Static dielectric constant tensor:
#      x y z
#    x 3.191400 0.000000 0.158600 
#    y 0.000000 3.409510 0.000000 
#    z 0.158600 0.000000 3.625960 
# 
# 
# High freq. dielectric constant tensor:
#      x y z
#    x 1.717670 0.000000 0.014340 
#    y 0.000000 1.710490 0.000000 
#    z 0.014340 0.000000 1.757230 
# 
# From -- ./inp_files/12582.got.cif
#   From: 2010.06.25/outbox.cif.g09.slc.cpg/sg10_7_cif.got.tgz:12582.got - 2010.06.27 22:07:45.
