data_PCOD8065894
_publ_section_title
;
Structure prediction by ZEFSAII (Michael W. Deem and Ramdas Pophale) SiO2 
 PCOD8065894
Probable space group: P 2/M
;
_chemical_formula_sum "Si O2"
_cell_formula_units_Z 28
_cell_length_a 14.346774
_cell_length_b 8.915462
_cell_length_c 17.041786
_cell_angle_alpha 90.000000
_cell_angle_beta 138.486874
_cell_angle_gamma 90.000000
_cell_volume 1444.741741
_symmetry_space_group_name_H-M "P 2/M"
_symmetry_group_IT_number 10
_symmetry_cell_setting 'monoclinic'
loop_
_space_group_symop_operation_xyz
x,y,z
-x,y,-z
-x,-y,-z
x,-y,z
loop_
_atom_site_type_symbol
_atom_site_label
_atom_site_fract_x
_atom_site_fract_y
_atom_site_fract_z
Si Si1 0.925269 0.177675 0.198556
Si Si2 0.527918 0.828888 0.430918
Si Si3 0.894397 0.824384 0.002892
Si Si4 0.598816 0.676051 0.793221
Si Si5 0.177430 0.829395 0.457716
Si Si6 0.659188 0.176678 0.293211
Si Si7 0.345970 0.176449 0.886624
O O1 0.959472 0.215906 0.129413
O O2 0.772235 0.241793 0.128664
O O3 0.044583 0.250056 0.331162
O O4 0.926160 0.000000 0.210491
O O5 0.500000 0.769678 0.500000
O O6 0.440074 0.722061 0.319256
O O7 0.693351 0.816929 0.520388
O O8 0.475026 0.000000 0.386523
O O9 0.857760 0.000000 0.973730
O O10 0.755021 0.728555 0.908547
O O11 0.000000 0.776377 0.000000
O O12 0.587929 0.500000 0.796491
O O13 0.493012 0.751727 0.788242
O O14 0.224026 0.758350 0.571554
O O15 0.134810 0.000000 0.447218
O O16 0.705757 0.213353 0.234272
O O17 0.640688 0.000000 0.296942
O O18 0.359211 0.000000 0.907968
O O19 0.500000 0.249199 0.000000
#
# Coordination Sequence:
#
# PCOD8065894 Si02
#       7
#     4   4   4   4   4   4   4
#     4   9  17  29  48  78 108 130 167 223 272 315
#     4   9  18  32  55  79 103 135 176 224 265 311
#     4  10  21  35  55  77 101 138 182 222 265 319
#     4  11  22  35  52  75 107 140 175 218 265 317
#     4   8  15  27  45  74 106 131 162 211 264 311
#     4   9  17  32  53  76 103 135 174 214 262 320
#     4   9  16  26  46  75 105 136 170 217 269 314
#
# _framework density 19.380625999999999
#
# number of rings (size 3 to 8) (size 9 to 14) (size 15 to 20)
#    0.000    2.714    0.000    3.000    2.000    3.429 
#    0.000    2.857    0.000    4.714    0.000    4.000 
#    0.000    0.000    0.000    0.000    0.000    0.000 
#
# Total GULP energy -347039.274236 kJ/mol
# GULP energy per Si atom -12394.259794 kJ/mol
# Density = 1.933652 g / cm^3
# Si number density = 19.380626 Si / 1000 Ang^3
#
#
#
# Elastic Constant Matrix: (Units=GPa)
#
#
# Indices 1 2 3 4 5 6 
#
# 1 113.6475 15.7849 61.0898 0.0000 -16.5193 0.0000
# 2 15.7849 37.0850 19.4362 0.0000 -1.5817 0.0000
# 3 61.0898 19.4362 133.6049 0.0000 6.1329 0.0000
# 4 0.0000 0.0000 0.0000 8.9446 0.0000 -0.5681
# 5 -16.5193 -1.5817 6.1329 0.0000 25.5693 0.0000
# 6 0.0000 0.0000 0.0000 -0.5681 0.0000 4.0942
#
#
#
# Elastic Compliance Matrix: (Units=1/GPa)
#
#
# Indices 1 2 3 4 5 6 
#
# 1 0.014243 -0.002097 -0.006698 0.000000 0.010678 0.000000
# 2 -0.002097 0.029707 -0.003423 0.000000 0.001304 0.000000
# 3 -0.006698 -0.003423 0.011379 0.000000 -0.007268 0.000000
# 4 0.000000 0.000000 0.000000 0.112794 0.000000 0.015650
# 5 0.010678 0.001304 -0.007268 0.000000 0.047832 0.000000
# 6 0.000000 0.000000 0.000000 0.015650 0.000000 0.246418
#
#
# Mechanical properties :
#
#
# Convention : Reuss Voigt Hill
#
# Bulk Modulus (GPa) = 32.36831 52.99549 42.68190
# Shear Modulus (GPa) = 10.05824 20.25672 15.15748
#
# Velocity S-wave (km/s) = 2.28059 3.23647 2.79963
# Velocity P-wave (km/s) = 4.86543 6.43197 5.70275
#
# Compressibility (1/GPa) = 0.03089441
#
# Stress axis : x y z
#
# Youngs Moduli (GPa) = 70.21149 33.66206 87.88353
#
# Poissons Ratio (x) = 0.07058 0.58860
# Poissons Ratio (y) = 0.14721 0.30081
# Poissons Ratio (z) = 0.47024 0.11522
#
# Static dielectric constant tensor:
#      x y z
#    x 3.696960 0.000000 -0.110800 
#    y 0.000000 2.931600 0.000000 
#    z -0.110800 0.000000 3.856550 
# 
# 
# High freq. dielectric constant tensor:
#      x y z
#    x 1.759500 0.000000 -0.008280 
#    y 0.000000 1.684660 0.000000 
#    z -0.008280 0.000000 1.768440 
# 
# From -- ./inp_files/77778.got.cif
#   From: 2010.06.25/outbox.cif.g09.slc.cpg/sg10_39_cif.got.tgz:77778.got - 2010.06.27 22:07:45.
