data_PCOD8065920
_publ_section_title
;
Structure prediction by ZEFSAII (Michael W. Deem and Ramdas Pophale) SiO2 
 PCOD8065920
Probable space group: P 2/M
;
_chemical_formula_sum "Si O2"
_cell_formula_units_Z 32
_cell_length_a 26.279329
_cell_length_b 8.989863
_cell_length_c 14.297072
_cell_angle_alpha 90.000000
_cell_angle_beta 151.851478
_cell_angle_gamma 90.000000
_cell_volume 1593.435252
_symmetry_space_group_name_H-M "P 2/M"
_symmetry_group_IT_number 10
_symmetry_cell_setting 'monoclinic'
loop_
_space_group_symop_operation_xyz
x,y,z
-x,y,-z
-x,-y,-z
x,-y,z
loop_
_atom_site_type_symbol
_atom_site_label
_atom_site_fract_x
_atom_site_fract_y
_atom_site_fract_z
Si Si1 0.507162 0.824554 0.906703
Si Si2 0.914137 0.831402 0.442852
Si Si3 0.607431 0.324122 0.728496
Si Si4 0.012105 0.668342 0.771369
Si Si5 0.300608 0.824137 0.463788
Si Si6 0.330798 0.826448 0.986242
Si Si7 0.766035 0.824128 0.847236
Si Si8 0.100693 0.668603 0.221430
O O1 0.410191 0.760003 0.686002
O O2 0.493529 0.000000 0.893812
O O3 0.500000 0.754513 0.000000
O O4 0.618599 0.784391 0.033548
O O5 0.795300 0.784422 0.215371
O O6 0.000000 0.818879 0.500000
O O7 0.949573 0.716278 0.578033
O O8 0.910655 0.000000 0.476730
O O9 0.500000 0.272896 0.500000
O O10 0.618939 0.500000 0.748887
O O11 0.710160 0.254708 0.843699
O O12 0.605184 0.263642 0.830486
O O13 0.055751 0.500000 0.830808
O O14 0.923811 0.677698 0.709178
O O15 0.109532 0.778292 0.952393
O O16 0.289455 0.768632 0.338811
O O17 0.203414 0.768931 0.369823
O O18 0.298467 0.000000 0.461786
O O19 0.349199 0.000000 0.036916
O O20 0.757870 0.000000 0.847583
O O21 0.124510 0.500000 0.226913
O O22 0.000000 0.732905 0.000000
#
# Coordination Sequence:
#
# PCOD8065920 Si02
#       8
#     4   4   4   4   4   4   4   4
#     4   9  19  36  58  86 117 152 198 245 296 353
#     4  10  22  39  60  89 121 155 199 248 300 357
#     4  11  24  40  61  89 120 156 196 241 296 357
#     4  11  23  38  59  86 118 158 197 238 296 360
#     4  10  21  35  58  87 115 150 198 250 294 345
#     4  10  21  39  63  88 120 161 199 249 305 351
#     4  11  22  37  59  89 120 152 195 248 297 354
#     4  10  21  38  57  82 120 160 193 235 295 361
#
# _framework density 20.082397
#
# number of rings (size 3 to 8) (size 9 to 14) (size 15 to 20)
#    0.000    1.750    1.250    2.625    1.750    5.500 
#    0.000    0.625    0.000    0.750    0.000    0.000 
#    0.000    0.000    0.000    0.000    0.000    0.000 
#
# Total GULP energy -396894.376059 kJ/mol
# GULP energy per Si atom -12402.949252 kJ/mol
# Density = 2.003669 g / cm^3
# Si number density = 20.082397 Si / 1000 Ang^3
#
#
#
# Elastic Constant Matrix: (Units=GPa)
#
#
# Indices 1 2 3 4 5 6 
#
# 1 120.4547 31.4746 48.8841 0.0000 -5.9474 0.0000
# 2 31.4746 42.8041 25.4351 0.0000 -8.2502 0.0000
# 3 48.8841 25.4351 117.0655 0.0000 -3.2675 0.0000
# 4 0.0000 0.0000 0.0000 24.3239 0.0000 -3.1510
# 5 -5.9474 -8.2502 -3.2675 0.0000 37.8079 0.0000
# 6 0.0000 0.0000 0.0000 -3.1510 0.0000 22.9800
#
#
#
# Elastic Compliance Matrix: (Units=1/GPa)
#
#
# Indices 1 2 3 4 5 6 
#
# 1 0.011316 -0.006307 -0.003352 0.000000 0.000114 0.000000
# 2 -0.006307 0.031471 -0.004050 0.000000 0.005525 0.000000
# 3 -0.003352 -0.004050 0.010808 0.000000 -0.000477 0.000000
# 4 0.000000 0.000000 0.000000 0.041855 0.000000 0.005739
# 5 0.000114 0.005525 -0.000477 0.000000 0.027632 0.000000
# 6 0.000000 0.000000 0.000000 0.005739 0.000000 0.044303
#
#
# Mechanical properties :
#
#
# Convention : Reuss Voigt Hill
#
# Bulk Modulus (GPa) = 38.19957 54.65686 46.42821
# Shear Modulus (GPa) = 24.56646 28.65772 26.61209
#
# Velocity S-wave (km/s) = 3.50134 3.78167 3.64420
# Velocity P-wave (km/s) = 5.95051 6.80760 6.39343
#
# Compressibility (1/GPa) = 0.02617831
#
# Stress axis : x y z
#
# Youngs Moduli (GPa) = 88.37256 31.77478 92.52014
#
# Poissons Ratio (x) = 0.20040 0.31010
# Poissons Ratio (y) = 0.55737 0.37471
# Poissons Ratio (z) = 0.29620 0.12869
#
# Static dielectric constant tensor:
#      x y z
#    x 3.914830 0.000000 0.060080 
#    y 0.000000 3.481140 0.000000 
#    z 0.060080 0.000000 3.851050 
# 
# 
# High freq. dielectric constant tensor:
#      x y z
#    x 1.796430 0.000000 0.000520 
#    y 0.000000 1.764020 0.000000 
#    z 0.000520 0.000000 1.789090 
# 
# From -- ./inp_files/71681.got.cif
#   From: 2010.06.25/outbox.cif.g09.slc.cpg/sg10_36_cif.got.tgz:71681.got - 2010.06.27 22:07:45.
