data_PCOD8065947
_publ_section_title
;
Structure prediction by ZEFSAII (Michael W. Deem and Ramdas Pophale) SiO2 
 PCOD8065947
Probable space group: P 2/M
;
_chemical_formula_sum "Si O2"
_cell_formula_units_Z 28
_cell_length_a 29.502127
_cell_length_b 9.345711
_cell_length_c 9.366994
_cell_angle_alpha 90.000000
_cell_angle_beta 142.537881
_cell_angle_gamma 90.000000
_cell_volume 1570.864011
_symmetry_space_group_name_H-M "P 2/M"
_symmetry_group_IT_number 10
_symmetry_cell_setting 'monoclinic'
loop_
_space_group_symop_operation_xyz
x,y,z
-x,y,-z
-x,-y,-z
x,-y,z
loop_
_atom_site_type_symbol
_atom_site_label
_atom_site_fract_x
_atom_site_fract_y
_atom_site_fract_z
Si Si1 0.927114 0.667862 0.233074
Si Si2 0.500000 0.171066 0.159511
Si Si3 0.363608 0.169744 0.316844
Si Si4 0.927114 0.667862 0.902495
Si Si5 0.196317 0.832546 0.575707
Si Si6 0.363608 0.830256 0.001195
Si Si7 0.196316 0.167454 0.905875
O O1 0.914765 0.500000 0.222187
O O2 0.856143 0.746191 0.120017
O O3 0.000000 0.720177 0.500000
O O4 0.936656 0.709963 0.091640
O O5 0.574171 0.232101 0.421127
O O6 0.500000 0.000000 0.161478
O O7 0.500000 0.231503 0.000000
O O8 0.425830 0.232100 0.050275
O O9 0.369026 0.000000 0.324615
O O10 0.379689 0.231528 0.199224
O O11 0.280542 0.212911 0.158340
O O12 0.914765 0.500000 0.851638
O O13 0.856143 0.746192 0.660701
O O14 0.000000 0.720177 0.000000
O O15 0.280542 0.787087 0.744370
O O16 0.180112 0.793317 0.700279
O O17 0.183484 0.000000 0.518229
O O18 0.369024 0.000000 0.020511
O O19 0.183483 0.000000 0.899188
#
# Coordination Sequence:
#
# PCOD8065947 Si02
#       7
#     4   4   4   4   4   4   4
#     4  10  21  36  53  72  94 123 159 196 235 282
#     4   9  15  21  33  57  88 121 156 191 226 266
#     4   8  14  25  40  59  87 122 155 187 226 273
#     4  10  21  36  53  72  94 123 159 196 235 282
#     4   9  18  32  50  73  99 126 158 196 238 283
#     4   8  14  25  40  59  87 122 155 187 226 273
#     4   9  18  32  50  73  99 126 158 196 238 283
#
# _framework density 17.824584999999999
#
# number of rings (size 3 to 8) (size 9 to 14) (size 15 to 20)
#    0.000    3.000    0.000    3.000    0.000    5.714 
#    0.000    2.857    0.000    0.000    0.000    1.000 
#    0.000    8.000    0.000    0.000    0.000    0.000 
#
# Total GULP energy -347112.007550 kJ/mol
# GULP energy per Si atom -12396.857412 kJ/mol
# Density = 1.778402 g / cm^3
# Si number density = 17.824585 Si / 1000 Ang^3
#
#
#
# Elastic Constant Matrix: (Units=GPa)
#
#
# Indices 1 2 3 4 5 6 
#
# 1 172.3062 34.7343 96.6751 0.0000 6.3219 0.0000
# 2 34.7343 20.6010 34.8128 0.0000 0.2604 0.0000
# 3 96.6751 34.8128 174.9217 0.0000 2.4305 0.0000
# 4 0.0000 0.0000 0.0000 4.6542 0.0000 -14.7281
# 5 6.3219 0.2604 2.4305 0.0000 25.7249 0.0000
# 6 0.0000 0.0000 0.0000 -14.7281 0.0000 9.0514
#
#
#
# Elastic Compliance Matrix: (Units=1/GPa)
#
#
# Indices 1 2 3 4 5 6 
#
# 1 0.009975 -0.011337 -0.003228 0.000000 -0.002032 0.000000
# 2 -0.011337 0.086034 -0.010898 0.000000 0.002945 0.000000
# 3 -0.003228 -0.010898 0.009670 0.000000 -0.000010 0.000000
# 4 0.000000 0.000000 0.000000 -0.051785 0.000000 -0.084262
# 5 -0.002032 0.002945 -0.000010 0.000000 0.039343 0.000000
# 6 0.000000 0.000000 0.000000 -0.084262 0.000000 -0.026627
#
#
# Mechanical properties :
#
#
# Convention : Reuss Voigt Hill
#
# Bulk Modulus (GPa) = 18.26380 77.80814 48.03597
# Shear Modulus (GPa) = 36.82230 21.32654 29.07442
#
# Velocity S-wave (km/s) = 4.55005 3.46275 4.04312
# Velocity P-wave (km/s) = 6.15408 7.72881 6.98595
#
# Compressibility (1/GPa) = 0.05475313
#
# Stress axis : x y z
#
# Youngs Moduli (GPa) = 100.25231 11.62329 103.41166
#
# Poissons Ratio (x) = 0.13177 0.33385
# Poissons Ratio (y) = 1.13655 1.12695
# Poissons Ratio (z) = 0.32365 0.12667
#
# Static dielectric constant tensor:
#      x y z
#    x 3.503650 0.000000 0.021240 
#    y 0.000000 2.760100 0.000000 
#    z 0.021240 0.000000 3.510020 
# 
# 
# High freq. dielectric constant tensor:
#      x y z
#    x 1.699660 0.000000 0.005370 
#    y 0.000000 1.631790 0.000000 
#    z 0.005370 0.000000 1.701270 
# 
# From -- ./inp_files/38053.got.cif
#   From: 2010.06.25/outbox.cif.g09.slc.cpg/sg10_20_cif.got.tgz:38053.got - 2010.06.27 22:07:45.
