data_PCOD8065211
_publ_section_title
;
Structure prediction by ZEFSAII (Michael W. Deem and Ramdas Pophale) SiO2 
 PCOD8065211
Probable space group: P 2/M
;
_chemical_formula_sum "Si O2"
_cell_formula_units_Z 32
_cell_length_a 19.993136
_cell_length_b 8.931709
_cell_length_c 25.689644
_cell_angle_alpha 90.000000
_cell_angle_beta 158.801092
_cell_angle_gamma 90.000000
_cell_volume 1658.861627
_symmetry_space_group_name_H-M "P 2/M"
_symmetry_group_IT_number 10
_symmetry_cell_setting 'monoclinic'
loop_
_space_group_symop_operation_xyz
x,y,z
-x,y,-z
-x,-y,-z
x,-y,z
loop_
_atom_site_type_symbol
_atom_site_label
_atom_site_fract_x
_atom_site_fract_y
_atom_site_fract_z
Si Si1 0.365067 0.677217 0.672517
Si Si2 0.196402 0.677534 0.359728
Si Si3 0.210316 0.176322 0.659532
Si Si4 0.319048 0.173690 0.158441
Si Si5 0.059265 0.323531 0.370574
Si Si6 0.079331 0.826339 0.173525
Si Si7 0.698511 0.326378 0.168161
Si Si8 0.583596 0.823823 0.654271
O O1 0.357239 0.500000 0.671173
O O2 0.338054 0.745064 0.709744
O O3 0.564343 0.727288 0.796849
O O4 0.206818 0.741401 0.519043
O O5 0.202315 0.500000 0.364059
O O6 0.103454 0.741127 0.345375
O O7 0.072802 0.733585 0.222152
O O8 0.402837 0.739030 0.503597
O O9 0.283500 0.223985 0.768600
O O10 0.000000 0.231346 0.500000
O O11 0.227890 0.000000 0.665688
O O12 0.365855 0.225203 0.250715
O O13 0.367463 0.000000 0.185039
O O14 0.104441 0.206089 0.992655
O O15 0.081854 0.500000 0.385307
O O16 0.853059 0.277102 0.238187
O O17 0.250319 0.773049 0.262481
O O18 0.097174 0.000000 0.200905
O O19 0.724573 0.500000 0.202684
O O20 0.500000 0.295093 0.000000
O O21 0.548496 0.000000 0.624998
#
# Coordination Sequence:
#
# PCOD8065211 Si02
#       8
#     4   4   4   4   4   4   4   4
#     4  11  21  37  62  86 115 154 194 239 289 343
#     4  11  22  37  57  84 118 154 195 242 291 343
#     4  11  23  38  59  89 121 153 192 239 287 338
#     4  10  21  38  60  86 116 149 192 243 293 344
#     4   9  19  36  57  82 114 149 188 236 286 342
#     4  10  22  39  57  83 118 154 191 238 294 350
#     4  10  21  39  63  89 117 154 197 238 288 348
#     4  10  20  37  61  84 111 152 199 240 288 350
#
# _framework density 19.290337000000001
#
# number of rings (size 3 to 8) (size 9 to 14) (size 15 to 20)
#    0.000    1.750    2.500    1.875    0.000    5.750 
#    0.000    2.500    0.000    2.250    0.000    0.000 
#    0.000    0.000    0.000    0.000    0.000    0.000 
#
# Total GULP energy -396960.107083 kJ/mol
# GULP energy per Si atom -12405.003346 kJ/mol
# Density = 1.924643 g / cm^3
# Si number density = 19.290337 Si / 1000 Ang^3
#
#
#
# Elastic Constant Matrix: (Units=GPa)
#
#
# Indices 1 2 3 4 5 6 
#
# 1 120.0405 32.1515 27.8981 0.0000 10.0657 0.0000
# 2 32.1515 48.4232 21.3349 0.0000 0.8877 0.0000
# 3 27.8981 21.3349 81.9951 0.0000 5.8049 0.0000
# 4 0.0000 0.0000 0.0000 24.4650 0.0000 -4.5143
# 5 10.0657 0.8877 5.8049 0.0000 33.7482 0.0000
# 6 0.0000 0.0000 0.0000 -4.5143 0.0000 30.8688
#
#
#
# Elastic Compliance Matrix: (Units=1/GPa)
#
#
# Indices 1 2 3 4 5 6 
#
# 1 0.010644 -0.006219 -0.001812 0.000000 -0.002699 0.000000
# 2 -0.006219 0.026966 -0.005043 0.000000 0.002013 0.000000
# 3 -0.001812 -0.005043 0.014250 0.000000 -0.001778 0.000000
# 4 0.000000 0.000000 0.000000 0.042008 0.000000 0.006143
# 5 -0.002699 0.002013 -0.001778 0.000000 0.030689 0.000000
# 6 0.000000 0.000000 0.000000 0.006143 0.000000 0.033294
#
#
# Mechanical properties :
#
#
# Convention : Reuss Voigt Hill
#
# Bulk Modulus (GPa) = 38.89332 45.91420 42.40376
# Shear Modulus (GPa) = 25.96463 29.08802 27.52633
#
# Velocity S-wave (km/s) = 3.67276 3.88739 3.78160
# Velocity P-wave (km/s) = 6.17992 6.63343 6.41068
#
# Compressibility (1/GPa) = 0.02571136
#
# Stress axis : x y z
#
# Youngs Moduli (GPa) = 93.95175 37.08432 70.17342
#
# Poissons Ratio (x) = 0.23064 0.12716
# Poissons Ratio (y) = 0.58431 0.35387
# Poissons Ratio (z) = 0.17025 0.18701
#
# Static dielectric constant tensor:
#      x y z
#    x 6.348290 0.000000 3.116680 
#    y 0.000000 3.339270 0.000000 
#    z 3.116680 0.000000 7.116520 
# 
# 
# High freq. dielectric constant tensor:
#      x y z
#    x 1.765430 0.000000 0.001610 
#    y 0.000000 1.734570 0.000000 
#    z 0.001610 0.000000 1.752990 
# 
# From -- ./inp_files/93823.got.cif
#   From: 2010.06.25/outbox.cif.g09.slc.cpg/sg10_47_cif.got.tgz:93823.got - 2010.06.27 22:07:45.
