data_PCOD8065592
_publ_section_title
;
Structure prediction by ZEFSAII (Michael W. Deem and Ramdas Pophale) SiO2 
 PCOD8065592
Probable space group: P 2/M
;
_chemical_formula_sum "Si O2"
_cell_formula_units_Z 20
_cell_length_a 9.074841
_cell_length_b 7.733972
_cell_length_c 23.164809
_cell_angle_alpha 90.000000
_cell_angle_beta 38.689282
_cell_angle_gamma 90.000000
_cell_volume 1016.289687
_symmetry_space_group_name_H-M "P 2/M"
_symmetry_group_IT_number 10
_symmetry_cell_setting 'monoclinic'
loop_
_space_group_symop_operation_xyz
x,y,z
-x,y,-z
-x,-y,-z
x,-y,z
loop_
_atom_site_type_symbol
_atom_site_label
_atom_site_fract_x
_atom_site_fract_y
_atom_site_fract_z
Si Si1 0.115924 0.302081 0.232112
Si Si2 0.257897 0.195976 0.407664
Si Si3 0.538173 0.691890 0.771284
Si Si4 0.728473 0.000000 0.097760
Si Si5 0.571839 0.298148 0.415064
Si Si6 0.616349 0.000000 0.902735
O O1 0.152171 0.500000 0.200123
O O2 0.236866 0.269420 0.257070
O O3 0.843869 0.255442 0.321708
O O4 0.226365 0.172942 0.151263
O O5 0.379261 0.304659 0.320009
O O6 0.418033 0.198142 0.415380
O O7 0.000000 0.275007 0.500000
O O8 0.230192 0.000000 0.394096
O O9 0.436732 0.500000 0.814792
O O10 0.332461 0.829953 0.846147
O O11 0.590409 0.000000 0.080360
O O12 0.000000 0.000000 0.000000
O O13 0.500000 0.229365 0.500000
O O14 0.516608 0.500000 0.426202
O O15 0.500000 0.000000 0.000000
#
# Coordination Sequence:
#
# PCOD8065592 Si02
#       6
#     4   4   4   2   4   2
#     4   9  20  38  60  85 113 147 190 235 279 337
#     4  11  23  36  54  85 120 154 195 236 280 338
#     4  10  20  39  63  84 114 154 191 235 288 335
#     4  10  22  40  59  86 119 144 189 240 282 348
#     4  10  21  37  56  83 116 152 193 234 281 335
#     4  10  22  38  59  84 111 150 185 228 292 338
#
# _framework density 19.679428000000001
#
# number of rings (size 3 to 8) (size 9 to 14) (size 15 to 20)
#    0.000    2.000    1.000    1.800    1.400    6.000 
#    0.000    0.000    0.000    0.000    0.000    0.000 
#    0.000    0.000    0.000    0.000    0.000    0.000 
#
# Total GULP energy -248079.372806 kJ/mol
# GULP energy per Si atom -12403.968640 kJ/mol
# Density = 1.963464 g / cm^3
# Si number density = 19.679428 Si / 1000 Ang^3
#
#
#
# Elastic Constant Matrix: (Units=GPa)
#
#
# Indices 1 2 3 4 5 6 
#
# 1 86.6632 38.0076 64.3120 0.0000 -5.7788 0.0000
# 2 38.0076 114.7016 72.3058 0.0000 -6.7882 0.0000
# 3 64.3120 72.3058 164.6218 0.0000 -3.3780 0.0000
# 4 0.0000 0.0000 0.0000 24.8349 0.0000 3.5731
# 5 -5.7788 -6.7882 -3.3780 0.0000 41.4483 0.0000
# 6 0.0000 0.0000 0.0000 3.5731 0.0000 20.7721
#
#
#
# Elastic Compliance Matrix: (Units=1/GPa)
#
#
# Indices 1 2 3 4 5 6 
#
# 1 0.016658 -0.001861 -0.005658 0.000000 0.001557 0.000000
# 2 -0.001861 0.012364 -0.004675 0.000000 0.001384 0.000000
# 3 -0.005658 -0.004675 0.010324 0.000000 -0.000713 0.000000
# 4 0.000000 0.000000 0.000000 0.041288 0.000000 -0.007102
# 5 0.001557 0.001384 -0.000713 0.000000 0.024512 0.000000
# 6 0.000000 0.000000 0.000000 -0.007102 0.000000 0.049363
#
#
# Mechanical properties :
#
#
# Convention : Reuss Voigt Hill
#
# Bulk Modulus (GPa) = 66.85821 79.47082 73.16451
# Shear Modulus (GPa) = 27.19123 30.16848 28.67985
#
# Velocity S-wave (km/s) = 3.72117 3.91960 3.82167
# Velocity P-wave (km/s) = 7.24639 7.80735 7.53209
#
# Compressibility (1/GPa) = 0.01495703
#
# Stress axis : x y z
#
# Youngs Moduli (GPa) = 60.03182 80.88044 96.86231
#
# Poissons Ratio (x) = 0.15049 0.54809
# Poissons Ratio (y) = 0.11170 0.45285
# Poissons Ratio (z) = 0.33969 0.37813
#
# Static dielectric constant tensor:
#      x y z
#    x 3.456650 0.000000 -0.030510 
#    y 0.000000 3.695460 0.000000 
#    z -0.030510 0.000000 3.433730 
# 
# 
# High freq. dielectric constant tensor:
#      x y z
#    x 1.763180 0.000000 -0.000710 
#    y 0.000000 1.778280 0.000000 
#    z -0.000710 0.000000 1.757650 
# 
# From -- ./inp_files/31725.got.cif
#   From: 2010.06.25/outbox.cif.g09.slc.cpg/sg10_16_cif.got.tgz:31725.got - 2010.06.27 22:07:45.
