data_PCOD8065539
_publ_section_title
;
Structure prediction by ZEFSAII (Michael W. Deem and Ramdas Pophale) SiO2 
 PCOD8065539
Probable space group: P 2/M
;
_chemical_formula_sum "Si O2"
_cell_formula_units_Z 24
_cell_length_a 17.548592
_cell_length_b 7.775328
_cell_length_c 23.418456
_cell_angle_alpha 90.000000
_cell_angle_beta 22.338697
_cell_angle_gamma 90.000000
_cell_volume 1214.493954
_symmetry_space_group_name_H-M "P 2/M"
_symmetry_group_IT_number 10
_symmetry_cell_setting 'monoclinic'
loop_
_space_group_symop_operation_xyz
x,y,z
-x,y,-z
-x,-y,-z
x,-y,z
loop_
_atom_site_type_symbol
_atom_site_label
_atom_site_fract_x
_atom_site_fract_y
_atom_site_fract_z
Si Si1 0.601693 0.298094 0.035388
Si Si2 0.976523 0.000000 0.082556
Si Si3 0.078048 0.803659 0.272160
Si Si4 0.239902 0.309220 0.594002
Si Si5 0.918213 0.302299 0.911527
Si Si6 0.845983 0.700836 0.653214
Si Si7 0.514144 0.000000 0.423457
O O1 0.595545 0.500000 0.027924
O O2 0.378137 0.220455 0.198220
O O3 0.704353 0.214967 0.908323
O O4 0.726346 0.255001 0.005905
O O5 0.077974 0.171414 0.038348
O O6 0.742329 0.000000 0.251094
O O7 0.000000 0.000000 0.000000
O O8 0.075526 0.736326 0.338084
O O9 0.914543 0.693636 0.351393
O O10 0.009970 0.000000 0.318034
O O11 0.336172 0.500000 0.529307
O O12 0.413607 0.169928 0.466214
O O13 0.119761 0.271562 0.735546
O O14 0.905117 0.500000 0.942201
O O15 0.831770 0.500000 0.651131
O O16 0.000000 0.783165 0.500000
O O17 0.500000 0.000000 0.500000
#
# Coordination Sequence:
#
# PCOD8065539 Si02
#       7
#     4   2   4   4   4   4   2
#     4   9  19  36  60  86 112 152 202 246 291 342
#     4  12  26  42  60  89 124 159 191 242 303 358
#     4  11  21  35  58  88 122 153 198 247 288 348
#     4  10  20  38  65  94 119 153 198 250 302 346
#     4   9  19  38  63  89 118 155 200 245 294 355
#     4  10  21  38  57  82 119 160 201 244 291 347
#     4  12  22  40  66  91 122 149 197 250 297 362
#
# _framework density 19.761316999999998
#
# number of rings (size 3 to 8) (size 9 to 14) (size 15 to 20)
#    0.000    1.833    2.500    3.000    3.500    4.333 
#    3.000    0.000    0.000    0.000    0.000    0.000 
#    0.000    0.000    0.000    0.000    0.000    0.000 
#
# Total GULP energy -297601.193417 kJ/mol
# GULP energy per Si atom -12400.049726 kJ/mol
# Density = 1.971634 g / cm^3
# Si number density = 19.761317 Si / 1000 Ang^3
#
#
#
# Elastic Constant Matrix: (Units=GPa)
#
#
# Indices 1 2 3 4 5 6 
#
# 1 125.9972 38.2859 54.8969 0.0000 17.7343 0.0000
# 2 38.2859 76.6806 23.8693 0.0000 -6.3104 0.0000
# 3 54.8969 23.8693 95.1127 0.0000 8.8044 0.0000
# 4 0.0000 0.0000 0.0000 14.4597 0.0000 -3.5128
# 5 17.7343 -6.3104 8.8044 0.0000 23.9448 0.0000
# 6 0.0000 0.0000 0.0000 -3.5128 0.0000 34.8242
#
#
#
# Elastic Compliance Matrix: (Units=1/GPa)
#
#
# Indices 1 2 3 4 5 6 
#
# 1 0.013370 -0.005773 -0.005394 0.000000 -0.009440 0.000000
# 2 -0.005773 0.017296 -0.001891 0.000000 0.009529 0.000000
# 3 -0.005394 -0.001891 0.014263 0.000000 -0.001748 0.000000
# 4 0.000000 0.000000 0.000000 0.070895 0.000000 0.007151
# 5 -0.009440 0.009529 -0.001748 0.000000 0.051908 0.000000
# 6 0.000000 0.000000 0.000000 0.007151 0.000000 0.029437
#
#
# Mechanical properties :
#
#
# Convention : Reuss Voigt Hill
#
# Bulk Modulus (GPa) = 53.15234 59.09940 56.12587
# Shear Modulus (GPa) = 21.78105 26.69496 24.23801
#
# Velocity S-wave (km/s) = 3.32355 3.67941 3.50600
# Velocity P-wave (km/s) = 6.45628 6.92981 6.69723
#
# Compressibility (1/GPa) = 0.01881385
#
# Stress axis : x y z
#
# Youngs Moduli (GPa) = 74.79498 57.81567 70.10938
#
# Poissons Ratio (x) = 0.33378 0.37818
# Poissons Ratio (y) = 0.43181 0.13255
# Poissons Ratio (z) = 0.40345 0.10930
#
# Static dielectric constant tensor:
#      x y z
#    x 3.509980 0.000000 -0.169800 
#    y 0.000000 3.695680 0.000000 
#    z -0.169800 0.000000 3.650500 
# 
# 
# High freq. dielectric constant tensor:
#      x y z
#    x 1.767020 0.000000 -0.015690 
#    y 0.000000 1.775620 0.000000 
#    z -0.015690 0.000000 1.751460 
# 
# From -- ./inp_files/90032.got.cif
#   From: 2010.06.25/outbox.cif.g09.slc.cpg/sg10_46_cif.got.tgz:90032.got - 2010.06.27 22:07:45.
