data_PCOD8065162
_publ_section_title
;
Structure prediction by ZEFSAII (Michael W. Deem and Ramdas Pophale) SiO2 
 PCOD8065162
Probable space group: P 2/M
;
_chemical_formula_sum "Si O2"
_cell_formula_units_Z 28
_cell_length_a 9.226043
_cell_length_b 13.598646
_cell_length_c 12.074634
_cell_angle_alpha 90.000000
_cell_angle_beta 60.359511
_cell_angle_gamma 90.000000
_cell_volume 1316.672256
_symmetry_space_group_name_H-M "P 2/M"
_symmetry_group_IT_number 10
_symmetry_cell_setting 'monoclinic'
loop_
_space_group_symop_operation_xyz
x,y,z
-x,y,-z
-x,-y,-z
x,-y,z
loop_
_atom_site_type_symbol
_atom_site_label
_atom_site_fract_x
_atom_site_fract_y
_atom_site_fract_z
Si Si1 0.312251 0.111325 0.532015
Si Si2 0.104048 0.886781 0.806934
Si Si3 0.329518 0.884973 0.915177
Si Si4 0.575110 0.615220 0.349273
Si Si5 0.041712 0.611852 0.855989
Si Si6 0.198242 0.229107 0.143780
Si Si7 0.382454 0.221021 0.298945
O O1 0.500000 0.114954 0.500000
O O2 0.212105 0.163730 0.669359
O O3 0.274763 0.179540 0.440947
O O4 0.253935 0.000000 0.527791
O O5 0.163011 0.854585 0.907488
O O6 0.913764 0.865759 0.848570
O O7 0.145487 0.000000 0.784639
O O8 0.488879 0.866618 0.777489
O O9 0.328810 0.000000 0.953131
O O10 0.351049 0.802702 0.005370
O O11 0.500000 0.641467 0.500000
O O12 0.546733 0.500000 0.335564
O O13 0.771260 0.641434 0.254380
O O14 0.472437 0.676737 0.296961
O O15 0.008382 0.500000 0.836835
O O16 0.904210 0.672843 0.841418
O O17 0.000000 0.631292 0.000000
O O18 0.254125 0.238879 0.248121
#
# Coordination Sequence:
#
# PCOD8065162 Si02
#       7
#     4   4   4   4   4   4   4
#     4  10  20  37  60  84 112 157 212 253 291 353
#     4  10  21  38  60  83 114 160 211 255 293 350
#     4  11  23  41  63  88 124 171 216 255 298 363
#     4  10  23  44  70  95 119 161 219 267 310 375
#     4  10  22  43  69  93 121 162 212 262 313 376
#     4  12  25  37  57  93 129 159 196 249 320 377
#     4  12  24  37  61  91 125 162 197 250 318 377
#
# _framework density 21.265733999999998
#
# number of rings (size 3 to 8) (size 9 to 14) (size 15 to 20)
#    0.000    1.286    1.429    4.714    2.000    5.143 
#    0.000    1.429    0.000    6.857    0.000    0.000 
#    0.000    0.000    0.000    0.000    0.000    0.000 
#
# Total GULP energy -346957.571523 kJ/mol
# GULP energy per Si atom -12391.341840 kJ/mol
# Density = 2.121733 g / cm^3
# Si number density = 21.265734 Si / 1000 Ang^3
#
#
#
# Elastic Constant Matrix: (Units=GPa)
#
#
# Indices 1 2 3 4 5 6 
#
# 1 111.0161 50.8566 36.3493 0.0000 31.8186 0.0000
# 2 50.8566 109.9147 44.0326 0.0000 20.2764 0.0000
# 3 36.3493 44.0326 101.0574 0.0000 17.6310 0.0000
# 4 0.0000 0.0000 0.0000 36.5992 0.0000 -15.4647
# 5 31.8186 20.2764 17.6310 0.0000 36.8128 0.0000
# 6 0.0000 0.0000 0.0000 -15.4647 0.0000 31.8704
#
#
#
# Elastic Compliance Matrix: (Units=1/GPa)
#
#
# Indices 1 2 3 4 5 6 
#
# 1 0.014057 -0.004168 -0.001660 0.000000 -0.009059 0.000000
# 2 -0.004168 0.012860 -0.003816 0.000000 -0.001653 0.000000
# 3 -0.001660 -0.003816 0.012590 0.000000 -0.002494 0.000000
# 4 0.000000 0.000000 0.000000 0.034370 0.000000 0.016678
# 5 -0.009059 -0.001653 -0.002494 0.000000 0.037100 0.000000
# 6 0.000000 0.000000 0.000000 0.016678 0.000000 0.039470
#
#
# Mechanical properties :
#
#
# Convention : Reuss Voigt Hill
#
# Bulk Modulus (GPa) = 49.45496 64.94056 57.19776
# Shear Modulus (GPa) = 28.33293 33.77312 31.05303
#
# Velocity S-wave (km/s) = 3.65407 3.98948 3.82545
# Velocity P-wave (km/s) = 6.41164 7.19897 6.81668
#
# Compressibility (1/GPa) = 0.02022042
#
# Stress axis : x y z
#
# Youngs Moduli (GPa) = 71.13905 77.76012 79.42853
#
# Poissons Ratio (x) = 0.32411 0.13181
# Poissons Ratio (y) = 0.29651 0.30308
# Poissons Ratio (z) = 0.11806 0.29671
#
# Static dielectric constant tensor:
#      x y z
#    x 3.562770 0.000000 -0.034000 
#    y 0.000000 3.868320 0.000000 
#    z -0.034000 0.000000 5.617520 
# 
# 
# High freq. dielectric constant tensor:
#      x y z
#    x 1.810530 0.000000 -0.006690 
#    y 0.000000 1.835420 0.000000 
#    z -0.006690 0.000000 1.858620 
# 
# From -- ./inp_files/42885.got.cif
#   From: 2010.06.25/outbox.cif.g09.slc.cpg/sg10_22_cif.got.tgz:42885.got - 2010.06.27 22:07:45.
