data_PCOD8065128
_publ_section_title
;
Structure prediction by ZEFSAII (Michael W. Deem and Ramdas Pophale) SiO2 
 PCOD8065128
Probable space group: P 2/M
;
_chemical_formula_sum "Si O2"
_cell_formula_units_Z 32
_cell_length_a 25.765437
_cell_length_b 8.851930
_cell_length_c 15.403751
_cell_angle_alpha 90.000000
_cell_angle_beta 27.443467
_cell_angle_gamma 90.000000
_cell_volume 1619.136321
_symmetry_space_group_name_H-M "P 2/M"
_symmetry_group_IT_number 10
_symmetry_cell_setting 'monoclinic'
loop_
_space_group_symop_operation_xyz
x,y,z
-x,y,-z
-x,-y,-z
x,-y,z
loop_
_atom_site_type_symbol
_atom_site_label
_atom_site_fract_x
_atom_site_fract_y
_atom_site_fract_z
Si Si1 0.781820 0.171442 0.923792
Si Si2 0.228110 0.322128 0.753131
Si Si3 0.003802 0.825017 0.144465
Si Si4 0.756851 0.824897 0.445059
Si Si5 0.000187 0.676762 0.335195
Si Si6 0.627805 0.175138 0.311310
Si Si7 0.786934 0.174598 0.721082
Si Si8 0.373758 0.179743 0.192547
O O1 0.737930 0.194692 0.890748
O O2 0.882180 0.286432 0.793874
O O3 0.826148 0.000000 0.871222
O O4 0.677676 0.204709 0.141762
O O5 0.225363 0.500000 0.755939
O O6 0.281640 0.262690 0.583963
O O7 0.302534 0.269638 0.723004
O O8 0.101353 0.262711 0.950013
O O9 0.889068 0.798856 0.263002
O O10 0.987618 0.767444 0.265312
O O11 0.037692 0.000000 0.097567
O O12 0.686973 0.759426 0.630442
O O13 0.728781 0.000000 0.473383
O O14 0.993811 0.500000 0.325361
O O15 0.899975 0.727238 0.547152
O O16 0.500000 0.233266 0.500000
O O17 0.634500 0.000000 0.327970
O O18 0.694582 0.236469 0.790317
O O19 0.816216 0.000000 0.657513
O O20 0.376089 0.000000 0.190289
O O21 0.500000 0.245901 0.000000
#
# Coordination Sequence:
#
# PCOD8065128 Si02
#       8
#     4   4   4   4   4   4   4   4
#     4  10  21  37  61  88 118 155 194 244 296 350
#     4  12  25  39  59  90 124 160 194 239 300 359
#     4  11  21  38  63  89 118 154 196 244 297 353
#     4  10  21  38  62  90 119 156 197 245 298 349
#     4  12  23  35  57  88 121 157 191 237 299 358
#     4  10  22  41  64  89 116 155 206 253 293 342
#     4  10  20  37  59  87 118 155 197 240 294 350
#     4   9  18  35  61  90 117 148 197 253 293 334
#
# _framework density 19.763622000000002
#
# number of rings (size 3 to 8) (size 9 to 14) (size 15 to 20)
#    0.000    1.500    2.500    3.375    0.000    5.750 
#    0.000    3.750    0.000    3.000    0.000    0.000 
#    0.000    0.000    0.000    0.000    0.000    0.000 
#
# Total GULP energy -396940.066862 kJ/mol
# GULP energy per Si atom -12404.377089 kJ/mol
# Density = 1.971864 g / cm^3
# Si number density = 19.763622 Si / 1000 Ang^3
#
#
#
# Elastic Constant Matrix: (Units=GPa)
#
#
# Indices 1 2 3 4 5 6 
#
# 1 98.9743 41.5041 63.0100 0.0000 31.1985 0.0000
# 2 41.5041 57.5463 46.0368 0.0000 3.5263 0.0000
# 3 63.0100 46.0368 132.9130 0.0000 4.9435 0.0000
# 4 0.0000 0.0000 0.0000 4.4604 0.0000 2.3599
# 5 31.1985 3.5263 4.9435 0.0000 32.9475 0.0000
# 6 0.0000 0.0000 0.0000 2.3599 0.0000 1.7459
#
#
#
# Elastic Compliance Matrix: (Units=1/GPa)
#
#
# Indices 1 2 3 4 5 6 
#
# 1 0.027923 -0.012166 -0.008134 0.000000 -0.023918 0.000000
# 2 -0.012166 0.029397 -0.004753 0.000000 0.009087 0.000000
# 3 -0.008134 -0.004753 0.012792 0.000000 0.006291 0.000000
# 4 0.000000 0.000000 0.000000 0.787049 0.000000 -1.063825
# 5 -0.023918 0.009087 0.006291 0.000000 0.051084 0.000000
# 6 0.000000 0.000000 0.000000 -1.063825 0.000000 2.010692
#
#
# Mechanical properties :
#
#
# Convention : Reuss Voigt Hill
#
# Bulk Modulus (GPa) = 49.98309 65.61502 57.79906
# Shear Modulus (GPa) = 1.68027 17.08961 9.38494
#
# Velocity S-wave (km/s) = 0.92305 2.94377 2.18149
# Velocity P-wave (km/s) = 5.14601 6.69525 5.97109
#
# Compressibility (1/GPa) = 0.02000677
#
# Stress axis : x y z
#
# Youngs Moduli (GPa) = 35.81235 34.01681 78.17449
#
# Poissons Ratio (x) = 0.41386 0.63587
# Poissons Ratio (y) = 0.43571 0.37153
# Poissons Ratio (z) = 0.29130 0.16167
#
# Static dielectric constant tensor:
#      x y z
#    x 3.683960 0.000000 0.090680 
#    y 0.000000 3.369770 0.000000 
#    z 0.090680 0.000000 3.741510 
# 
# 
# High freq. dielectric constant tensor:
#      x y z
#    x 1.780000 0.000000 0.012540 
#    y 0.000000 1.746530 0.000000 
#    z 0.012540 0.000000 1.772070 
# 
# From -- ./inp_files/71510.got.cif
#   From: 2010.06.25/outbox.cif.g09.slc.cpg/sg10_36_cif.got.tgz:71510.got - 2010.06.27 22:07:45.
