data_PCOD8065273
_publ_section_title
;
Structure prediction by ZEFSAII (Michael W. Deem and Ramdas Pophale) SiO2 
 PCOD8065273
Probable space group: P 2/M
;
_chemical_formula_sum "Si O2"
_cell_formula_units_Z 28
_cell_length_a 7.781318
_cell_length_b 8.970053
_cell_length_c 27.846256
_cell_angle_alpha 90.000000
_cell_angle_beta 44.954939
_cell_angle_gamma 90.000000
_cell_volume 1373.277048
_symmetry_space_group_name_H-M "P 2/M"
_symmetry_group_IT_number 10
_symmetry_cell_setting 'monoclinic'
loop_
_space_group_symop_operation_xyz
x,y,z
-x,y,-z
-x,-y,-z
x,-y,z
loop_
_atom_site_type_symbol
_atom_site_label
_atom_site_fract_x
_atom_site_fract_y
_atom_site_fract_z
Si Si1 0.734528 0.173214 0.070231
Si Si2 0.705826 0.171476 0.419838
Si Si3 0.618218 0.324150 0.337364
Si Si4 0.472696 0.839005 0.788423
Si Si5 0.203152 0.325981 0.342550
Si Si6 0.939446 0.162989 0.203890
Si Si7 0.376406 0.325214 0.072927
O O1 0.695730 0.210425 0.133799
O O2 0.548711 0.284026 0.082380
O O3 0.684192 0.000000 0.067734
O O4 0.000000 0.219992 0.000000
O O5 0.500000 0.187644 0.500000
O O6 0.603554 0.255320 0.393127
O O7 0.948377 0.240368 0.395607
O O8 0.756414 0.000000 0.396444
O O9 0.648575 0.500000 0.335355
O O10 0.375642 0.284722 0.354119
O O11 0.867799 0.261016 0.264326
O O12 0.673430 0.717984 0.733137
O O13 0.305269 0.862425 0.776085
O O14 0.597185 0.000000 0.775502
O O15 0.148836 0.500000 0.352114
O O16 0.121607 0.245815 0.132107
O O17 0.044594 0.000000 0.198718
O O18 0.330181 0.500000 0.079092
O O19 0.500000 0.263833 0.000000
#
# Coordination Sequence:
#
# PCOD8065273 Si02
#       7
#     4   4   4   4   4   4   4
#     4  10  21  37  57  81 110 148 196 248 300 357
#     4  11  25  43  65  94 128 167 211 259 310 370
#     4  10  22  41  65  94 128 165 207 255 312 374
#     4   9  19  36  59  86 115 149 194 247 300 360
#     4  10  22  40  64  93 126 165 206 255 313 374
#     4  10  20  37  62  87 114 152 196 247 301 358
#     4  11  24  38  53  78 114 155 197 245 301 361
#
# _framework density 20.389184
#
# number of rings (size 3 to 8) (size 9 to 14) (size 15 to 20)
#    0.000    1.857    0.000    3.000    2.000    7.143 
#    0.000    2.857    0.000    0.000    0.000    0.000 
#    0.000    0.000    0.000    0.000    0.000    0.000 
#
# Total GULP energy -347088.747913 kJ/mol
# GULP energy per Si atom -12396.026711 kJ/mol
# Density = 2.034278 g / cm^3
# Si number density = 20.389184 Si / 1000 Ang^3
#
#
#
# Elastic Constant Matrix: (Units=GPa)
#
#
# Indices 1 2 3 4 5 6 
#
# 1 72.9532 45.9756 36.6702 0.0000 2.3667 0.0000
# 2 45.9756 120.2998 59.8077 0.0000 -1.9602 0.0000
# 3 36.6702 59.8077 122.8019 0.0000 0.9130 0.0000
# 4 0.0000 0.0000 0.0000 30.5206 0.0000 -4.2130
# 5 2.3667 -1.9602 0.9130 0.0000 36.0549 0.0000
# 6 0.0000 0.0000 0.0000 -4.2130 0.0000 26.8155
#
#
#
# Elastic Compliance Matrix: (Units=1/GPa)
#
#
# Indices 1 2 3 4 5 6 
#
# 1 0.018829 -0.005846 -0.002765 0.000000 -0.001484 0.000000
# 2 -0.005846 0.012803 -0.004498 0.000000 0.001194 0.000000
# 3 -0.002765 -0.004498 0.011162 0.000000 -0.000346 0.000000
# 4 0.000000 0.000000 0.000000 0.033491 0.000000 0.005262
# 5 -0.001484 0.001194 -0.000346 0.000000 0.027907 0.000000
# 6 0.000000 0.000000 0.000000 0.005262 0.000000 0.038119
#
#
# Mechanical properties :
#
#
# Convention : Reuss Voigt Hill
#
# Bulk Modulus (GPa) = 60.32692 66.77355 63.55023
# Shear Modulus (GPa) = 28.72685 30.25162 29.48923
#
# Velocity S-wave (km/s) = 3.75764 3.85607 3.80717
# Velocity P-wave (km/s) = 6.96264 7.25578 7.11072
#
# Compressibility (1/GPa) = 0.01657635
#
# Stress axis : x y z
#
# Youngs Moduli (GPa) = 53.10886 78.10937 89.58856
#
# Poissons Ratio (x) = 0.45662 0.24767
# Poissons Ratio (y) = 0.31047 0.40301
# Poissons Ratio (z) = 0.14682 0.35137
#
# Static dielectric constant tensor:
#      x y z
#    x 3.656870 0.000000 -0.074960 
#    y 0.000000 3.887950 0.000000 
#    z -0.074960 0.000000 3.995830 
# 
# 
# High freq. dielectric constant tensor:
#      x y z
#    x 1.792190 0.000000 0.000780 
#    y 0.000000 1.802970 0.000000 
#    z 0.000780 0.000000 1.802440 
# 
# From -- ./inp_files/90335.got.cif
#   From: 2010.06.25/outbox.cif.g09.slc.cpg/sg10_46_cif.got.tgz:90335.got - 2010.06.27 22:07:45.
