data_PCOD8065345
_publ_section_title
;
Structure prediction by ZEFSAII (Michael W. Deem and Ramdas Pophale) SiO2 
 PCOD8065345
Probable space group: P 2/M
;
_chemical_formula_sum "Si O2"
_cell_formula_units_Z 32
_cell_length_a 15.695780
_cell_length_b 21.429173
_cell_length_c 9.254648
_cell_angle_alpha 90.000000
_cell_angle_beta 29.048468
_cell_angle_gamma 90.000000
_cell_volume 1511.407456
_symmetry_space_group_name_H-M "P 2/M"
_symmetry_group_IT_number 10
_symmetry_cell_setting 'monoclinic'
loop_
_space_group_symop_operation_xyz
x,y,z
-x,y,-z
-x,-y,-z
x,-y,z
loop_
_atom_site_type_symbol
_atom_site_label
_atom_site_fract_x
_atom_site_fract_y
_atom_site_fract_z
Si Si1 0.670919 0.368127 0.327470
Si Si2 0.674522 0.379269 0.661177
Si Si3 0.797031 0.170080 0.784809
Si Si4 0.191464 0.754815 0.509168
Si Si5 0.987984 0.427591 0.683495
Si Si6 0.805349 0.143003 0.265149
Si Si7 0.516001 0.928112 0.145687
Si Si8 0.794778 0.240773 0.060799
O O1 0.500000 0.394960 0.500000
O O2 0.670486 0.390960 0.494207
O O3 0.668255 0.292344 0.319473
O O4 0.838611 0.391938 0.992358
O O5 0.689080 0.305921 0.670731
O O6 0.831261 0.417979 0.499551
O O7 0.500000 0.403658 0.000000
O O8 0.751402 0.196464 0.696352
O O9 0.000000 0.149109 0.500000
O O10 0.673277 0.109991 0.987562
O O11 0.750784 0.228166 0.958435
O O12 0.219094 0.791559 0.615815
O O13 0.991244 0.732790 0.788177
O O14 0.939035 0.500000 0.753599
O O15 0.000000 0.402149 0.500000
O O16 0.667863 0.089846 0.507672
O O17 0.778026 0.169282 0.144494
O O18 0.000000 0.114504 0.000000
O O19 0.554386 0.000000 0.121046
O O20 0.500000 0.914696 0.000000
#
# Coordination Sequence:
#
# PCOD8065345 Si02
#       8
#     4   4   4   4   4   4   4   4
#     4  12  26  42  67 106 142 181 226 281 340 403
#     4  12  26  41  69 105 140 184 225 281 341 404
#     4  10  23  39  62  95 127 172 210 274 342 397
#     4  10  20  37  63  96 133 169 218 267 337 409
#     4  11  27  51  75 100 139 186 232 280 334 402
#     4  10  21  39  62  93 131 167 208 271 334 397
#     4  11  24  42  65  91 123 173 229 267 318 404
#     4  10  22  37  62  97 136 166 211 275 343 404
#
# _framework density 21.172319000000002
#
# number of rings (size 3 to 8) (size 9 to 14) (size 15 to 20)
#    0.000    1.250    3.750    1.125    7.000    2.000 
#    0.000    1.250    0.000    0.000    0.000    0.000 
#    0.000    0.000    0.000    0.000    0.000    0.000 
#
# Total GULP energy -396796.295104 kJ/mol
# GULP energy per Si atom -12399.884222 kJ/mol
# Density = 2.112413 g / cm^3
# Si number density = 21.172319 Si / 1000 Ang^3
#
#
#
# Elastic Constant Matrix: (Units=GPa)
#
#
# Indices 1 2 3 4 5 6 
#
# 1 111.4138 25.0903 53.4089 0.0000 -0.2924 0.0000
# 2 25.0903 56.2215 23.2505 0.0000 -0.0828 0.0000
# 3 53.4089 23.2505 126.7915 0.0000 6.9194 0.0000
# 4 0.0000 0.0000 0.0000 12.7207 0.0000 12.6027
# 5 -0.2924 -0.0828 6.9194 0.0000 29.9481 0.0000
# 6 0.0000 0.0000 0.0000 12.6027 0.0000 0.9997
#
#
#
# Elastic Compliance Matrix: (Units=1/GPa)
#
#
# Indices 1 2 3 4 5 6 
#
# 1 0.011884 -0.003469 -0.004432 0.000000 0.001130 0.000000
# 2 -0.003469 0.020282 -0.002288 0.000000 0.000551 0.000000
# 3 -0.004432 -0.002288 0.010306 0.000000 -0.002431 0.000000
# 4 0.000000 0.000000 0.000000 -0.006842 0.000000 0.086254
# 5 0.001130 0.000551 -0.002431 0.000000 0.033965 0.000000
# 6 0.000000 0.000000 0.000000 0.086254 0.000000 -0.087062
#
#
# Mechanical properties :
#
#
# Convention : Reuss Voigt Hill
#
# Bulk Modulus (GPa) = 45.25988 55.32515 50.29252
# Shear Modulus (GPa) = 486.60941 21.57885 254.09413
#
# Velocity S-wave (km/s) = 15.17669 3.19596 10.96690
# Velocity P-wave (km/s) = 18.12546 6.30924 13.57090
#
# Compressibility (1/GPa) = 0.02209462
#
# Stress axis : x y z
#
# Youngs Moduli (GPa) = 84.14571 49.30475 97.03211
#
# Poissons Ratio (x) = 0.17105 0.43000
# Poissons Ratio (y) = 0.29192 0.22200
# Poissons Ratio (z) = 0.37289 0.11281
#
# Static dielectric constant tensor:
#      x y z
#    x 4.040870 0.000000 -0.005880 
#    y 0.000000 3.479740 0.000000 
#    z -0.005880 0.000000 3.958640 
# 
# 
# High freq. dielectric constant tensor:
#      x y z
#    x 1.840440 0.000000 0.004610 
#    y 0.000000 1.807150 0.000000 
#    z 0.004610 0.000000 1.838100 
# 
# From -- ./inp_files/30597.got.cif
#   From: 2010.06.25/outbox.cif.g09.slc.cpg/sg10_16_cif.got.tgz:30597.got - 2010.06.27 22:07:45.
