data_PCOD8065286
_publ_section_title
;
Structure prediction by ZEFSAII (Michael W. Deem and Ramdas Pophale) SiO2 
 PCOD8065286
Probable space group: P 2/M
;
_chemical_formula_sum "Si O2"
_cell_formula_units_Z 32
_cell_length_a 31.056217
_cell_length_b 8.611577
_cell_length_c 11.922660
_cell_angle_alpha 90.000000
_cell_angle_beta 30.254782
_cell_angle_gamma 90.000000
_cell_volume 1606.579713
_symmetry_space_group_name_H-M "P 2/M"
_symmetry_group_IT_number 10
_symmetry_cell_setting 'monoclinic'
loop_
_space_group_symop_operation_xyz
x,y,z
-x,y,-z
-x,-y,-z
x,-y,z
loop_
_atom_site_type_symbol
_atom_site_label
_atom_site_fract_x
_atom_site_fract_y
_atom_site_fract_z
Si Si1 0.402664 0.818174 0.198515
Si Si2 0.237982 0.821376 0.190798
Si Si3 0.461963 0.823675 0.463049
Si Si4 0.738526 0.681521 0.338567
Si Si5 0.615133 0.319468 0.993900
Si Si6 0.282526 0.322054 0.864872
Si Si7 0.920274 0.820101 0.304824
Si Si8 0.902216 0.682413 0.107889
O O1 0.345880 0.774951 0.434192
O O2 0.362035 0.726892 0.184522
O O3 0.397591 0.000000 0.185779
O O4 0.500000 0.764463 0.000000
O O5 0.306079 0.716559 0.102174
O O6 0.143521 0.786486 0.449332
O O7 0.264278 0.000000 0.149372
O O8 0.237638 0.783495 0.059713
O O9 0.500000 0.804538 0.500000
O O10 0.383129 0.708421 0.630534
O O11 0.432278 0.000000 0.507185
O O12 0.532102 0.778638 0.213803
O O13 0.721056 0.500000 0.397761
O O14 0.758343 0.716871 0.163842
O O15 0.819960 0.741063 0.225061
O O16 0.594002 0.500000 0.050729
O O17 0.267643 0.500000 0.931487
O O18 0.889139 0.723060 0.267496
O O19 0.921036 0.000000 0.269220
O O20 0.014665 0.767695 0.129687
O O21 0.915596 0.500000 0.063849
#
# Coordination Sequence:
#
# PCOD8065286 Si02
#       8
#     4   4   4   4   4   4   4   4
#     4  11  24  40  59  85 117 154 195 238 289 344
#     4  11  23  39  58  85 118 151 191 240 290 343
#     4  11  22  37  57  81 115 153 193 242 288 338
#     4  10  23  41  60  86 118 154 196 239 287 346
#     4  12  24  37  59  86 115 151 194 242 292 345
#     4  11  23  39  60  85 116 154 198 243 288 343
#     4  10  21  37  60  89 119 147 185 236 288 342
#     4  10  20  37  62  89 117 149 187 231 287 348
#
# _framework density 19.918091
#
# number of rings (size 3 to 8) (size 9 to 14) (size 15 to 20)
#    0.000    1.250    1.250    5.625    0.000    9.500 
#    0.000    0.625    0.000    3.750    0.000    0.000 
#    0.000    0.000    0.000    0.000    0.000    0.000 
#
# Total GULP energy -397013.256814 kJ/mol
# GULP energy per Si atom -12406.664275 kJ/mol
# Density = 1.987276 g / cm^3
# Si number density = 19.918091 Si / 1000 Ang^3
#
#
#
# Elastic Constant Matrix: (Units=GPa)
#
#
# Indices 1 2 3 4 5 6 
#
# 1 98.7443 28.2283 47.3275 0.0000 -2.6745 0.0000
# 2 28.2283 56.4342 23.2615 0.0000 -1.6194 0.0000
# 3 47.3275 23.2615 124.3419 0.0000 0.9698 0.0000
# 4 0.0000 0.0000 0.0000 38.6188 0.0000 10.1022
# 5 -2.6745 -1.6194 0.9698 0.0000 31.4872 0.0000
# 6 0.0000 0.0000 0.0000 10.1022 0.0000 28.3597
#
#
#
# Elastic Compliance Matrix: (Units=1/GPa)
#
#
# Indices 1 2 3 4 5 6 
#
# 1 0.013634 -0.005036 -0.004255 0.000000 0.001030 0.000000
# 2 -0.005036 0.021099 -0.002036 0.000000 0.000720 0.000000
# 3 -0.004255 -0.002036 0.010049 0.000000 -0.000776 0.000000
# 4 0.000000 0.000000 0.000000 0.028555 0.000000 -0.010172
# 5 0.001030 0.000720 -0.000776 0.000000 0.031907 0.000000
# 6 0.000000 0.000000 0.000000 -0.010172 0.000000 0.038885
#
#
# Mechanical properties :
#
#
# Convention : Reuss Voigt Hill
#
# Bulk Modulus (GPa) = 45.19356 53.01721 49.10538
# Shear Modulus (GPa) = 28.70931 31.74002 30.22466
#
# Velocity S-wave (km/s) = 3.80065 3.99623 3.89967
# Velocity P-wave (km/s) = 6.48066 6.92593 6.70699
#
# Compressibility (1/GPa) = 0.02212705
#
# Stress axis : x y z
#
# Youngs Moduli (GPa) = 73.34380 47.39636 99.51281
#
# Poissons Ratio (x) = 0.23870 0.42347
# Poissons Ratio (y) = 0.36938 0.20258
# Poissons Ratio (z) = 0.31211 0.09649
#
# Static dielectric constant tensor:
#      x y z
#    x 3.768120 0.000000 0.064770 
#    y 0.000000 3.651900 0.000000 
#    z 0.064770 0.000000 3.663890 
# 
# 
# High freq. dielectric constant tensor:
#      x y z
#    x 1.772770 0.000000 0.007090 
#    y 0.000000 1.785850 0.000000 
#    z 0.007090 0.000000 1.776970 
# 
# From -- ./inp_files/58206.got.cif
#   From: 2010.06.25/outbox.cif.g09.slc.cpg/sg10_30_cif.got.tgz:58206.got - 2010.06.27 22:07:45.
