data_PCOD8065709
_publ_section_title
;
Structure prediction by ZEFSAII (Michael W. Deem and Ramdas Pophale) SiO2 
 PCOD8065709
Probable space group: P 2/M
;
_chemical_formula_sum "Si O2"
_cell_formula_units_Z 32
_cell_length_a 21.912874
_cell_length_b 12.303776
_cell_length_c 19.178606
_cell_angle_alpha 90.000000
_cell_angle_beta 160.300464
_cell_angle_gamma 90.000000
_cell_volume 1743.000917
_symmetry_space_group_name_H-M "P 2/M"
_symmetry_group_IT_number 10
_symmetry_cell_setting 'monoclinic'
loop_
_space_group_symop_operation_xyz
x,y,z
-x,y,-z
-x,-y,-z
x,-y,z
loop_
_atom_site_type_symbol
_atom_site_label
_atom_site_fract_x
_atom_site_fract_y
_atom_site_fract_z
Si Si1 0.549032 0.249292 0.179573
Si Si2 0.815930 0.126876 0.379608
Si Si3 0.831838 0.626592 0.566326
Si Si4 0.052746 0.370812 0.160110
Si Si5 0.701607 0.627375 0.179453
Si Si6 0.005780 0.626720 0.400827
Si Si7 0.784344 0.872568 0.187036
Si Si8 0.703354 0.370958 0.704077
O O1 0.674769 0.151767 0.288018
O O2 0.643235 0.317391 0.342087
O O3 0.497255 0.326914 0.056390
O O4 0.373748 0.189800 0.024937
O O5 0.744238 0.157746 0.225256
O O6 0.015386 0.176987 0.615571
O O7 0.857103 0.000000 0.420339
O O8 0.789012 0.500000 0.528685
O O9 0.904976 0.675893 0.717507
O O10 0.984967 0.648340 0.671926
O O11 0.047076 0.500000 0.154388
O O12 0.215224 0.332909 0.283176
O O13 0.852428 0.329668 0.921187
O O14 0.678823 0.500000 0.165091
O O15 0.811401 0.679905 0.365067
O O16 0.818190 0.660174 0.235422
O O17 0.029531 0.500000 0.443489
O O18 0.773245 0.000000 0.159249
O O19 0.500000 0.322514 0.500000
O O20 0.689490 0.500000 0.691606
#
# Coordination Sequence:
#
# PCOD8065709 Si02
#       8
#     4   4   4   4   4   4   4   4
#     4  12  22  28  51  70  89 118 161 194 237 289
#     4   9  20  37  52  68  87 108 145 204 262 301
#     4  10  21  33  42  64 101 135 158 193 238 277
#     4   8  15  29  43  61  93 119 148 192 230 266
#     4   9  19  33  45  62  87 122 169 213 232 266
#     4   8  17  33  46  54  82 127 168 203 240 265
#     4   9  20  37  52  67  87 108 145 205 260 298
#     4   8  13  25  48  69  80 109 156 192 224 266
#
# _framework density 18.359141000000001
#
# number of rings (size 3 to 8) (size 9 to 14) (size 15 to 20)
#    0.000    2.875    0.000    3.375    5.250    2.000 
#    2.250    1.875    0.000    0.000    0.000    2.625 
#    0.000    0.000    0.000    9.000    0.000   24.000 
#
# Total GULP energy -396653.669697 kJ/mol
# GULP energy per Si atom -12395.427178 kJ/mol
# Density = 1.831735 g / cm^3
# Si number density = 18.359141 Si / 1000 Ang^3
#
#
#
# Elastic Constant Matrix: (Units=GPa)
#
#
# Indices 1 2 3 4 5 6 
#
# 1 103.9001 11.5154 72.3823 0.0000 -9.9339 0.0000
# 2 11.5154 26.5249 25.9493 0.0000 -1.9667 0.0000
# 3 72.3823 25.9493 139.1185 0.0000 4.8946 0.0000
# 4 0.0000 0.0000 0.0000 22.3723 0.0000 4.9152
# 5 -9.9339 -1.9667 4.8946 0.0000 36.1503 0.0000
# 6 0.0000 0.0000 0.0000 4.9152 0.0000 11.0327
#
#
#
# Elastic Compliance Matrix: (Units=1/GPa)
#
#
# Indices 1 2 3 4 5 6 
#
# 1 0.016261 0.002262 -0.009087 0.000000 0.005822 0.000000
# 2 0.002262 0.046926 -0.010090 0.000000 0.004541 0.000000
# 3 -0.009087 -0.010090 0.013972 0.000000 -0.004938 0.000000
# 4 0.000000 0.000000 0.000000 0.049548 0.000000 -0.022074
# 5 0.005822 0.004541 -0.004938 0.000000 0.030178 0.000000
# 6 0.000000 0.000000 0.000000 -0.022074 0.000000 0.100474
#
#
# Mechanical properties :
#
#
# Convention : Reuss Voigt Hill
#
# Bulk Modulus (GPa) = 23.07907 54.35973 38.71940
# Shear Modulus (GPa) = 16.35960 24.55750 20.45855
#
# Velocity S-wave (km/s) = 2.98835 3.66131 3.34181
# Velocity P-wave (km/s) = 4.95027 6.89543 6.00217
#
# Compressibility (1/GPa) = 0.04332930
#
# Stress axis : x y z
#
# Youngs Moduli (GPa) = 61.49560 21.31028 71.57192
#
# Poissons Ratio (x) = -0.04821 0.65041
# Poissons Ratio (y) = -0.13912 0.72214
# Poissons Ratio (z) = 0.55884 0.21501
#
# Static dielectric constant tensor:
#      x y z
#    x 3.301100 0.000000 0.179360 
#    y 0.000000 3.413100 0.000000 
#    z 0.179360 0.000000 3.654980 
# 
# 
# High freq. dielectric constant tensor:
#      x y z
#    x 1.674630 0.000000 0.036740 
#    y 0.000000 1.705280 0.000000 
#    z 0.036740 0.000000 1.718940 
# 
# From -- ./inp_files/79741.got.cif
#   From: 2010.06.25/outbox.cif.g09.slc.cpg/sg10_40_cif.got.tgz:79741.got - 2010.06.27 22:07:45.
