data_PCOD8065882
_publ_section_title
;
Structure prediction by ZEFSAII (Michael W. Deem and Ramdas Pophale) SiO2 
 PCOD8065882
Probable space group: P 2/M
;
_chemical_formula_sum "Si O2"
_cell_formula_units_Z 28
_cell_length_a 13.633520
_cell_length_b 13.503094
_cell_length_c 12.101377
_cell_angle_alpha 90.000000
_cell_angle_beta 137.947284
_cell_angle_gamma 90.000000
_cell_volume 1492.211372
_symmetry_space_group_name_H-M "P 2/M"
_symmetry_group_IT_number 10
_symmetry_cell_setting 'monoclinic'
loop_
_space_group_symop_operation_xyz
x,y,z
-x,y,-z
-x,-y,-z
x,-y,z
loop_
_atom_site_type_symbol
_atom_site_label
_atom_site_fract_x
_atom_site_fract_y
_atom_site_fract_z
Si Si1 0.383448 0.209488 0.491707
Si Si2 0.484514 0.887126 0.193559
Si Si3 0.230029 0.112163 0.684570
Si Si4 0.187389 0.204981 0.871720
Si Si5 0.206017 0.386685 0.265740
Si Si6 0.123066 0.613561 0.948489
Si Si7 0.107813 0.113810 0.341870
O O1 0.500000 0.171647 0.500000
O O2 0.463319 0.194688 0.675029
O O3 0.335207 0.323022 0.430297
O O4 0.234411 0.145415 0.362022
O O5 0.594271 0.879977 0.181091
O O6 0.492271 0.000000 0.247918
O O7 0.321766 0.862903 0.020800
O O8 0.173010 0.190703 0.727576
O O9 0.154474 0.139694 0.505878
O O10 0.186361 0.000000 0.684485
O O11 0.202491 0.319637 0.920898
O O12 0.042150 0.168667 0.813224
O O13 0.255263 0.500000 0.317961
O O14 0.051987 0.370096 0.199195
O O15 0.188554 0.357369 0.122599
O O16 0.159913 0.500000 0.951104
O O17 0.078326 0.000000 0.300596
#
# Coordination Sequence:
#
# PCOD8065882 Si02
#       7
#     4   4   4   4   4   4   4
#     4  11  21  36  54  78 112 149 179 219 278 327
#     4  10  22  36  52  81 117 152 185 219 267 322
#     4   9  19  35  55  79 111 147 184 227 270 313
#     4  12  19  33  59  83 106 141 188 232 266 322
#     4   9  18  37  60  80 105 138 182 232 276 322
#     4   9  19  35  58  85 109 134 174 234 287 321
#     4  10  21  35  53  81 111 145 190 228 263 318
#
# _framework density 18.764097
#
# number of rings (size 3 to 8) (size 9 to 14) (size 15 to 20)
#    0.000    2.000    1.429    5.143    0.000    3.714 
#    0.000    0.714    0.000    9.429    0.000    0.000 
#    0.000    0.000    0.000    0.000    0.000    0.000 
#
# Total GULP energy -347115.723478 kJ/mol
# GULP energy per Si atom -12396.990124 kJ/mol
# Density = 1.872139 g / cm^3
# Si number density = 18.764097 Si / 1000 Ang^3
#
#
#
# Elastic Constant Matrix: (Units=GPa)
#
#
# Indices 1 2 3 4 5 6 
#
# 1 97.5855 48.6560 23.1514 0.0000 6.8032 0.0000
# 2 48.6560 103.2670 36.1917 0.0000 -9.1089 0.0000
# 3 23.1514 36.1917 50.8585 0.0000 16.9293 0.0000
# 4 0.0000 0.0000 0.0000 31.1716 0.0000 -1.2346
# 5 6.8032 -9.1089 16.9293 0.0000 29.2279 0.0000
# 6 0.0000 0.0000 0.0000 -1.2346 0.0000 34.9157
#
#
#
# Elastic Compliance Matrix: (Units=1/GPa)
#
#
# Indices 1 2 3 4 5 6 
#
# 1 0.014245 -0.007634 0.001045 0.000000 -0.006300 0.000000
# 2 -0.007634 0.021173 -0.017815 0.000000 0.018694 0.000000
# 3 0.001045 -0.017815 0.041865 0.000000 -0.030044 0.000000
# 4 0.000000 0.000000 0.000000 0.032125 0.000000 0.001136
# 5 -0.006300 0.018694 -0.030044 0.000000 0.058908 0.000000
# 6 0.000000 0.000000 0.000000 0.001136 0.000000 0.028681
#
#
# Mechanical properties :
#
#
# Convention : Reuss Voigt Hill
#
# Bulk Modulus (GPa) = 35.11793 51.96771 43.54282
# Shear Modulus (GPa) = 19.58521 28.64383 24.11452
#
# Velocity S-wave (km/s) = 3.23423 3.91131 3.58878
# Velocity P-wave (km/s) = 5.71866 6.93925 6.35832
#
# Compressibility (1/GPa) = 0.02847548
#
# Stress axis : x y z
#
# Youngs Moduli (GPa) = 70.20090 47.23072 23.88651
#
# Poissons Ratio (x) = 0.36054 -0.02496
# Poissons Ratio (y) = 0.53588 0.42553
# Poissons Ratio (z) = -0.07334 0.84139
#
# Static dielectric constant tensor:
#      x y z
#    x 3.536900 0.000000 0.161050 
#    y 0.000000 3.332310 0.000000 
#    z 0.161050 0.000000 3.337320 
# 
# 
# High freq. dielectric constant tensor:
#      x y z
#    x 1.726630 0.000000 0.017970 
#    y 0.000000 1.714720 0.000000 
#    z 0.017970 0.000000 1.722300 
# 
# From -- ./inp_files/51407.got.cif
#   From: 2010.06.25/outbox.cif.g09.slc.cpg/sg10_26_cif.got.tgz:51407.got - 2010.06.27 22:07:45.
