data_PCOD8065350
_publ_section_title
;
Structure prediction by ZEFSAII (Michael W. Deem and Ramdas Pophale) SiO2 
 PCOD8065350
Probable space group: P 2/M
;
_chemical_formula_sum "Si O2"
_cell_formula_units_Z 24
_cell_length_a 16.600392
_cell_length_b 15.178546
_cell_length_c 8.608804
_cell_angle_alpha 90.000000
_cell_angle_beta 147.015499
_cell_angle_gamma 90.000000
_cell_volume 1180.916367
_symmetry_space_group_name_H-M "P 2/M"
_symmetry_group_IT_number 10
_symmetry_cell_setting 'monoclinic'
loop_
_space_group_symop_operation_xyz
x,y,z
-x,y,-z
-x,-y,-z
x,-y,z
loop_
_atom_site_type_symbol
_atom_site_label
_atom_site_fract_x
_atom_site_fract_y
_atom_site_fract_z
Si Si1 0.641994 0.661465 0.138716
Si Si2 0.305105 0.500000 0.332822
Si Si3 0.600917 0.161840 0.889128
Si Si4 0.826941 0.672873 0.730523
Si Si5 0.096930 0.000000 0.891435
Si Si6 0.281506 0.839126 0.258125
Si Si7 0.652624 0.500000 0.946311
Si Si8 0.218627 0.000000 0.741161
O O1 0.770886 0.688161 0.465114
O O2 0.500000 0.622958 0.000000
O O3 0.590070 0.747710 0.963902
O O4 0.702320 0.586932 0.120065
O O5 0.239051 0.584654 0.307021
O O6 0.479040 0.500000 0.637621
O O7 0.263719 0.500000 0.083449
O O8 0.692044 0.180804 0.880177
O O9 0.434819 0.129048 0.583989
O O10 0.681713 0.087078 0.123047
O O11 0.779993 0.751809 0.764879
O O12 0.000000 0.664381 0.000000
O O13 0.160086 0.000000 0.820925
O O14 0.917986 0.000000 0.600930
O O15 0.157713 0.085522 0.079676
#
# Coordination Sequence:
#
# PCOD8065350 Si02
#       8
#     4   2   4   4   2   4   2   2
#     4  12  22  40  62  93 123 159 202 246 303 355
#     4  11  22  43  66  95 120 157 204 248 297 349
#     4  10  20  37  64  90 117 157 212 258 288 350
#     4  12  26  41  60  89 131 164 192 244 312 365
#     4   9  19  35  59  87 125 160 197 248 308 362
#     4  10  20  39  61  89 120 161 207 250 300 352
#     4  11  22  40  72  94 116 154 209 256 283 351
#     4   9  19  35  59  91 119 157 205 253 300 349
#
# _framework density 20.323201999999998
#
# number of rings (size 3 to 8) (size 9 to 14) (size 15 to 20)
#    0.000    1.333    3.333    2.500    2.333    4.667 
#    0.000    5.000    0.000    0.000    0.000    0.000 
#    0.000    0.000    0.000    0.000    0.000    0.000 
#
# Total GULP energy -297700.410882 kJ/mol
# GULP energy per Si atom -12404.183787 kJ/mol
# Density = 2.027695 g / cm^3
# Si number density = 20.323202 Si / 1000 Ang^3
#
#
#
# Elastic Constant Matrix: (Units=GPa)
#
#
# Indices 1 2 3 4 5 6 
#
# 1 47.3087 25.1306 20.5227 0.0000 -10.7700 0.0000
# 2 25.1306 143.1665 42.6224 0.0000 -9.8664 0.0000
# 3 20.5227 42.6224 114.6233 0.0000 -8.3738 0.0000
# 4 0.0000 0.0000 0.0000 -5.3023 0.0000 -34.3617
# 5 -10.7700 -9.8664 -8.3738 0.0000 25.6983 0.0000
# 6 0.0000 0.0000 0.0000 -34.3617 0.0000 14.9097
#
#
#
# Elastic Compliance Matrix: (Units=1/GPa)
#
#
# Indices 1 2 3 4 5 6 
#
# 1 0.026032 -0.003112 -0.002862 0.000000 0.008782 0.000000
# 2 -0.003112 0.008340 -0.002464 0.000000 0.001095 0.000000
# 3 -0.002862 -0.002464 0.010240 0.000000 0.001191 0.000000
# 4 0.000000 0.000000 0.000000 -0.011835 0.000000 -0.027276
# 5 0.008782 0.001095 0.001191 0.000000 0.043402 0.000000
# 6 0.000000 0.000000 0.000000 -0.027276 0.000000 0.004209
#
#
# Mechanical properties :
#
#
# Convention : Reuss Voigt Hill
#
# Bulk Modulus (GPa) = 36.05495 53.51666 44.78581
# Shear Modulus (GPa) = 46.94410 21.51599 34.23005
#
# Velocity S-wave (km/s) = 4.81133 3.25728 4.10846
# Velocity P-wave (km/s) = 6.97456 6.36683 6.67761
#
# Compressibility (1/GPa) = 0.02773544
#
# Stress axis : x y z
#
# Youngs Moduli (GPa) = 38.41451 119.90109 97.65683
#
# Poissons Ratio (x) = 0.37315 0.27949
# Poissons Ratio (y) = 0.11955 0.24063
# Poissons Ratio (z) = 0.10994 0.29545
#
# Static dielectric constant tensor:
#      x y z
#    x 4.047900 0.000000 -0.119870 
#    y 0.000000 3.772900 0.000000 
#    z -0.119870 0.000000 3.905210 
# 
# 
# High freq. dielectric constant tensor:
#      x y z
#    x 1.781280 0.000000 -0.006850 
#    y 0.000000 1.805360 0.000000 
#    z -0.006850 0.000000 1.798960 
# 
# From -- ./inp_files/32910.got.cif
#   From: 2010.06.25/outbox.cif.g09.slc.cpg/sg10_17_cif.got.tgz:32910.got - 2010.06.27 22:07:45.
