data_PCOD8065007
_publ_section_title
;
Structure prediction by ZEFSAII (Michael W. Deem and Ramdas Pophale) SiO2 
 PCOD8065007
Probable space group: P 2/M
;
_chemical_formula_sum "Si O2"
_cell_formula_units_Z 32
_cell_length_a 28.803312
_cell_length_b 8.902848
_cell_length_c 12.404489
_cell_angle_alpha 90.000000
_cell_angle_beta 30.158941
_cell_angle_gamma 90.000000
_cell_volume 1598.086559
_symmetry_space_group_name_H-M "P 2/M"
_symmetry_group_IT_number 10
_symmetry_cell_setting 'monoclinic'
loop_
_space_group_symop_operation_xyz
x,y,z
-x,y,-z
-x,-y,-z
x,-y,z
loop_
_atom_site_type_symbol
_atom_site_label
_atom_site_fract_x
_atom_site_fract_y
_atom_site_fract_z
Si Si1 0.282662 0.673067 0.887763
Si Si2 0.460140 0.175198 0.466686
Si Si3 0.672972 0.827209 0.774759
Si Si4 0.508752 0.323222 0.807117
Si Si5 0.780912 0.674833 0.751564
Si Si6 0.699658 0.171730 0.482258
Si Si7 0.159666 0.828621 0.981711
Si Si8 0.033954 0.828331 0.550191
O O1 0.306861 0.500000 0.816418
O O2 0.352882 0.781148 0.683105
O O3 0.186037 0.718334 0.027502
O O4 0.280944 0.706913 0.018386
O O5 0.500000 0.226985 0.500000
O O6 0.513651 0.270894 0.269691
O O7 0.473277 0.000000 0.416925
O O8 0.735953 0.757764 0.741059
O O9 0.726686 0.808458 0.553439
O O10 0.655169 0.000000 0.839353
O O11 0.573361 0.747805 0.957208
O O12 0.502318 0.500000 0.831557
O O13 0.610497 0.270780 0.634754
O O14 0.783497 0.500000 0.719231
O O15 0.884485 0.727631 0.566668
O O16 0.788890 0.220529 0.232434
O O17 0.671883 0.000000 0.513150
O O18 0.185543 0.000000 0.959665
O O19 0.048946 0.813142 0.195758
O O20 0.000000 0.774564 0.500000
O O21 0.069031 0.000000 0.471495
#
# Coordination Sequence:
#
# PCOD8065007 Si02
#       8
#     4   4   4   4   4   4   4   4
#     4  11  22  35  55  85 119 154 192 240 301 360
#     4  11  23  37  55  81 116 160 202 242 293 354
#     4  11  24  42  63  86 117 160 210 255 297 354
#     4  12  24  38  60  90 122 157 200 249 303 360
#     4  11  24  40  60  89 126 161 197 249 309 364
#     4  10  22  41  64  89 118 159 208 254 298 349
#     4  10  20  37  62  89 119 152 194 246 297 353
#     4  10  20  36  62  94 121 156 202 244 296 365
#
# _framework density 20.023948000000001
#
# number of rings (size 3 to 8) (size 9 to 14) (size 15 to 20)
#    0.000    1.250    2.500    3.750    0.000    7.750 
#    0.000    0.625    0.000    3.750    0.000    0.000 
#    0.000    0.000    0.000    0.000    0.000    0.000 
#
# Total GULP energy -396825.122703 kJ/mol
# GULP energy per Si atom -12400.785084 kJ/mol
# Density = 1.997837 g / cm^3
# Si number density = 20.023948 Si / 1000 Ang^3
#
#
#
# Elastic Constant Matrix: (Units=GPa)
#
#
# Indices 1 2 3 4 5 6 
#
# 1 68.7552 37.2173 32.3076 0.0000 12.2117 0.0000
# 2 37.2173 102.9517 39.5037 0.0000 8.0123 0.0000
# 3 32.3076 39.5037 106.4328 0.0000 7.1751 0.0000
# 4 0.0000 0.0000 0.0000 17.4766 0.0000 3.1703
# 5 12.2117 8.0123 7.1751 0.0000 28.8916 0.0000
# 6 0.0000 0.0000 0.0000 3.1703 0.0000 22.6520
#
#
#
# Elastic Compliance Matrix: (Units=1/GPa)
#
#
# Indices 1 2 3 4 5 6 
#
# 1 0.020340 -0.005438 -0.003740 0.000000 -0.006160 0.000000
# 2 -0.005438 0.012911 -0.003107 0.000000 -0.000510 0.000000
# 3 -0.003740 -0.003107 0.011716 0.000000 -0.000467 0.000000
# 4 0.000000 0.000000 0.000000 0.058710 0.000000 -0.008217
# 5 -0.006160 -0.000510 -0.000467 0.000000 0.037473 0.000000
# 6 0.000000 0.000000 0.000000 -0.008217 0.000000 0.045296
#
#
# Mechanical properties :
#
#
# Convention : Reuss Voigt Hill
#
# Bulk Modulus (GPa) = 49.03067 55.13299 52.08183
# Shear Modulus (GPa) = 22.95521 25.07812 24.01667
#
# Velocity S-wave (km/s) = 3.38951 3.54277 3.46699
# Velocity P-wave (km/s) = 6.31328 6.65795 6.48791
#
# Compressibility (1/GPa) = 0.02039540
#
# Stress axis : x y z
#
# Youngs Moduli (GPa) = 49.16491 77.45274 85.35604
#
# Poissons Ratio (x) = 0.42120 0.31926
# Poissons Ratio (y) = 0.26737 0.26519
# Poissons Ratio (z) = 0.18390 0.24064
#
# Static dielectric constant tensor:
#      x y z
#    x 3.554610 0.000000 0.152090 
#    y 0.000000 3.584690 0.000000 
#    z 0.152090 0.000000 3.827360 
# 
# 
# High freq. dielectric constant tensor:
#      x y z
#    x 1.770040 0.000000 0.008610 
#    y 0.000000 1.781780 0.000000 
#    z 0.008610 0.000000 1.788360 
# 
# From -- ./inp_files/49787.got.cif
#   From: 2010.06.25/outbox.cif.g09.slc.cpg/sg10_25_cif.got.tgz:49787.got - 2010.06.27 22:07:45.
