data_PCOD8065184
_publ_section_title
;
Structure prediction by ZEFSAII (Michael W. Deem and Ramdas Pophale) SiO2 
 PCOD8065184
Probable space group: P 2/M
;
_chemical_formula_sum "Si O2"
_cell_formula_units_Z 28
_cell_length_a 9.650955
_cell_length_b 8.690298
_cell_length_c 27.662695
_cell_angle_alpha 90.000000
_cell_angle_beta 38.063027
_cell_angle_gamma 90.000000
_cell_volume 1430.382569
_symmetry_space_group_name_H-M "P 2/M"
_symmetry_group_IT_number 10
_symmetry_cell_setting 'monoclinic'
loop_
_space_group_symop_operation_xyz
x,y,z
-x,y,-z
-x,-y,-z
x,-y,z
loop_
_atom_site_type_symbol
_atom_site_label
_atom_site_fract_x
_atom_site_fract_y
_atom_site_fract_z
Si Si1 0.652466 0.319834 0.863617
Si Si2 0.238134 0.829385 0.458845
Si Si3 0.954490 0.321610 0.870553
Si Si4 0.346602 0.321804 0.691818
Si Si5 0.833263 0.820481 0.002453
Si Si6 0.029483 0.179508 0.701390
Si Si7 0.250534 0.678074 0.554919
O O1 0.687380 0.500000 0.845017
O O2 0.392603 0.277971 0.931828
O O3 0.755646 0.275579 0.887765
O O4 0.780064 0.228337 0.786242
O O5 0.422274 0.773093 0.369021
O O6 0.220667 0.709095 0.506844
O O7 0.000000 0.834987 0.500000
O O8 0.305733 0.000000 0.458716
O O9 0.929451 0.500000 0.892139
O O10 0.195824 0.287566 0.780219
O O11 0.947222 0.216451 0.919877
O O12 0.405782 0.500000 0.671633
O O13 0.213468 0.275077 0.680378
O O14 0.774497 0.000000 0.021543
O O15 0.000000 0.771987 0.000000
O O16 0.068077 0.221964 0.634773
O O17 0.062435 0.000000 0.701488
O O18 0.500000 0.731145 0.500000
O O19 0.208291 0.500000 0.577707
#
# Coordination Sequence:
#
# PCOD8065184 Si02
#       7
#     4   4   4   4   4   4   4
#     4  10  21  39  63  89 118 151 194 242 287 346
#     4  11  24  40  58  85 119 158 200 245 298 350
#     4   9  20  38  62  89 114 147 193 242 289 344
#     4  10  20  37  60  87 118 152 196 244 291 350
#     4  11  24  40  58  86 122 157 192 235 289 348
#     4  11  21  35  60  91 121 151 191 245 298 344
#     4  11  22  37  61  88 117 156 200 244 290 347
#
# _framework density 19.575182999999999
#
# number of rings (size 3 to 8) (size 9 to 14) (size 15 to 20)
#    0.000    1.571    1.429    4.714    0.000    8.000 
#    2.571    0.000    0.000    0.000    0.000    0.000 
#    0.000    0.000    0.000    0.000    0.000    0.000 
#
# Total GULP energy -347307.181525 kJ/mol
# GULP energy per Si atom -12403.827912 kJ/mol
# Density = 1.953063 g / cm^3
# Si number density = 19.575183 Si / 1000 Ang^3
#
#
#
# Elastic Constant Matrix: (Units=GPa)
#
#
# Indices 1 2 3 4 5 6 
#
# 1 81.9010 31.5203 48.5128 0.0000 0.5127 0.0000
# 2 31.5203 72.0543 39.8788 0.0000 -0.4329 0.0000
# 3 48.5128 39.8788 125.1020 0.0000 -0.5688 0.0000
# 4 0.0000 0.0000 0.0000 63.8667 0.0000 -21.0476
# 5 0.5127 -0.4329 -0.5688 0.0000 27.1409 0.0000
# 6 0.0000 0.0000 0.0000 -21.0476 0.0000 40.3702
#
#
#
# Elastic Compliance Matrix: (Units=1/GPa)
#
#
# Indices 1 2 3 4 5 6 
#
# 1 0.017030 -0.004610 -0.005137 0.000000 -0.000503 0.000000
# 2 -0.004610 0.018100 -0.003981 0.000000 0.000292 0.000000
# 3 -0.005137 -0.003981 0.011256 0.000000 0.000269 0.000000
# 4 0.000000 0.000000 0.000000 0.018906 0.000000 0.009857
# 5 -0.000503 0.000292 0.000269 0.000000 0.036865 0.000000
# 6 0.000000 0.000000 0.000000 0.009857 0.000000 0.029910
#
#
# Mechanical properties :
#
#
# Convention : Reuss Voigt Hill
#
# Bulk Modulus (GPa) = 52.82419 57.65347 55.23883
# Shear Modulus (GPa) = 30.15126 36.88526 33.51826
#
# Velocity S-wave (km/s) = 3.92890 4.34555 4.14246
# Velocity P-wave (km/s) = 6.90112 7.39558 7.15263
#
# Compressibility (1/GPa) = 0.01893072
#
# Stress axis : x y z
#
# Youngs Moduli (GPa) = 58.72060 55.24886 88.84457
#
# Poissons Ratio (x) = 0.25469 0.45637
# Poissons Ratio (y) = 0.27069 0.35367
# Poissons Ratio (z) = 0.30163 0.21993
#
# Static dielectric constant tensor:
#      x y z
#    x 3.177710 0.000000 0.021460 
#    y 0.000000 3.640840 0.000000 
#    z 0.021460 0.000000 3.833830 
# 
# 
# High freq. dielectric constant tensor:
#      x y z
#    x 1.734320 0.000000 0.000920 
#    y 0.000000 1.773190 0.000000 
#    z 0.000920 0.000000 1.778530 
# 
# From -- ./inp_files/37085.got.cif
#   From: 2010.06.25/outbox.cif.g09.slc.cpg/sg10_19_cif.got.tgz:37085.got - 2010.06.27 22:07:45.
