data_PCOD8065908
_publ_section_title
;
Structure prediction by ZEFSAII (Michael W. Deem and Ramdas Pophale) SiO2 
 PCOD8065908
Probable space group: P 2/M
;
_chemical_formula_sum "Si O2"
_cell_formula_units_Z 20
_cell_length_a 9.180329
_cell_length_b 14.032770
_cell_length_c 8.235588
_cell_angle_alpha 90.000000
_cell_angle_beta 102.527037
_cell_angle_gamma 90.000000
_cell_volume 1035.695988
_symmetry_space_group_name_H-M "P 2/M"
_symmetry_group_IT_number 10
_symmetry_cell_setting 'monoclinic'
loop_
_space_group_symop_operation_xyz
x,y,z
-x,y,-z
-x,-y,-z
x,-y,z
loop_
_atom_site_type_symbol
_atom_site_label
_atom_site_fract_x
_atom_site_fract_y
_atom_site_fract_z
Si Si1 0.583474 0.107311 0.759920
Si Si2 0.072430 0.387975 0.189318
Si Si3 0.119257 0.259420 0.646368
Si Si4 0.339677 0.288727 0.422211
Si Si5 0.722973 0.893476 0.134406
O O1 0.629841 0.180741 0.631111
O O2 0.419951 0.129559 0.789347
O O3 0.592035 0.000000 0.689893
O O4 0.695026 0.117324 0.937411
O O5 0.093221 0.500000 0.207579
O O6 0.237151 0.342275 0.262672
O O7 0.955243 0.353894 0.296387
O O8 0.000000 0.358122 0.000000
O O9 0.263149 0.289475 0.579307
O O10 0.151260 0.183092 0.793723
O O11 0.000000 0.208703 0.500000
O O12 0.500000 0.338694 0.500000
O O13 0.779780 0.000000 0.186092
#
# Coordination Sequence:
#
# PCOD8065908 Si02
#       5
#     4   4   4   4   4
#     4   9  18  32  54  81 115 155 188 226 274 324
#     4  10  23  44  64  80 107 149 188 229 290 350
#     4  10  21  35  56  83 115 149 183 229 287 337
#     4  11  21  35  59  90 117 146 187 234 279 330
#     4   9  17  32  53  80 114 154 194 226 266 323
#
# _framework density 19.310687000000001
#
# number of rings (size 3 to 8) (size 9 to 14) (size 15 to 20)
#    0.000    2.200    2.000    2.400    0.000    5.600 
#    0.000    3.000    0.000   13.200    0.000    0.000 
#    0.000    0.000    0.000    0.000    0.000    0.000 
#
# Total GULP energy -247879.047772 kJ/mol
# GULP energy per Si atom -12393.952389 kJ/mol
# Density = 1.926673 g / cm^3
# Si number density = 19.310687 Si / 1000 Ang^3
#
#
#
# Elastic Constant Matrix: (Units=GPa)
#
#
# Indices 1 2 3 4 5 6 
#
# 1 105.8511 37.5948 46.6193 0.0000 11.6981 0.0000
# 2 37.5948 88.0114 40.4310 0.0000 13.2398 0.0000
# 3 46.6193 40.4310 91.9009 0.0000 16.6511 0.0000
# 4 0.0000 0.0000 0.0000 21.8512 0.0000 -7.3749
# 5 11.6981 13.2398 16.6511 0.0000 39.2978 0.0000
# 6 0.0000 0.0000 0.0000 -7.3749 0.0000 19.5029
#
#
#
# Elastic Compliance Matrix: (Units=1/GPa)
#
#
# Indices 1 2 3 4 5 6 
#
# 1 0.012828 -0.003066 -0.005041 0.000000 -0.000650 0.000000
# 2 -0.003066 0.015171 -0.004721 0.000000 -0.002198 0.000000
# 3 -0.005041 -0.004721 0.016199 0.000000 -0.003773 0.000000
# 4 0.000000 0.000000 0.000000 0.052459 0.000000 0.019837
# 5 -0.000650 -0.002198 -0.003773 0.000000 0.027979 0.000000
# 6 0.000000 0.000000 0.000000 0.019837 0.000000 0.058776
#
#
# Mechanical properties :
#
#
# Convention : Reuss Voigt Hill
#
# Bulk Modulus (GPa) = 53.92949 59.45039 56.68994
# Shear Modulus (GPa) = 23.22895 26.87160 25.05027
#
# Velocity S-wave (km/s) = 3.47206 3.73438 3.60561
# Velocity P-wave (km/s) = 6.63788 7.03187 6.83772
#
# Compressibility (1/GPa) = 0.01854273
#
# Stress axis : x y z
#
# Youngs Moduli (GPa) = 77.95365 65.91407 61.73323
#
# Poissons Ratio (x) = 0.20211 0.31118
# Poissons Ratio (y) = 0.23903 0.29142
# Poissons Ratio (z) = 0.39294 0.31116
#
# Static dielectric constant tensor:
#      x y z
#    x 3.519770 0.000000 0.214740 
#    y 0.000000 3.371060 0.000000 
#    z 0.214740 0.000000 3.754030 
# 
# 
# High freq. dielectric constant tensor:
#      x y z
#    x 1.742710 0.000000 0.011990 
#    y 0.000000 1.734820 0.000000 
#    z 0.011990 0.000000 1.766410 
# 
# From -- ./inp_files/17949.got.cif
#   From: 2010.06.25/outbox.cif.g09.slc.cpg/sg10_9_cif.got.tgz:17949.got - 2010.06.27 22:07:45.
