data_PCOD8065985
_publ_section_title
;
Structure prediction by ZEFSAII (Michael W. Deem and Ramdas Pophale) SiO2 
 PCOD8065985
Probable space group: P 2/M
;
_chemical_formula_sum "Si O2"
_cell_formula_units_Z 28
_cell_length_a 20.768401
_cell_length_b 9.338520
_cell_length_c 14.097579
_cell_angle_alpha 90.000000
_cell_angle_beta 30.160125
_cell_angle_gamma 90.000000
_cell_volume 1373.697566
_symmetry_space_group_name_H-M "P 2/M"
_symmetry_group_IT_number 10
_symmetry_cell_setting 'monoclinic'
loop_
_space_group_symop_operation_xyz
x,y,z
-x,y,-z
-x,-y,-z
x,-y,z
loop_
_atom_site_type_symbol
_atom_site_label
_atom_site_fract_x
_atom_site_fract_y
_atom_site_fract_z
Si Si1 0.729860 0.669515 0.481455
Si Si2 0.777359 0.836388 0.754648
Si Si3 0.653489 0.656517 0.376799
Si Si4 0.906348 0.167578 0.393808
Si Si5 0.128312 0.340788 0.197787
Si Si6 0.619603 0.726544 0.222691
Si Si7 0.514992 0.156730 0.177460
O O1 0.739411 0.500000 0.488241
O O2 0.738145 0.707310 0.358562
O O3 0.847249 0.753200 0.378487
O O4 0.594949 0.725683 0.695179
O O5 0.810662 0.806817 0.603444
O O6 0.863214 0.732523 0.709881
O O7 0.809841 0.000000 0.742255
O O8 0.626501 0.805177 0.960429
O O9 0.701616 0.500000 0.280487
O O10 0.665050 0.768182 0.273027
O O11 0.507776 0.632475 0.599071
O O12 0.042515 0.240698 0.240151
O O13 0.926969 0.000000 0.346075
O O14 0.069371 0.500000 0.284371
O O15 0.267658 0.358728 0.973000
O O16 0.577086 0.853112 0.205060
O O17 0.456543 0.000000 0.230221
#
# Coordination Sequence:
#
# PCOD8065985 Si02
#       7
#     4   4   4   4   4   4   4
#     4  10  21  36  54  78 106 137 176 218 259 305
#     4   9  20  37  56  77 102 138 178 211 254 314
#     4   9  16  31  55  80 107 137 168 206 257 315
#     4  11  23  39  55  70 100 146 184 213 253 310
#     4  11  21  33  54  83 109 132 168 220 265 301
#     4   9  17  31  54  82 108 135 168 208 256 309
#     4   9  18  34  55  80 109 137 169 212 261 312
#
# _framework density 20.382944999999999
#
# number of rings (size 3 to 8) (size 9 to 14) (size 15 to 20)
#    0.000    2.286    0.000    3.429    0.000    8.000 
#    0.000   10.000    0.000    3.429    0.000    0.000 
#    0.000    0.000    0.000    0.000    0.000    0.000 
#
# Total GULP energy -346927.392150 kJ/mol
# GULP energy per Si atom -12390.264005 kJ/mol
# Density = 2.033655 g / cm^3
# Si number density = 20.382945 Si / 1000 Ang^3
#
#
#
# Elastic Constant Matrix: (Units=GPa)
#
#
# Indices 1 2 3 4 5 6 
#
# 1 94.9239 31.6319 -3.5795 0.0000 -4.1632 0.0000
# 2 31.6319 101.1432 6.0084 0.0000 -11.1589 0.0000
# 3 -3.5795 6.0084 24.0203 0.0000 4.1232 0.0000
# 4 0.0000 0.0000 0.0000 17.6351 0.0000 -5.0714
# 5 -4.1632 -11.1589 4.1232 0.0000 25.2786 0.0000
# 6 0.0000 0.0000 0.0000 -5.0714 0.0000 29.7356
#
#
#
# Elastic Compliance Matrix: (Units=1/GPa)
#
#
# Indices 1 2 3 4 5 6 
#
# 1 0.011938 -0.003924 0.002799 0.000000 -0.000223 0.000000
# 2 -0.003924 0.011975 -0.004503 0.000000 0.005374 0.000000
# 3 0.002799 -0.004503 0.044688 0.000000 -0.008816 0.000000
# 4 0.000000 0.000000 0.000000 0.059630 0.000000 0.010170
# 5 -0.000223 0.005374 -0.008816 0.000000 0.043333 0.000000
# 6 0.000000 0.000000 0.000000 0.010170 0.000000 0.035364
#
#
# Mechanical properties :
#
#
# Convention : Reuss Voigt Hill
#
# Bulk Modulus (GPa) = 17.43838 32.02323 24.73080
# Shear Modulus (GPa) = 21.07047 26.93164 24.00106
#
# Velocity S-wave (km/s) = 3.21866 3.63889 3.43520
# Velocity P-wave (km/s) = 4.73148 5.77930 5.28144
#
# Compressibility (1/GPa) = 0.05734477
#
# Stress axis : x y z
#
# Youngs Moduli (GPa) = 83.76409 83.50923 22.37729
#
# Poissons Ratio (x) = 0.32773 -0.06263
# Poissons Ratio (y) = 0.32873 0.10076
# Poissons Ratio (z) = -0.23445 0.37601
#
# Static dielectric constant tensor:
#      x y z
#    x 3.834530 0.000000 0.117340 
#    y 0.000000 3.503730 0.000000 
#    z 0.117340 0.000000 3.538060 
# 
# 
# High freq. dielectric constant tensor:
#      x y z
#    x 1.796730 0.000000 0.004630 
#    y 0.000000 1.780070 0.000000 
#    z 0.004630 0.000000 1.780050 
# 
# From -- ./inp_files/70202.got.cif
#   From: 2010.06.25/outbox.cif.g09.slc.cpg/sg10_36_cif.got.tgz:70202.got - 2010.06.27 22:07:45.
