data_PCOD8065326
_publ_section_title
;
Structure prediction by ZEFSAII (Michael W. Deem and Ramdas Pophale) SiO2 
 PCOD8065326
Probable space group: P 2/M
;
_chemical_formula_sum "Si O2"
_cell_formula_units_Z 28
_cell_length_a 15.980932
_cell_length_b 8.759205
_cell_length_c 14.502676
_cell_angle_alpha 90.000000
_cell_angle_beta 42.865719
_cell_angle_gamma 90.000000
_cell_volume 1381.033486
_symmetry_space_group_name_H-M "P 2/M"
_symmetry_group_IT_number 10
_symmetry_cell_setting 'monoclinic'
loop_
_space_group_symop_operation_xyz
x,y,z
-x,y,-z
-x,-y,-z
x,-y,z
loop_
_atom_site_type_symbol
_atom_site_label
_atom_site_fract_x
_atom_site_fract_y
_atom_site_fract_z
Si Si1 0.929079 0.320874 0.352625
Si Si2 0.244229 0.321472 0.672829
Si Si3 0.815468 0.820592 0.894915
Si Si4 0.440753 0.820663 0.391298
Si Si5 0.266496 0.820889 0.365524
Si Si6 0.642107 0.321157 0.892451
Si Si7 0.719048 0.179576 0.169603
O O1 0.916412 0.500000 0.382452
O O2 0.865879 0.274808 0.306869
O O3 0.864565 0.228517 0.487100
O O4 0.070334 0.273334 0.236612
O O5 0.257554 0.500000 0.671293
O O6 0.373579 0.256433 0.532063
O O7 0.212808 0.253287 0.798145
O O8 0.695114 0.773756 0.935221
O O9 0.839683 0.000000 0.864997
O O10 0.794099 0.773793 0.018179
O O11 0.374014 0.775712 0.350056
O O12 0.579500 0.758664 0.274014
O O13 0.434998 0.000000 0.412648
O O14 0.286805 0.725993 0.256963
O O15 0.265533 0.000000 0.343950
O O16 0.660244 0.500000 0.895566
O O17 0.500000 0.275452 0.000000
O O18 0.717080 0.000000 0.184394
#
# Coordination Sequence:
#
# PCOD8065326 Si02
#       7
#     4   4   4   4   4   4   4
#     4  10  22  41  60  83 117 152 191 238 289 342
#     4  10  21  35  55  83 114 150 190 234 283 339
#     4  11  24  41  61  85 113 149 196 242 283 334
#     4   9  18  34  56  83 115 149 186 232 286 338
#     4  10  20  37  63  89 115 151 194 239 284 334
#     4  11  24  41  62  90 122 153 184 225 284 346
#     4  10  21  36  55  81 114 151 190 236 287 336
#
# _framework density 20.274671000000001
#
# number of rings (size 3 to 8) (size 9 to 14) (size 15 to 20)
#    0.000    1.857    0.000    3.429    0.000    9.143 
#    0.000    5.714    0.000    0.000    0.000    0.000 
#    0.000    0.000    0.000    0.000    0.000    0.000 
#
# Total GULP energy -347372.295341 kJ/mol
# GULP energy per Si atom -12406.153405 kJ/mol
# Density = 2.022852 g / cm^3
# Si number density = 20.274671 Si / 1000 Ang^3
#
#
#
# Elastic Constant Matrix: (Units=GPa)
#
#
# Indices 1 2 3 4 5 6 
#
# 1 61.0439 22.6208 30.7581 0.0000 3.1119 0.0000
# 2 22.6208 34.4076 27.7047 0.0000 6.0052 0.0000
# 3 30.7581 27.7047 92.5652 0.0000 4.5664 0.0000
# 4 0.0000 0.0000 0.0000 26.7376 0.0000 3.3099
# 5 3.1119 6.0052 4.5664 0.0000 38.6310 0.0000
# 6 0.0000 0.0000 0.0000 3.3099 0.0000 34.3377
#
#
#
# Elastic Compliance Matrix: (Units=1/GPa)
#
#
# Indices 1 2 3 4 5 6 
#
# 1 0.022771 -0.011781 -0.004064 0.000000 0.000478 0.000000
# 2 -0.011781 0.045226 -0.009376 0.000000 -0.004973 0.000000
# 3 -0.004064 -0.009376 0.014959 0.000000 0.000017 0.000000
# 4 0.000000 0.000000 0.000000 0.037852 0.000000 -0.003649
# 5 0.000478 -0.004973 0.000017 0.000000 0.026619 0.000000
# 6 0.000000 0.000000 0.000000 -0.003649 0.000000 0.029474
#
#
# Mechanical properties :
#
#
# Convention : Reuss Voigt Hill
#
# Bulk Modulus (GPa) = 30.75655 38.90933 34.83294
# Shear Modulus (GPa) = 20.99239 27.07012 24.03126
#
# Velocity S-wave (km/s) = 3.22125 3.65796 3.44653
# Velocity P-wave (km/s) = 5.38871 6.08882 5.74943
#
# Compressibility (1/GPa) = 0.03251340
#
# Stress axis : x y z
#
# Youngs Moduli (GPa) = 43.91607 22.11099 66.84955
#
# Poissons Ratio (x) = 0.26050 0.27166
# Poissons Ratio (y) = 0.51740 0.62679
# Poissons Ratio (z) = 0.17846 0.20731
#
# Static dielectric constant tensor:
#      x y z
#    x 3.790460 0.000000 0.050990 
#    y 0.000000 3.588650 0.000000 
#    z 0.050990 0.000000 3.691500 
# 
# 
# High freq. dielectric constant tensor:
#      x y z
#    x 1.794020 0.000000 0.005190 
#    y 0.000000 1.793230 0.000000 
#    z 0.005190 0.000000 1.795290 
# 
# From -- ./inp_files/68605.got.cif
#   From: 2010.06.25/outbox.cif.g09.slc.cpg/sg10_35_cif.got.tgz:68605.got - 2010.06.27 22:07:45.
