data_PCOD8065390
_publ_section_title
;
Structure prediction by ZEFSAII (Michael W. Deem and Ramdas Pophale) SiO2 
 PCOD8065390
Probable space group: P 2/M
;
_chemical_formula_sum "Si O2"
_cell_formula_units_Z 32
_cell_length_a 30.139882
_cell_length_b 9.064002
_cell_length_c 12.853533
_cell_angle_alpha 90.000000
_cell_angle_beta 151.782203
_cell_angle_gamma 90.000000
_cell_volume 1660.290257
_symmetry_space_group_name_H-M "P 2/M"
_symmetry_group_IT_number 10
_symmetry_cell_setting 'monoclinic'
loop_
_space_group_symop_operation_xyz
x,y,z
-x,y,-z
-x,-y,-z
x,-y,z
loop_
_atom_site_type_symbol
_atom_site_label
_atom_site_fract_x
_atom_site_fract_y
_atom_site_fract_z
Si Si1 0.897521 0.325170 0.998087
Si Si2 0.229107 0.830896 0.855722
Si Si3 0.556012 0.827524 0.719364
Si Si4 0.112428 0.674565 0.440685
Si Si5 0.402646 0.671002 0.762530
Si Si6 0.406519 0.329166 0.529101
Si Si7 0.774023 0.170729 0.914239
Si Si8 0.794695 0.676064 0.578010
O O1 0.885988 0.500000 0.985325
O O2 0.847293 0.252287 0.992302
O O3 0.853080 0.267674 0.798392
O O4 0.005035 0.273993 0.221480
O O5 0.164415 0.733118 0.649200
O O6 0.220698 0.000000 0.803122
O O7 0.336538 0.777513 0.068391
O O8 0.192361 0.811055 0.897440
O O9 0.500000 0.784656 0.500000
O O10 0.509362 0.735436 0.716725
O O11 0.547016 0.000000 0.724875
O O12 0.119767 0.500000 0.455883
O O13 0.159601 0.738810 0.433038
O O14 0.409360 0.500000 0.805611
O O15 0.385021 0.694701 0.605106
O O16 0.312161 0.737480 0.635331
O O17 0.500000 0.748750 0.000000
O O18 0.402114 0.500000 0.488870
O O19 0.329153 0.240018 0.305221
O O20 0.767259 0.000000 0.868572
O O21 0.795976 0.500000 0.581229
#
# Coordination Sequence:
#
# PCOD8065390 Si02
#       8
#     4   4   4   4   4   4   4   4
#     4  10  20  38  61  88 114 144 191 245 294 338
#     4  10  23  41  58  79 116 158 194 233 284 345
#     4  10  20  38  58  77 110 155 191 222 270 339
#     4  10  22  37  60  88 115 148 191 243 292 342
#     4   9  18  31  51  83 118 147 177 223 284 341
#     4  11  21  34  57  88 115 146 189 242 285 330
#     4  11  22  39  61  83 112 156 198 235 285 349
#     4   9  17  34  58  83 116 153 186 227 287 352
#
# _framework density 19.273738000000002
#
# number of rings (size 3 to 8) (size 9 to 14) (size 15 to 20)
#    0.000    2.000    2.500    1.125    1.750    4.250 
#    0.000    3.125    0.000    3.000    0.000    0.000 
#    0.000    0.000    0.000    0.000    0.000    0.000 
#
# Total GULP energy -396834.996039 kJ/mol
# GULP energy per Si atom -12401.093626 kJ/mol
# Density = 1.922987 g / cm^3
# Si number density = 19.273738 Si / 1000 Ang^3
#
#
#
# Elastic Constant Matrix: (Units=GPa)
#
#
# Indices 1 2 3 4 5 6 
#
# 1 124.5166 32.0375 53.9718 0.0000 16.0095 0.0000
# 2 32.0375 33.9014 25.3682 0.0000 3.1207 0.0000
# 3 53.9718 25.3682 135.9938 0.0000 11.6938 0.0000
# 4 0.0000 0.0000 0.0000 9.9322 0.0000 12.9655
# 5 16.0095 3.1207 11.6938 0.0000 25.1809 0.0000
# 6 0.0000 0.0000 0.0000 12.9655 0.0000 19.0676
#
#
#
# Elastic Compliance Matrix: (Units=1/GPa)
#
#
# Indices 1 2 3 4 5 6 
#
# 1 0.012219 -0.009029 -0.002701 0.000000 -0.005395 0.000000
# 2 -0.009029 0.040998 -0.004292 0.000000 0.002653 0.000000
# 3 -0.002701 -0.004292 0.009408 0.000000 -0.002120 0.000000
# 4 0.000000 0.000000 0.000000 0.896009 0.000000 -0.609262
# 5 -0.005395 0.002653 -0.002120 0.000000 0.043798 0.000000
# 6 0.000000 0.000000 0.000000 -0.609262 0.000000 0.466727
#
#
# Mechanical properties :
#
#
# Convention : Reuss Voigt Hill
#
# Bulk Modulus (GPa) = 32.70158 57.46297 45.08227
# Shear Modulus (GPa) = 3.30820 23.03845 13.17332
#
# Velocity S-wave (km/s) = 1.31155 3.46110 2.61719
# Velocity P-wave (km/s) = 4.39287 6.77135 5.70738
#
# Compressibility (1/GPa) = 0.03057957
#
# Stress axis : x y z
#
# Youngs Moduli (GPa) = 81.84246 24.39157 106.29001
#
# Poissons Ratio (x) = 0.22023 0.28709
# Poissons Ratio (y) = 0.73896 0.45625
# Poissons Ratio (z) = 0.22106 0.10470
#
# Static dielectric constant tensor:
#      x y z
#    x 3.692420 0.000000 0.146840 
#    y 0.000000 3.196220 0.000000 
#    z 0.146840 0.000000 3.584940 
# 
# 
# High freq. dielectric constant tensor:
#      x y z
#    x 1.765540 0.000000 0.006530 
#    y 0.000000 1.716630 0.000000 
#    z 0.006530 0.000000 1.753970 
# 
# From -- ./inp_files/58222.got.cif
#   From: 2010.06.25/outbox.cif.g09.slc.cpg/sg10_30_cif.got.tgz:58222.got - 2010.06.27 22:07:45.
