data_PCOD8065998
_publ_section_title
;
Structure prediction by ZEFSAII (Michael W. Deem and Ramdas Pophale) SiO2 
 PCOD8065998
Probable space group: P 2/M
;
_chemical_formula_sum "Si O2"
_cell_formula_units_Z 32
_cell_length_a 25.692883
_cell_length_b 8.930791
_cell_length_c 20.017212
_cell_angle_alpha 90.000000
_cell_angle_beta 158.473511
_cell_angle_gamma 90.000000
_cell_volume 1685.354089
_symmetry_space_group_name_H-M "P 2/M"
_symmetry_group_IT_number 10
_symmetry_cell_setting 'monoclinic'
loop_
_space_group_symop_operation_xyz
x,y,z
-x,y,-z
-x,-y,-z
x,-y,z
loop_
_atom_site_type_symbol
_atom_site_label
_atom_site_fract_x
_atom_site_fract_y
_atom_site_fract_z
Si Si1 0.098952 0.322871 0.374663
Si Si2 0.835768 0.173167 0.794610
Si Si3 0.912549 0.677036 0.490216
Si Si4 0.197981 0.177526 0.005421
Si Si5 0.613378 0.824676 0.892306
Si Si6 0.789088 0.322977 0.208186
Si Si7 0.290095 0.826460 0.498233
Si Si8 0.665496 0.673304 0.705677
O O1 0.080093 0.500000 0.349517
O O2 0.131837 0.266375 0.489465
O O3 0.230335 0.273109 0.486792
O O4 0.956792 0.248567 0.177462
O O5 0.795550 0.211349 0.670811
O O6 0.743613 0.278959 0.731436
O O7 0.803366 0.000000 0.772960
O O8 0.000000 0.211554 0.000000
O O9 0.920163 0.500000 0.496508
O O10 0.799831 0.729302 0.298868
O O11 0.069762 0.736488 0.660788
O O12 0.285018 0.236586 0.045152
O O13 0.280841 0.225347 0.170084
O O14 0.182903 0.000000 0.987258
O O15 0.453301 0.781068 0.682482
O O16 0.631645 0.000000 0.921799
O O17 0.653763 0.750994 0.011350
O O18 0.772607 0.500000 0.182957
O O19 0.274113 0.000000 0.498566
O O20 0.500000 0.703770 0.500000
O O21 0.698091 0.500000 0.759415
#
# Coordination Sequence:
#
# PCOD8065998 Si02
#       8
#     4   4   4   4   4   4   4   4
#     4  11  21  36  58  86 114 143 184 233 279 327
#     4  10  21  39  62  83 106 146 194 232 276 337
#     4   8  16  31  54  83 112 143 181 229 281 327
#     4  11  22  37  59  84 111 146 186 227 277 335
#     4  10  21  36  54  81 115 150 188 229 276 330
#     4   9  16  32  57  81 109 146 185 229 278 328
#     4  10  22  39  56  79 116 153 185 227 279 337
#     4  11  24  39  57  85 116 143 180 233 284 329
#
# _framework density 18.987107999999999
#
# number of rings (size 3 to 8) (size 9 to 14) (size 15 to 20)
#    0.000    2.000    1.250    3.375    0.000    4.750 
#    0.000    3.125    0.000    3.750    0.000    0.000 
#    0.000    0.000    0.000    0.000    0.000    0.000 
#
# Total GULP energy -396856.859371 kJ/mol
# GULP energy per Si atom -12401.776855 kJ/mol
# Density = 1.894389 g / cm^3
# Si number density = 18.987108 Si / 1000 Ang^3
#
#
#
# Elastic Constant Matrix: (Units=GPa)
#
#
# Indices 1 2 3 4 5 6 
#
# 1 104.5869 33.4426 43.1747 0.0000 -9.6142 0.0000
# 2 33.4426 46.2448 25.9130 0.0000 2.0857 0.0000
# 3 43.1747 25.9130 85.7573 0.0000 -8.7843 0.0000
# 4 0.0000 0.0000 0.0000 30.2120 0.0000 -1.1411
# 5 -9.6142 2.0857 -8.7843 0.0000 33.1656 0.0000
# 6 0.0000 0.0000 0.0000 -1.1411 0.0000 30.4053
#
#
#
# Elastic Compliance Matrix: (Units=1/GPa)
#
#
# Indices 1 2 3 4 5 6 
#
# 1 0.014256 -0.007997 -0.004405 0.000000 0.003469 0.000000
# 2 -0.007997 0.030999 -0.005939 0.000000 -0.005841 0.000000
# 3 -0.004405 -0.005939 0.016015 0.000000 0.003338 0.000000
# 4 0.000000 0.000000 0.000000 0.033146 0.000000 0.001244
# 5 0.003469 -0.005841 0.003338 0.000000 0.032409 0.000000
# 6 0.000000 0.000000 0.000000 0.001244 0.000000 0.032936
#
#
# Mechanical properties :
#
#
# Convention : Reuss Voigt Hill
#
# Bulk Modulus (GPa) = 40.67216 49.07218 44.87217
# Shear Modulus (GPa) = 24.43320 27.69383 26.06351
#
# Velocity S-wave (km/s) = 3.59113 3.82325 3.70901
# Velocity P-wave (km/s) = 6.21791 6.73727 6.48279
#
# Compressibility (1/GPa) = 0.02458685
#
# Stress axis : x y z
#
# Youngs Moduli (GPa) = 70.14511 32.25941 62.44094
#
# Poissons Ratio (x) = 0.25799 0.27508
# Poissons Ratio (y) = 0.56098 0.37082
# Poissons Ratio (z) = 0.30902 0.19158
#
# Static dielectric constant tensor:
#      x y z
#    x 3.659090 0.000000 -0.171020 
#    y 0.000000 3.305210 0.000000 
#    z -0.171020 0.000000 3.525060 
# 
# 
# High freq. dielectric constant tensor:
#      x y z
#    x 1.742760 0.000000 -0.013210 
#    y 0.000000 1.724120 0.000000 
#    z -0.013210 0.000000 1.741850 
# 
# From -- ./inp_files/87001.got.cif
#   From: 2010.06.25/outbox.cif.g09.slc.cpg/sg10_44_cif.got.tgz:87001.got - 2010.06.27 22:07:45.
