data_PCOD8065702
_publ_section_title
;
Structure prediction by ZEFSAII (Michael W. Deem and Ramdas Pophale) SiO2 
 PCOD8065702
Probable space group: P 2/M
;
_chemical_formula_sum "Si O2"
_cell_formula_units_Z 26
_cell_length_a 8.947807
_cell_length_b 21.053256
_cell_length_c 11.883212
_cell_angle_alpha 90.000000
_cell_angle_beta 143.824845
_cell_angle_gamma 90.000000
_cell_volume 1321.325780
_symmetry_space_group_name_H-M "P 2/M"
_symmetry_group_IT_number 10
_symmetry_cell_setting 'monoclinic'
loop_
_space_group_symop_operation_xyz
x,y,z
-x,y,-z
-x,-y,-z
x,-y,z
loop_
_atom_site_type_symbol
_atom_site_label
_atom_site_fract_x
_atom_site_fract_y
_atom_site_fract_z
Si Si1 0.259793 0.651025 0.216711
Si Si2 0.064232 0.000000 0.748829
Si Si3 0.646590 0.428072 0.331838
Si Si4 0.495629 0.000000 0.166716
Si Si5 0.500000 0.384749 0.000000
Si Si6 0.614723 0.233069 0.452298
Si Si7 0.955861 0.659185 0.676075
Si Si8 0.221627 0.896327 0.545705
O O1 0.389602 0.589229 0.241581
O O2 0.429444 0.712762 0.290355
O O3 0.217712 0.636804 0.323574
O O4 0.000000 0.666091 0.000000
O O5 0.896965 0.935952 0.631471
O O6 0.294480 0.000000 0.802190
O O7 0.200227 0.000000 0.952313
O O8 0.725964 0.500000 0.407307
O O9 0.588451 0.424434 0.162679
O O10 0.875949 0.383467 0.518454
O O11 0.542326 0.063412 0.265795
O O12 0.745192 0.342943 0.115976
O O13 0.500000 0.210158 0.500000
O O14 0.892249 0.266213 0.623398
O O15 0.648930 0.170529 0.400727
O O16 0.000000 0.885518 0.500000
#
# Coordination Sequence:
#
# PCOD8065702 Si02
#       8
#     4   2   4   2   2   4   4   4
#     4  10  20  43  64  82 110 154 200 240 283 346
#     4   8  15  31  52  76 115 147 186 224 270 327
#     4  11  24  40  62  88 116 149 190 240 290 349
#     4   8  15  31  52  78 112 152 180 226 272 320
#     4  12  23  40  60  86 122 153 182 236 300 349
#     4   9  20  38  59  81 115 149 186 237 288 335
#     4  10  23  42  61  84 116 154 193 236 294 343
#     4   9  17  32  55  83 111 144 186 230 274 328
#
# _framework density 19.677206000000002
#
# number of rings (size 3 to 8) (size 9 to 14) (size 15 to 20)
#    0.000    2.308    1.538    3.000    0.000    5.846 
#    5.538    3.077    0.000    0.923    0.000    0.000 
#    0.000    0.000    0.000    0.000    0.000    0.000 
#
# Total GULP energy -322126.970770 kJ/mol
# GULP energy per Si atom -12389.498876 kJ/mol
# Density = 1.963242 g / cm^3
# Si number density = 19.677206 Si / 1000 Ang^3
#
#
#
# Elastic Constant Matrix: (Units=GPa)
#
#
# Indices 1 2 3 4 5 6 
#
# 1 71.3825 48.0521 33.9828 0.0000 2.1377 0.0000
# 2 48.0521 125.6415 45.3497 0.0000 -2.9997 0.0000
# 3 33.9828 45.3497 123.6114 0.0000 4.6831 0.0000
# 4 0.0000 0.0000 0.0000 11.1675 0.0000 -2.9938
# 5 2.1377 -2.9997 4.6831 0.0000 37.5753 0.0000
# 6 0.0000 0.0000 0.0000 -2.9938 0.0000 17.4664
#
#
#
# Elastic Compliance Matrix: (Units=1/GPa)
#
#
# Indices 1 2 3 4 5 6 
#
# 1 0.019893 -0.006549 -0.003018 0.000000 -0.001278 0.000000
# 2 -0.006549 0.011381 -0.002435 0.000000 0.001585 0.000000
# 3 -0.003018 -0.002435 0.009860 0.000000 -0.001252 0.000000
# 4 0.000000 0.000000 0.000000 0.093859 0.000000 0.016088
# 5 -0.001278 0.001585 -0.001252 0.000000 0.026968 0.000000
# 6 0.000000 0.000000 0.000000 0.016088 0.000000 0.060010
#
#
# Mechanical properties :
#
#
# Convention : Reuss Voigt Hill
#
# Bulk Modulus (GPa) = 58.37718 63.93387 61.15552
# Shear Modulus (GPa) = 19.86613 26.12520 22.99567
#
# Velocity S-wave (km/s) = 3.18087 3.64770 3.42225
# Velocity P-wave (km/s) = 6.57437 7.09245 6.83832
#
# Compressibility (1/GPa) = 0.01712998
#
# Stress axis : x y z
#
# Youngs Moduli (GPa) = 50.26967 87.86860 101.41870
#
# Poissons Ratio (x) = 0.57549 0.30604
# Poissons Ratio (y) = 0.32924 0.24693
# Poissons Ratio (z) = 0.15169 0.21394
#
# Static dielectric constant tensor:
#      x y z
#    x 3.607450 0.000000 -0.014160 
#    y 0.000000 3.339970 0.000000 
#    z -0.014160 0.000000 3.968130 
# 
# 
# High freq. dielectric constant tensor:
#      x y z
#    x 1.761070 0.000000 0.004890 
#    y 0.000000 1.748910 0.000000 
#    z 0.004890 0.000000 1.773800 
# 
# From -- ./inp_files/43657.got.cif
#   From: 2010.06.25/outbox.cif.g09.slc.cpg/sg10_22_cif.got.tgz:43657.got - 2010.06.27 22:07:45.
