data_PCOD8065598
_publ_section_title
;
Structure prediction by ZEFSAII (Michael W. Deem and Ramdas Pophale) SiO2 
 PCOD8065598
Probable space group: P 2/M
;
_chemical_formula_sum "Si O2"
_cell_formula_units_Z 28
_cell_length_a 26.642140
_cell_length_b 7.777926
_cell_length_c 8.976386
_cell_angle_alpha 90.000000
_cell_angle_beta 132.211603
_cell_angle_gamma 90.000000
_cell_volume 1377.711670
_symmetry_space_group_name_H-M "P 2/M"
_symmetry_group_IT_number 10
_symmetry_cell_setting 'monoclinic'
loop_
_space_group_symop_operation_xyz
x,y,z
-x,y,-z
-x,-y,-z
x,-y,z
loop_
_atom_site_type_symbol
_atom_site_label
_atom_site_fract_x
_atom_site_fract_y
_atom_site_fract_z
Si Si1 0.427876 0.500000 0.280995
Si Si2 0.066546 0.303322 0.559306
Si Si3 0.194170 0.799414 0.290084
Si Si4 0.329793 0.803090 0.737365
Si Si5 0.427705 0.500000 0.930573
Si Si6 0.666643 0.809041 0.911600
Si Si7 0.065809 0.797589 0.222451
Si Si8 0.798913 0.695527 0.026936
O O1 0.500000 0.500000 0.500000
O O2 0.387664 0.669974 0.253603
O O3 0.438899 0.500000 0.128000
O O4 0.067619 0.500000 0.614068
O O5 0.064388 0.293404 0.378068
O O6 0.000000 0.213584 0.500000
O O7 0.135013 0.218982 0.762840
O O8 0.262728 0.756418 0.513504
O O9 0.131748 0.734049 0.265242
O O10 0.192885 0.697605 0.133827
O O11 0.186896 0.000000 0.240881
O O12 0.388256 0.672430 0.800918
O O13 0.353131 0.000000 0.753707
O O14 0.312966 0.772585 0.877055
O O15 0.500000 0.500000 0.000000
O O16 0.733748 0.803541 0.945717
O O17 0.634855 0.000000 0.831145
O O18 0.067206 0.000000 0.252504
O O19 0.000000 0.739322 0.000000
O O20 0.788351 0.500000 0.060022
#
# Coordination Sequence:
#
# PCOD8065598 Si02
#       8
#     2   4   4   4   2   4   4   4
#     4  10  22  40  60  90 125 152 197 240 276 354
#     4  10  22  38  55  79 114 152 194 243 295 353
#     4  10  21  36  54  83 115 147 191 240 292 348
#     4   9  20  38  60  85 115 152 195 237 283 345
#     4  10  22  38  60  88 117 154 189 230 288 338
#     4  10  20  39  63  86 118 158 195 242 296 341
#     4  10  21  37  57  81 111 148 194 245 293 348
#     4  11  22  35  55  85 116 151 197 244 292 351
#
# _framework density 20.323553
#
# number of rings (size 3 to 8) (size 9 to 14) (size 15 to 20)
#    0.000    2.000    0.714    2.143    1.000    5.143 
#    0.000    0.000    0.000    0.000    0.000    0.000 
#    0.000    0.000    0.000    0.000    0.000    0.000 
#
# Total GULP energy -347290.314992 kJ/mol
# GULP energy per Si atom -12403.225535 kJ/mol
# Density = 2.027730 g / cm^3
# Si number density = 20.323553 Si / 1000 Ang^3
#
#
#
# Elastic Constant Matrix: (Units=GPa)
#
#
# Indices 1 2 3 4 5 6 
#
# 1 144.8084 40.6102 60.7735 0.0000 20.1931 0.0000
# 2 40.6102 88.5465 47.6421 0.0000 15.8076 0.0000
# 3 60.7735 47.6421 150.6386 0.0000 20.3235 0.0000
# 4 0.0000 0.0000 0.0000 15.6682 0.0000 -3.4034
# 5 20.1931 15.8076 20.3235 0.0000 36.9823 0.0000
# 6 0.0000 0.0000 0.0000 -3.4034 0.0000 26.3241
#
#
#
# Elastic Compliance Matrix: (Units=1/GPa)
#
#
# Indices 1 2 3 4 5 6 
#
# 1 0.008971 -0.002290 -0.002556 0.000000 -0.002515 0.000000
# 2 -0.002290 0.014687 -0.003286 0.000000 -0.003221 0.000000
# 3 -0.002556 -0.003286 0.008998 0.000000 -0.002145 0.000000
# 4 0.000000 0.000000 0.000000 0.065668 0.000000 0.008490
# 5 -0.002515 -0.003221 -0.002145 0.000000 0.030969 0.000000
# 6 0.000000 0.000000 0.000000 0.008490 0.000000 0.039086
#
#
# Mechanical properties :
#
#
# Convention : Reuss Voigt Hill
#
# Bulk Modulus (GPa) = 61.00672 75.78281 68.39476
# Shear Modulus (GPa) = 26.30086 31.45944 28.88015
#
# Velocity S-wave (km/s) = 3.60127 3.93864 3.77373
# Velocity P-wave (km/s) = 6.88296 7.61925 7.26045
#
# Compressibility (1/GPa) = 0.01639164
#
# Stress axis : x y z
#
# Youngs Moduli (GPa) = 111.46670 68.08605 111.13311
#
# Poissons Ratio (x) = 0.15595 0.28402
# Poissons Ratio (y) = 0.25531 0.36524
# Poissons Ratio (z) = 0.28487 0.22376
#
# Static dielectric constant tensor:
#      x y z
#    x 3.622500 0.000000 0.126600 
#    y 0.000000 3.668110 0.000000 
#    z 0.126600 0.000000 3.668100 
# 
# 
# High freq. dielectric constant tensor:
#      x y z
#    x 1.792190 0.000000 0.000720 
#    y 0.000000 1.793960 0.000000 
#    z 0.000720 0.000000 1.793700 
# 
# From -- ./inp_files/37369.got.cif
#   From: 2010.06.25/outbox.cif.g09.slc.cpg/sg10_19_cif.got.tgz:37369.got - 2010.06.27 22:07:45.
