data_PCOD8065416
_publ_section_title
;
Structure prediction by ZEFSAII (Michael W. Deem and Ramdas Pophale) SiO2 
 PCOD8065416
Probable space group: P 2/M
;
_chemical_formula_sum "Si O2"
_cell_formula_units_Z 32
_cell_length_a 20.599267
_cell_length_b 9.858508
_cell_length_c 25.859462
_cell_angle_alpha 90.000000
_cell_angle_beta 18.102609
_cell_angle_gamma 90.000000
_cell_volume 1631.741092
_symmetry_space_group_name_H-M "P 2/M"
_symmetry_group_IT_number 10
_symmetry_cell_setting 'monoclinic'
loop_
_space_group_symop_operation_xyz
x,y,z
-x,y,-z
-x,-y,-z
x,-y,z
loop_
_atom_site_type_symbol
_atom_site_label
_atom_site_fract_x
_atom_site_fract_y
_atom_site_fract_z
Si Si1 0.840985 0.848112 0.979207
Si Si2 0.941799 0.151263 0.619069
Si Si3 0.862104 0.345209 0.056796
Si Si4 0.390357 0.252026 0.295767
Si Si5 0.657172 0.656625 0.780949
Si Si6 0.301709 0.843602 0.091160
Si Si7 0.935094 0.153872 0.294197
Si Si8 0.385416 0.648855 0.413401
O O1 0.013939 0.825178 0.804271
O O2 0.855925 0.000000 0.990070
O O3 0.909730 0.744435 0.970949
O O4 0.605777 0.831354 0.135474
O O5 0.876053 0.264809 0.626511
O O6 0.807473 0.180160 0.771727
O O7 0.187853 0.155861 0.445967
O O8 0.894423 0.000000 0.633555
O O9 0.920835 0.500000 0.998535
O O10 0.620807 0.331501 0.254614
O O11 0.000000 0.291554 0.000000
O O12 0.396286 0.343396 0.239548
O O13 0.369824 0.340738 0.363093
O O14 0.670146 0.500000 0.789507
O O15 0.491379 0.739780 0.940962
O O16 0.140451 0.803264 0.169175
O O17 0.380025 0.000000 0.026283
O O18 0.742152 0.242853 0.457880
O O19 0.873424 0.000000 0.354061
O O20 0.302052 0.500000 0.491262
#
# Coordination Sequence:
#
# PCOD8065416 Si02
#       8
#     4   4   4   4   4   4   4   4
#     4  10  21  37  63  92 118 149 193 242 285 336
#     4  11  24  40  60  81 107 149 197 243 297 356
#     4   9  20  40  63  90 127 163 192 226 274 335
#     4  11  22  39  58  84 113 150 191 244 294 353
#     4  12  26  40  56  81 114 151 192 245 302 351
#     4  10  21  41  61  80 109 148 193 241 291 352
#     4  10  20  38  60  87 118 150 190 241 290 337
#     4  10  21  37  61  89 115 150 195 237 280 336
#
# _framework density 19.610954
#
# number of rings (size 3 to 8) (size 9 to 14) (size 15 to 20)
#    0.000    1.625    2.500    1.875    0.000    9.250 
#    0.000    0.625    0.000    3.750    0.000    0.000 
#    0.000    0.000    0.000    0.000    0.000    0.000 
#
# Total GULP energy -396751.466232 kJ/mol
# GULP energy per Si atom -12398.483320 kJ/mol
# Density = 1.956632 g / cm^3
# Si number density = 19.610954 Si / 1000 Ang^3
#
#
#
# Elastic Constant Matrix: (Units=GPa)
#
#
# Indices 1 2 3 4 5 6 
#
# 1 109.9873 50.4019 46.5340 0.0000 -19.9677 0.0000
# 2 50.4019 121.6492 51.1352 0.0000 -9.9558 0.0000
# 3 46.5340 51.1352 93.2339 0.0000 -3.9371 0.0000
# 4 0.0000 0.0000 0.0000 25.6615 0.0000 2.6933
# 5 -19.9677 -9.9558 -3.9371 0.0000 36.5195 0.0000
# 6 0.0000 0.0000 0.0000 2.6933 0.0000 26.7358
#
#
#
# Elastic Compliance Matrix: (Units=1/GPa)
#
#
# Indices 1 2 3 4 5 6 
#
# 1 0.013691 -0.003130 -0.004859 0.000000 0.006109 0.000000
# 2 -0.003130 0.011593 -0.004757 0.000000 0.000936 0.000000
# 3 -0.004859 -0.004757 0.015664 0.000000 -0.002265 0.000000
# 4 0.000000 0.000000 0.000000 0.039385 0.000000 -0.003968
# 5 0.006109 0.000936 -0.002265 0.000000 0.030734 0.000000
# 6 0.000000 0.000000 0.000000 -0.003968 0.000000 0.037803
#
#
# Mechanical properties :
#
#
# Convention : Reuss Voigt Hill
#
# Bulk Modulus (GPa) = 64.69411 69.00141 66.84776
# Shear Modulus (GPa) = 27.85311 29.57000 28.71156
#
# Velocity S-wave (km/s) = 3.77275 3.88729 3.83045
# Velocity P-wave (km/s) = 7.21378 7.44376 7.32967
#
# Compressibility (1/GPa) = 0.01545736
#
# Stress axis : x y z
#
# Youngs Moduli (GPa) = 73.04088 86.25629 63.84128
#
# Poissons Ratio (x) = 0.27000 0.31017
# Poissons Ratio (y) = 0.22864 0.30367
# Poissons Ratio (z) = 0.35487 0.41029
#
# Static dielectric constant tensor:
#      x y z
#    x 3.373380 0.000000 -0.184560 
#    y 0.000000 3.532450 0.000000 
#    z -0.184560 0.000000 3.416940 
# 
# 
# High freq. dielectric constant tensor:
#      x y z
#    x 1.758730 0.000000 0.007600 
#    y 0.000000 1.761300 0.000000 
#    z 0.007600 0.000000 1.766590 
# 
# From -- ./inp_files/93567.got.cif
#   From: 2010.06.25/outbox.cif.g09.slc.cpg/sg10_47_cif.got.tgz:93567.got - 2010.06.27 22:07:45.
