data_PCOD8065062
_publ_section_title
;
Structure prediction by ZEFSAII (Michael W. Deem and Ramdas Pophale) SiO2 
 PCOD8065062
Probable space group: P 2/M
;
_chemical_formula_sum "Si O2"
_cell_formula_units_Z 28
_cell_length_a 9.793893
_cell_length_b 8.980808
_cell_length_c 27.498764
_cell_angle_alpha 90.000000
_cell_angle_beta 37.752194
_cell_angle_gamma 90.000000
_cell_volume 1480.849767
_symmetry_space_group_name_H-M "P 2/M"
_symmetry_group_IT_number 10
_symmetry_cell_setting 'monoclinic'
loop_
_space_group_symop_operation_xyz
x,y,z
-x,y,-z
-x,-y,-z
x,-y,z
loop_
_atom_site_type_symbol
_atom_site_label
_atom_site_fract_x
_atom_site_fract_y
_atom_site_fract_z
Si Si1 0.787610 0.823262 0.822715
Si Si2 0.014629 0.324259 0.849856
Si Si3 0.744348 0.670322 0.570795
Si Si4 0.520312 0.174055 0.272173
Si Si5 0.708958 0.329315 0.469957
Si Si6 0.646639 0.163408 0.006459
Si Si7 0.134834 0.174078 0.307919
O O1 0.945204 0.744065 0.817566
O O2 0.856935 0.767159 0.749765
O O3 0.817216 0.000000 0.820898
O O4 0.525337 0.780250 0.903554
O O5 0.016187 0.500000 0.844183
O O6 0.846640 0.278455 0.940784
O O7 0.255695 0.267052 0.797422
O O8 0.722394 0.500000 0.595691
O O9 0.601768 0.779701 0.643988
O O10 0.651671 0.687116 0.542643
O O11 0.000000 0.721716 0.500000
O O12 0.365845 0.212981 0.269583
O O13 0.577278 0.000000 0.258963
O O14 0.500000 0.258874 0.500000
O O15 0.742848 0.500000 0.445240
O O16 0.935623 0.247417 0.393359
O O17 0.746073 0.000000 0.991742
O O18 0.500000 0.147861 0.000000
O O19 0.091168 0.000000 0.320769
#
# Coordination Sequence:
#
# PCOD8065062 Si02
#       7
#     4   4   4   4   4   4   4
#     4   9  19  37  59  84 113 145 182 228 278 327
#     4  11  22  35  56  85 114 145 185 228 273 328
#     4  10  20  37  58  79 108 146 185 224 271 326
#     4  11  23  38  57  81 112 148 188 230 274 325
#     4  10  22  38  56  80 112 146 181 223 274 330
#     4   8  15  32  57  81 110 145 181 224 274 324
#     4  10  22  39  58  82 111 145 186 229 275 325
#
# _framework density 18.908062000000001
#
# number of rings (size 3 to 8) (size 9 to 14) (size 15 to 20)
#    0.000    2.143    1.429    2.571    2.000    4.857 
#    0.000    0.714    0.000    4.286    0.000    0.000 
#    0.000    0.000    0.000    0.000    0.000    0.000 
#
# Total GULP energy -347203.585906 kJ/mol
# GULP energy per Si atom -12400.128068 kJ/mol
# Density = 1.886503 g / cm^3
# Si number density = 18.908062 Si / 1000 Ang^3
#
#
#
# Elastic Constant Matrix: (Units=GPa)
#
#
# Indices 1 2 3 4 5 6 
#
# 1 72.4137 36.1325 13.2322 0.0000 -11.6172 0.0000
# 2 36.1325 73.0586 35.7199 0.0000 -10.8535 0.0000
# 3 13.2322 35.7199 64.6878 0.0000 -10.8415 0.0000
# 4 0.0000 0.0000 0.0000 105.4197 0.0000 4.4066
# 5 -11.6172 -10.8535 -10.8415 0.0000 29.4521 0.0000
# 6 0.0000 0.0000 0.0000 4.4066 0.0000 22.4472
#
#
#
# Elastic Compliance Matrix: (Units=1/GPa)
#
#
# Indices 1 2 3 4 5 6 
#
# 1 0.019069 -0.009873 0.002347 0.000000 0.004747 0.000000
# 2 -0.009873 0.024168 -0.011175 0.000000 0.000898 0.000000
# 3 0.002347 -0.011175 0.021970 0.000000 0.004895 0.000000
# 4 0.000000 0.000000 0.000000 0.009564 0.000000 -0.001878
# 5 0.004747 0.000898 0.004895 0.000000 0.037959 0.000000
# 6 0.000000 0.000000 0.000000 -0.001878 0.000000 0.044918
#
#
# Mechanical properties :
#
#
# Convention : Reuss Voigt Hill
#
# Bulk Modulus (GPa) = 35.96636 42.25882 39.11259
# Shear Modulus (GPa) = 24.47178 39.80215 32.13696
#
# Velocity S-wave (km/s) = 3.60147 4.59304 4.12715
# Velocity P-wave (km/s) = 6.02969 7.10818 6.59103
#
# Compressibility (1/GPa) = 0.02780376
#
# Stress axis : x y z
#
# Youngs Moduli (GPa) = 52.44228 41.37775 45.51685
#
# Poissons Ratio (x) = 0.40852 -0.10681
# Poissons Ratio (y) = 0.51776 0.50865
# Poissons Ratio (z) = -0.12307 0.46240
#
# Static dielectric constant tensor:
#      x y z
#    x 3.456910 0.000000 0.056570 
#    y 0.000000 3.390430 0.000000 
#    z 0.056570 0.000000 3.834130 
# 
# 
# High freq. dielectric constant tensor:
#      x y z
#    x 1.724870 0.000000 -0.002870 
#    y 0.000000 1.726010 0.000000 
#    z -0.002870 0.000000 1.742340 
# 
# From -- ./inp_files/91940.got.cif
#   From: 2010.06.25/outbox.cif.g09.slc.cpg/sg10_46_cif.got.tgz:91940.got - 2010.06.27 22:07:45.
