data_PCOD8065405
_publ_section_title
;
Structure prediction by ZEFSAII (Michael W. Deem and Ramdas Pophale) SiO2 
 PCOD8065405
Probable space group: P 2/M
;
_chemical_formula_sum "Si O2"
_cell_formula_units_Z 32
_cell_length_a 14.516992
_cell_length_b 8.999906
_cell_length_c 14.971467
_cell_angle_alpha 90.000000
_cell_angle_beta 120.888571
_cell_angle_gamma 90.000000
_cell_volume 1678.614398
_symmetry_space_group_name_H-M "P 2/M"
_symmetry_group_IT_number 10
_symmetry_cell_setting 'monoclinic'
loop_
_space_group_symop_operation_xyz
x,y,z
-x,y,-z
-x,-y,-z
x,-y,z
loop_
_atom_site_type_symbol
_atom_site_label
_atom_site_fract_x
_atom_site_fract_y
_atom_site_fract_z
Si Si1 0.338448 0.330408 0.164969
Si Si2 0.557303 0.174352 0.303969
Si Si3 0.010630 0.826716 0.784400
Si Si4 0.292178 0.175617 0.780729
Si Si5 0.799068 0.670443 0.732767
Si Si6 0.609415 0.675669 0.507650
Si Si7 0.061555 0.173126 0.613464
Si Si8 0.766493 0.325146 0.073931
O O1 0.380350 0.500000 0.187582
O O2 0.434928 0.224573 0.241119
O O3 0.243458 0.309482 0.188336
O O4 0.295112 0.284337 0.047108
O O5 0.611371 0.219748 0.236831
O O6 0.621440 0.250428 0.416800
O O7 0.564316 0.000000 0.322814
O O8 0.905134 0.768906 0.780625
O O9 0.996504 0.795307 0.671831
O O10 0.115502 0.744640 0.873322
O O11 0.025656 0.000000 0.811589
O O12 0.182020 0.235809 0.681615
O O13 0.305687 0.257235 0.882309
O O14 0.286503 0.000000 0.796497
O O15 0.829004 0.500000 0.727831
O O16 0.709785 0.726274 0.617903
O O17 0.500000 0.731588 0.500000
O O18 0.605948 0.500000 0.493896
O O19 0.000000 0.251623 0.500000
O O20 0.071093 0.000000 0.598110
O O21 0.778501 0.500000 0.093317
#
# Coordination Sequence:
#
# PCOD8065405 Si02
#       8
#     4   4   4   4   4   4   4   4
#     4  10  22  41  61  81 110 152 197 238 285 339
#     4  11  23  36  57  88 119 151 189 237 286 343
#     4  10  21  36  57  84 117 149 182 234 290 340
#     4   9  20  37  55  81 117 151 183 229 291 342
#     4  10  21  38  59  82 113 152 194 233 278 339
#     4  10  20  38  60  80 114 159 192 232 285 334
#     4   8  15  30  52  74 102 144 183 216 265 330
#     4  10  21  39  63  84 108 147 195 243 282 335
#
# _framework density 19.063341000000001
#
# number of rings (size 3 to 8) (size 9 to 14) (size 15 to 20)
#    0.000    2.250    1.250    1.875    1.750    4.250 
#    0.000    5.000    0.000    1.875    0.000    0.000 
#    0.000    0.000    0.000    0.000    0.000    0.000 
#
# Total GULP energy -396853.505821 kJ/mol
# GULP energy per Si atom -12401.672057 kJ/mol
# Density = 1.901995 g / cm^3
# Si number density = 19.063341 Si / 1000 Ang^3
#
#
#
# Elastic Constant Matrix: (Units=GPa)
#
#
# Indices 1 2 3 4 5 6 
#
# 1 74.6183 26.6195 16.0281 0.0000 -10.6083 0.0000
# 2 26.6195 53.8595 33.0076 0.0000 -6.8822 0.0000
# 3 16.0281 33.0076 101.8971 0.0000 -19.9008 0.0000
# 4 0.0000 0.0000 0.0000 22.6710 0.0000 -4.7669
# 5 -10.6083 -6.8822 -19.9008 0.0000 21.4314 0.0000
# 6 0.0000 0.0000 0.0000 -4.7669 0.0000 31.0069
#
#
#
# Elastic Compliance Matrix: (Units=1/GPa)
#
#
# Indices 1 2 3 4 5 6 
#
# 1 0.017107 -0.008420 0.001420 0.000000 0.007082 0.000000
# 2 -0.008420 0.027316 -0.008092 0.000000 -0.002910 0.000000
# 3 0.001420 -0.008092 0.014465 0.000000 0.011536 0.000000
# 4 0.000000 0.000000 0.000000 0.045583 0.000000 0.007008
# 5 0.007082 -0.002910 0.011536 0.000000 0.059944 0.000000
# 6 0.000000 0.000000 0.000000 0.007008 0.000000 0.033328
#
#
# Mechanical properties :
#
#
# Convention : Reuss Voigt Hill
#
# Bulk Modulus (GPa) = 34.84018 42.40946 38.62482
# Shear Modulus (GPa) = 21.05301 25.33652 23.19477
#
# Velocity S-wave (km/s) = 3.32681 3.64960 3.49194
# Velocity P-wave (km/s) = 5.75088 6.32885 6.04677
#
# Compressibility (1/GPa) = 0.02870249
#
# Stress axis : x y z
#
# Youngs Moduli (GPa) = 58.45458 36.60864 69.13304
#
# Poissons Ratio (x) = 0.30825 -0.09816
# Poissons Ratio (y) = 0.49220 0.55945
# Poissons Ratio (z) = -0.08300 0.29625
#
# Static dielectric constant tensor:
#      x y z
#    x 3.474980 0.000000 -0.076970 
#    y 0.000000 3.327900 0.000000 
#    z -0.076970 0.000000 3.639780 
# 
# 
# High freq. dielectric constant tensor:
#      x y z
#    x 1.742880 0.000000 -0.005350 
#    y 0.000000 1.727290 0.000000 
#    z -0.005350 0.000000 1.747560 
# 
# From -- ./inp_files/66614.got.cif
#   From: 2010.06.25/outbox.cif.g09.slc.cpg/sg10_34_cif.got.tgz:66614.got - 2010.06.27 22:07:45.
