data_PCOD8065190
_publ_section_title
;
Structure prediction by ZEFSAII (Michael W. Deem and Ramdas Pophale) SiO2 
 PCOD8065190
Probable space group: P 2/M
;
_chemical_formula_sum "Si O2"
_cell_formula_units_Z 32
_cell_length_a 22.739788
_cell_length_b 8.957297
_cell_length_c 15.223772
_cell_angle_alpha 90.000000
_cell_angle_beta 148.602141
_cell_angle_gamma 90.000000
_cell_volume 1615.492037
_symmetry_space_group_name_H-M "P 2/M"
_symmetry_group_IT_number 10
_symmetry_cell_setting 'monoclinic'
loop_
_space_group_symop_operation_xyz
x,y,z
-x,y,-z
-x,-y,-z
x,-y,z
loop_
_atom_site_type_symbol
_atom_site_label
_atom_site_fract_x
_atom_site_fract_y
_atom_site_fract_z
Si Si1 0.373084 0.822561 0.334981
Si Si2 0.224089 0.323609 0.623388
Si Si3 0.709881 0.175994 0.582483
Si Si4 0.663935 0.328126 0.054803
Si Si5 0.754797 0.175164 0.999033
Si Si6 0.407466 0.672369 0.714033
Si Si7 0.003886 0.824382 0.269101
Si Si8 0.060159 0.675745 0.166146
O O1 0.500000 0.757334 0.500000
O O2 0.308976 0.771940 0.341610
O O3 0.377788 0.000000 0.337089
O O4 0.306213 0.757209 0.165671
O O5 0.205579 0.500000 0.595276
O O6 0.318733 0.273614 0.674352
O O7 0.106048 0.243833 0.454519
O O8 0.264038 0.271612 0.770421
O O9 0.604033 0.225326 0.387693
O O10 0.813399 0.264949 0.672932
O O11 0.730151 0.000000 0.601629
O O12 0.689897 0.500000 0.068441
O O13 0.532818 0.303770 0.911219
O O14 0.697187 0.237351 0.011826
O O15 0.887243 0.215198 0.169203
O O16 0.736132 0.000000 0.974352
O O17 0.386953 0.500000 0.662716
O O18 0.993235 0.754008 0.159115
O O19 0.021960 0.000000 0.282433
O O20 0.061185 0.500000 0.183402
O O21 0.000000 0.722639 0.000000
#
# Coordination Sequence:
#
# PCOD8065190 Si02
#       8
#     4   4   4   4   4   4   4   4
#     4   9  18  34  56  82 114 154 195 234 285 345
#     4  10  21  39  62  86 118 157 196 244 301 355
#     4  11  21  34  58  88 117 152 195 240 290 350
#     4  10  22  39  61  88 115 154 202 246 298 358
#     4  10  22  40  59  83 118 157 196 245 298 348
#     4  10  20  37  60  87 121 154 192 243 301 358
#     4  11  23  39  60  86 119 156 198 244 295 354
#     4  11  23  38  57  83 116 154 194 238 292 348
#
# _framework density 19.808205999999998
#
# number of rings (size 3 to 8) (size 9 to 14) (size 15 to 20)
#    0.000    1.750    1.250    3.000    0.000    7.000 
#    0.000    3.750    0.000    5.625    0.000    0.000 
#    0.000    0.000    0.000    0.000    0.000    0.000 
#
# Total GULP energy -396901.878939 kJ/mol
# GULP energy per Si atom -12403.183717 kJ/mol
# Density = 1.976312 g / cm^3
# Si number density = 19.808206 Si / 1000 Ang^3
#
#
#
# Elastic Constant Matrix: (Units=GPa)
#
#
# Indices 1 2 3 4 5 6 
#
# 1 107.6963 30.1943 50.6587 0.0000 -8.2180 0.0000
# 2 30.1943 36.9466 38.9155 0.0000 0.5610 0.0000
# 3 50.6587 38.9155 138.7102 0.0000 -11.3219 0.0000
# 4 0.0000 0.0000 0.0000 29.8921 0.0000 -2.2293
# 5 -8.2180 0.5610 -11.3219 0.0000 36.9811 0.0000
# 6 0.0000 0.0000 0.0000 -2.2293 0.0000 29.1738
#
#
#
# Elastic Compliance Matrix: (Units=1/GPa)
#
#
# Indices 1 2 3 4 5 6 
#
# 1 0.012782 -0.008178 -0.002186 0.000000 0.002295 0.000000
# 2 -0.008178 0.044231 -0.009872 0.000000 -0.005511 0.000000
# 3 -0.002186 -0.009872 0.011026 0.000000 0.003039 0.000000
# 4 0.000000 0.000000 0.000000 0.033645 0.000000 0.002571
# 5 0.002295 -0.005511 0.003039 0.000000 0.028565 0.000000
# 6 0.000000 0.000000 0.000000 0.002571 0.000000 0.034474
#
#
# Mechanical properties :
#
#
# Convention : Reuss Voigt Hill
#
# Bulk Modulus (GPa) = 36.27702 58.09890 47.18796
# Shear Modulus (GPa) = 23.32259 30.11504 26.71881
#
# Velocity S-wave (km/s) = 3.43508 3.90337 3.67669
# Velocity P-wave (km/s) = 5.83840 7.05050 6.47288
#
# Compressibility (1/GPa) = 0.02756566
#
# Stress axis : x y z
#
# Youngs Moduli (GPa) = 78.23699 22.60840 90.69782
#
# Poissons Ratio (x) = 0.18488 0.19831
# Poissons Ratio (y) = 0.63979 0.89541
# Poissons Ratio (z) = 0.17106 0.22320
#
# Static dielectric constant tensor:
#      x y z
#    x 3.624730 0.000000 -0.051680 
#    y 0.000000 3.401880 0.000000 
#    z -0.051680 0.000000 3.848120 
# 
# 
# High freq. dielectric constant tensor:
#      x y z
#    x 1.777060 0.000000 -0.001340 
#    y 0.000000 1.754200 0.000000 
#    z -0.001340 0.000000 1.788750 
# 
# From -- ./inp_files/71644.got.cif
#   From: 2010.06.25/outbox.cif.g09.slc.cpg/sg10_36_cif.got.tgz:71644.got - 2010.06.27 22:07:45.
