data_PCOD8065571
_publ_section_title
;
Structure prediction by ZEFSAII (Michael W. Deem and Ramdas Pophale) SiO2 
 PCOD8065571
Probable space group: P 2/M
;
_chemical_formula_sum "Si O2"
_cell_formula_units_Z 32
_cell_length_a 33.219712
_cell_length_b 8.996716
_cell_length_c 12.562860
_cell_angle_alpha 90.000000
_cell_angle_beta 25.241062
_cell_angle_gamma 90.000000
_cell_volume 1601.082620
_symmetry_space_group_name_H-M "P 2/M"
_symmetry_group_IT_number 10
_symmetry_cell_setting 'monoclinic'
loop_
_space_group_symop_operation_xyz
x,y,z
-x,y,-z
-x,-y,-z
x,-y,z
loop_
_atom_site_type_symbol
_atom_site_label
_atom_site_fract_x
_atom_site_fract_y
_atom_site_fract_z
Si Si1 0.592148 0.830529 0.548036
Si Si2 0.380361 0.828912 0.111893
Si Si3 0.917626 0.323349 0.458666
Si Si4 0.606174 0.827080 0.271908
Si Si5 0.110040 0.660380 0.249956
Si Si6 0.732011 0.325152 0.797315
Si Si7 0.124311 0.676772 0.988965
Si Si8 0.674639 0.674073 0.550053
O O1 0.629624 0.796055 0.339827
O O2 0.640773 0.719774 0.513969
O O3 0.614753 0.000000 0.527068
O O4 0.479726 0.805342 0.816281
O O5 0.300218 0.750245 0.234295
O O6 0.385202 0.758895 0.217802
O O7 0.353622 0.000000 0.187246
O O8 0.922190 0.500000 0.463568
O O9 0.877127 0.253903 0.667582
O O10 0.843318 0.282852 0.544035
O O11 0.024542 0.264326 0.177808
O O12 0.500000 0.777080 0.500000
O O13 0.619509 0.000000 0.210784
O O14 0.676135 0.730548 0.033923
O O15 0.162406 0.500000 0.130877
O O16 0.143545 0.746123 0.062096
O O17 0.000000 0.632353 0.500000
O O18 0.716865 0.500000 0.822752
O O19 0.118065 0.500000 0.018157
O O20 0.214250 0.717560 0.701067
O O21 0.657671 0.500000 0.604949
#
# Coordination Sequence:
#
# PCOD8065571 Si02
#       8
#     4   4   4   4   4   4   4   4
#     4  10  22  40  61  81 108 153 196 224 270 350
#     4  11  23  43  62  75 106 157 200 227 276 352
#     4   8  15  28  48  77 114 151 182 216 272 343
#     4  10  20  39  60  81 114 157 195 221 269 349
#     4   7  10  20  40  65  98 140 175 202 246 317
#     4  11  22  34  57  91 119 143 186 243 290 321
#     4   8  15  29  48  75 114 151 179 218 277 340
#     4  11  23  36  58  90 116 139 184 247 296 323
#
# _framework density 19.986476
#
# number of rings (size 3 to 8) (size 9 to 14) (size 15 to 20)
#    0.000    2.500    1.250    3.000    1.750    3.250 
#    0.000    0.625    0.000    6.750    0.000    1.750 
#    0.000    0.000    0.000    0.000    0.000    0.000 
#
# Total GULP energy -396514.127201 kJ/mol
# GULP energy per Si atom -12391.066475 kJ/mol
# Density = 1.994099 g / cm^3
# Si number density = 19.986476 Si / 1000 Ang^3
#
#
#
# Elastic Constant Matrix: (Units=GPa)
#
#
# Indices 1 2 3 4 5 6 
#
# 1 93.9294 33.5504 17.2866 0.0000 -8.0264 0.0000
# 2 33.5504 67.8312 25.5488 0.0000 -3.4956 0.0000
# 3 17.2866 25.5488 42.3374 0.0000 -1.4818 0.0000
# 4 0.0000 0.0000 0.0000 -1.7240 0.0000 7.2711
# 5 -8.0264 -3.4956 -1.4818 0.0000 30.3339 0.0000
# 6 0.0000 0.0000 0.0000 7.2711 0.0000 28.9658
#
#
#
# Elastic Compliance Matrix: (Units=1/GPa)
#
#
# Indices 1 2 3 4 5 6 
#
# 1 0.013268 -0.005715 -0.001872 0.000000 0.002761 0.000000
# 2 -0.005715 0.021623 -0.010699 0.000000 0.000457 0.000000
# 3 -0.001872 -0.010699 0.030833 0.000000 -0.000222 0.000000
# 4 0.000000 0.000000 0.000000 -0.281754 0.000000 0.070727
# 5 0.002761 0.000457 -0.000222 0.000000 0.033739 0.000000
# 6 0.000000 0.000000 0.000000 0.070727 0.000000 0.016769
#
#
# Mechanical properties :
#
#
# Convention : Reuss Voigt Hill
#
# Bulk Modulus (GPa) = 34.30364 39.65217 36.97791
# Shear Modulus (GPa) = -41.93451 20.02929 -10.95261
#
# Velocity S-wave (km/s) = -4.58552 3.16910 -2.34348
# Velocity P-wave (km/s) = 3.29170 5.76832 3.34949
#
# Compressibility (1/GPa) = 0.02915142
#
# Stress axis : x y z
#
# Youngs Moduli (GPa) = 75.36856 46.24789 32.43330
#
# Poissons Ratio (x) = 0.26432 0.06071
# Poissons Ratio (y) = 0.43076 0.34699
# Poissons Ratio (z) = 0.14108 0.49479
#
# Static dielectric constant tensor:
#      x y z
#    x 3.735710 0.000000 -0.038790 
#    y 0.000000 3.213570 0.000000 
#    z -0.038790 0.000000 3.752690 
# 
# 
# High freq. dielectric constant tensor:
#      x y z
#    x 1.781470 0.000000 -0.004750 
#    y 0.000000 1.735710 0.000000 
#    z -0.004750 0.000000 1.778190 
# 
# From -- ./inp_files/58076.got.cif
#   From: 2010.06.25/outbox.cif.g09.slc.cpg/sg10_30_cif.got.tgz:58076.got - 2010.06.27 22:07:45.
