data_PCOD8065991
_publ_section_title
;
Structure prediction by ZEFSAII (Michael W. Deem and Ramdas Pophale) SiO2 
 PCOD8065991
Probable space group: P 2/M
;
_chemical_formula_sum "Si O2"
_cell_formula_units_Z 28
_cell_length_a 30.978221
_cell_length_b 8.799175
_cell_length_c 31.833595
_cell_angle_alpha 90.000000
_cell_angle_beta 9.344704
_cell_angle_gamma 90.000000
_cell_volume 1408.964113
_symmetry_space_group_name_H-M "P 2/M"
_symmetry_group_IT_number 10
_symmetry_cell_setting 'monoclinic'
loop_
_space_group_symop_operation_xyz
x,y,z
-x,y,-z
-x,-y,-z
x,-y,z
loop_
_atom_site_type_symbol
_atom_site_label
_atom_site_fract_x
_atom_site_fract_y
_atom_site_fract_z
Si Si1 0.286309 0.820191 0.237899
Si Si2 0.425031 0.821121 0.524812
Si Si3 0.289837 0.676098 0.903955
Si Si4 0.862773 0.324093 0.045511
Si Si5 0.992514 0.323649 0.335428
Si Si6 0.147238 0.820787 0.617023
Si Si7 0.574895 0.324320 0.808306
O O1 0.360699 0.774549 0.213241
O O2 0.000000 0.752088 0.500000
O O3 0.282174 0.000000 0.239122
O O4 0.500000 0.751973 0.000000
O O5 0.500000 0.776053 0.500000
O O6 0.642220 0.753245 0.285564
O O7 0.414248 0.000000 0.528668
O O8 0.142234 0.752857 0.785430
O O9 0.308752 0.500000 0.898147
O O10 0.214100 0.699765 0.928655
O O11 0.569390 0.752986 0.643901
O O12 0.068305 0.753527 0.144777
O O13 0.881862 0.500000 0.039244
O O14 0.972583 0.500000 0.341379
O O15 0.928785 0.218606 0.357331
O O16 0.784248 0.282065 0.571454
O O17 0.284037 0.280951 0.071465
O O18 0.156827 0.000000 0.613520
O O19 0.593372 0.500000 0.803241
#
# Coordination Sequence:
#
# PCOD8065991 Si02
#       7
#     4   4   4   4   4   4   4
#     4  10  21  36  54  78 109 145 182 225 284 344
#     4  11  24  41  62  90 125 163 200 245 306 364
#     4  11  24  43  64  88 123 164 201 244 305 365
#     4  11  24  41  64  92 120 158 207 252 297 355
#     4  10  21  38  58  82 115 153 190 233 292 352
#     4  12  25  40  63  95 123 155 204 253 298 354
#     4  10  21  36  57  83 109 145 192 235 280 340
#
# _framework density 19.872755999999999
#
# number of rings (size 3 to 8) (size 9 to 14) (size 15 to 20)
#    0.000    1.286    0.000    5.571    0.000   11.429 
#    0.000    0.000    0.000    0.000    0.000    0.000 
#    0.000    0.000    0.000    0.000    0.000    0.000 
#
# Total GULP energy -347381.357222 kJ/mol
# GULP energy per Si atom -12406.477044 kJ/mol
# Density = 1.982752 g / cm^3
# Si number density = 19.872756 Si / 1000 Ang^3
#
#
#
# Elastic Constant Matrix: (Units=GPa)
#
#
# Indices 1 2 3 4 5 6 
#
# 1 115.7528 69.0080 78.2143 0.0000 -0.5859 0.0000
# 2 69.0080 101.1222 71.8788 0.0000 -0.2132 0.0000
# 3 78.2143 71.8788 215.5798 0.0000 -0.9667 0.0000
# 4 0.0000 0.0000 0.0000 31.8510 0.0000 -0.0774
# 5 -0.5859 -0.2132 -0.9667 0.0000 36.3571 0.0000
# 6 0.0000 0.0000 0.0000 -0.0774 0.0000 45.2726
#
#
#
# Elastic Compliance Matrix: (Units=1/GPa)
#
#
# Indices 1 2 3 4 5 6 
#
# 1 0.015751 -0.008764 -0.002792 0.000000 0.000128 0.000000
# 2 -0.008764 0.017837 -0.002768 0.000000 -0.000110 0.000000
# 3 -0.002792 -0.002768 0.006575 0.000000 0.000114 0.000000
# 4 0.000000 0.000000 0.000000 0.031396 0.000000 0.000054
# 5 0.000128 -0.000110 0.000114 0.000000 0.027509 0.000000
# 6 0.000000 0.000000 0.000000 0.000054 0.000000 0.022089
#
#
# Mechanical properties :
#
#
# Convention : Reuss Voigt Hill
#
# Bulk Modulus (GPa) = 86.84249 96.73966 91.79107
# Shear Modulus (GPa) = 32.54273 36.91973 34.73123
#
# Velocity S-wave (km/s) = 4.05106 4.31490 4.18506
# Velocity P-wave (km/s) = 8.10405 8.57961 8.34522
#
# Compressibility (1/GPa) = 0.01151510
#
# Stress axis : x y z
#
# Youngs Moduli (GPa) = 63.48751 56.06269 152.09024
#
# Poissons Ratio (x) = 0.49134 0.42463
# Poissons Ratio (y) = 0.55641 0.42100
# Poissons Ratio (z) = 0.17725 0.15519
#
# Static dielectric constant tensor:
#      x y z
#    x 3.729920 0.000000 -0.002060 
#    y 0.000000 3.684460 0.000000 
#    z -0.002060 0.000000 3.921370 
# 
# 
# High freq. dielectric constant tensor:
#      x y z
#    x 1.792500 0.000000 -0.000050 
#    y 0.000000 1.778180 0.000000 
#    z -0.000050 0.000000 1.802290 
# 
# From -- ./inp_files/95990.got.cif
#   From: 2010.06.25/outbox.cif.g09.slc.cpg/sg10_48_cif.got.tgz:95990.got - 2010.06.27 22:07:45.
