data_PCOD8065625
_publ_section_title
;
Structure prediction by ZEFSAII (Michael W. Deem and Ramdas Pophale) SiO2 
 PCOD8065625
Probable space group: P 2/M
;
_chemical_formula_sum "Si O2"
_cell_formula_units_Z 28
_cell_length_a 5.396772
_cell_length_b 17.484296
_cell_length_c 15.091652
_cell_angle_alpha 90.000000
_cell_angle_beta 117.907256
_cell_angle_gamma 90.000000
_cell_volume 1258.423980
_symmetry_space_group_name_H-M "P 2/M"
_symmetry_group_IT_number 10
_symmetry_cell_setting 'monoclinic'
loop_
_space_group_symop_operation_xyz
x,y,z
-x,y,-z
-x,-y,-z
x,-y,z
loop_
_atom_site_type_symbol
_atom_site_label
_atom_site_fract_x
_atom_site_fract_y
_atom_site_fract_z
Si Si1 0.253885 0.841858 0.899634
Si Si2 0.050399 0.693110 0.106408
Si Si3 0.798212 0.410855 0.714207
Si Si4 0.570114 0.789729 0.252952
Si Si5 0.211686 0.914525 0.265797
Si Si6 0.834426 0.652421 0.381099
Si Si7 0.192576 0.087405 0.456610
O O1 0.317516 0.840726 0.807128
O O2 0.188558 0.757405 0.924233
O O3 0.987123 0.898932 0.853395
O O4 0.500000 0.878207 0.000000
O O5 0.025287 0.626826 0.175555
O O6 0.348558 0.732268 0.171129
O O7 0.000000 0.657695 0.000000
O O8 0.783170 0.500000 0.730748
O O9 0.478608 0.380460 0.654925
O O10 0.976025 0.396567 0.654828
O O11 0.450269 0.849206 0.305104
O O12 0.811277 0.738877 0.339537
O O13 0.054431 0.906813 0.335297
O O14 0.339040 0.000000 0.277711
O O15 0.000000 0.653616 0.500000
O O16 0.500000 0.126335 0.500000
O O17 0.000000 0.127974 0.500000
O O18 0.237741 0.000000 0.494980
#
# Coordination Sequence:
#
# PCOD8065625 Si02
#       7
#     4   4   4   4   4   4   4
#     4  11  21  39  67  90 118 175 227 275 339 409
#     4  10  20  39  66  92 131 178 224 276 331 397
#     4  11  24  42  69 109 145 175 223 276 331 401
#     4  10  22  41  65  91 125 175 229 275 332 403
#     4  10  24  41  61  95 132 167 220 292 353 405
#     4  11  24  45  70  98 140 186 230 273 326 400
#     4   9  19  38  61  85 120 165 206 253 329 409
#
# _framework density 22.250053999999999
#
# number of rings (size 3 to 8) (size 9 to 14) (size 15 to 20)
#    0.000    1.714    2.857    0.857    2.000    2.857 
#    2.571    0.714    0.000    3.429    0.000    0.000 
#    0.000    0.000    0.000    0.000    0.000    0.000 
#
# Total GULP energy -346973.218491 kJ/mol
# GULP energy per Si atom -12391.900660 kJ/mol
# Density = 2.219941 g / cm^3
# Si number density = 22.250054 Si / 1000 Ang^3
#
#
#
# Elastic Constant Matrix: (Units=GPa)
#
#
# Indices 1 2 3 4 5 6 
#
# 1 103.2454 7.7960 37.8834 0.0000 -4.1778 0.0000
# 2 7.7960 80.6334 43.2890 0.0000 -1.6450 0.0000
# 3 37.8834 43.2890 153.8075 0.0000 -2.9338 0.0000
# 4 0.0000 0.0000 0.0000 15.3664 0.0000 -10.2398
# 5 -4.1778 -1.6450 -2.9338 0.0000 35.2054 0.0000
# 6 0.0000 0.0000 0.0000 -10.2398 0.0000 16.9537
#
#
#
# Elastic Compliance Matrix: (Units=1/GPa)
#
#
# Indices 1 2 3 4 5 6 
#
# 1 0.010701 0.000461 -0.002745 0.000000 0.001063 0.000000
# 2 0.000461 0.014633 -0.004225 0.000000 0.000386 0.000000
# 3 -0.002745 -0.004225 0.008370 0.000000 0.000174 0.000000
# 4 0.000000 0.000000 0.000000 0.108912 0.000000 0.065781
# 5 0.001063 0.000386 0.000174 0.000000 0.028563 0.000000
# 6 0.000000 0.000000 0.000000 0.065781 0.000000 0.098715
#
#
# Mechanical properties :
#
#
# Convention : Reuss Voigt Hill
#
# Bulk Modulus (GPa) = 48.34071 57.29146 52.81609
# Shear Modulus (GPa) = 17.25278 30.08630 23.66954
#
# Velocity S-wave (km/s) = 2.78763 3.68120 3.26513
# Velocity P-wave (km/s) = 5.66872 6.62368 6.16472
#
# Compressibility (1/GPa) = 0.02068650
#
# Stress axis : x y z
#
# Youngs Moduli (GPa) = 93.44800 68.33786 119.47252
#
# Poissons Ratio (x) = -0.03149 0.32797
# Poissons Ratio (y) = -0.04306 0.50473
# Poissons Ratio (z) = 0.25653 0.28870
#
# Static dielectric constant tensor:
#      x y z
#    x 4.246520 0.000000 0.003240 
#    y 0.000000 3.791300 0.000000 
#    z 0.003240 0.000000 4.068730 
# 
# 
# High freq. dielectric constant tensor:
#      x y z
#    x 1.879630 0.000000 0.000550 
#    y 0.000000 1.848200 0.000000 
#    z 0.000550 0.000000 1.890110 
# 
# From -- ./inp_files/59456.got.cif
#   From: 2010.06.25/outbox.cif.g09.slc.cpg/sg10_30_cif.got.tgz:59456.got - 2010.06.27 22:07:45.
