data_PCOD8065450
_publ_section_title
;
Structure prediction by ZEFSAII (Michael W. Deem and Ramdas Pophale) SiO2 
 PCOD8065450
Probable space group: P 2/M
;
_chemical_formula_sum "Si O2"
_cell_formula_units_Z 28
_cell_length_a 22.036746
_cell_length_b 8.811884
_cell_length_c 24.591025
_cell_angle_alpha 90.000000
_cell_angle_beta 17.996536
_cell_angle_gamma 90.000000
_cell_volume 1475.347805
_symmetry_space_group_name_H-M "P 2/M"
_symmetry_group_IT_number 10
_symmetry_cell_setting 'monoclinic'
loop_
_space_group_symop_operation_xyz
x,y,z
-x,y,-z
-x,-y,-z
x,-y,z
loop_
_atom_site_type_symbol
_atom_site_label
_atom_site_fract_x
_atom_site_fract_y
_atom_site_fract_z
Si Si1 0.552159 0.178246 0.516251
Si Si2 0.613245 0.680042 0.755710
Si Si3 0.696503 0.680206 0.803498
Si Si4 0.820718 0.319000 0.893095
Si Si5 0.846927 0.178246 0.084663
Si Si6 0.970194 0.679676 0.176601
Si Si7 0.006380 0.680041 0.624666
O O1 0.500000 0.231957 0.500000
O O2 0.373363 0.221906 0.708878
O O3 0.747770 0.262517 0.367920
O O4 0.593929 0.000000 0.481296
O O5 0.596279 0.500000 0.775447
O O6 0.692209 0.745649 0.745905
O O7 0.767555 0.727555 0.577481
O O8 0.400995 0.746210 0.920478
O O9 0.711009 0.500000 0.788991
O O10 0.877866 0.745652 0.684021
O O11 0.500000 0.734972 0.000000
O O12 0.820046 0.500000 0.893316
O O13 0.925113 0.258266 0.858297
O O14 0.936576 0.253789 0.741952
O O15 0.868251 0.000000 0.056523
O O16 0.000000 0.231960 0.000000
O O17 0.900698 0.262517 0.983613
O O18 0.966167 0.500000 0.177945
O O19 0.981098 0.500000 0.647176
#
# Coordination Sequence:
#
# PCOD8065450 Si02
#       7
#     4   4   4   4   4   4   4
#     4  10  20  38  62  82 102 134 176 218 261 313
#     4   9  15  23  36  52  76 116 165 210 249 290
#     4   9  13  19  33  52  73 103 158 223 256 276
#     4   9  18  30  39  56  91 134 166 194 244 310
#     4  10  20  38  62  82 102 134 176 218 261 313
#     4  11  23  35  52  81 116 144 172 214 264 321
#     4   9  15  23  36  52  76 116 165 210 249 290
#
# _framework density 18.978576
#
# number of rings (size 3 to 8) (size 9 to 14) (size 15 to 20)
#    0.000    2.429    2.857    0.857    0.000    4.000 
#    0.000    2.857    0.000    0.000    0.000    0.000 
#    0.000    0.000    0.000   10.286    0.000   50.286 
#
# Total GULP energy -347100.573157 kJ/mol
# GULP energy per Si atom -12396.449041 kJ/mol
# Density = 1.893538 g / cm^3
# Si number density = 18.978576 Si / 1000 Ang^3
#
#
#
# Elastic Constant Matrix: (Units=GPa)
#
#
# Indices 1 2 3 4 5 6 
#
# 1 176.8330 26.4618 106.2971 0.0000 -5.6850 0.0000
# 2 26.4618 20.7250 25.8411 0.0000 -0.1274 0.0000
# 3 106.2971 25.8411 179.3261 0.0000 6.1936 0.0000
# 4 0.0000 0.0000 0.0000 17.5766 0.0000 4.3334
# 5 -5.6850 -0.1274 6.1936 0.0000 23.7028 0.0000
# 6 0.0000 0.0000 0.0000 4.3334 0.0000 -3.7277
#
#
#
# Elastic Compliance Matrix: (Units=1/GPa)
#
#
# Indices 1 2 3 4 5 6 
#
# 1 0.009681 -0.006130 -0.004979 0.000000 0.003590 0.000000
# 2 -0.006130 0.062855 -0.005434 0.000000 0.000287 0.000000
# 3 -0.004979 -0.005434 0.009438 0.000000 -0.003690 0.000000
# 4 0.000000 0.000000 0.000000 0.044220 0.000000 0.051405
# 5 0.003590 0.000287 -0.003690 0.000000 0.044016 0.000000
# 6 0.000000 0.000000 0.000000 0.051405 0.000000 -0.208506
#
#
# Mechanical properties :
#
#
# Convention : Reuss Voigt Hill
#
# Bulk Modulus (GPa) = 20.45495 77.12047 48.78771
# Shear Modulus (GPa) = 451.05036 22.06261 236.55648
#
# Velocity S-wave (km/s) = 15.43304 3.41325 11.17652
# Velocity P-wave (km/s) = 18.12107 7.50049 13.86778
#
# Compressibility (1/GPa) = 0.04888793
#
# Stress axis : x y z
#
# Youngs Moduli (GPa) = 103.29776 15.90971 105.95274
#
# Poissons Ratio (x) = 0.09753 0.52753
# Poissons Ratio (y) = 0.63325 0.57570
# Poissons Ratio (z) = 0.51431 0.08645
#
# Static dielectric constant tensor:
#      x y z
#    x 3.676850 0.000000 0.002670 
#    y 0.000000 2.794290 0.000000 
#    z 0.002670 0.000000 3.689860 
# 
# 
# High freq. dielectric constant tensor:
#      x y z
#    x 1.742750 0.000000 0.003060 
#    y 0.000000 1.665420 0.000000 
#    z 0.003060 0.000000 1.757760 
# 
# From -- ./inp_files/90344.got.cif
#   From: 2010.06.25/outbox.cif.g09.slc.cpg/sg10_46_cif.got.tgz:90344.got - 2010.06.27 22:07:45.
