data_PCOD8065556
_publ_section_title
;
Structure prediction by ZEFSAII (Michael W. Deem and Ramdas Pophale) SiO2 
 PCOD8065556
Probable space group: P 2/M
;
_chemical_formula_sum "Si O2"
_cell_formula_units_Z 32
_cell_length_a 14.708152
_cell_length_b 9.021019
_cell_length_c 14.918225
_cell_angle_alpha 90.000000
_cell_angle_beta 59.663572
_cell_angle_gamma 90.000000
_cell_volume 1708.359225
_symmetry_space_group_name_H-M "P 2/M"
_symmetry_group_IT_number 10
_symmetry_cell_setting 'monoclinic'
loop_
_space_group_symop_operation_xyz
x,y,z
-x,y,-z
-x,-y,-z
x,-y,z
loop_
_atom_site_type_symbol
_atom_site_label
_atom_site_fract_x
_atom_site_fract_y
_atom_site_fract_z
Si Si1 0.220794 0.676500 0.728389
Si Si2 0.004871 0.324580 0.222400
Si Si3 0.677540 0.174511 0.156403
Si Si4 0.613199 0.825784 0.482525
Si Si5 0.562755 0.172457 0.706492
Si Si6 0.234361 0.326308 0.057686
Si Si7 0.708828 0.327509 0.769251
Si Si8 0.938259 0.676841 0.614439
O O1 0.228766 0.500000 0.725364
O O2 0.101126 0.732529 0.771767
O O3 0.248750 0.740286 0.810934
O O4 0.295544 0.736748 0.612798
O O5 0.004800 0.500000 0.228659
O O6 0.111254 0.276813 0.117301
O O7 0.008539 0.260542 0.321638
O O8 0.558662 0.219257 0.239102
O O9 0.696364 0.000000 0.156216
O O10 0.703876 0.227297 0.043760
O O11 0.500000 0.778348 0.500000
O O12 0.618238 0.782996 0.585167
O O13 0.631115 0.000000 0.457393
O O14 0.612786 0.248990 0.767938
O O15 0.572994 0.000000 0.718386
O O16 0.245257 0.500000 0.029102
O O17 0.287563 0.291013 0.126999
O O18 0.692943 0.500000 0.762122
O O19 0.817057 0.272295 0.669703
O O20 0.943801 0.500000 0.610974
O O21 0.000000 0.746895 0.500000
#
# Coordination Sequence:
#
# PCOD8065556 Si02
#       8
#     4   4   4   4   4   4   4   4
#     4  11  22  35  57  88 113 140 183 233 274 321
#     4   8  17  33  52  79 114 145 174 217 279 332
#     4  11  23  40  58  78 107 149 191 226 274 333
#     4  10  20  39  58  74 110 156 186 219 273 331
#     4  10  22  38  56  77 109 151 186 220 272 332
#     4   9  19  39  60  81 111 145 180 227 282 326
#     4   9  19  34  56  84 111 139 178 230 276 317
#     4   8  14  27  49  77 109 142 174 213 265 324
#
# _framework density 18.731424000000001
#
# number of rings (size 3 to 8) (size 9 to 14) (size 15 to 20)
#    0.000    2.500    1.250    2.250    1.750    3.250 
#    0.000    6.250    0.000    1.875    0.000    0.000 
#    0.000    0.000    0.000    0.000    0.000    0.000 
#
# Total GULP energy -396742.555544 kJ/mol
# GULP energy per Si atom -12398.204861 kJ/mol
# Density = 1.868879 g / cm^3
# Si number density = 18.731424 Si / 1000 Ang^3
#
#
#
# Elastic Constant Matrix: (Units=GPa)
#
#
# Indices 1 2 3 4 5 6 
#
# 1 98.5257 43.8802 18.0010 0.0000 23.9874 0.0000
# 2 43.8802 42.3997 33.0617 0.0000 0.5222 0.0000
# 3 18.0010 33.0617 90.8234 0.0000 14.4998 0.0000
# 4 0.0000 0.0000 0.0000 26.8945 0.0000 8.5338
# 5 23.9874 0.5222 14.4998 0.0000 14.7072 0.0000
# 6 0.0000 0.0000 0.0000 8.5338 0.0000 -12.0821
#
#
#
# Elastic Compliance Matrix: (Units=1/GPa)
#
#
# Indices 1 2 3 4 5 6 
#
# 1 -0.074997 0.119385 -0.056309 0.000000 0.173595 0.000000
# 2 0.119385 -0.155005 0.074734 0.000000 -0.262892 0.000000
# 3 -0.056309 0.074734 -0.022872 0.000000 0.111736 0.000000
# 4 0.000000 0.000000 0.000000 0.030375 0.000000 0.021454
# 5 0.173595 -0.262892 0.111736 0.000000 -0.315965 0.000000
# 6 0.000000 0.000000 0.000000 0.021454 0.000000 -0.067614
#
#
# Mechanical properties :
#
#
# Convention : Reuss Voigt Hill
#
# Bulk Modulus (GPa) = 43.96481 46.84827 45.40654
# Shear Modulus (GPa) = -5.72006 15.02432 4.65213
#
# Velocity S-wave (km/s) = -1.74939 2.83520 1.57765
# Velocity P-wave (km/s) = 4.40927 5.98186 5.25472
#
# Compressibility (1/GPa) = 0.02274547
#
# Stress axis : x y z
#
# Youngs Moduli (GPa) = -13.33386 -6.45140 -43.72065
#
# Poissons Ratio (x) = 0.77020 -2.46185
# Poissons Ratio (y) = 1.59186 3.26741
# Poissons Ratio (z) = -0.75081 0.48214
#
# Static dielectric constant tensor:
#      x y z
#    x 3.647120 0.000000 -0.031140 
#    y 0.000000 3.099780 0.000000 
#    z -0.031140 0.000000 3.573170 
# 
# 
# High freq. dielectric constant tensor:
#      x y z
#    x 1.734550 0.000000 0.002510 
#    y 0.000000 1.697390 0.000000 
#    z 0.002510 0.000000 1.735810 
# 
# From -- ./inp_files/66556.got.cif
#   From: 2010.06.25/outbox.cif.g09.slc.cpg/sg10_34_cif.got.tgz:66556.got - 2010.06.27 22:07:45.
