data_PCOD8065303
_publ_section_title
;
Structure prediction by ZEFSAII (Michael W. Deem and Ramdas Pophale) SiO2 
 PCOD8065303
Probable space group: P 2/M
;
_chemical_formula_sum "Si O2"
_cell_formula_units_Z 28
_cell_length_a 22.421721
_cell_length_b 8.028222
_cell_length_c 25.306813
_cell_angle_alpha 90.000000
_cell_angle_beta 162.235669
_cell_angle_gamma 90.000000
_cell_volume 1389.861574
_symmetry_space_group_name_H-M "P 2/M"
_symmetry_group_IT_number 10
_symmetry_cell_setting 'monoclinic'
loop_
_space_group_symop_operation_xyz
x,y,z
-x,y,-z
-x,-y,-z
x,-y,z
loop_
_atom_site_type_symbol
_atom_site_label
_atom_site_fract_x
_atom_site_fract_y
_atom_site_fract_z
Si Si1 0.985280 0.693401 0.114438
Si Si2 0.394690 0.693360 0.264565
Si Si3 0.023890 0.813270 0.678037
Si Si4 0.474919 0.182362 0.041018
Si Si5 0.000800 0.500000 0.412295
Si Si6 0.799183 0.184437 0.799715
Si Si7 0.165539 0.300372 0.375603
Si Si8 0.707222 0.500000 0.248764
O O1 0.949163 0.500000 0.090230
O O2 0.163836 0.721799 0.224227
O O3 0.054208 0.765702 0.229018
O O4 0.779458 0.774429 0.919053
O O5 0.395581 0.500000 0.253752
O O6 0.356918 0.721805 0.295105
O O7 0.609625 0.764989 0.432858
O O8 0.943150 0.666829 0.572360
O O9 0.944855 0.785844 0.669735
O O10 0.255078 0.797307 0.874577
O O11 0.963772 0.000000 0.607401
O O12 0.554750 0.000000 0.126838
O O13 0.500000 0.195657 0.000000
O O14 0.589755 0.333496 0.164415
O O15 0.114157 0.500000 0.561745
O O16 0.775420 0.500000 0.243993
O O17 0.720039 0.000000 0.720805
O O18 0.000000 0.177868 0.000000
O O19 0.156903 0.500000 0.372094
#
# Coordination Sequence:
#
# PCOD8065303 Si02
#       8
#     4   4   4   4   2   4   4   2
#     4   9  18  34  55  79 104 141 189 239 291 348
#     4   9  18  34  54  77 107 145 186 235 296 351
#     4  11  23  41  62  85 120 161 198 245 300 355
#     4  10  20  37  62  91 120 156 202 246 292 350
#     4  11  23  40  61  94 127 155 196 244 301 360
#     4   9  17  30  51  77 106 139 179 235 294 348
#     4  10  21  37  56  79 112 150 196 243 289 355
#     4  11  22  37  66  95 122 159 193 247 305 349
#
# _framework density 20.145890999999999
#
# number of rings (size 3 to 8) (size 9 to 14) (size 15 to 20)
#    0.000    2.143    2.143    1.071    0.000    4.000 
#    2.571    4.286    0.000    0.000    0.000    0.000 
#    0.000    0.000    0.000    0.000    0.000    0.000 
#
# Total GULP energy -346965.528738 kJ/mol
# GULP energy per Si atom -12391.626026 kJ/mol
# Density = 2.010004 g / cm^3
# Si number density = 20.145891 Si / 1000 Ang^3
#
#
#
# Elastic Constant Matrix: (Units=GPa)
#
#
# Indices 1 2 3 4 5 6 
#
# 1 139.7110 37.9573 63.7726 0.0000 16.6113 0.0000
# 2 37.9573 100.6103 36.1613 0.0000 -4.5972 0.0000
# 3 63.7726 36.1613 93.3222 0.0000 10.8790 0.0000
# 4 0.0000 0.0000 0.0000 13.1243 0.0000 19.3594
# 5 16.6113 -4.5972 10.8790 0.0000 31.6244 0.0000
# 6 0.0000 0.0000 0.0000 19.3594 0.0000 51.9478
#
#
#
# Elastic Compliance Matrix: (Units=1/GPa)
#
#
# Indices 1 2 3 4 5 6 
#
# 1 0.011069 -0.002096 -0.006291 0.000000 -0.003955 0.000000
# 2 -0.002096 0.012296 -0.003823 0.000000 0.004203 0.000000
# 3 -0.006291 -0.003823 0.016851 0.000000 -0.003048 0.000000
# 4 0.000000 0.000000 0.000000 0.169216 0.000000 -0.063062
# 5 -0.003955 0.004203 -0.003048 0.000000 0.035358 0.000000
# 6 0.000000 0.000000 0.000000 -0.063062 0.000000 0.042751
#
#
# Mechanical properties :
#
#
# Convention : Reuss Voigt Hill
#
# Bulk Modulus (GPa) = 63.30021 67.71400 65.50711
# Shear Modulus (GPa) = 15.76172 32.38945 24.07559
#
# Velocity S-wave (km/s) = 2.80014 4.01402 3.46072
# Velocity P-wave (km/s) = 6.47638 7.42751 6.96819
#
# Compressibility (1/GPa) = 0.01579773
#
# Stress axis : x y z
#
# Youngs Moduli (GPa) = 90.34497 81.32826 59.34351
#
# Poissons Ratio (x) = 0.17042 0.37332
# Poissons Ratio (y) = 0.18932 0.22684
# Poissons Ratio (z) = 0.56835 0.31088
#
# Static dielectric constant tensor:
#      x y z
#    x 3.620120 0.000000 0.052850 
#    y 0.000000 3.845960 0.000000 
#    z 0.052850 0.000000 3.677170 
# 
# 
# High freq. dielectric constant tensor:
#      x y z
#    x 1.781440 0.000000 0.013600 
#    y 0.000000 1.785770 0.000000 
#    z 0.013600 0.000000 1.769690 
# 
# From -- ./inp_files/90419.got.cif
#   From: 2010.06.25/outbox.cif.g09.slc.cpg/sg10_46_cif.got.tgz:90419.got - 2010.06.27 22:07:45.
