data_PCOD8065811
_publ_section_title
;
Structure prediction by ZEFSAII (Michael W. Deem and Ramdas Pophale) SiO2 
 PCOD8065811
Probable space group: P 2/M
;
_chemical_formula_sum "Si O2"
_cell_formula_units_Z 32
_cell_length_a 9.409150
_cell_length_b 14.195417
_cell_length_c 25.406366
_cell_angle_alpha 90.000000
_cell_angle_beta 148.629986
_cell_angle_gamma 90.000000
_cell_volume 1766.502552
_symmetry_space_group_name_H-M "P 2/M"
_symmetry_group_IT_number 10
_symmetry_cell_setting 'monoclinic'
loop_
_space_group_symop_operation_xyz
x,y,z
-x,y,-z
-x,-y,-z
x,-y,z
loop_
_atom_site_type_symbol
_atom_site_label
_atom_site_fract_x
_atom_site_fract_y
_atom_site_fract_z
Si Si1 0.885698 0.392059 0.078050
Si Si2 0.737139 0.608061 0.147303
Si Si3 0.262245 0.771699 0.779044
Si Si4 0.805771 0.107988 0.577883
Si Si5 0.321057 0.107742 0.895949
Si Si6 0.284189 0.895471 0.562816
Si Si7 0.225815 0.891958 0.217194
Si Si8 0.192546 0.759232 0.110602
O O1 0.977347 0.500000 0.104347
O O2 0.876874 0.359463 0.136500
O O3 0.107432 0.335717 0.114157
O O4 0.588288 0.379405 0.958813
O O5 0.813243 0.500000 0.183720
O O6 0.842130 0.673378 0.228369
O O7 0.393842 0.833865 0.867167
O O8 0.491865 0.752680 0.807556
O O9 0.003579 0.826755 0.674381
O O10 0.500000 0.108727 0.500000
O O11 0.780506 0.155925 0.512409
O O12 0.921914 0.000000 0.614196
O O13 0.007071 0.118139 0.812638
O O14 0.404268 0.000000 0.911316
O O15 0.500000 0.149881 0.000000
O O16 0.506052 0.844969 0.670678
O O17 0.000000 0.904458 0.500000
O O18 0.403482 0.000000 0.587453
O O19 0.153476 0.843491 0.139435
O O20 0.280088 0.000000 0.219221
O O21 0.000000 0.778430 0.000000
#
# Coordination Sequence:
#
# PCOD8065811 Si02
#       8
#     4   4   4   4   4   4   4   4
#     4   9  19  37  57  77 107 147 187 224 261 314
#     4   9  19  36  59  81 105 144 188 225 264 320
#     4  12  22  32  55  82 114 142 177 228 283 334
#     4  10  21  37  56  80 107 139 185 238 282 313
#     4  10  21  35  50  69 100 147 189 217 251 313
#     4   9  17  32  52  70  93 130 177 224 263 304
#     4  10  21  36  52  71 102 146 189 220 257 315
#     4  12  23  33  49  83 120 149 174 217 277 333
#
# _framework density 18.114889000000002
#
# number of rings (size 3 to 8) (size 9 to 14) (size 15 to 20)
#    0.000    1.875    1.250    4.125    1.750    5.000 
#    0.000    0.000    0.000    0.375    0.000    0.875 
#    0.000    5.000    0.000    0.000    0.000    0.000 
#
# Total GULP energy -396692.963445 kJ/mol
# GULP energy per Si atom -12396.655108 kJ/mol
# Density = 1.807366 g / cm^3
# Si number density = 18.114889 Si / 1000 Ang^3
#
#
#
# Elastic Constant Matrix: (Units=GPa)
#
#
# Indices 1 2 3 4 5 6 
#
# 1 102.3289 43.5369 29.5297 0.0000 -6.3980 0.0000
# 2 43.5369 83.2499 38.5136 0.0000 -10.5193 0.0000
# 3 29.5297 38.5136 87.8313 0.0000 -3.2171 0.0000
# 4 0.0000 0.0000 0.0000 22.6482 0.0000 -1.3272
# 5 -6.3980 -10.5193 -3.2171 0.0000 28.1768 0.0000
# 6 0.0000 0.0000 0.0000 -1.3272 0.0000 18.6679
#
#
#
# Elastic Compliance Matrix: (Units=1/GPa)
#
#
# Indices 1 2 3 4 5 6 
#
# 1 0.012779 -0.005817 -0.001726 0.000000 0.000533 0.000000
# 2 -0.005817 0.018420 -0.005943 0.000000 0.004877 0.000000
# 3 -0.001726 -0.005943 0.014537 0.000000 -0.000951 0.000000
# 4 0.000000 0.000000 0.000000 0.044338 0.000000 0.003152
# 5 0.000533 0.004877 -0.000951 0.000000 0.037323 0.000000
# 6 0.000000 0.000000 0.000000 0.003152 0.000000 0.053792
#
#
# Mechanical properties :
#
#
# Convention : Reuss Voigt Hill
#
# Bulk Modulus (GPa) = 53.29397 55.17448 54.23423
# Shear Modulus (GPa) = 23.31931 24.68725 24.00328
#
# Velocity S-wave (km/s) = 3.59179 3.69564 3.64408
# Velocity P-wave (km/s) = 6.83265 6.98101 6.90723
#
# Compressibility (1/GPa) = 0.01876385
#
# Stress axis : x y z
#
# Youngs Moduli (GPa) = 78.25509 54.29016 68.79126
#
# Poissons Ratio (x) = 0.31580 0.11874
# Poissons Ratio (y) = 0.45521 0.40879
# Poissons Ratio (z) = 0.13508 0.32262
#
# Static dielectric constant tensor:
#      x y z
#    x 3.435540 0.000000 -0.094390 
#    y 0.000000 3.293830 0.000000 
#    z -0.094390 0.000000 3.267730 
# 
# 
# High freq. dielectric constant tensor:
#      x y z
#    x 1.716140 0.000000 -0.005520 
#    y 0.000000 1.678510 0.000000 
#    z -0.005520 0.000000 1.685690 
# 
# From -- ./inp_files/29160.got.cif
#   From: 2010.06.25/outbox.cif.g09.slc.cpg/sg10_15_cif.got.tgz:29160.got - 2010.06.27 22:07:45.
