data_PCOD8065068
_publ_section_title
;
Structure prediction by ZEFSAII (Michael W. Deem and Ramdas Pophale) SiO2 
 PCOD8065068
Probable space group: P 2/M
;
_chemical_formula_sum "Si O2"
_cell_formula_units_Z 28
_cell_length_a 17.476406
_cell_length_b 9.178125
_cell_length_c 20.469168
_cell_angle_alpha 90.000000
_cell_angle_beta 152.395611
_cell_angle_gamma 90.000000
_cell_volume 1521.347754
_symmetry_space_group_name_H-M "P 2/M"
_symmetry_group_IT_number 10
_symmetry_cell_setting 'monoclinic'
loop_
_space_group_symop_operation_xyz
x,y,z
-x,y,-z
-x,-y,-z
x,-y,z
loop_
_atom_site_type_symbol
_atom_site_label
_atom_site_fract_x
_atom_site_fract_y
_atom_site_fract_z
Si Si1 0.000946 0.326729 0.924699
Si Si2 0.316639 0.155811 0.507145
Si Si3 0.778920 0.172729 0.015164
Si Si4 0.672199 0.670695 0.607842
Si Si5 0.951113 0.160124 0.277075
Si Si6 0.076296 0.331092 0.487452
Si Si7 0.410542 0.167225 0.715455
O O1 0.021320 0.500000 0.932588
O O2 0.825878 0.267804 0.764920
O O3 0.144585 0.251635 0.990773
O O4 0.000000 0.280195 0.000000
O O5 0.310951 0.291394 0.454945
O O6 0.441672 0.187026 0.661043
O O7 0.142114 0.139630 0.408871
O O8 0.359775 0.000000 0.505047
O O9 0.864599 0.228202 0.147130
O O10 0.805694 0.000000 0.025980
O O11 0.586457 0.213879 0.878903
O O12 0.500000 0.742733 0.500000
O O13 0.665986 0.500000 0.612280
O O14 0.945121 0.263383 0.336154
O O15 0.873215 0.000000 0.233612
O O16 0.093296 0.500000 0.483229
O O17 0.260942 0.265553 0.627988
O O18 0.000000 0.302305 0.500000
O O19 0.368268 0.000000 0.700819
#
# Coordination Sequence:
#
# PCOD8065068 Si02
#       7
#     4   4   4   4   4   4   4
#     4  10  22  37  51  73 108 146 184 227 278 329
#     4   9  17  32  51  74 100 130 173 222 266 312
#     4  10  20  37  58  81 110 142 184 230 272 323
#     4  10  21  34  48  69  99 136 179 223 268 319
#     4   9  18  34  57  81 107 140 177 220 267 319
#     4  10  21  37  58  85 114 143 178 218 261 318
#     4   9  20  36  56  82 110 141 178 221 268 320
#
# _framework density 18.404734999999999
#
# number of rings (size 3 to 8) (size 9 to 14) (size 15 to 20)
#    0.000    2.429    1.429    1.286    2.000    5.143 
#    0.000    0.714    0.000    4.286    0.000    0.000 
#    0.000    0.000    0.000    0.000    0.000    0.000 
#
# Total GULP energy -346980.220186 kJ/mol
# GULP energy per Si atom -12392.150721 kJ/mol
# Density = 1.836284 g / cm^3
# Si number density = 18.404735 Si / 1000 Ang^3
#
#
#
# Elastic Constant Matrix: (Units=GPa)
#
#
# Indices 1 2 3 4 5 6 
#
# 1 98.6101 48.9825 47.8115 0.0000 -11.0284 0.0000
# 2 48.9825 57.0145 35.4839 0.0000 -3.4560 0.0000
# 3 47.8115 35.4839 102.4250 0.0000 -7.2371 0.0000
# 4 0.0000 0.0000 0.0000 20.6430 0.0000 -8.3040
# 5 -11.0284 -3.4560 -7.2371 0.0000 26.5072 0.0000
# 6 0.0000 0.0000 0.0000 -8.3040 0.0000 17.6741
#
#
#
# Elastic Compliance Matrix: (Units=1/GPa)
#
#
# Indices 1 2 3 4 5 6 
#
# 1 0.019637 -0.014123 -0.003902 0.000000 0.005263 0.000000
# 2 -0.014123 0.032535 -0.004889 0.000000 -0.002969 0.000000
# 3 -0.003902 -0.004889 0.013376 0.000000 0.001391 0.000000
# 4 0.000000 0.000000 0.000000 0.059732 0.000000 0.028064
# 5 0.005263 -0.002969 0.001391 0.000000 0.039908 0.000000
# 6 0.000000 0.000000 0.000000 0.028064 0.000000 0.069766
#
#
# Mechanical properties :
#
#
# Convention : Reuss Voigt Hill
#
# Bulk Modulus (GPa) = 50.70533 58.06726 54.38630
# Shear Modulus (GPa) = 17.40008 21.34963 19.37486
#
# Velocity S-wave (km/s) = 3.07809 3.40958 3.24807
# Velocity P-wave (km/s) = 6.34372 6.86433 6.60915
#
# Compressibility (1/GPa) = 0.01972179
#
# Stress axis : x y z
#
# Youngs Moduli (GPa) = 50.92534 30.73576 74.75815
#
# Poissons Ratio (x) = 0.43408 0.29168
# Poissons Ratio (y) = 0.71922 0.36547
# Poissons Ratio (z) = 0.19869 0.15026
#
# Static dielectric constant tensor:
#      x y z
#    x 3.222740 0.000000 -0.129340 
#    y 0.000000 3.391150 0.000000 
#    z -0.129340 0.000000 3.675120 
# 
# 
# High freq. dielectric constant tensor:
#      x y z
#    x 1.694820 0.000000 -0.010260 
#    y 0.000000 1.704640 0.000000 
#    z -0.010260 0.000000 1.723370 
# 
# From -- ./inp_files/79240.got.cif
#   From: 2010.06.25/outbox.cif.g09.slc.cpg/sg10_40_cif.got.tgz:79240.got - 2010.06.27 22:07:45.
