data_PCOD8065099
_publ_section_title
;
Structure prediction by ZEFSAII (Michael W. Deem and Ramdas Pophale) SiO2 
 PCOD8065099
Probable space group: P 2/M
;
_chemical_formula_sum "Si O2"
_cell_formula_units_Z 28
_cell_length_a 9.177509
_cell_length_b 9.351749
_cell_length_c 26.936222
_cell_angle_alpha 90.000000
_cell_angle_beta 141.334810
_cell_angle_gamma 90.000000
_cell_volume 1444.353150
_symmetry_space_group_name_H-M "P 2/M"
_symmetry_group_IT_number 10
_symmetry_cell_setting 'monoclinic'
loop_
_space_group_symop_operation_xyz
x,y,z
-x,y,-z
-x,-y,-z
x,-y,z
loop_
_atom_site_type_symbol
_atom_site_label
_atom_site_fract_x
_atom_site_fract_y
_atom_site_fract_z
Si Si1 0.287432 0.837222 0.345789
Si Si2 0.727147 0.833430 0.030257
Si Si3 0.517979 0.666982 0.230129
Si Si4 0.185581 0.832300 0.208641
Si Si5 0.174644 0.164274 0.503037
Si Si6 0.058839 0.668343 0.373864
Si Si7 0.271951 0.342378 0.065777
O O1 0.156739 0.800189 0.259498
O O2 0.561607 0.817893 0.408126
O O3 0.199142 0.731900 0.364821
O O4 0.233901 0.000000 0.348173
O O5 0.955214 0.773297 0.119270
O O6 0.759237 0.000000 0.030318
O O7 0.500000 0.793940 0.000000
O O8 0.676502 0.764867 0.964224
O O9 0.474107 0.500000 0.227746
O O10 0.413078 0.751789 0.248761
O O11 0.388933 0.721145 0.146271
O O12 0.787826 0.704075 0.295691
O O13 0.222404 0.000000 0.209464
O O14 0.148109 0.262687 0.448126
O O15 0.000000 0.216626 0.500000
O O16 0.118943 0.000000 0.474012
O O17 0.107553 0.500000 0.388726
O O18 0.376710 0.500000 0.082088
O O19 0.000000 0.355300 0.000000
#
# Coordination Sequence:
#
# PCOD8065099 Si02
#       7
#     4   4   4   4   4   4   4
#     4  10  22  39  60  86 117 151 189 232 277 334
#     4  10  22  37  55  84 118 147 185 238 290 337
#     4  10  22  39  57  82 115 149 191 238 281 334
#     4  10  21  38  59  84 113 149 192 235 283 337
#     4  10  21  40  65  89 114 148 191 232 275 334
#     4  11  24  39  58  87 120 151 186 232 285 336
#     4  10  20  37  59  81 109 150 195 235 279 335
#
# _framework density 19.385842
#
# number of rings (size 3 to 8) (size 9 to 14) (size 15 to 20)
#    0.000    1.857    1.429    1.714    2.000    6.571 
#    0.000    0.000    0.000    0.000    0.000    0.000 
#    0.000    0.000    0.000    0.000    0.000    0.000 
#
# Total GULP energy -347277.812604 kJ/mol
# GULP energy per Si atom -12402.779022 kJ/mol
# Density = 1.934172 g / cm^3
# Si number density = 19.385842 Si / 1000 Ang^3
#
#
#
# Elastic Constant Matrix: (Units=GPa)
#
#
# Indices 1 2 3 4 5 6 
#
# 1 123.5260 49.7606 26.9961 0.0000 -4.9284 0.0000
# 2 49.7606 74.7795 26.4214 0.0000 -12.9834 0.0000
# 3 26.9961 26.4214 77.5811 0.0000 -9.3142 0.0000
# 4 0.0000 0.0000 0.0000 19.4195 0.0000 7.4734
# 5 -4.9284 -12.9834 -9.3142 0.0000 38.0706 0.0000
# 6 0.0000 0.0000 0.0000 7.4734 0.0000 21.8857
#
#
#
# Elastic Compliance Matrix: (Units=1/GPa)
#
#
# Indices 1 2 3 4 5 6 
#
# 1 0.011289 -0.007169 -0.001654 0.000000 -0.001388 0.000000
# 2 -0.007169 0.020381 -0.003836 0.000000 0.005084 0.000000
# 3 -0.001654 -0.003836 0.015030 0.000000 0.002155 0.000000
# 4 0.000000 0.000000 0.000000 0.059286 0.000000 -0.020245
# 5 -0.001388 0.005084 0.002155 0.000000 0.028348 0.000000
# 6 0.000000 0.000000 0.000000 -0.020245 0.000000 0.052605
#
#
# Mechanical properties :
#
#
# Convention : Reuss Voigt Hill
#
# Bulk Modulus (GPa) = 46.76489 53.58252 50.17371
# Shear Modulus (GPa) = 22.79096 27.38907 25.09002
#
# Velocity S-wave (km/s) = 3.43249 3.76285 3.60146
# Velocity P-wave (km/s) = 6.31545 6.82486 6.57509
#
# Compressibility (1/GPa) = 0.02138356
#
# Stress axis : x y z
#
# Youngs Moduli (GPa) = 88.57867 49.06463 66.53238
#
# Poissons Ratio (x) = 0.35175 0.11001
# Poissons Ratio (y) = 0.63503 0.25523
# Poissons Ratio (z) = 0.14647 0.18822
#
# Static dielectric constant tensor:
#      x y z
#    x 3.400440 0.000000 0.089130 
#    y 0.000000 3.559550 0.000000 
#    z 0.089130 0.000000 3.717750 
# 
# 
# High freq. dielectric constant tensor:
#      x y z
#    x 1.757410 0.000000 -0.000880 
#    y 0.000000 1.747910 0.000000 
#    z -0.000880 0.000000 1.769230 
# 
# From -- ./inp_files/36907.got.cif
#   From: 2010.06.25/outbox.cif.g09.slc.cpg/sg10_19_cif.got.tgz:36907.got - 2010.06.27 22:07:45.
