data_PCOD8065674
_publ_section_title
;
Structure prediction by ZEFSAII (Michael W. Deem and Ramdas Pophale) SiO2 
 PCOD8065674
Probable space group: P 2/M
;
_chemical_formula_sum "Si O2"
_cell_formula_units_Z 28
_cell_length_a 9.560147
_cell_length_b 9.096826
_cell_length_c 21.599453
_cell_angle_alpha 90.000000
_cell_angle_beta 47.407463
_cell_angle_gamma 90.000000
_cell_volume 1382.879443
_symmetry_space_group_name_H-M "P 2/M"
_symmetry_group_IT_number 10
_symmetry_cell_setting 'monoclinic'
loop_
_space_group_symop_operation_xyz
x,y,z
-x,y,-z
-x,-y,-z
x,-y,z
loop_
_atom_site_type_symbol
_atom_site_label
_atom_site_fract_x
_atom_site_fract_y
_atom_site_fract_z
Si Si1 0.124275 0.831774 0.055958
Si Si2 0.308533 0.171700 0.800138
Si Si3 0.241886 0.832880 0.159349
Si Si4 0.865200 0.674093 0.483963
Si Si5 0.894433 0.170093 0.350802
Si Si6 0.533665 0.828506 0.380345
Si Si7 0.414735 0.672991 0.885493
O O1 0.224093 0.811980 0.091747
O O2 0.908432 0.779841 0.126309
O O3 0.137095 0.000000 0.029762
O O4 0.224925 0.732839 0.974628
O O5 0.372866 0.214975 0.712526
O O6 0.435694 0.261758 0.810389
O O7 0.337170 0.000000 0.803775
O O8 0.400270 0.719126 0.132367
O O9 0.043337 0.795509 0.251837
O O10 0.304485 0.000000 0.156111
O O11 0.857697 0.500000 0.482833
O O12 0.949447 0.735064 0.394372
O O13 0.654165 0.734401 0.555324
O O14 0.000000 0.726670 0.500000
O O15 0.683985 0.210473 0.389319
O O16 0.901979 0.000000 0.367652
O O17 0.480264 0.000000 0.398870
O O18 0.402794 0.500000 0.885573
#
# Coordination Sequence:
#
# PCOD8065674 Si02
#       7
#     4   4   4   4   4   4   4
#     4  10  20  40  66  89 116 155 207 258 306 356
#     4  10  21  40  65  91 118 155 204 256 306 355
#     4  10  21  40  65  91 118 155 204 256 306 355
#     4  11  26  43  60  90 132 167 196 233 290 364
#     4  10  21  41  68  95 119 150 202 258 302 351
#     4  10  21  41  68  95 119 150 202 258 302 351
#     4  12  26  38  54  87 130 167 202 246 300 360
#
# _framework density 20.247608
#
# number of rings (size 3 to 8) (size 9 to 14) (size 15 to 20)
#    0.000    1.571    1.429    3.000    2.000    9.143 
#    0.000    0.000    0.000    0.000    0.000    0.000 
#    0.000    0.000    0.000    0.000    0.000    0.000 
#
# Total GULP energy -347334.914344 kJ/mol
# GULP energy per Si atom -12404.818369 kJ/mol
# Density = 2.020152 g / cm^3
# Si number density = 20.247608 Si / 1000 Ang^3
#
#
#
# Elastic Constant Matrix: (Units=GPa)
#
#
# Indices 1 2 3 4 5 6 
#
# 1 51.2910 11.2843 6.3921 0.0000 20.1948 0.0000
# 2 11.2843 58.2156 24.1885 0.0000 13.6162 0.0000
# 3 6.3921 24.1885 66.4639 0.0000 11.4392 0.0000
# 4 0.0000 0.0000 0.0000 -2.9024 0.0000 6.7772
# 5 20.1948 13.6162 11.4392 0.0000 35.4758 0.0000
# 6 0.0000 0.0000 0.0000 6.7772 0.0000 13.7033
#
#
#
# Elastic Compliance Matrix: (Units=1/GPa)
#
#
# Indices 1 2 3 4 5 6 
#
# 1 0.025302 -0.001933 0.000658 0.000000 -0.013874 0.000000
# 2 -0.001933 0.021540 -0.006797 0.000000 -0.004975 0.000000
# 3 0.000658 -0.006797 0.018075 0.000000 -0.003594 0.000000
# 4 0.000000 0.000000 0.000000 -0.159893 0.000000 0.079078
# 5 -0.013874 -0.004975 -0.003594 0.000000 0.039155 0.000000
# 6 0.000000 0.000000 0.000000 0.079078 0.000000 0.033866
#
#
# Mechanical properties :
#
#
# Convention : Reuss Voigt Hill
#
# Bulk Modulus (GPa) = 20.50308 28.85560 24.67934
# Shear Modulus (GPa) = 478.62599 18.19570 248.41085
#
# Velocity S-wave (km/s) = 15.39154 3.00102 11.08841
# Velocity P-wave (km/s) = 18.05587 5.12742 13.27224
#
# Compressibility (1/GPa) = 0.04877316
#
# Stress axis : x y z
#
# Youngs Moduli (GPa) = 39.52189 46.42519 55.32597
#
# Poissons Ratio (x) = 0.08974 -0.03640
# Poissons Ratio (y) = 0.07639 0.37605
# Poissons Ratio (z) = -0.02600 0.31555
#
# Static dielectric constant tensor:
#      x y z
#    x 3.825070 0.000000 0.094750 
#    y 0.000000 3.477210 0.000000 
#    z 0.094750 0.000000 3.801310 
# 
# 
# High freq. dielectric constant tensor:
#      x y z
#    x 1.804030 0.000000 0.005660 
#    y 0.000000 1.771030 0.000000 
#    z 0.005660 0.000000 1.804240 
# 
# From -- ./inp_files/34211.got.cif
#   From: 2010.06.25/outbox.cif.g09.slc.cpg/sg10_18_cif.got.tgz:34211.got - 2010.06.27 22:07:45.
