data_PCOD8065188
_publ_section_title
;
Structure prediction by ZEFSAII (Michael W. Deem and Ramdas Pophale) SiO2 
 PCOD8065188
Probable space group: P 2/M
;
_chemical_formula_sum "Si O2"
_cell_formula_units_Z 32
_cell_length_a 21.821087
_cell_length_b 13.927588
_cell_length_c 15.181656
_cell_angle_alpha 90.000000
_cell_angle_beta 159.944210
_cell_angle_gamma 90.000000
_cell_volume 1582.279575
_symmetry_space_group_name_H-M "P 2/M"
_symmetry_group_IT_number 10
_symmetry_cell_setting 'monoclinic'
loop_
_space_group_symop_operation_xyz
x,y,z
-x,y,-z
-x,-y,-z
x,-y,z
loop_
_atom_site_type_symbol
_atom_site_label
_atom_site_fract_x
_atom_site_fract_y
_atom_site_fract_z
Si Si1 0.330354 0.108898 0.638797
Si Si2 0.257655 0.108147 0.819396
Si Si3 0.742540 0.109952 0.975906
Si Si4 0.857289 0.390224 0.086907
Si Si5 0.959384 0.603351 0.840597
Si Si6 0.915109 0.215007 0.565069
Si Si7 0.514711 0.725284 0.619113
Si Si8 0.192177 0.224490 0.301412
O O1 0.249844 0.187222 0.595936
O O2 0.282030 0.133947 0.471427
O O3 0.263887 0.000000 0.567822
O O4 0.539782 0.115335 0.938449
O O5 0.248167 0.133311 0.908572
O O6 0.134907 0.184289 0.602115
O O7 0.184744 0.000000 0.702962
O O8 0.923711 0.150484 0.178235
O O9 0.715212 0.000000 0.915933
O O10 0.577175 0.164505 0.708760
O O11 0.872445 0.500000 0.142095
O O12 0.872447 0.388388 0.999709
O O13 0.024244 0.327102 0.350603
O O14 0.668825 0.345533 0.866804
O O15 0.865013 0.500000 0.696132
O O16 0.833527 0.695375 0.655213
O O17 0.000000 0.611651 0.000000
O O18 0.500000 0.690785 0.500000
O O19 0.322811 0.723238 0.407539
O O20 0.000000 0.194078 0.000000
#
# Coordination Sequence:
#
# PCOD8065188 Si02
#       8
#     4   4   4   4   4   4   4   4
#     4  11  22  37  57  87 120 155 196 240 286 344
#     4  10  20  37  60  87 119 156 200 245 287 340
#     4  10  21  37  57  86 120 155 199 244 288 345
#     4  10  22  40  61  88 119 150 194 250 299 353
#     4   9  17  33  58  82 107 144 189 237 291 344
#     4  11  21  36  61  88 114 153 195 242 300 350
#     4  11  23  37  59  86 118 159 199 241 296 352
#     4  11  22  37  57  83 120 156 197 241 291 350
#
# _framework density 20.223986
#
# number of rings (size 3 to 8) (size 9 to 14) (size 15 to 20)
#    0.000    1.625    2.500    3.375    1.750    3.250 
#    0.000    0.000    0.000    8.250    0.000    0.000 
#    0.000    0.000    0.000    0.000    0.000    0.000 
#
# Total GULP energy -396461.301245 kJ/mol
# GULP energy per Si atom -12389.415664 kJ/mol
# Density = 2.017796 g / cm^3
# Si number density = 20.223986 Si / 1000 Ang^3
#
#
#
# Elastic Constant Matrix: (Units=GPa)
#
#
# Indices 1 2 3 4 5 6 
#
# 1 28.5658 -1.1265 4.6722 0.0000 13.8874 0.0000
# 2 -1.1265 118.3936 32.3294 0.0000 -1.0018 0.0000
# 3 4.6722 32.3294 75.3809 0.0000 12.5450 0.0000
# 4 0.0000 0.0000 0.0000 20.1268 0.0000 -1.5591
# 5 13.8874 -1.0018 12.5450 0.0000 33.2797 0.0000
# 6 0.0000 0.0000 0.0000 -1.5591 0.0000 22.4790
#
#
#
# Elastic Compliance Matrix: (Units=1/GPa)
#
#
# Indices 1 2 3 4 5 6 
#
# 1 0.043929 0.000191 0.000262 0.000000 -0.018424 0.000000
# 2 0.000191 0.009689 -0.004484 0.000000 0.001902 0.000000
# 3 0.000262 -0.004484 0.016232 0.000000 -0.006363 0.000000
# 4 0.000000 0.000000 0.000000 0.049953 0.000000 0.003465
# 5 -0.018424 0.001902 -0.006363 0.000000 0.040192 0.000000
# 6 0.000000 0.000000 0.000000 0.003465 0.000000 0.044726
#
#
# Mechanical properties :
#
#
# Convention : Reuss Voigt Hill
#
# Bulk Modulus (GPa) = 16.18488 32.67670 24.43079
# Shear Modulus (GPa) = 21.42438 27.60811 24.51625
#
# Velocity S-wave (km/s) = 3.25830 3.69876 3.48550
# Velocity P-wave (km/s) = 4.70910 5.86801 5.32020
#
# Compressibility (1/GPa) = 0.06178606
#
# Stress axis : x y z
#
# Youngs Moduli (GPa) = 22.76421 103.21352 61.60825
#
# Poissons Ratio (x) = -0.01968 -0.01612
# Poissons Ratio (y) = -0.00434 0.27623
# Poissons Ratio (z) = -0.00596 0.46277
#
# Static dielectric constant tensor:
#      x y z
#    x 3.652560 0.000000 0.180880 
#    y 0.000000 3.917290 0.000000 
#    z 0.180880 0.000000 3.595780 
# 
# 
# High freq. dielectric constant tensor:
#      x y z
#    x 1.789050 0.000000 0.019880 
#    y 0.000000 1.785710 0.000000 
#    z 0.019880 0.000000 1.774020 
# 
# From -- ./inp_files/70792.got.cif
#   From: 2010.06.25/outbox.cif.g09.slc.cpg/sg10_36_cif.got.tgz:70792.got - 2010.06.27 22:07:45.
