data_PCOD8065890
_publ_section_title
;
Structure prediction by ZEFSAII (Michael W. Deem and Ramdas Pophale) SiO2 
 PCOD8065890
Probable space group: P 2/M
;
_chemical_formula_sum "Si O2"
_cell_formula_units_Z 24
_cell_length_a 14.226063
_cell_length_b 14.604775
_cell_length_c 19.684685
_cell_angle_alpha 90.000000
_cell_angle_beta 161.684918
_cell_angle_gamma 90.000000
_cell_volume 1285.206163
_symmetry_space_group_name_H-M "P 2/M"
_symmetry_group_IT_number 10
_symmetry_cell_setting 'monoclinic'
loop_
_space_group_symop_operation_xyz
x,y,z
-x,y,-z
-x,-y,-z
x,-y,z
loop_
_atom_site_type_symbol
_atom_site_label
_atom_site_fract_x
_atom_site_fract_y
_atom_site_fract_z
Si Si1 0.439709 0.897309 0.848781
Si Si2 0.193223 0.897043 0.529597
Si Si3 0.624806 0.603337 0.867740
Si Si4 0.860063 0.735138 0.127731
Si Si5 0.362336 0.279150 0.571692
Si Si6 0.764364 0.674945 0.726575
O O1 0.343416 0.885195 0.705473
O O2 0.160789 0.876889 0.706845
O O3 0.558961 0.000000 0.943874
O O4 0.705288 0.827355 0.047590
O O5 0.348174 0.826179 0.585186
O O6 0.245744 0.000000 0.538238
O O7 0.512519 0.500000 0.801904
O O8 0.618726 0.659079 0.935628
O O9 0.968779 0.602342 0.075603
O O10 0.402945 0.652269 0.662453
O O11 0.053545 0.693468 0.322456
O O12 0.086297 0.755118 0.218843
O O13 0.645645 0.285250 0.715769
O O14 0.500000 0.628375 0.500000
#
# Coordination Sequence:
#
# PCOD8065890 Si02
#       6
#     4   4   4   4   4   4
#     4   9  17  34  57  81 109 138 175 219 261 310
#     4   9  18  32  57  85 106 138 178 215 260 314
#     4  10  21  35  54  79 106 140 178 221 266 309
#     4   9  20  35  51  77 111 140 173 220 263 308
#     4  11  19  34  54  78 111 139 176 217 260 318
#     4   8  18  34  51  77 109 138 173 215 261 312
#
# _framework density 18.674047000000002
#
# number of rings (size 3 to 8) (size 9 to 14) (size 15 to 20)
#    1.000    1.667    1.667    1.500    0.000    3.667 
#    0.000    2.500    0.000    8.000    0.000    2.333 
#    0.000    0.000    0.000    0.000    0.000    0.000 
#
# Total GULP energy -297319.800846 kJ/mol
# GULP energy per Si atom -12388.325035 kJ/mol
# Density = 1.863154 g / cm^3
# Si number density = 18.674047 Si / 1000 Ang^3
#
#
#
# Elastic Constant Matrix: (Units=GPa)
#
#
# Indices 1 2 3 4 5 6 
#
# 1 41.0453 31.4230 12.2487 0.0000 -16.2666 0.0000
# 2 31.4230 115.1187 42.5229 0.0000 -11.3289 0.0000
# 3 12.2487 42.5229 86.0181 0.0000 -19.1113 0.0000
# 4 0.0000 0.0000 0.0000 19.9719 0.0000 4.2315
# 5 -16.2666 -11.3289 -19.1113 0.0000 21.9119 0.0000
# 6 0.0000 0.0000 0.0000 4.2315 0.0000 9.3726
#
#
#
# Elastic Compliance Matrix: (Units=1/GPa)
#
#
# Indices 1 2 3 4 5 6 
#
# 1 0.043823 -0.011166 0.006481 0.000000 0.032412 0.000000
# 2 -0.011166 0.013495 -0.006664 0.000000 -0.007125 0.000000
# 3 0.006481 -0.006664 0.017738 0.000000 0.016836 0.000000
# 4 0.000000 0.000000 0.000000 0.055367 0.000000 -0.024997
# 5 0.032412 -0.007125 0.016836 0.000000 0.080700 0.000000
# 6 0.000000 0.000000 0.000000 -0.024997 0.000000 0.117980
#
#
# Mechanical properties :
#
#
# Convention : Reuss Voigt Hill
#
# Bulk Modulus (GPa) = 19.09970 46.06348 32.58159
# Shear Modulus (GPa) = 13.54085 20.65044 17.09564
#
# Velocity S-wave (km/s) = 2.69572 3.32902 3.02897
# Velocity P-wave (km/s) = 4.46535 6.28468 5.45144
#
# Compressibility (1/GPa) = 0.05235683
#
# Stress axis : x y z
#
# Youngs Moduli (GPa) = 22.81911 74.10056 56.37709
#
# Poissons Ratio (x) = 0.82743 -0.36538
# Poissons Ratio (y) = 0.25481 0.37571
# Poissons Ratio (z) = -0.14789 0.49382
#
# Static dielectric constant tensor:
#      x y z
#    x 3.290470 0.000000 -0.132520 
#    y 0.000000 3.196010 0.000000 
#    z -0.132520 0.000000 3.486290 
# 
# 
# High freq. dielectric constant tensor:
#      x y z
#    x 1.708160 0.000000 -0.022280 
#    y 0.000000 1.695560 0.000000 
#    z -0.022280 0.000000 1.729680 
# 
# From -- ./inp_files/85226.got.cif
#   From: 2010.06.25/outbox.cif.g09.slc.cpg/sg10_43_cif.got.tgz:85226.got - 2010.06.27 22:07:45.
