data_PCOD8065905
_publ_section_title
;
Structure prediction by ZEFSAII (Michael W. Deem and Ramdas Pophale) SiO2 
 PCOD8065905
Probable space group: P 2/M
;
_chemical_formula_sum "Si O2"
_cell_formula_units_Z 28
_cell_length_a 14.029144
_cell_length_b 9.157670
_cell_length_c 19.058881
_cell_angle_alpha 90.000000
_cell_angle_beta 144.602729
_cell_angle_gamma 90.000000
_cell_volume 1418.318820
_symmetry_space_group_name_H-M "P 2/M"
_symmetry_group_IT_number 10
_symmetry_cell_setting 'monoclinic'
loop_
_space_group_symop_operation_xyz
x,y,z
-x,y,-z
-x,-y,-z
x,-y,z
loop_
_atom_site_type_symbol
_atom_site_label
_atom_site_fract_x
_atom_site_fract_y
_atom_site_fract_z
Si Si1 0.641338 0.673209 0.530160
Si Si2 0.154906 0.328125 0.054158
Si Si3 0.919544 0.168958 0.380184
Si Si4 0.597536 0.328243 0.205489
Si Si5 0.495701 0.326522 0.698569
Si Si6 0.033444 0.830492 0.298013
Si Si7 0.233855 0.329925 0.945276
O O1 0.500000 0.721823 0.500000
O O2 0.667024 0.500000 0.548693
O O3 0.590760 0.732163 0.423095
O O4 0.816129 0.748700 0.650965
O O5 0.155455 0.500000 0.067740
O O6 0.319744 0.261733 0.187486
O O7 0.147123 0.295405 0.967179
O O8 0.000000 0.254082 0.000000
O O9 0.748930 0.249056 0.259250
O O10 0.041021 0.193549 0.386925
O O11 0.000000 0.233416 0.500000
O O12 0.878141 0.000000 0.366201
O O13 0.623930 0.500000 0.215557
O O14 0.598593 0.277227 0.287668
O O15 0.426374 0.285308 0.064785
O O16 0.505054 0.500000 0.702140
O O17 0.859091 0.766497 0.167861
O O18 0.042742 0.000000 0.284043
O O19 0.217139 0.500000 0.915576
#
# Coordination Sequence:
#
# PCOD8065905 Si02
#       7
#     4   4   4   4   4   4   4
#     4  10  21  35  56  83 109 141 182 225 271 326
#     4   8  14  25  49  79 105 136 173 218 264 310
#     4  10  22  39  58  80 107 145 190 228 269 328
#     4   9  18  34  57  84 111 141 178 227 280 323
#     4   8  15  29  48  78 111 134 169 219 270 321
#     4  11  24  39  55  78 111 147 183 226 276 327
#     4   9  19  35  55  82 113 143 181 225 273 327
#
# _framework density 19.741682999999998
#
# number of rings (size 3 to 8) (size 9 to 14) (size 15 to 20)
#    0.000    2.714    0.000    3.000    2.000    2.857 
#    0.000    2.857    0.000    1.286    0.000    0.000 
#    0.000    0.000    0.000    0.000    0.000    0.000 
#
# Total GULP energy -347104.731173 kJ/mol
# GULP energy per Si atom -12396.597542 kJ/mol
# Density = 1.969675 g / cm^3
# Si number density = 19.741683 Si / 1000 Ang^3
#
#
#
# Elastic Constant Matrix: (Units=GPa)
#
#
# Indices 1 2 3 4 5 6 
#
# 1 84.0539 34.3385 40.8570 0.0000 17.7907 0.0000
# 2 34.3385 48.9475 41.4606 0.0000 5.4815 0.0000
# 3 40.8570 41.4606 103.0098 0.0000 5.3591 0.0000
# 4 0.0000 0.0000 0.0000 18.1400 0.0000 -1.7078
# 5 17.7907 5.4815 5.3591 0.0000 33.8649 0.0000
# 6 0.0000 0.0000 0.0000 -1.7078 0.0000 18.6037
#
#
#
# Elastic Compliance Matrix: (Units=1/GPa)
#
#
# Indices 1 2 3 4 5 6 
#
# 1 0.019165 -0.009810 -0.003239 0.000000 -0.007968 0.000000
# 2 -0.009810 0.036339 -0.010786 0.000000 0.000978 0.000000
# 3 -0.003239 -0.010786 0.015280 0.000000 0.001029 0.000000
# 4 0.000000 0.000000 0.000000 0.055607 0.000000 0.005105
# 5 -0.007968 0.000978 0.001029 0.000000 0.033394 0.000000
# 6 0.000000 0.000000 0.000000 0.005105 0.000000 0.054221
#
#
# Mechanical properties :
#
#
# Convention : Reuss Voigt Hill
#
# Bulk Modulus (GPa) = 43.26140 52.14705 47.70422
# Shear Modulus (GPa) = 18.56108 22.07871 20.31990
#
# Velocity S-wave (km/s) = 3.06959 3.34785 3.21173
# Velocity P-wave (km/s) = 5.87575 6.43554 6.16201
#
# Compressibility (1/GPa) = 0.02311529
#
# Stress axis : x y z
#
# Youngs Moduli (GPa) = 52.17716 27.51899 65.44406
#
# Poissons Ratio (x) = 0.26995 0.21196
# Poissons Ratio (y) = 0.51183 0.70589
# Poissons Ratio (z) = 0.16899 0.29682
#
# Static dielectric constant tensor:
#      x y z
#    x 3.689280 0.000000 0.046900 
#    y 0.000000 3.093600 0.000000 
#    z 0.046900 0.000000 3.786900 
# 
# 
# High freq. dielectric constant tensor:
#      x y z
#    x 1.773650 0.000000 0.004110 
#    y 0.000000 1.723290 0.000000 
#    z 0.004110 0.000000 1.777070 
# 
# From -- ./inp_files/84967.got.cif
#   From: 2010.06.25/outbox.cif.g09.slc.cpg/sg10_43_cif.got.tgz:84967.got - 2010.06.27 22:07:45.
