data_PCOD8065367
_publ_section_title
;
Structure prediction by ZEFSAII (Michael W. Deem and Ramdas Pophale) SiO2 
 PCOD8065367
Probable space group: P 2/M
;
_chemical_formula_sum "Si O2"
_cell_formula_units_Z 24
_cell_length_a 10.261290
_cell_length_b 18.129411
_cell_length_c 10.123748
_cell_angle_alpha 90.000000
_cell_angle_beta 137.314839
_cell_angle_gamma 90.000000
_cell_volume 1276.841585
_symmetry_space_group_name_H-M "P 2/M"
_symmetry_group_IT_number 10
_symmetry_cell_setting 'monoclinic'
loop_
_space_group_symop_operation_xyz
x,y,z
-x,y,-z
-x,-y,-z
x,-y,z
loop_
_atom_site_type_symbol
_atom_site_label
_atom_site_fract_x
_atom_site_fract_y
_atom_site_fract_z
Si Si1 0.404661 0.161505 0.064424
Si Si2 0.629632 0.664706 0.974911
Si Si3 0.003157 0.585571 0.655617
Si Si4 0.026855 0.914592 0.872153
Si Si5 0.426277 0.414891 0.589131
Si Si6 0.385869 0.084805 0.546499
O O1 0.371861 0.248120 0.038176
O O2 0.546527 0.138741 0.287910
O O3 0.500000 0.133808 0.000000
O O4 0.197768 0.124929 0.923941
O O5 0.547865 0.633099 0.779619
O O6 0.500000 0.636646 0.000000
O O7 0.845324 0.636052 0.155148
O O8 0.060259 0.500000 0.715125
O O9 0.798648 0.603522 0.568346
O O10 0.000000 0.607829 0.500000
O O11 0.838528 0.901671 0.644374
O O12 0.080926 0.000000 0.925181
O O13 0.000000 0.882027 0.000000
O O14 0.500000 0.393654 0.500000
O O15 0.464009 0.500000 0.651015
O O16 0.500000 0.105816 0.500000
O O17 0.428549 0.000000 0.617521
#
# Coordination Sequence:
#
# PCOD8065367 Si02
#       6
#     4   4   4   4   4   4
#     4  11  25  40  56  89 127 160 194 247 303 353
#     4  11  23  40  60  86 122 166 199 238 300 364
#     4  10  20  37  66  92 112 154 209 251 289 348
#     4  10  20  39  66  91 115 152 203 249 291 351
#     4  10  22  40  61  90 123 152 196 257 302 342
#     4  10  20  38  65  88 113 154 199 243 293 354
#
# _framework density 18.796382000000001
#
# number of rings (size 3 to 8) (size 9 to 14) (size 15 to 20)
#    0.000    1.667    3.333    1.000    0.000    5.333 
#    3.000    4.167    0.000    0.000    0.000    0.000 
#    0.000    0.000    0.000    0.000    0.000    0.000 
#
# Total GULP energy -297725.527628 kJ/mol
# GULP energy per Si atom -12405.230318 kJ/mol
# Density = 1.875360 g / cm^3
# Si number density = 18.796382 Si / 1000 Ang^3
#
#
#
# Elastic Constant Matrix: (Units=GPa)
#
#
# Indices 1 2 3 4 5 6 
#
# 1 166.9795 56.2942 68.6790 0.0000 2.5081 0.0000
# 2 56.2942 68.2859 59.1290 0.0000 -0.8974 0.0000
# 3 68.6790 59.1290 123.0242 0.0000 6.0283 0.0000
# 4 0.0000 0.0000 0.0000 -15.4075 0.0000 -41.5005
# 5 2.5081 -0.8974 6.0283 0.0000 24.6503 0.0000
# 6 0.0000 0.0000 0.0000 -41.5005 0.0000 0.6994
#
#
#
# Elastic Compliance Matrix: (Units=1/GPa)
#
#
# Indices 1 2 3 4 5 6 
#
# 1 0.008699 -0.005127 -0.002367 0.000000 -0.000493 0.000000
# 2 -0.005127 0.028484 -0.011036 0.000000 0.004258 0.000000
# 3 -0.002367 -0.011036 0.014941 0.000000 -0.003815 0.000000
# 4 0.000000 0.000000 0.000000 -0.000404 0.000000 -0.023946
# 5 -0.000493 0.004258 -0.003815 0.000000 0.041706 0.000000
# 6 0.000000 0.000000 0.000000 -0.023946 0.000000 0.008890
#
#
# Mechanical properties :
#
#
# Convention : Reuss Voigt Hill
#
# Bulk Modulus (GPa) = 66.39567 80.72155 73.55861
# Shear Modulus (GPa) = 34.62637 13.60092 24.11364
#
# Velocity S-wave (km/s) = 4.29672 2.69289 3.58563
# Velocity P-wave (km/s) = 7.74701 7.25998 7.50744
#
# Compressibility (1/GPa) = 0.01506122
#
# Stress axis : x y z
#
# Youngs Moduli (GPa) = 114.96198 35.10792 66.92820
#
# Poissons Ratio (x) = 0.18001 0.15845
# Poissons Ratio (y) = 0.58946 0.73864
# Poissons Ratio (z) = 0.27217 0.38746
#
# Static dielectric constant tensor:
#      x y z
#    x 3.563900 0.000000 0.003170 
#    y 0.000000 3.336570 0.000000 
#    z 0.003170 0.000000 3.483780 
# 
# 
# High freq. dielectric constant tensor:
#      x y z
#    x 1.740240 0.000000 0.005920 
#    y 0.000000 1.721180 0.000000 
#    z 0.005920 0.000000 1.739760 
# 
# From -- ./inp_files/20262.got.cif
#   From: 2010.06.25/outbox.cif.g09.slc.cpg/sg10_11_cif.got.tgz:20262.got - 2010.06.27 22:07:45.
