data_PCOD8065997
_publ_section_title
;
Structure prediction by ZEFSAII (Michael W. Deem and Ramdas Pophale) SiO2 
 PCOD8065997
Probable space group: P 2/M
;
_chemical_formula_sum "Si O2"
_cell_formula_units_Z 28
_cell_length_a 9.642787
_cell_length_b 7.785440
_cell_length_c 28.548368
_cell_angle_alpha 90.000000
_cell_angle_beta 40.828706
_cell_angle_gamma 90.000000
_cell_volume 1401.237647
_symmetry_space_group_name_H-M "P 2/M"
_symmetry_group_IT_number 10
_symmetry_cell_setting 'monoclinic'
loop_
_space_group_symop_operation_xyz
x,y,z
-x,y,-z
-x,-y,-z
x,-y,z
loop_
_atom_site_type_symbol
_atom_site_label
_atom_site_fract_x
_atom_site_fract_y
_atom_site_fract_z
Si Si1 0.820461 0.799964 0.314646
Si Si2 0.043880 0.302195 0.437902
Si Si3 0.800775 0.194951 0.850088
Si Si4 0.121137 0.803660 0.851869
Si Si5 0.498315 0.500000 0.055192
Si Si6 0.515901 0.798683 0.312227
Si Si7 0.733680 0.303005 0.438669
Si Si8 0.015377 0.500000 0.050405
O O1 0.629641 0.727762 0.330504
O O2 0.828149 0.707801 0.362500
O O3 0.043848 0.764542 0.232673
O O4 0.785084 0.000000 0.331894
O O5 0.982194 0.500000 0.456916
O O6 0.289802 0.287226 0.361457
O O7 0.000000 0.214587 0.500000
O O8 0.894149 0.216477 0.435811
O O9 0.609490 0.328633 0.896555
O O10 0.924986 0.219185 0.866850
O O11 0.712603 0.000000 0.869029
O O12 0.338370 0.756665 0.769687
O O13 0.093930 0.671109 0.901071
O O14 0.128846 0.000000 0.868732
O O15 0.500000 0.500000 0.000000
O O16 0.737664 0.500000 0.007187
O O17 0.485364 0.000000 0.325399
O O18 0.500000 0.214106 0.500000
O O19 0.708562 0.500000 0.459175
O O20 0.000000 0.500000 0.000000
#
# Coordination Sequence:
#
# PCOD8065997 Si02
#       8
#     4   4   4   4   2   4   4   2
#     4   9  19  36  57  83 113 147 187 232 290 341
#     4  10  21  36  54  81 113 150 196 237 280 334
#     4   9  19  37  62  91 119 149 194 249 290 341
#     4   9  19  39  63  86 118 156 196 240 291 348
#     4  12  22  38  64  94 115 150 205 232 289 358
#     4   9  19  36  59  84 108 146 194 234 279 341
#     4  10  21  36  54  81 115 151 189 236 289 336
#     4  12  26  42  58  90 123 156 195 238 291 354
#
# _framework density 19.982333000000001
#
# number of rings (size 3 to 8) (size 9 to 14) (size 15 to 20)
#    0.000    2.286    1.429    2.571    2.000    4.000 
#    2.571    0.000    0.000    0.000    0.000    0.000 
#    0.000    0.000    0.000    0.000    0.000    0.000 
#
# Total GULP energy -347099.803108 kJ/mol
# GULP energy per Si atom -12396.421540 kJ/mol
# Density = 1.993685 g / cm^3
# Si number density = 19.982333 Si / 1000 Ang^3
#
#
#
# Elastic Constant Matrix: (Units=GPa)
#
#
# Indices 1 2 3 4 5 6 
#
# 1 142.0501 37.1381 78.6172 0.0000 7.2583 0.0000
# 2 37.1381 73.1079 51.5976 0.0000 4.2056 0.0000
# 3 78.6172 51.5976 126.2736 0.0000 5.2181 0.0000
# 4 0.0000 0.0000 0.0000 -14.7841 0.0000 5.1122
# 5 7.2583 4.2056 5.2181 0.0000 39.1374 0.0000
# 6 0.0000 0.0000 0.0000 5.1122 0.0000 16.0762
#
#
#
# Elastic Compliance Matrix: (Units=1/GPa)
#
#
# Indices 1 2 3 4 5 6 
#
# 1 0.010841 -0.001002 -0.006296 0.000000 -0.001063 0.000000
# 2 -0.001002 0.019355 -0.007247 0.000000 -0.000928 0.000000
# 3 -0.006296 -0.007247 0.014801 0.000000 -0.000027 0.000000
# 4 0.000000 0.000000 0.000000 -0.060939 0.000000 0.019379
# 5 -0.001063 -0.000928 -0.000027 0.000000 0.025852 0.000000
# 6 0.000000 0.000000 0.000000 0.019379 0.000000 0.056041
#
#
# Mechanical properties :
#
#
# Convention : Reuss Voigt Hill
#
# Bulk Modulus (GPa) = 62.86209 75.12638 68.99424
# Shear Modulus (GPa) = 49.82928 19.69115 34.76021
#
# Velocity S-wave (km/s) = 4.99908 3.14256 4.17531
# Velocity P-wave (km/s) = 8.05284 7.13061 7.60571
#
# Compressibility (1/GPa) = 0.01590784
#
# Stress axis : x y z
#
# Youngs Moduli (GPa) = 92.24665 51.66517 67.56227
#
# Poissons Ratio (x) = 0.05179 0.42535
# Poissons Ratio (y) = 0.09246 0.48959
# Poissons Ratio (z) = 0.58076 0.37439
#
# Static dielectric constant tensor:
#      x y z
#    x 3.642050 0.000000 -0.036960 
#    y 0.000000 3.525550 0.000000 
#    z -0.036960 0.000000 3.718060 
# 
# 
# High freq. dielectric constant tensor:
#      x y z
#    x 1.763250 0.000000 -0.001790 
#    y 0.000000 1.772330 0.000000 
#    z -0.001790 0.000000 1.786550 
# 
# From -- ./inp_files/92035.got.cif
#   From: 2010.06.25/outbox.cif.g09.slc.cpg/sg10_47_cif.got.tgz:92035.got - 2010.06.27 22:07:45.
