data_PCOD8065636
_publ_section_title
;
Structure prediction by ZEFSAII (Michael W. Deem and Ramdas Pophale) SiO2 
 PCOD8065636
Probable space group: P 2/M
;
_chemical_formula_sum "Si O2"
_cell_formula_units_Z 22
_cell_length_a 13.502822
_cell_length_b 11.907847
_cell_length_c 8.383964
_cell_angle_alpha 90.000000
_cell_angle_beta 129.163694
_cell_angle_gamma 90.000000
_cell_volume 1045.206461
_symmetry_space_group_name_H-M "P 2/M"
_symmetry_group_IT_number 10
_symmetry_cell_setting 'monoclinic'
loop_
_space_group_symop_operation_xyz
x,y,z
-x,y,-z
-x,-y,-z
x,-y,z
loop_
_atom_site_type_symbol
_atom_site_label
_atom_site_fract_x
_atom_site_fract_y
_atom_site_fract_z
Si Si1 0.268824 0.869568 0.925376
Si Si2 0.358516 0.628803 0.619493
Si Si3 0.352680 0.800649 0.347816
Si Si4 0.120641 0.280230 0.546306
Si Si5 0.500000 0.222923 0.000000
Si Si6 0.898472 0.123857 0.761249
O O1 0.302663 0.797453 0.116632
O O2 0.385809 0.861408 0.921618
O O3 0.239095 0.000000 0.935803
O O4 0.153570 0.809576 0.718136
O O5 0.398157 0.500000 0.642522
O O6 0.343283 0.678585 0.424922
O O7 0.233749 0.636907 0.607099
O O8 0.471264 0.698237 0.818493
O O9 0.500000 0.846730 0.500000
O O10 0.251124 0.878251 0.338465
O O11 0.074496 0.213381 0.345765
O O12 0.000000 0.348199 0.500000
O O13 0.929833 0.000000 0.728251
O O14 0.000000 0.156516 0.000000
#
# Coordination Sequence:
#
# PCOD8065636 Si02
#       6
#     4   4   4   4   2   4
#     4  11  22  36  58  87 124 161 192 233 294 356
#     4  10  22  41  63  84 114 154 201 255 308 352
#     4  11  22  39  56  90 121 158 202 252 291 355
#     4  10  22  39  60  88 121 153 201 251 294 359
#     4  10  20  40  56  88 116 150 196 246 292 356
#     4  10  21  37  59  86 121 165 203 240 295 360
#
# _framework density 21.048475
#
# number of rings (size 3 to 8) (size 9 to 14) (size 15 to 20)
#    0.000    1.636    1.818    2.727    0.000    5.091 
#    0.000    0.909    0.000   18.545    0.000    0.000 
#    0.000    0.000    0.000    0.000    0.000    0.000 
#
# Total GULP energy -272606.129681 kJ/mol
# GULP energy per Si atom -12391.187713 kJ/mol
# Density = 2.100057 g / cm^3
# Si number density = 21.048475 Si / 1000 Ang^3
#
#
#
# Elastic Constant Matrix: (Units=GPa)
#
#
# Indices 1 2 3 4 5 6 
#
# 1 92.0912 6.7442 14.2217 0.0000 18.6181 0.0000
# 2 6.7442 66.6520 19.4532 0.0000 -11.2430 0.0000
# 3 14.2217 19.4532 77.3914 0.0000 -6.7743 0.0000
# 4 0.0000 0.0000 0.0000 15.1794 0.0000 -2.3436
# 5 18.6181 -11.2430 -6.7743 0.0000 42.0609 0.0000
# 6 0.0000 0.0000 0.0000 -2.3436 0.0000 3.0870
#
#
#
# Elastic Compliance Matrix: (Units=1/GPa)
#
#
# Indices 1 2 3 4 5 6 
#
# 1 0.012665 -0.001645 -0.002478 0.000000 -0.006445 0.000000
# 2 -0.001645 0.017001 -0.003560 0.000000 0.004700 0.000000
# 3 -0.002478 -0.003560 0.014488 0.000000 0.002479 0.000000
# 4 0.000000 0.000000 0.000000 0.074625 0.000000 0.056652
# 5 -0.006445 0.004700 0.002479 0.000000 0.028283 0.000000
# 6 0.000000 0.000000 0.000000 0.056652 0.000000 0.366942
#
#
# Mechanical properties :
#
#
# Convention : Reuss Voigt Hill
#
# Bulk Modulus (GPa) = 34.73593 35.21919 34.97756
# Shear Modulus (GPa) = 9.27699 25.11317 17.19508
#
# Velocity S-wave (km/s) = 2.10167 3.45789 2.86130
# Velocity P-wave (km/s) = 4.73582 5.71939 5.25069
#
# Compressibility (1/GPa) = 0.02878863
#
# Stress axis : x y z
#
# Youngs Moduli (GPa) = 78.95802 58.81838 69.02046
#
# Poissons Ratio (x) = 0.09678 0.17103
# Poissons Ratio (y) = 0.12992 0.24570
# Poissons Ratio (z) = 0.19565 0.20938
#
# Static dielectric constant tensor:
#      x y z
#    x 4.126780 0.000000 0.042230 
#    y 0.000000 3.319700 0.000000 
#    z 0.042230 0.000000 3.950710 
# 
# 
# High freq. dielectric constant tensor:
#      x y z
#    x 1.846580 0.000000 0.002140 
#    y 0.000000 1.780840 0.000000 
#    z 0.002140 0.000000 1.834030 
# 
# From -- ./inp_files/24751.got.cif
#   From: 2010.06.25/outbox.cif.g09.slc.cpg/sg10_13_cif.got.tgz:24751.got - 2010.06.27 22:07:45.
