data_PCOD8065277
_publ_section_title
;
Structure prediction by ZEFSAII (Michael W. Deem and Ramdas Pophale) SiO2 
 PCOD8065277
Probable space group: P 2/M
;
_chemical_formula_sum "Si O2"
_cell_formula_units_Z 28
_cell_length_a 9.352158
_cell_length_b 13.548361
_cell_length_c 19.069403
_cell_angle_alpha 90.000000
_cell_angle_beta 143.160268
_cell_angle_gamma 90.000000
_cell_volume 1448.711497
_symmetry_space_group_name_H-M "P 2/M"
_symmetry_group_IT_number 10
_symmetry_cell_setting 'monoclinic'
loop_
_space_group_symop_operation_xyz
x,y,z
-x,y,-z
-x,-y,-z
x,-y,z
loop_
_atom_site_type_symbol
_atom_site_label
_atom_site_fract_x
_atom_site_fract_y
_atom_site_fract_z
Si Si1 0.349429 0.746167 0.544878
Si Si2 0.773523 0.889388 0.116835
Si Si3 0.686796 0.281868 0.309363
Si Si4 0.954801 0.384974 0.652851
Si Si5 0.110730 0.276189 0.233007
Si Si6 0.935707 0.111473 0.340555
Si Si7 0.213694 0.611922 0.136948
O O1 0.259870 0.715683 0.586996
O O2 0.301717 0.649997 0.477557
O O3 0.628503 0.771116 0.649740
O O4 0.193250 0.837471 0.453998
O O5 0.863193 0.886066 0.231479
O O6 0.939669 0.812675 0.139768
O O7 0.805365 0.000000 0.098634
O O8 0.500000 0.856094 0.000000
O O9 0.728849 0.169343 0.301248
O O10 0.416566 0.314322 0.189141
O O11 0.852871 0.355697 0.330588
O O12 0.957638 0.500000 0.668789
O O13 0.007594 0.327469 0.745710
O O14 0.125792 0.358852 0.179519
O O15 0.948486 0.000000 0.374158
O O16 0.311403 0.500000 0.178647
O O17 0.000000 0.621783 0.000000
#
# Coordination Sequence:
#
# PCOD8065277 Si02
#       7
#     4   4   4   4   4   4   4
#     4  10  22  36  54  88 121 155 188 236 297 351
#     4  10  22  39  61  88 117 152 193 241 297 346
#     4  10  21  38  57  84 121 154 198 239 290 350
#     4  11  21  34  57  86 116 152 197 241 285 344
#     4  11  22  38  61  87 121 149 196 246 289 342
#     4  10  20  37  62  87 116 153 194 241 290 346
#     4  10  23  41  60  84 118 160 197 237 296 348
#
# _framework density 19.327518999999999
#
# number of rings (size 3 to 8) (size 9 to 14) (size 15 to 20)
#    0.000    1.714    2.857    3.000    2.000    6.286 
#    0.000    3.571    0.000    4.286    0.000    0.000 
#    0.000    0.000    0.000    0.000    0.000    0.000 
#
# Total GULP energy -347122.498342 kJ/mol
# GULP energy per Si atom -12397.232084 kJ/mol
# Density = 1.928353 g / cm^3
# Si number density = 19.327519 Si / 1000 Ang^3
#
#
#
# Elastic Constant Matrix: (Units=GPa)
#
#
# Indices 1 2 3 4 5 6 
#
# 1 81.1796 40.8515 31.8008 0.0000 10.9489 0.0000
# 2 40.8515 145.9355 49.3193 0.0000 19.5129 0.0000
# 3 31.8008 49.3193 100.3173 0.0000 16.1004 0.0000
# 4 0.0000 0.0000 0.0000 22.2838 0.0000 -5.3485
# 5 10.9489 19.5129 16.1004 0.0000 28.4234 0.0000
# 6 0.0000 0.0000 0.0000 -5.3485 0.0000 17.9698
#
#
#
# Elastic Compliance Matrix: (Units=1/GPa)
#
#
# Indices 1 2 3 4 5 6 
#
# 1 0.015292 -0.002966 -0.003048 0.000000 -0.002128 0.000000
# 2 -0.002966 0.009160 -0.003011 0.000000 -0.003440 0.000000
# 3 -0.003048 -0.003011 0.013084 0.000000 -0.004170 0.000000
# 4 0.000000 0.000000 0.000000 0.048328 0.000000 0.014384
# 5 -0.002128 -0.003440 -0.004170 0.000000 0.040726 0.000000
# 6 0.000000 0.000000 0.000000 0.014384 0.000000 0.059930
#
#
# Mechanical properties :
#
#
# Convention : Reuss Voigt Hill
#
# Bulk Modulus (GPa) = 51.31786 63.48617 57.40202
# Shear Modulus (GPa) = 23.68921 27.43277 25.56099
#
# Velocity S-wave (km/s) = 3.50476 3.77153 3.64059
# Velocity P-wave (km/s) = 6.55646 7.20311 6.88738
#
# Compressibility (1/GPa) = 0.01948639
#
# Stress axis : x y z
#
# Youngs Moduli (GPa) = 65.39413 109.16734 76.42813
#
# Poissons Ratio (x) = 0.32380 0.23294
# Poissons Ratio (y) = 0.19397 0.23013
# Poissons Ratio (z) = 0.19931 0.32871
#
# Static dielectric constant tensor:
#      x y z
#    x 3.549600 0.000000 0.012630 
#    y 0.000000 3.785620 0.000000 
#    z 0.012630 0.000000 3.623030 
# 
# 
# High freq. dielectric constant tensor:
#      x y z
#    x 1.750730 0.000000 -0.002750 
#    y 0.000000 1.752130 0.000000 
#    z -0.002750 0.000000 1.755070 
# 
# From -- ./inp_files/25070.got.cif
#   From: 2010.06.25/outbox.cif.g09.slc.cpg/sg10_13_cif.got.tgz:25070.got - 2010.06.27 22:07:45.
