data_PCOD8065324
_publ_section_title
;
Structure prediction by ZEFSAII (Michael W. Deem and Ramdas Pophale) SiO2 
 PCOD8065324
Probable space group: P 2/M
;
_chemical_formula_sum "Si O2"
_cell_formula_units_Z 28
_cell_length_a 14.629739
_cell_length_b 8.481433
_cell_length_c 20.307166
_cell_angle_alpha 90.000000
_cell_angle_beta 32.472847
_cell_angle_gamma 90.000000
_cell_volume 1352.846185
_symmetry_space_group_name_H-M "P 2/M"
_symmetry_group_IT_number 10
_symmetry_cell_setting 'monoclinic'
loop_
_space_group_symop_operation_xyz
x,y,z
-x,y,-z
-x,-y,-z
x,-y,z
loop_
_atom_site_type_symbol
_atom_site_label
_atom_site_fract_x
_atom_site_fract_y
_atom_site_fract_z
Si Si1 0.526445 0.184198 0.684265
Si Si2 0.129409 0.186295 0.277432
Si Si3 0.736223 0.813814 0.942857
Si Si4 0.795339 0.317694 0.427741
Si Si5 0.598243 0.187142 0.786059
Si Si6 0.903317 0.815501 0.227562
Si Si7 0.823254 0.316325 0.139468
O O1 0.617581 0.280991 0.571237
O O2 0.602476 0.242114 0.707984
O O3 0.325797 0.218953 0.805280
O O4 0.559689 0.000000 0.653560
O O5 0.244979 0.236512 0.144737
O O6 0.229336 0.242442 0.282126
O O7 0.947851 0.271906 0.384798
O O8 0.094397 0.000000 0.298587
O O9 0.901860 0.756989 0.882640
O O10 0.725290 0.000000 0.953819
O O11 0.566781 0.737532 0.077158
O O12 0.805441 0.500000 0.403220
O O13 0.802419 0.217992 0.356314
O O14 0.583382 0.000000 0.799705
O O15 0.820258 0.718197 0.219003
O O16 0.891116 0.000000 0.219051
O O17 0.792924 0.500000 0.145295
O O18 0.000000 0.258259 0.000000
#
# Coordination Sequence:
#
# PCOD8065324 Si02
#       7
#     4   4   4   4   4   4   4
#     4  11  23  39  59  83 112 149 198 245 281 328
#     4   9  17  32  56  84 113 147 189 234 281 338
#     4   8  14  27  52  86 116 140 176 230 286 333
#     4  11  23  40  58  80 114 151 190 236 292 348
#     4   9  17  30  53  84 114 146 187 238 287 328
#     4  10  20  37  63  89 113 147 193 240 282 330
#     4  11  24  41  61  89 124 155 181 218 278 344
#
# _framework density 20.697105000000001
#
# number of rings (size 3 to 8) (size 9 to 14) (size 15 to 20)
#    0.000    2.143    0.000    4.714    0.000    5.143 
#    0.000    7.143    0.000    8.571    0.000    0.000 
#    0.000    0.000    0.000    0.000    0.000    0.000 
#
# Total GULP energy -347253.710190 kJ/mol
# GULP energy per Si atom -12401.918221 kJ/mol
# Density = 2.065000 g / cm^3
# Si number density = 20.697105 Si / 1000 Ang^3
#
#
#
# Elastic Constant Matrix: (Units=GPa)
#
#
# Indices 1 2 3 4 5 6 
#
# 1 118.8744 12.5848 20.2721 0.0000 4.5386 0.0000
# 2 12.5848 43.3285 12.7782 0.0000 -1.4949 0.0000
# 3 20.2721 12.7782 91.0510 0.0000 2.9965 0.0000
# 4 0.0000 0.0000 0.0000 23.8925 0.0000 -0.2835
# 5 4.5386 -1.4949 2.9965 0.0000 21.4825 0.0000
# 6 0.0000 0.0000 0.0000 -0.2835 0.0000 14.0384
#
#
#
# Elastic Compliance Matrix: (Units=1/GPa)
#
#
# Indices 1 2 3 4 5 6 
#
# 1 0.008993 -0.002193 -0.001634 0.000000 -0.001825 0.000000
# 2 -0.002193 0.024711 -0.003066 0.000000 0.002610 0.000000
# 3 -0.001634 -0.003066 0.011827 0.000000 -0.001518 0.000000
# 4 0.000000 0.000000 0.000000 0.041864 0.000000 0.000845
# 5 -0.001825 0.002610 -0.001518 0.000000 0.047328 0.000000
# 6 0.000000 0.000000 0.000000 0.000845 0.000000 0.071250
#
#
# Mechanical properties :
#
#
# Convention : Reuss Voigt Hill
#
# Bulk Modulus (GPa) = 31.50150 38.28046 34.89098
# Shear Modulus (GPa) = 21.70700 25.72392 23.71546
#
# Velocity S-wave (km/s) = 3.24202 3.52927 3.38869
# Velocity P-wave (km/s) = 5.40995 5.92818 5.67499
#
# Compressibility (1/GPa) = 0.03174452
#
# Stress axis : x y z
#
# Youngs Moduli (GPa) = 111.20036 40.46846 84.55284
#
# Poissons Ratio (x) = 0.08874 0.13819
# Poissons Ratio (y) = 0.24385 0.25920
# Poissons Ratio (z) = 0.18175 0.12406
#
# Static dielectric constant tensor:
#      x y z
#    x 3.880870 0.000000 -0.030900 
#    y 0.000000 3.350420 0.000000 
#    z -0.030900 0.000000 3.771610 
# 
# 
# High freq. dielectric constant tensor:
#      x y z
#    x 1.816710 0.000000 -0.000180 
#    y 0.000000 1.776850 0.000000 
#    z -0.000180 0.000000 1.808720 
# 
# From -- ./inp_files/63303.got.cif
#   From: 2010.06.25/outbox.cif.g09.slc.cpg/sg10_32_cif.got.tgz:63303.got - 2010.06.27 22:07:45.
