data_PCOD8065199
_publ_section_title
;
Structure prediction by ZEFSAII (Michael W. Deem and Ramdas Pophale) SiO2 
 PCOD8065199
Probable space group: P 2/M
;
_chemical_formula_sum "Si O2"
_cell_formula_units_Z 28
_cell_length_a 12.229218
_cell_length_b 16.937012
_cell_length_c 18.676523
_cell_angle_alpha 90.000000
_cell_angle_beta 20.003426
_cell_angle_gamma 90.000000
_cell_volume 1323.288491
_symmetry_space_group_name_H-M "P 2/M"
_symmetry_group_IT_number 10
_symmetry_cell_setting 'monoclinic'
loop_
_space_group_symop_operation_xyz
x,y,z
-x,y,-z
-x,-y,-z
x,-y,z
loop_
_atom_site_type_symbol
_atom_site_label
_atom_site_fract_x
_atom_site_fract_y
_atom_site_fract_z
Si Si1 0.705935 0.808341 0.439579
Si Si2 0.587019 0.589918 0.044140
Si Si3 0.004040 0.654781 0.320964
Si Si4 0.339782 0.342086 0.329785
Si Si5 0.630677 0.168978 0.717275
Si Si6 0.303259 0.090518 0.048381
Si Si7 0.362065 0.087025 0.755957
O O1 0.500000 0.773692 0.500000
O O2 0.918382 0.742878 0.348834
O O3 0.431399 0.844125 0.657897
O O4 0.938432 0.881279 0.278979
O O5 0.480241 0.500000 0.096020
O O6 0.591464 0.605675 0.127569
O O7 0.332680 0.650450 0.164786
O O8 0.931575 0.604229 0.791965
O O9 0.717639 0.626990 0.552207
O O10 0.487572 0.253911 0.239740
O O11 0.000000 0.346524 0.500000
O O12 0.465572 0.149602 0.893255
O O13 0.570592 0.099060 0.698644
O O14 0.000000 0.176208 0.500000
O O15 0.301177 0.000000 0.022478
O O16 0.500000 0.097716 0.000000
O O17 0.439441 0.000000 0.677519
O O18 0.000000 0.095704 0.000000
#
# Coordination Sequence:
#
# PCOD8065199 Si02
#       7
#     4   4   4   4   4   4   4
#     4  12  25  41  62  88 122 171 221 269 322 390
#     4  10  21  36  65 103 132 162 202 258 323 388
#     4  10  20  37  60  89 130 165 203 256 315 381
#     4   9  19  33  56  91 122 161 199 254 309 373
#     4  11  21  38  61  86 124 166 207 259 321 386
#     4  11  25  39  59  90 124 166 215 277 336 381
#     4  11  24  41  61  85 118 164 218 273 323 373
#
# _framework density 21.159409
#
# number of rings (size 3 to 8) (size 9 to 14) (size 15 to 20)
#    0.000    1.429    1.429    4.286    6.000    7.714 
#    0.000    0.000    0.000    1.714    0.000    1.000 
#    0.000    0.000    0.000    0.000    0.000    0.000 
#
# Total GULP energy -346893.824628 kJ/mol
# GULP energy per Si atom -12389.065165 kJ/mol
# Density = 2.111125 g / cm^3
# Si number density = 21.159409 Si / 1000 Ang^3
#
#
#
# Elastic Constant Matrix: (Units=GPa)
#
#
# Indices 1 2 3 4 5 6 
#
# 1 79.3994 42.8416 45.2472 0.0000 27.6874 0.0000
# 2 42.8416 112.9968 57.4835 0.0000 8.0648 0.0000
# 3 45.2472 57.4835 89.2319 0.0000 43.3965 0.0000
# 4 0.0000 0.0000 0.0000 26.9863 0.0000 1.5654
# 5 27.6874 8.0648 43.3965 0.0000 48.9480 0.0000
# 6 0.0000 0.0000 0.0000 1.5654 0.0000 29.9664
#
#
#
# Elastic Compliance Matrix: (Units=1/GPa)
#
#
# Indices 1 2 3 4 5 6 
#
# 1 0.019923 -0.005727 -0.002446 0.000000 -0.008158 0.000000
# 2 -0.005727 0.017839 -0.015355 0.000000 0.013914 0.000000
# 3 -0.002446 -0.015355 0.035926 0.000000 -0.027938 0.000000
# 4 0.000000 0.000000 0.000000 0.037168 0.000000 -0.001942
# 5 -0.008158 0.013914 -0.027938 0.000000 0.047521 0.000000
# 6 0.000000 0.000000 0.000000 -0.001942 0.000000 0.033472
#
#
# Mechanical properties :
#
#
# Convention : Reuss Voigt Hill
#
# Bulk Modulus (GPa) = 37.54777 63.64140 50.59459
# Shear Modulus (GPa) = 20.17899 30.25053 25.21476
#
# Velocity S-wave (km/s) = 3.09150 3.78517 3.45578
# Velocity P-wave (km/s) = 5.52511 7.01753 6.31556
#
# Compressibility (1/GPa) = 0.02663274
#
# Stress axis : x y z
#
# Youngs Moduli (GPa) = 50.19274 56.05570 27.83537
#
# Poissons Ratio (x) = 0.32105 0.06808
# Poissons Ratio (y) = 0.28747 0.42740
# Poissons Ratio (z) = 0.12276 0.86072
#
# Static dielectric constant tensor:
#      x y z
#    x 3.942260 0.000000 0.766530 
#    y 0.000000 3.818990 0.000000 
#    z 0.766530 0.000000 4.576940 
# 
# 
# High freq. dielectric constant tensor:
#      x y z
#    x 1.810040 0.000000 0.043430 
#    y 0.000000 1.818090 0.000000 
#    z 0.043430 0.000000 1.828640 
# 
# From -- ./inp_files/77205.got.cif
#   From: 2010.06.25/outbox.cif.g09.slc.cpg/sg10_39_cif.got.tgz:77205.got - 2010.06.27 22:07:45.
