data_PCOD8065642
_publ_section_title
;
Structure prediction by ZEFSAII (Michael W. Deem and Ramdas Pophale) SiO2 
 PCOD8065642
Probable space group: P 2/M
;
_chemical_formula_sum "Si O2"
_cell_formula_units_Z 28
_cell_length_a 26.785866
_cell_length_b 9.074866
_cell_length_c 9.595424
_cell_angle_alpha 90.000000
_cell_angle_beta 38.602393
_cell_angle_gamma 90.000000
_cell_volume 1455.236525
_symmetry_space_group_name_H-M "P 2/M"
_symmetry_group_IT_number 10
_symmetry_cell_setting 'monoclinic'
loop_
_space_group_symop_operation_xyz
x,y,z
-x,y,-z
-x,-y,-z
x,-y,z
loop_
_atom_site_type_symbol
_atom_site_label
_atom_site_fract_x
_atom_site_fract_y
_atom_site_fract_z
Si Si1 0.190438 0.823912 0.163046
Si Si2 0.432750 0.672012 0.259218
Si Si3 0.736241 0.330296 0.497529
Si Si4 0.856097 0.175459 0.041866
Si Si5 0.312660 0.671487 0.088746
Si Si6 0.478054 0.170876 0.706757
Si Si7 0.976297 0.839450 0.392324
O O1 0.268578 0.750551 0.057317
O O2 0.111136 0.761221 0.418509
O O3 0.195597 0.000000 0.165834
O O4 0.186591 0.776644 0.009323
O O5 0.434486 0.500000 0.293696
O O6 0.347618 0.721932 0.384451
O O7 0.448246 0.767615 0.363424
O O8 0.500000 0.710733 0.000000
O O9 0.751239 0.500000 0.429025
O O10 0.808295 0.236570 0.277146
O O11 0.736531 0.303159 0.662144
O O12 0.860280 0.000000 0.040759
O O13 0.947955 0.240555 0.847915
O O14 0.322103 0.500000 0.033883
O O15 0.399797 0.738845 0.918904
O O16 0.500000 0.197993 0.500000
O O17 0.463666 0.000000 0.771010
O O18 0.000000 0.861568 0.500000
O O19 0.965497 0.000000 0.346421
#
# Coordination Sequence:
#
# PCOD8065642 Si02
#       7
#     4   4   4   4   4   4   4
#     4   9  18  34  57  84 112 140 179 229 273 317
#     4  10  20  40  62  79 105 146 188 221 263 320
#     4  10  22  38  55  78 110 146 184 224 265 318
#     4   9  18  33  57  85 110 140 181 225 272 324
#     4  11  23  40  57  77 110 150 185 217 268 328
#     4  11  25  41  58  84 113 138 176 229 276 319
#     4   7  12  28  53  79 108 142 176 217 270 322
#
# _framework density 19.240856999999998
#
# number of rings (size 3 to 8) (size 9 to 14) (size 15 to 20)
#    0.000    2.429    1.429    2.571    2.000    3.714 
#    0.000    1.429    0.000    6.857    0.000    0.000 
#    0.000    0.000    0.000    0.000    0.000    0.000 
#
# Total GULP energy -347064.296551 kJ/mol
# GULP energy per Si atom -12395.153448 kJ/mol
# Density = 1.919706 g / cm^3
# Si number density = 19.240857 Si / 1000 Ang^3
#
#
#
# Elastic Constant Matrix: (Units=GPa)
#
#
# Indices 1 2 3 4 5 6 
#
# 1 38.8809 14.1514 -11.4829 0.0000 6.7101 0.0000
# 2 14.1514 49.9658 22.6526 0.0000 8.5373 0.0000
# 3 -11.4829 22.6526 74.9269 0.0000 -1.7877 0.0000
# 4 0.0000 0.0000 0.0000 16.1173 0.0000 11.3669
# 5 6.7101 8.5373 -1.7877 0.0000 24.3498 0.0000
# 6 0.0000 0.0000 0.0000 11.3669 0.0000 10.2527
#
#
#
# Elastic Compliance Matrix: (Units=1/GPa)
#
#
# Indices 1 2 3 4 5 6 
#
# 1 0.033799 -0.012948 0.008996 0.000000 -0.004114 0.000000
# 2 -0.012948 0.030132 -0.011281 0.000000 -0.007825 0.000000
# 3 0.008996 -0.011281 0.018203 0.000000 0.002812 0.000000
# 4 0.000000 0.000000 0.000000 0.284488 0.000000 -0.315404
# 5 -0.004114 -0.007825 0.002812 0.000000 0.045152 0.000000
# 6 0.000000 0.000000 0.000000 -0.315404 0.000000 0.447215
#
#
# Mechanical properties :
#
#
# Convention : Reuss Voigt Hill
#
# Bulk Modulus (GPa) = 19.35420 23.82397 21.58909
# Shear Modulus (GPa) = 5.51464 19.37412 12.44438
#
# Velocity S-wave (km/s) = 1.69479 3.17665 2.54592
# Velocity P-wave (km/s) = 3.72968 5.08563 4.45950
#
# Compressibility (1/GPa) = 0.05166837
#
# Stress axis : x y z
#
# Youngs Moduli (GPa) = 29.58642 33.18698 54.93677
#
# Poissons Ratio (x) = 0.42972 -0.49424
# Poissons Ratio (y) = 0.38310 0.61974
# Poissons Ratio (z) = -0.26617 0.37438
#
# Static dielectric constant tensor:
#      x y z
#    x 3.506560 0.000000 -0.203350 
#    y 0.000000 3.238020 0.000000 
#    z -0.203350 0.000000 3.654610 
# 
# 
# High freq. dielectric constant tensor:
#      x y z
#    x 1.741920 0.000000 -0.010930 
#    y 0.000000 1.723480 0.000000 
#    z -0.010930 0.000000 1.755260 
# 
# From -- ./inp_files/37010.got.cif
#   From: 2010.06.25/outbox.cif.g09.slc.cpg/sg10_19_cif.got.tgz:37010.got - 2010.06.27 22:07:45.
