data_PCOD8065683
_publ_section_title
;
Structure prediction by ZEFSAII (Michael W. Deem and Ramdas Pophale) SiO2 
 PCOD8065683
Probable space group: P 2/M
;
_chemical_formula_sum "Si O2"
_cell_formula_units_Z 16
_cell_length_a 5.031701
_cell_length_b 11.299552
_cell_length_c 13.033616
_cell_angle_alpha 90.000000
_cell_angle_beta 102.233666
_cell_angle_gamma 90.000000
_cell_volume 724.211003
_symmetry_space_group_name_H-M "P 2/M"
_symmetry_group_IT_number 10
_symmetry_cell_setting 'monoclinic'
loop_
_space_group_symop_operation_xyz
x,y,z
-x,y,-z
-x,-y,-z
x,-y,z
loop_
_atom_site_type_symbol
_atom_site_label
_atom_site_fract_x
_atom_site_fract_y
_atom_site_fract_z
Si Si1 0.789647 0.500000 0.572534
Si Si2 0.209148 0.756250 0.425539
Si Si3 0.008644 0.865193 0.211523
Si Si4 0.455436 0.751399 0.117524
Si Si5 0.295342 0.500000 0.074394
O O1 0.500000 0.500000 0.500000
O O2 0.822786 0.625960 0.633419
O O3 0.000000 0.500000 0.500000
O O4 0.500000 0.775803 0.500000
O O5 0.000000 0.775333 0.500000
O O6 0.165265 0.850727 0.332106
O O7 0.741203 0.782683 0.193690
O O8 0.212720 0.836328 0.134658
O O9 0.913252 0.000000 0.190704
O O10 0.358561 0.619049 0.143926
O O11 0.500000 0.765282 0.000000
O O12 0.500000 0.500000 0.000000
O O13 0.000000 0.500000 0.000000
#
# Coordination Sequence:
#
# PCOD8065683 Si02
#       5
#     2   4   4   4   2
#     4   8  16  32  56  84 113 148 195 247 310 373
#     4  10  21  39  61  87 122 161 204 263 317 363
#     4  12  26  41  62  94 127 171 223 251 300 386
#     4  11  24  43  66  93 127 164 205 266 322 368
#     4  10  20  40  68  96 124 158 206 259 322 385
#
# _framework density 22.093008000000001
#
# number of rings (size 3 to 8) (size 9 to 14) (size 15 to 20)
#    0.000    1.500    0.000    6.000    0.000    6.000 
#    0.000    2.500    0.000    0.000    0.000    0.000 
#    0.000    0.000    0.000    0.000    0.000    0.000 
#
# Total GULP energy -198282.975893 kJ/mol
# GULP energy per Si atom -12392.685993 kJ/mol
# Density = 2.204272 g / cm^3
# Si number density = 22.093008 Si / 1000 Ang^3
#
#
#
# Elastic Constant Matrix: (Units=GPa)
#
#
# Indices 1 2 3 4 5 6 
#
# 1 176.7284 53.3678 34.1462 0.0000 12.7500 0.0000
# 2 53.3678 136.6031 50.5625 0.0000 11.3151 0.0000
# 3 34.1462 50.5625 77.5407 0.0000 4.1741 0.0000
# 4 0.0000 0.0000 0.0000 30.8335 0.0000 3.5332
# 5 12.7500 11.3151 4.1741 0.0000 36.4283 0.0000
# 6 0.0000 0.0000 0.0000 3.5332 0.0000 24.3948
#
#
#
# Elastic Compliance Matrix: (Units=1/GPa)
#
#
# Indices 1 2 3 4 5 6 
#
# 1 0.006649 -0.001866 -0.001627 0.000000 -0.001561 0.000000
# 2 -0.001866 0.010367 -0.005836 0.000000 -0.001898 0.000000
# 3 -0.001627 -0.005836 0.017398 0.000000 0.000389 0.000000
# 4 0.000000 0.000000 0.000000 0.032980 0.000000 -0.004777
# 5 -0.001561 -0.001898 0.000389 0.000000 0.028543 0.000000
# 6 0.000000 0.000000 0.000000 -0.004777 0.000000 0.041684
#
#
# Mechanical properties :
#
#
# Convention : Reuss Voigt Hill
#
# Bulk Modulus (GPa) = 63.47206 74.11392 68.79299
# Shear Modulus (GPa) = 30.95400 35.18437 33.06918
#
# Velocity S-wave (km/s) = 3.74716 3.99501 3.87307
# Velocity P-wave (km/s) = 6.89300 7.40941 7.15586
#
# Compressibility (1/GPa) = 0.01575496
#
# Stress axis : x y z
#
# Youngs Moduli (GPa) = 150.40096 96.46074 57.47902
#
# Poissons Ratio (x) = 0.18000 0.09353
# Poissons Ratio (y) = 0.28065 0.33545
# Poissons Ratio (z) = 0.24472 0.56296
#
# Static dielectric constant tensor:
#      x y z
#    x 4.070350 0.000000 -0.028530 
#    y 0.000000 7.871450 0.000000 
#    z -0.028530 0.000000 3.577330 
# 
# 
# High freq. dielectric constant tensor:
#      x y z
#    x 1.895490 0.000000 -0.004280 
#    y 0.000000 1.876050 0.000000 
#    z -0.004280 0.000000 1.842480 
# 
# From -- ./inp_files/38788.got.cif
#   From: 2010.06.25/outbox.cif.g09.slc.cpg/sg10_20_cif.got.tgz:38788.got - 2010.06.27 22:07:45.
