data_PCOD8065261
_publ_section_title
;
Structure prediction by ZEFSAII (Michael W. Deem and Ramdas Pophale) SiO2 
 PCOD8065261
Probable space group: P 2/M
;
_chemical_formula_sum "Si O2"
_cell_formula_units_Z 24
_cell_length_a 23.540264
_cell_length_b 8.925794
_cell_length_c 12.299228
_cell_angle_alpha 90.000000
_cell_angle_beta 26.808491
_cell_angle_gamma 90.000000
_cell_volume 1165.526179
_symmetry_space_group_name_H-M "P 2/M"
_symmetry_group_IT_number 10
_symmetry_cell_setting 'monoclinic'
loop_
_space_group_symop_operation_xyz
x,y,z
-x,y,-z
-x,-y,-z
x,-y,z
loop_
_atom_site_type_symbol
_atom_site_label
_atom_site_fract_x
_atom_site_fract_y
_atom_site_fract_z
Si Si1 0.000930 0.322269 0.834761
Si Si2 0.683142 0.826802 0.996960
Si Si3 0.821883 0.175600 0.315752
Si Si4 0.352869 0.334062 0.728548
Si Si5 0.049520 0.173657 0.533619
Si Si6 0.592848 0.826646 0.574289
O O1 0.987443 0.500000 0.870235
O O2 0.137784 0.266598 0.645258
O O3 0.984592 0.275035 0.736903
O O4 0.897671 0.237561 0.082720
O O5 0.716104 0.747700 0.054503
O O6 0.551744 0.767539 0.167508
O O7 0.670408 0.000000 0.047376
O O8 0.799510 0.798031 0.717442
O O9 0.672261 0.201443 0.549189
O O10 0.851431 0.000000 0.281073
O O11 0.500000 0.335989 0.500000
O O12 0.296012 0.500000 0.816024
O O13 0.329712 0.252839 0.654237
O O14 0.000000 0.223317 0.500000
O O15 0.016891 0.000000 0.610920
O O16 0.590810 0.000000 0.547320
#
# Coordination Sequence:
#
# PCOD8065261 Si02
#       6
#     4   4   4   4   4   4
#     4  11  23  39  58  83 114 145 182 230 280 330
#     4   9  18  34  53  77 109 144 185 229 270 321
#     4  10  20  37  62  85 109 143 186 232 277 327
#     4   9  17  28  45  73 110 146 177 216 268 323
#     4  10  22  39  59  81 110 150 191 227 269 327
#     4   9  18  32  54  81 107 140 183 229 275 321
#
# _framework density 20.591557999999999
#
# number of rings (size 3 to 8) (size 9 to 14) (size 15 to 20)
#    0.000    2.333    0.000    3.500    2.333    4.333 
#    0.000    0.833    0.000    5.000    0.000    0.000 
#    0.000    0.000    0.000    0.000    0.000    0.000 
#
# Total GULP energy -297492.514987 kJ/mol
# GULP energy per Si atom -12395.521458 kJ/mol
# Density = 2.054469 g / cm^3
# Si number density = 20.591558 Si / 1000 Ang^3
#
#
#
# Elastic Constant Matrix: (Units=GPa)
#
#
# Indices 1 2 3 4 5 6 
#
# 1 96.9191 19.3392 13.5274 0.0000 -2.3747 0.0000
# 2 19.3392 70.8033 9.4236 0.0000 5.9223 0.0000
# 3 13.5274 9.4236 36.6663 0.0000 3.7438 0.0000
# 4 0.0000 0.0000 0.0000 11.5754 0.0000 2.4561
# 5 -2.3747 5.9223 3.7438 0.0000 30.8837 0.0000
# 6 0.0000 0.0000 0.0000 2.4561 0.0000 16.8049
#
#
#
# Elastic Compliance Matrix: (Units=1/GPa)
#
#
# Indices 1 2 3 4 5 6 
#
# 1 0.011435 -0.002788 -0.003692 0.000000 0.001861 0.000000
# 2 -0.002788 0.015478 -0.002658 0.000000 -0.002860 0.000000
# 3 -0.003692 -0.002658 0.029662 0.000000 -0.003370 0.000000
# 4 0.000000 0.000000 0.000000 0.089155 0.000000 -0.013030
# 5 0.001861 -0.002860 -0.003370 0.000000 0.033480 0.000000
# 6 0.000000 0.000000 0.000000 -0.013030 0.000000 0.061411
#
#
# Mechanical properties :
#
#
# Convention : Reuss Voigt Hill
#
# Bulk Modulus (GPa) = 26.10942 32.10771 29.10857
# Shear Modulus (GPa) = 18.40515 22.65935 20.53225
#
# Velocity S-wave (km/s) = 2.99293 3.32086 3.16115
# Velocity P-wave (km/s) = 4.96494 5.50732 5.24315
#
# Compressibility (1/GPa) = 0.03830035
#
# Stress axis : x y z
#
# Youngs Moduli (GPa) = 87.45009 64.60787 33.71278
#
# Poissons Ratio (x) = 0.18010 0.12448
# Poissons Ratio (y) = 0.24378 0.08959
# Poissons Ratio (z) = 0.32290 0.17170
#
# Static dielectric constant tensor:
#      x y z
#    x 3.978310 0.000000 -0.318770 
#    y 0.000000 3.711960 0.000000 
#    z -0.318770 0.000000 3.629280 
# 
# 
# High freq. dielectric constant tensor:
#      x y z
#    x 1.807160 0.000000 -0.021430 
#    y 0.000000 1.797350 0.000000 
#    z -0.021430 0.000000 1.783800 
# 
# From -- ./inp_files/56550.got.cif
#   From: 2010.06.25/outbox.cif.g09.slc.cpg/sg10_29_cif.got.tgz:56550.got - 2010.06.27 22:07:45.
