data_PCOD8065104
_publ_section_title
;
Structure prediction by ZEFSAII (Michael W. Deem and Ramdas Pophale) SiO2 
 PCOD8065104
Probable space group: P 2/M
;
_chemical_formula_sum "Si O2"
_cell_formula_units_Z 20
_cell_length_a 8.962848
_cell_length_b 11.839615
_cell_length_c 11.439262
_cell_angle_alpha 90.000000
_cell_angle_beta 126.235982
_cell_angle_gamma 90.000000
_cell_volume 979.115776
_symmetry_space_group_name_H-M "P 2/M"
_symmetry_group_IT_number 10
_symmetry_cell_setting 'monoclinic'
loop_
_space_group_symop_operation_xyz
x,y,z
-x,y,-z
-x,-y,-z
x,-y,z
loop_
_atom_site_type_symbol
_atom_site_label
_atom_site_fract_x
_atom_site_fract_y
_atom_site_fract_z
Si Si1 0.948525 0.742363 0.729189
Si Si2 0.706521 0.500000 0.364838
Si Si3 0.297384 0.871396 0.931268
Si Si4 0.291875 0.870885 0.200711
Si Si5 0.980869 0.500000 0.295251
Si Si6 0.599774 0.281781 0.426995
O O1 0.859495 0.795765 0.803528
O O2 0.810536 0.755074 0.554338
O O3 0.141191 0.804016 0.786920
O O4 0.993887 0.610393 0.773771
O O5 0.781243 0.500000 0.266800
O O6 0.587455 0.386359 0.330842
O O7 0.867600 0.500000 0.534076
O O8 0.294187 0.000000 0.885088
O O9 0.500000 0.819072 0.000000
O O10 0.247979 0.862897 0.044380
O O11 0.497781 0.825398 0.322743
O O12 0.279571 0.000000 0.239103
O O13 0.500000 0.320972 0.500000
#
# Coordination Sequence:
#
# PCOD8065104 Si02
#       6
#     4   2   4   4   2   4
#     4  10  20  37  59  82 114 148 190 228 277 333
#     4   9  17  34  55  80 120 151 179 227 283 334
#     4  10  22  39  58  80 112 151 191 232 281 338
#     4  10  21  37  58  86 115 148 187 231 282 335
#     4   9  20  34  55  85 112 148 191 228 276 335
#     4   9  19  33  58  89 113 146 186 232 276 335
#
# _framework density 20.426591999999999
#
# number of rings (size 3 to 8) (size 9 to 14) (size 15 to 20)
#    0.000    2.400    0.000    1.500    2.800    8.400 
#    0.000    3.500    0.000    3.600    0.000    0.000 
#    0.000    0.000    0.000    0.000    0.000    0.000 
#
# Total GULP energy -247986.627215 kJ/mol
# GULP energy per Si atom -12399.331361 kJ/mol
# Density = 2.038010 g / cm^3
# Si number density = 20.426592 Si / 1000 Ang^3
#
#
#
# Elastic Constant Matrix: (Units=GPa)
#
#
# Indices 1 2 3 4 5 6 
#
# 1 85.9400 65.4445 29.0469 0.0000 18.4318 0.0000
# 2 65.4445 151.9782 43.8036 0.0000 10.0640 0.0000
# 3 29.0469 43.8036 62.2890 0.0000 28.2116 0.0000
# 4 0.0000 0.0000 0.0000 8.2521 0.0000 3.6349
# 5 18.4318 10.0640 28.2116 0.0000 37.9568 0.0000
# 6 0.0000 0.0000 0.0000 3.6349 0.0000 34.4790
#
#
#
# Elastic Compliance Matrix: (Units=1/GPa)
#
#
# Indices 1 2 3 4 5 6 
#
# 1 0.019078 -0.007650 -0.000361 0.000000 -0.006967 0.000000
# 2 -0.007650 0.011587 -0.007344 0.000000 0.006101 0.000000
# 3 -0.000361 -0.007344 0.030791 0.000000 -0.020763 0.000000
# 4 0.000000 0.000000 0.000000 0.127083 0.000000 -0.013397
# 5 -0.006967 0.006101 -0.020763 0.000000 0.043544 0.000000
# 6 0.000000 0.000000 0.000000 -0.013397 0.000000 0.030416
#
#
# Mechanical properties :
#
#
# Convention : Reuss Voigt Hill
#
# Bulk Modulus (GPa) = 32.52534 64.08858 48.30696
# Shear Modulus (GPa) = 16.47682 26.93171 21.70426
#
# Velocity S-wave (km/s) = 2.84321 3.63500 3.26321
# Velocity P-wave (km/s) = 5.17070 7.00435 6.15617
#
# Compressibility (1/GPa) = 0.03074526
#
# Stress axis : x y z
#
# Youngs Moduli (GPa) = 52.41687 86.30546 32.47675
#
# Poissons Ratio (x) = 0.66021 0.01174
# Poissons Ratio (y) = 0.40097 0.23852
# Poissons Ratio (z) = 0.01894 0.63385
#
# Static dielectric constant tensor:
#      x y z
#    x 3.784050 0.000000 0.252710 
#    y 0.000000 3.896460 0.000000 
#    z 0.252710 0.000000 3.479970 
# 
# 
# High freq. dielectric constant tensor:
#      x y z
#    x 1.800260 0.000000 0.016780 
#    y 0.000000 1.800550 0.000000 
#    z 0.016780 0.000000 1.769600 
# 
# From -- ./inp_files/42157.got.cif
#   From: 2010.06.25/outbox.cif.g09.slc.cpg/sg10_22_cif.got.tgz:42157.got - 2010.06.27 22:07:45.
