data_PCOD8065588
_publ_section_title
;
Structure prediction by ZEFSAII (Michael W. Deem and Ramdas Pophale) SiO2 
 PCOD8065588
Probable space group: P 2/M
;
_chemical_formula_sum "Si O2"
_cell_formula_units_Z 28
_cell_length_a 12.447299
_cell_length_b 8.837405
_cell_length_c 13.781468
_cell_angle_alpha 90.000000
_cell_angle_beta 63.087091
_cell_angle_gamma 90.000000
_cell_volume 1351.798534
_symmetry_space_group_name_H-M "P 2/M"
_symmetry_group_IT_number 10
_symmetry_cell_setting 'monoclinic'
loop_
_space_group_symop_operation_xyz
x,y,z
-x,y,-z
-x,-y,-z
x,-y,z
loop_
_atom_site_type_symbol
_atom_site_label
_atom_site_fract_x
_atom_site_fract_y
_atom_site_fract_z
Si Si1 0.623855 0.179517 0.262989
Si Si2 0.984538 0.166135 0.894279
Si Si3 0.185786 0.320935 0.690737
Si Si4 0.370935 0.837953 0.086090
Si Si5 0.641130 0.177231 0.687458
Si Si6 0.254607 0.673990 0.972385
Si Si7 0.123700 0.321015 0.499743
O O1 0.682971 0.249933 0.336667
O O2 0.483546 0.229909 0.313786
O O3 0.699164 0.233007 0.138676
O O4 0.635000 0.000000 0.262736
O O5 0.095069 0.261860 0.808710
O O6 0.976533 0.000000 0.846753
O O7 0.867129 0.265940 0.929123
O O8 0.000000 0.138884 0.000000
O O9 0.197430 0.500000 0.691306
O O10 0.134907 0.267970 0.607049
O O11 0.368520 0.778500 0.196560
O O12 0.296603 0.000000 0.106808
O O13 0.500000 0.888372 0.000000
O O14 0.339255 0.698158 0.029845
O O15 0.757065 0.263165 0.601083
O O16 0.659713 0.000000 0.663448
O O17 0.244639 0.500000 0.945777
O O18 0.122310 0.500000 0.492687
O O19 0.000000 0.257379 0.500000
#
# Coordination Sequence:
#
# PCOD8065588 Si02
#       7
#     4   4   4   4   4   4   4
#     4  11  22  41  65  93 130 167 209 261 316 375
#     4  11  23  39  62  91 126 169 209 251 314 378
#     4  11  24  42  65  95 127 165 214 264 319 375
#     4  10  20  39  62  89 129 169 208 253 309 373
#     4  10  23  42  67  95 123 166 217 263 309 371
#     4  12  24  36  57  92 131 169 209 257 313 377
#     4  10  25  48  68  90 126 166 206 261 321 379
#
# _framework density 20.713145999999998
#
# number of rings (size 3 to 8) (size 9 to 14) (size 15 to 20)
#    0.000    1.286    2.857    2.571    2.000    4.571 
#    0.000    2.857    0.000    0.000    0.000    0.000 
#    0.000    0.000    0.000    0.000    0.000    0.000 
#
# Total GULP energy -346978.035805 kJ/mol
# GULP energy per Si atom -12392.072707 kJ/mol
# Density = 2.066600 g / cm^3
# Si number density = 20.713146 Si / 1000 Ang^3
#
#
#
# Elastic Constant Matrix: (Units=GPa)
#
#
# Indices 1 2 3 4 5 6 
#
# 1 147.2906 40.7714 58.0428 0.0000 6.6872 0.0000
# 2 40.7714 75.5012 26.6077 0.0000 5.2715 0.0000
# 3 58.0428 26.6077 102.3582 0.0000 -0.4401 0.0000
# 4 0.0000 0.0000 0.0000 15.9205 0.0000 -0.9859
# 5 6.6872 5.2715 -0.4401 0.0000 36.8859 0.0000
# 6 0.0000 0.0000 0.0000 -0.9859 0.0000 36.0654
#
#
#
# Elastic Compliance Matrix: (Units=1/GPa)
#
#
# Indices 1 2 3 4 5 6 
#
# 1 0.009607 -0.003496 -0.004544 0.000000 -0.001296 0.000000
# 2 -0.003496 0.016022 -0.002190 0.000000 -0.001682 0.000000
# 3 -0.004544 -0.002190 0.012921 0.000000 0.001291 0.000000
# 4 0.000000 0.000000 0.000000 0.062919 0.000000 0.001720
# 5 -0.001296 -0.001682 0.001291 0.000000 0.027601 0.000000
# 6 0.000000 0.000000 0.000000 0.001720 0.000000 0.027774
#
#
# Mechanical properties :
#
#
# Convention : Reuss Voigt Hill
#
# Bulk Modulus (GPa) = 55.27929 63.99930 59.63929
# Shear Modulus (GPa) = 27.27271 31.08959 29.18115
#
# Velocity S-wave (km/s) = 3.63255 3.87842 3.75750
# Velocity P-wave (km/s) = 6.65882 7.14291 6.90511
#
# Compressibility (1/GPa) = 0.01808996
#
# Stress axis : x y z
#
# Youngs Moduli (GPa) = 104.09549 62.41553 77.39166
#
# Poissons Ratio (x) = 0.21818 0.35169
# Poissons Ratio (y) = 0.36388 0.16947
# Poissons Ratio (z) = 0.47305 0.13668
#
# Static dielectric constant tensor:
#      x y z
#    x 4.105240 0.000000 0.073630 
#    y 0.000000 3.660730 0.000000 
#    z 0.073630 0.000000 3.234060 
# 
# 
# High freq. dielectric constant tensor:
#      x y z
#    x 1.824260 0.000000 0.000290 
#    y 0.000000 1.810080 0.000000 
#    z 0.000290 0.000000 1.800000 
# 
# From -- ./inp_files/63676.got.cif
#   From: 2010.06.25/outbox.cif.g09.slc.cpg/sg10_32_cif.got.tgz:63676.got - 2010.06.27 22:07:45.
