data_PCOD8065862
_publ_section_title
;
Structure prediction by ZEFSAII (Michael W. Deem and Ramdas Pophale) SiO2 
 PCOD8065862
Probable space group: P 2/M
;
_chemical_formula_sum "Si O2"
_cell_formula_units_Z 32
_cell_length_a 24.962193
_cell_length_b 9.085478
_cell_length_c 15.412712
_cell_angle_alpha 90.000000
_cell_angle_beta 149.500604
_cell_angle_gamma 90.000000
_cell_volume 1774.069720
_symmetry_space_group_name_H-M "P 2/M"
_symmetry_group_IT_number 10
_symmetry_cell_setting 'monoclinic'
loop_
_space_group_symop_operation_xyz
x,y,z
-x,y,-z
-x,-y,-z
x,-y,z
loop_
_atom_site_type_symbol
_atom_site_label
_atom_site_fract_x
_atom_site_fract_y
_atom_site_fract_z
Si Si1 0.188293 0.828799 0.087342
Si Si2 0.928907 0.671226 0.320433
Si Si3 0.447100 0.829076 0.833993
Si Si4 0.238213 0.328557 0.500577
Si Si5 0.011719 0.328948 0.248189
Si Si6 0.272150 0.827423 0.016029
Si Si7 0.299344 0.333571 0.394016
Si Si8 0.528839 0.328793 0.783677
O O1 0.248853 0.789306 0.083399
O O2 0.259907 0.777357 0.266435
O O3 0.167644 0.000000 0.067174
O O4 0.074460 0.751773 0.931286
O O5 0.898262 0.500000 0.283572
O O6 0.994438 0.706359 0.325120
O O7 0.000000 0.721330 0.500000
O O8 0.822100 0.765513 0.175065
O O9 0.329296 0.764700 0.673753
O O10 0.518145 0.745476 0.862603
O O11 0.441769 0.000000 0.801416
O O12 0.500000 0.803003 0.000000
O O13 0.259129 0.500000 0.550271
O O14 0.237098 0.301443 0.395995
O O15 0.127544 0.272184 0.384343
O O16 0.000730 0.500000 0.211944
O O17 0.379509 0.746974 0.142494
O O18 0.283544 0.000000 0.014919
O O19 0.278511 0.500000 0.333607
O O20 0.422990 0.305984 0.580766
O O21 0.553995 0.500000 0.832987
#
# Coordination Sequence:
#
# PCOD8065862 Si02
#       8
#     4   4   4   4   4   4   4   4
#     4  10  21  35  52  76 105 137 172 210 259 316
#     4   9  18  33  53  78 105 135 175 217 256 304
#     4  10  21  36  54  79 110 141 172 210 259 310
#     4   9  19  35  54  77 103 137 179 217 258 306
#     4   9  18  34  54  74 102 137 172 214 258 303
#     4  10  21  36  53  76 107 139 171 212 262 314
#     4   9  19  35  53  74 101 133 172 217 262 308
#     4  10  21  37  57  79 103 136 177 217 257 305
#
# _framework density 18.037623
#
# number of rings (size 3 to 8) (size 9 to 14) (size 15 to 20)
#    0.000    2.500    0.000    2.250    0.000    7.750 
#    0.000    6.250    0.000    0.000    0.000    0.000 
#    0.000    0.000    0.000    0.000    0.000    0.000 
#
# Total GULP energy -396918.583175 kJ/mol
# GULP energy per Si atom -12403.705724 kJ/mol
# Density = 1.799657 g / cm^3
# Si number density = 18.037623 Si / 1000 Ang^3
#
#
#
# Elastic Constant Matrix: (Units=GPa)
#
#
# Indices 1 2 3 4 5 6 
#
# 1 92.7707 53.6713 69.5052 0.0000 19.0195 0.0000
# 2 53.6713 89.0551 60.2802 0.0000 5.7327 0.0000
# 3 69.5052 60.2802 110.3021 0.0000 2.2822 0.0000
# 4 0.0000 0.0000 0.0000 20.8950 0.0000 -4.9353
# 5 19.0195 5.7327 2.2822 0.0000 34.4795 0.0000
# 6 0.0000 0.0000 0.0000 -4.9353 0.0000 27.1968
#
#
#
# Elastic Compliance Matrix: (Units=1/GPa)
#
#
# Indices 1 2 3 4 5 6 
#
# 1 0.027201 -0.006562 -0.013284 0.000000 -0.013034 0.000000
# 2 -0.006562 0.019592 -0.006589 0.000000 0.000798 0.000000
# 3 -0.013284 -0.006589 0.020892 0.000000 0.007040 0.000000
# 4 0.000000 0.000000 0.000000 0.050002 0.000000 0.009074
# 5 -0.013034 0.000798 0.007040 0.000000 0.035594 0.000000
# 6 0.000000 0.000000 0.000000 0.009074 0.000000 0.038416
#
#
# Mechanical properties :
#
#
# Convention : Reuss Voigt Hill
#
# Bulk Modulus (GPa) = 67.50031 73.22678 70.36354
# Shear Modulus (GPa) = 20.03977 23.75900 21.89938
#
# Velocity S-wave (km/s) = 3.33678 3.63325 3.48817
# Velocity P-wave (km/s) = 7.23524 7.63449 7.43755
#
# Compressibility (1/GPa) = 0.01481475
#
# Stress axis : x y z
#
# Youngs Moduli (GPa) = 36.76389 51.04060 47.86574
#
# Poissons Ratio (x) = 0.33494 0.63585
# Poissons Ratio (y) = 0.24125 0.31537
# Poissons Ratio (z) = 0.48837 0.33628
#
# Static dielectric constant tensor:
#      x y z
#    x 3.373820 0.000000 0.092370 
#    y 0.000000 3.369450 0.000000 
#    z 0.092370 0.000000 3.314760 
# 
# 
# High freq. dielectric constant tensor:
#      x y z
#    x 1.698500 0.000000 0.004080 
#    y 0.000000 1.703290 0.000000 
#    z 0.004080 0.000000 1.700530 
# 
# From -- ./inp_files/71422.got.cif
#   From: 2010.06.25/outbox.cif.g09.slc.cpg/sg10_36_cif.got.tgz:71422.got - 2010.06.27 22:07:45.
