data_PCOD8065013
_publ_section_title
;
Structure prediction by ZEFSAII (Michael W. Deem and Ramdas Pophale) SiO2 
 PCOD8065013
Probable space group: P 2/M
;
_chemical_formula_sum "Si O2"
_cell_formula_units_Z 32
_cell_length_a 17.790278
_cell_length_b 15.127145
_cell_length_c 11.503839
_cell_angle_alpha 90.000000
_cell_angle_beta 31.181126
_cell_angle_gamma 90.000000
_cell_volume 1602.871074
_symmetry_space_group_name_H-M "P 2/M"
_symmetry_group_IT_number 10
_symmetry_cell_setting 'monoclinic'
loop_
_space_group_symop_operation_xyz
x,y,z
-x,y,-z
-x,-y,-z
x,-y,z
loop_
_atom_site_type_symbol
_atom_site_label
_atom_site_fract_x
_atom_site_fract_y
_atom_site_fract_z
Si Si1 0.341815 0.155419 0.254928
Si Si2 0.568016 0.097463 0.628802
Si Si3 0.754499 0.899890 0.861354
Si Si4 0.144949 0.254045 0.129057
Si Si5 0.172788 0.325200 0.500017
Si Si6 0.827629 0.597554 0.738674
Si Si7 0.837341 0.601002 0.243262
Si Si8 0.653011 0.256825 0.352093
O O1 0.348403 0.091630 0.358066
O O2 0.247532 0.113410 0.275478
O O3 0.277629 0.245177 0.390202
O O4 0.500000 0.177487 0.000000
O O5 0.635255 0.169896 0.454524
O O6 0.582080 0.000000 0.552622
O O7 0.400734 0.120736 0.875256
O O8 0.867524 0.831785 0.770486
O O9 0.804873 0.000000 0.820167
O O10 0.224789 0.333513 0.093986
O O11 0.987158 0.285739 0.302223
O O12 0.236464 0.229451 0.895112
O O13 0.233433 0.373992 0.305541
O O14 0.181233 0.394458 0.593609
O O15 0.769781 0.500000 0.848657
O O16 0.000000 0.597689 0.500000
O O17 0.814882 0.500000 0.231490
O O18 0.718561 0.661487 0.337015
O O19 0.000000 0.634191 0.000000
O O20 0.500000 0.286761 0.500000
#
# Coordination Sequence:
#
# PCOD8065013 Si02
#       8
#     4   4   4   4   4   4   4   4
#     4  10  20  36  63  88 118 158 204 254 303 358
#     4  10  21  38  63  89 115 161 212 249 297 366
#     4  10  20  37  60  89 123 160 202 248 302 367
#     4  11  22  36  59  92 123 160 201 249 309 365
#     4  11  20  38  66  87 119 158 206 249 305 364
#     4   9  19  35  59  87 114 149 196 245 293 358
#     4  11  24  43  67  91 120 166 212 251 302 370
#     4  12  24  40  64  90 127 163 202 259 311 358
#
# _framework density 19.964176999999999
#
# number of rings (size 3 to 8) (size 9 to 14) (size 15 to 20)
#    0.000    1.500    5.000    0.750    0.000    3.500 
#    0.000    1.875    0.000    1.875    0.000    0.000 
#    0.000    0.000    0.000    0.000    0.000    0.000 
#
# Total GULP energy -396773.785646 kJ/mol
# GULP energy per Si atom -12399.180801 kJ/mol
# Density = 1.991874 g / cm^3
# Si number density = 19.964177 Si / 1000 Ang^3
#
#
#
# Elastic Constant Matrix: (Units=GPa)
#
#
# Indices 1 2 3 4 5 6 
#
# 1 110.6576 46.7707 29.6446 0.0000 6.4515 0.0000
# 2 46.7707 133.9317 31.9992 0.0000 1.8144 0.0000
# 3 29.6446 31.9992 50.9863 0.0000 15.4568 0.0000
# 4 0.0000 0.0000 0.0000 26.2126 0.0000 3.1998
# 5 6.4515 1.8144 15.4568 0.0000 27.9774 0.0000
# 6 0.0000 0.0000 0.0000 3.1998 0.0000 20.4222
#
#
#
# Elastic Compliance Matrix: (Units=1/GPa)
#
#
# Indices 1 2 3 4 5 6 
#
# 1 0.011569 -0.002842 -0.005033 0.000000 0.000297 0.000000
# 2 -0.002842 0.009692 -0.005332 0.000000 0.002972 0.000000
# 3 -0.005033 -0.005332 0.030545 0.000000 -0.015369 0.000000
# 4 0.000000 0.000000 0.000000 0.038894 0.000000 -0.006094
# 5 0.000297 0.002972 -0.015369 0.000000 0.043973 0.000000
# 6 0.000000 0.000000 0.000000 -0.006094 0.000000 0.049921
#
#
# Mechanical properties :
#
#
# Convention : Reuss Voigt Hill
#
# Bulk Modulus (GPa) = 39.38088 56.93386 48.15737
# Shear Modulus (GPa) = 22.78196 27.39983 25.09090
#
# Velocity S-wave (km/s) = 3.38174 3.70868 3.54898
# Velocity P-wave (km/s) = 5.91750 6.84974 6.40062
#
# Compressibility (1/GPa) = 0.02539303
#
# Stress axis : x y z
#
# Youngs Moduli (GPa) = 86.43853 103.17303 32.73843
#
# Poissons Ratio (x) = 0.29317 0.16478
# Poissons Ratio (y) = 0.24562 0.17456
# Poissons Ratio (z) = 0.43506 0.55012
#
# Static dielectric constant tensor:
#      x y z
#    x 3.789700 0.000000 0.146190 
#    y 0.000000 3.650060 0.000000 
#    z 0.146190 0.000000 3.449800 
# 
# 
# High freq. dielectric constant tensor:
#      x y z
#    x 1.786130 0.000000 0.013620 
#    y 0.000000 1.783470 0.000000 
#    z 0.013620 0.000000 1.756470 
# 
# From -- ./inp_files/54004.got.cif
#   From: 2010.06.25/outbox.cif.g09.slc.cpg/sg10_28_cif.got.tgz:54004.got - 2010.06.27 22:07:45.
