data_PCOD8065964
_publ_section_title
;
Structure prediction by ZEFSAII (Michael W. Deem and Ramdas Pophale) SiO2 
 PCOD8065964
Probable space group: P 2/M
;
_chemical_formula_sum "Si O2"
_cell_formula_units_Z 32
_cell_length_a 26.027615
_cell_length_b 8.773553
_cell_length_c 20.129624
_cell_angle_alpha 90.000000
_cell_angle_beta 21.306543
_cell_angle_gamma 90.000000
_cell_volume 1670.243607
_symmetry_space_group_name_H-M "P 2/M"
_symmetry_group_IT_number 10
_symmetry_cell_setting 'monoclinic'
loop_
_space_group_symop_operation_xyz
x,y,z
-x,y,-z
-x,-y,-z
x,-y,z
loop_
_atom_site_type_symbol
_atom_site_label
_atom_site_fract_x
_atom_site_fract_y
_atom_site_fract_z
Si Si1 0.157938 0.676129 0.789418
Si Si2 0.663242 0.324192 0.296305
Si Si3 0.604396 0.679486 0.125194
Si Si4 0.892740 0.818986 0.390008
Si Si5 0.300551 0.179437 0.495255
Si Si6 0.906292 0.180642 0.519753
Si Si7 0.209193 0.180429 0.204956
Si Si8 0.208574 0.820871 0.985218
O O1 0.167937 0.500000 0.755462
O O2 0.262568 0.711459 0.723695
O O3 0.199524 0.783522 0.678515
O O4 0.000000 0.720455 0.000000
O O5 0.500000 0.281319 0.500000
O O6 0.683341 0.500000 0.250993
O O7 0.731040 0.216924 0.159506
O O8 0.606028 0.500000 0.123976
O O9 0.446725 0.734659 0.328248
O O10 0.702818 0.738900 0.065002
O O11 0.657681 0.738816 0.989499
O O12 0.775698 0.758392 0.479670
O O13 0.855373 0.757759 0.509308
O O14 0.892937 0.000000 0.388911
O O15 0.047713 0.760641 0.182210
O O16 0.328158 0.000000 0.458517
O O17 0.800781 0.234082 0.705736
O O18 0.066371 0.235816 0.340273
O O19 0.910307 0.000000 0.515781
O O20 0.230110 0.000000 0.174008
O O21 0.217513 0.000000 0.987850
#
# Coordination Sequence:
#
# PCOD8065964 Si02
#       8
#     4   4   4   4   4   4   4   4
#     4  10  21  38  58  80 112 153 188 224 277 344
#     4  10  21  36  53  76 109 146 182 223 275 332
#     4  12  24  38  55  80 118 157 189 230 283 340
#     4   9  18  34  57  87 115 140 179 235 288 328
#     4  11  23  38  59  84 113 150 193 239 281 331
#     4   8  14  29  57  88 115 142 180 233 284 329
#     4   9  16  31  59  87 111 146 188 231 278 331
#     4  11  21  36  61  87 111 139 183 238 283 334
#
# _framework density 19.158882999999999
#
# number of rings (size 3 to 8) (size 9 to 14) (size 15 to 20)
#    0.000    2.000    1.250    4.125    0.000    2.000 
#    0.000    3.750    0.000    3.750    0.000    0.000 
#    0.000    0.000    0.000    0.000    0.000    0.000 
#
# Total GULP energy -396822.051219 kJ/mol
# GULP energy per Si atom -12400.689101 kJ/mol
# Density = 1.911528 g / cm^3
# Si number density = 19.158883 Si / 1000 Ang^3
#
#
#
# Elastic Constant Matrix: (Units=GPa)
#
#
# Indices 1 2 3 4 5 6 
#
# 1 102.8503 29.1333 36.2608 0.0000 7.1950 0.0000
# 2 29.1333 64.8766 22.7626 0.0000 1.3592 0.0000
# 3 36.2608 22.7626 64.2278 0.0000 2.6171 0.0000
# 4 0.0000 0.0000 0.0000 24.6302 0.0000 -5.7545
# 5 7.1950 1.3592 2.6171 0.0000 36.8380 0.0000
# 6 0.0000 0.0000 0.0000 -5.7545 0.0000 15.0447
#
#
#
# Elastic Compliance Matrix: (Units=1/GPa)
#
#
# Indices 1 2 3 4 5 6 
#
# 1 0.013011 -0.003714 -0.005948 0.000000 -0.001982 0.000000
# 2 -0.003714 0.018664 -0.004533 0.000000 0.000359 0.000000
# 3 -0.005948 -0.004533 0.020540 0.000000 -0.000130 0.000000
# 4 0.000000 0.000000 0.000000 0.044585 0.000000 0.017053
# 5 -0.001982 0.000359 -0.000130 0.000000 0.027529 0.000000
# 6 0.000000 0.000000 0.000000 0.017053 0.000000 0.072991
#
#
# Mechanical properties :
#
#
# Convention : Reuss Voigt Hill
#
# Bulk Modulus (GPa) = 41.97319 45.36311 43.66815
# Shear Modulus (GPa) = 21.39940 24.88910 23.14425
#
# Velocity S-wave (km/s) = 3.34570 3.60820 3.47942
# Velocity P-wave (km/s) = 6.07293 6.40995 6.24371
#
# Compressibility (1/GPa) = 0.02382473
#
# Stress axis : x y z
#
# Youngs Moduli (GPa) = 76.85999 53.57778 48.68662
#
# Poissons Ratio (x) = 0.19899 0.28961
# Poissons Ratio (y) = 0.28546 0.22068
# Poissons Ratio (z) = 0.45719 0.24285
#
# Static dielectric constant tensor:
#      x y z
#    x 3.833760 0.000000 0.110490 
#    y 0.000000 3.253480 0.000000 
#    z 0.110490 0.000000 3.609830 
# 
# 
# High freq. dielectric constant tensor:
#      x y z
#    x 1.755240 0.000000 0.010380 
#    y 0.000000 1.717790 0.000000 
#    z 0.010380 0.000000 1.748680 
# 
# From -- ./inp_files/86866.got.cif
#   From: 2010.06.25/outbox.cif.g09.slc.cpg/sg10_44_cif.got.tgz:86866.got - 2010.06.27 22:07:45.
