data_PCOD8065717
_publ_section_title
;
Structure prediction by ZEFSAII (Michael W. Deem and Ramdas Pophale) SiO2 
 PCOD8065717
Probable space group: P 2/M
;
_chemical_formula_sum "Si O2"
_cell_formula_units_Z 24
_cell_length_a 19.228805
_cell_length_b 7.872776
_cell_length_c 9.441502
_cell_angle_alpha 90.000000
_cell_angle_beta 60.067372
_cell_angle_gamma 90.000000
_cell_volume 1238.643555
_symmetry_space_group_name_H-M "P 2/M"
_symmetry_group_IT_number 10
_symmetry_cell_setting 'monoclinic'
loop_
_space_group_symop_operation_xyz
x,y,z
-x,y,-z
-x,-y,-z
x,-y,z
loop_
_atom_site_type_symbol
_atom_site_label
_atom_site_fract_x
_atom_site_fract_y
_atom_site_fract_z
Si Si1 0.856991 0.693374 0.818902
Si Si2 0.591713 0.000000 0.236764
Si Si3 0.869714 0.201153 0.496143
Si Si4 0.307741 0.187169 0.323814
Si Si5 0.327619 0.305915 0.007365
Si Si6 0.402185 0.000000 0.443960
Si Si7 0.999302 0.806614 0.847168
O O1 0.867502 0.500000 0.852907
O O2 0.889236 0.720202 0.628219
O O3 0.910370 0.802062 0.871967
O O4 0.764349 0.748743 0.925438
O O5 0.618486 0.173152 0.133213
O O6 0.496458 0.000000 0.330221
O O7 0.623858 0.000000 0.365516
O O8 0.779644 0.256511 0.539401
O O9 0.933888 0.281232 0.321405
O O10 0.880302 0.000000 0.494938
O O11 0.365817 0.169150 0.402658
O O12 0.294562 0.000000 0.268811
O O13 0.345903 0.299156 0.158504
O O14 0.344975 0.500000 0.939724
O O15 0.026224 0.000000 0.840641
O O16 0.000000 0.715490 0.000000
#
# Coordination Sequence:
#
# PCOD8065717 Si02
#       7
#     4   2   4   4   4   2   4
#     4  10  21  35  52  77 105 140 185 228 278 329
#     4  11  21  39  61  86 123 154 183 235 284 349
#     4   9  17  32  54  75 100 137 181 226 270 322
#     4   8  16  35  58  80 111 146 187 238 282 335
#     4  10  21  37  60  89 115 149 195 240 290 340
#     4   9  21  37  61  88 115 156 193 219 290 355
#     4  10  21  33  48  76 109 141 187 225 269 328
#
# _framework density 19.376035000000002
#
# number of rings (size 3 to 8) (size 9 to 14) (size 15 to 20)
#    0.500    2.000    0.833    1.000    2.333    5.667 
#    0.000    4.167    0.000    4.000    0.000    0.000 
#    0.000    0.000    0.000    0.000    0.000    0.000 
#
# Total GULP energy -297430.836582 kJ/mol
# GULP energy per Si atom -12392.951524 kJ/mol
# Density = 1.933193 g / cm^3
# Si number density = 19.376035 Si / 1000 Ang^3
#
#
#
# Elastic Constant Matrix: (Units=GPa)
#
#
# Indices 1 2 3 4 5 6 
#
# 1 113.8744 11.1464 45.6725 0.0000 19.3339 0.0000
# 2 11.1464 54.9845 25.3356 0.0000 -1.3447 0.0000
# 3 45.6725 25.3356 84.2503 0.0000 8.3140 0.0000
# 4 0.0000 0.0000 0.0000 2.2091 0.0000 -11.4262
# 5 19.3339 -1.3447 8.3140 0.0000 24.0938 0.0000
# 6 0.0000 0.0000 0.0000 -11.4262 0.0000 -0.7176
#
#
#
# Elastic Compliance Matrix: (Units=1/GPa)
#
#
# Indices 1 2 3 4 5 6 
#
# 1 0.012552 0.000037 -0.006027 0.000000 -0.007990 0.000000
# 2 0.000037 0.021399 -0.006802 0.000000 0.003512 0.000000
# 3 -0.006027 -0.006802 0.017333 0.000000 -0.001524 0.000000
# 4 0.000000 0.000000 0.000000 0.005431 0.000000 -0.086468
# 5 -0.007990 0.003512 -0.001524 0.000000 0.048638 0.000000
# 6 0.000000 0.000000 0.000000 -0.086468 0.000000 -0.016718
#
#
# Mechanical properties :
#
#
# Convention : Reuss Voigt Hill
#
# Bulk Modulus (GPa) = 38.91000 46.37979 42.64489
# Shear Modulus (GPa) = 40.72136 16.51404 28.61770
#
# Velocity S-wave (km/s) = 4.58933 2.92257 3.84730
# Velocity P-wave (km/s) = 6.94318 5.94787 6.46471
#
# Compressibility (1/GPa) = 0.02570034
#
# Stress axis : x y z
#
# Youngs Moduli (GPa) = 79.66892 46.73018 57.69473
#
# Poissons Ratio (x) = -0.00174 0.34774
# Poissons Ratio (y) = -0.00297 0.39244
# Poissons Ratio (z) = 0.48018 0.31786
#
# Static dielectric constant tensor:
#      x y z
#    x 3.450210 0.000000 -0.013260 
#    y 0.000000 3.259450 0.000000 
#    z -0.013260 0.000000 3.644840 
# 
# 
# High freq. dielectric constant tensor:
#      x y z
#    x 1.747580 0.000000 -0.002210 
#    y 0.000000 1.731260 0.000000 
#    z -0.002210 0.000000 1.749200 
# 
# From -- ./inp_files/33823.got.cif
#   From: 2010.06.25/outbox.cif.g09.slc.cpg/sg10_17_cif.got.tgz:33823.got - 2010.06.27 22:07:45.
