data_PCOD8065270
_publ_section_title
;
Structure prediction by ZEFSAII (Michael W. Deem and Ramdas Pophale) SiO2 
 PCOD8065270
Probable space group: P 2/M
;
_chemical_formula_sum "Si O2"
_cell_formula_units_Z 24
_cell_length_a 12.823343
_cell_length_b 15.441807
_cell_length_c 10.425747
_cell_angle_alpha 90.000000
_cell_angle_beta 144.317037
_cell_angle_gamma 90.000000
_cell_volume 1204.199166
_symmetry_space_group_name_H-M "P 2/M"
_symmetry_group_IT_number 10
_symmetry_cell_setting 'monoclinic'
loop_
_space_group_symop_operation_xyz
x,y,z
-x,y,-z
-x,-y,-z
x,-y,z
loop_
_atom_site_type_symbol
_atom_site_label
_atom_site_fract_x
_atom_site_fract_y
_atom_site_fract_z
Si Si1 0.258598 0.814544 0.520187
Si Si2 0.655175 0.000000 0.471043
Si Si3 0.635515 0.596655 0.017596
Si Si4 0.450009 0.298098 0.312694
Si Si5 0.198712 0.761779 0.730060
Si Si6 0.252308 0.000000 0.143913
Si Si7 0.853175 0.180082 0.060910
O O1 0.398067 0.773887 0.560852
O O2 0.315125 0.781300 0.719709
O O3 0.056937 0.786211 0.279765
O O4 0.274548 0.917719 0.536449
O O5 0.441887 0.000000 0.263895
O O6 0.737156 0.000000 0.693784
O O7 0.711916 0.500000 0.071649
O O8 0.547513 0.628923 0.795771
O O9 0.500000 0.596500 0.000000
O O10 0.792692 0.661488 0.216752
O O11 0.500000 0.341225 0.500000
O O12 0.258833 0.248755 0.136538
O O13 0.251224 0.820895 0.905299
O O14 0.000000 0.788401 0.500000
O O15 0.142270 0.915198 0.993912
#
# Coordination Sequence:
#
# PCOD8065270 Si02
#       7
#     4   2   4   4   4   2   4
#     4  11  21  38  57  83 115 152 193 238 286 329
#     4  11  23  34  55  75 114 158 189 236 286 322
#     4  10  20  37  62  87 112 148 188 229 286 349
#     4  11  22  37  59  86 118 152 189 236 283 339
#     4   9  20  38  59  86 112 145 189 237 286 340
#     4  11  21  38  49  79 114 152 201 232 272 342
#     4  10  22  36  58  82 113 151 197 238 279 335
#
# _framework density 19.930257999999998
#
# number of rings (size 3 to 8) (size 9 to 14) (size 15 to 20)
#    0.000    1.667    3.333    1.500    0.000    4.667 
#    0.000    3.333    0.000    0.000    0.000    4.667 
#    0.000    0.000    0.000    0.000    0.000    0.000 
#
# Total GULP energy -297511.116263 kJ/mol
# GULP energy per Si atom -12396.296511 kJ/mol
# Density = 1.988490 g / cm^3
# Si number density = 19.930258 Si / 1000 Ang^3
#
#
#
# Elastic Constant Matrix: (Units=GPa)
#
#
# Indices 1 2 3 4 5 6 
#
# 1 60.3485 23.0668 25.7745 0.0000 -13.3149 0.0000
# 2 23.0668 107.2056 26.5240 0.0000 -13.0626 0.0000
# 3 25.7745 26.5240 73.9840 0.0000 -19.2190 0.0000
# 4 0.0000 0.0000 0.0000 23.6967 0.0000 -1.7865
# 5 -13.3149 -13.0626 -19.2190 0.0000 30.1571 0.0000
# 6 0.0000 0.0000 0.0000 -1.7865 0.0000 17.7996
#
#
#
# Elastic Compliance Matrix: (Units=1/GPa)
#
#
# Indices 1 2 3 4 5 6 
#
# 1 0.020799 -0.002639 -0.005047 0.000000 0.004824 0.000000
# 2 -0.002639 0.010732 -0.002425 0.000000 0.001938 0.000000
# 3 -0.005047 -0.002425 0.018326 0.000000 0.008401 0.000000
# 4 0.000000 0.000000 0.000000 0.042522 0.000000 0.004268
# 5 0.004824 0.001938 0.008401 0.000000 0.041483 0.000000
# 6 0.000000 0.000000 0.000000 0.004268 0.000000 0.056609
#
#
# Mechanical properties :
#
#
# Convention : Reuss Voigt Hill
#
# Bulk Modulus (GPa) = 33.74242 43.58542 38.66392
# Shear Modulus (GPa) = 22.66860 25.40888 24.03874
#
# Velocity S-wave (km/s) = 3.37619 3.57443 3.47672
# Velocity P-wave (km/s) = 5.67144 6.24114 5.96310
#
# Compressibility (1/GPa) = 0.02963629
#
# Stress axis : x y z
#
# Youngs Moduli (GPa) = 48.07981 93.18210 54.56678
#
# Poissons Ratio (x) = 0.24589 0.27539
# Poissons Ratio (y) = 0.12687 0.13230
# Poissons Ratio (z) = 0.24265 0.22593
#
# Static dielectric constant tensor:
#      x y z
#    x 3.726870 0.000000 -0.232960 
#    y 0.000000 3.567940 0.000000 
#    z -0.232960 0.000000 3.760390 
# 
# 
# High freq. dielectric constant tensor:
#      x y z
#    x 1.778820 0.000000 -0.010960 
#    y 0.000000 1.754520 0.000000 
#    z -0.010960 0.000000 1.785510 
# 
# From -- ./inp_files/51726.got.cif
#   From: 2010.06.25/outbox.cif.g09.slc.cpg/sg10_26_cif.got.tgz:51726.got - 2010.06.27 22:07:45.
