data_PCOD8065560
_publ_section_title
;
Structure prediction by ZEFSAII (Michael W. Deem and Ramdas Pophale) SiO2 
 PCOD8065560
Probable space group: P 2/M
;
_chemical_formula_sum "Si O2"
_cell_formula_units_Z 28
_cell_length_a 11.013648
_cell_length_b 9.361987
_cell_length_c 14.756624
_cell_angle_alpha 90.000000
_cell_angle_beta 66.608945
_cell_angle_gamma 90.000000
_cell_volume 1396.503903
_symmetry_space_group_name_H-M "P 2/M"
_symmetry_group_IT_number 10
_symmetry_cell_setting 'monoclinic'
loop_
_space_group_symop_operation_xyz
x,y,z
-x,y,-z
-x,-y,-z
x,-y,z
loop_
_atom_site_type_symbol
_atom_site_label
_atom_site_fract_x
_atom_site_fract_y
_atom_site_fract_z
Si Si1 0.231650 0.660075 0.751606
Si Si2 0.418904 0.663260 0.858258
Si Si3 0.658252 0.836547 0.756143
Si Si4 0.955353 0.658005 0.911016
Si Si5 0.850569 0.167630 0.543025
Si Si6 0.347910 0.169728 0.555243
Si Si7 0.706894 0.164759 0.951200
O O1 0.261761 0.500000 0.706735
O O2 0.288565 0.677166 0.836086
O O3 0.294098 0.774498 0.666325
O O4 0.075536 0.686476 0.806337
O O5 0.453793 0.500000 0.870564
O O6 0.536984 0.734450 0.765134
O O7 0.398801 0.747142 0.958574
O O8 0.786330 0.795085 0.659165
O O9 0.686418 0.808297 0.852068
O O10 0.618012 0.000000 0.747755
O O11 0.893565 0.500000 0.909440
O O12 0.854016 0.784971 0.927391
O O13 0.000000 0.662239 0.000000
O O14 0.751018 0.228254 0.494590
O O15 0.000000 0.234692 0.500000
O O16 0.864031 0.000000 0.522947
O O17 0.500000 0.223784 0.500000
O O18 0.345804 0.000000 0.557385
O O19 0.690006 0.000000 0.982956
#
# Coordination Sequence:
#
# PCOD8065560 Si02
#       7
#     4   4   4   4   4   4   4
#     4  10  22  38  59  85 115 154 192 236 289 342
#     4  11  22  39  60  84 117 158 195 229 286 355
#     4  10  22  39  59  85 117 150 192 243 290 338
#     4  10  20  39  59  79 116 158 194 233 285 348
#     4   9  19  37  60  83 115 156 193 237 298 356
#     4  10  21  37  61  90 115 147 196 248 295 348
#     4  11  23  36  57  89 120 150 192 242 288 337
#
# _framework density 20.050069000000001
#
# number of rings (size 3 to 8) (size 9 to 14) (size 15 to 20)
#    0.000    1.857    1.429    2.143    2.000    6.286 
#    0.000    0.714    0.000    0.857    0.000    0.000 
#    0.000    0.000    0.000    0.000    0.000    0.000 
#
# Total GULP energy -347162.933976 kJ/mol
# GULP energy per Si atom -12398.676213 kJ/mol
# Density = 2.000443 g / cm^3
# Si number density = 20.050069 Si / 1000 Ang^3
#
#
#
# Elastic Constant Matrix: (Units=GPa)
#
#
# Indices 1 2 3 4 5 6 
#
# 1 101.1557 28.9505 41.4622 0.0000 -16.7823 0.0000
# 2 28.9505 58.0154 44.3585 0.0000 -3.1272 0.0000
# 3 41.4622 44.3585 113.7347 0.0000 -14.2114 0.0000
# 4 0.0000 0.0000 0.0000 -1.5783 0.0000 15.3463
# 5 -16.7823 -3.1272 -14.2114 0.0000 30.9232 0.0000
# 6 0.0000 0.0000 0.0000 15.3463 0.0000 7.9341
#
#
#
# Elastic Compliance Matrix: (Units=1/GPa)
#
#
# Indices 1 2 3 4 5 6 
#
# 1 0.013027 -0.004418 -0.002332 0.000000 0.005551 0.000000
# 2 -0.004418 0.026181 -0.009091 0.000000 -0.003928 0.000000
# 3 -0.002332 -0.009091 0.013702 0.000000 0.004112 0.000000
# 4 0.000000 0.000000 0.000000 -0.031988 0.000000 0.061873
# 5 0.005551 -0.003928 0.004112 0.000000 0.036843 0.000000
# 6 0.000000 0.000000 0.000000 0.061873 0.000000 0.006363
#
#
# Mechanical properties :
#
#
# Convention : Reuss Voigt Hill
#
# Bulk Modulus (GPa) = 47.11010 55.82757 51.46884
# Shear Modulus (GPa) = 48.59677 17.99812 33.29744
#
# Velocity S-wave (km/s) = 4.92852 2.99935 4.07961
# Velocity P-wave (km/s) = 7.47893 6.31659 6.92220
#
# Compressibility (1/GPa) = 0.02122687
#
# Stress axis : x y z
#
# Youngs Moduli (GPa) = 76.76241 38.19574 72.98137
#
# Poissons Ratio (x) = 0.16876 0.17021
# Poissons Ratio (y) = 0.33916 0.66349
# Poissons Ratio (z) = 0.17903 0.34724
#
# Static dielectric constant tensor:
#      x y z
#    x 4.463310 0.000000 -0.156220 
#    y 0.000000 3.512780 0.000000 
#    z -0.156220 0.000000 3.654680 
# 
# 
# High freq. dielectric constant tensor:
#      x y z
#    x 1.788080 0.000000 -0.009670 
#    y 0.000000 1.761980 0.000000 
#    z -0.009670 0.000000 1.789550 
# 
# From -- ./inp_files/63392.got.cif
#   From: 2010.06.25/outbox.cif.g09.slc.cpg/sg10_32_cif.got.tgz:63392.got - 2010.06.27 22:07:45.
