data_PCOD8065235
_publ_section_title
;
Structure prediction by ZEFSAII (Michael W. Deem and Ramdas Pophale) SiO2 
 PCOD8065235
Probable space group: P 2/M
;
_chemical_formula_sum "Si O2"
_cell_formula_units_Z 32
_cell_length_a 29.831207
_cell_length_b 9.064562
_cell_length_c 12.654339
_cell_angle_alpha 90.000000
_cell_angle_beta 152.217209
_cell_angle_gamma 90.000000
_cell_volume 1594.981758
_symmetry_space_group_name_H-M "P 2/M"
_symmetry_group_IT_number 10
_symmetry_cell_setting 'monoclinic'
loop_
_space_group_symop_operation_xyz
x,y,z
-x,y,-z
-x,-y,-z
x,-y,z
loop_
_atom_site_type_symbol
_atom_site_label
_atom_site_fract_x
_atom_site_fract_y
_atom_site_fract_z
Si Si1 0.563457 0.831071 0.728758
Si Si2 0.895445 0.326429 0.609033
Si Si3 0.605120 0.326807 0.255702
Si Si4 0.209925 0.169620 0.016614
Si Si5 0.787320 0.830273 0.568512
Si Si6 0.090217 0.169068 0.970265
Si Si7 0.236665 0.673454 0.861872
Si Si8 0.395606 0.166433 0.532301
O O1 0.500000 0.768523 0.500000
O O2 0.658185 0.736153 0.941047
O O3 0.502443 0.817898 0.708841
O O4 0.593089 0.000000 0.766558
O O5 0.892116 0.500000 0.621975
O O6 0.860266 0.245902 0.640585
O O7 0.003949 0.278937 0.813307
O O8 0.830332 0.278295 0.374686
O O9 0.619791 0.500000 0.272972
O O10 0.683116 0.246222 0.344657
O O11 0.619374 0.283348 0.406833
O O12 0.500000 0.275049 0.000000
O O13 0.188830 0.265170 0.868984
O O14 0.319390 0.199518 0.280823
O O15 0.195355 0.000000 0.955711
O O16 0.136199 0.215783 0.954618
O O17 0.776071 0.000000 0.512582
O O18 0.827661 0.811984 0.770630
O O19 0.053424 0.000000 0.891929
O O20 0.244579 0.500000 0.888743
O O21 0.378136 0.000000 0.539789
#
# Coordination Sequence:
#
# PCOD8065235 Si02
#       8
#     4   4   4   4   4   4   4   4
#     4  10  20  37  61  87 117 156 201 246 294 354
#     4  11  26  44  61  89 129 165 202 253 313 372
#     4  11  25  41  59  90 131 167 200 244 304 368
#     4  10  20  40  66  91 123 158 204 259 304 359
#     4  11  23  43  69  94 122 158 209 260 304 364
#     4  10  22  42  68  95 119 152 204 263 313 365
#     4  11  25  41  58  88 129 166 204 251 304 367
#     4  10  20  38  62  89 120 158 206 254 301 359
#
# _framework density 20.062925
#
# number of rings (size 3 to 8) (size 9 to 14) (size 15 to 20)
#    0.000    1.500    2.500    1.875    1.750    7.750 
#    0.000    2.500    0.000    0.000    0.000    0.000 
#    0.000    0.000    0.000    0.000    0.000    0.000 
#
# Total GULP energy -396994.813777 kJ/mol
# GULP energy per Si atom -12406.087931 kJ/mol
# Density = 2.001726 g / cm^3
# Si number density = 20.062925 Si / 1000 Ang^3
#
#
#
# Elastic Constant Matrix: (Units=GPa)
#
#
# Indices 1 2 3 4 5 6 
#
# 1 100.8110 33.1081 17.4518 0.0000 12.4358 0.0000
# 2 33.1081 74.1738 35.5199 0.0000 5.2782 0.0000
# 3 17.4518 35.5199 68.8101 0.0000 14.3311 0.0000
# 4 0.0000 0.0000 0.0000 33.8115 0.0000 7.8579
# 5 12.4358 5.2782 14.3311 0.0000 32.7342 0.0000
# 6 0.0000 0.0000 0.0000 7.8579 0.0000 11.6491
#
#
#
# Elastic Compliance Matrix: (Units=1/GPa)
#
#
# Indices 1 2 3 4 5 6 
#
# 1 0.012077 -0.005362 0.000529 0.000000 -0.003955 0.000000
# 2 -0.005362 0.020338 -0.009771 0.000000 0.003035 0.000000
# 3 0.000529 -0.009771 0.021078 0.000000 -0.007853 0.000000
# 4 0.000000 0.000000 0.000000 0.035074 0.000000 -0.023659
# 5 -0.003955 0.003035 -0.007853 0.000000 0.035000 0.000000
# 6 0.000000 0.000000 0.000000 -0.023659 0.000000 0.101803
#
#
# Mechanical properties :
#
#
# Convention : Reuss Voigt Hill
#
# Bulk Modulus (GPa) = 41.17876 46.21716 43.69796
# Shear Modulus (GPa) = 19.03490 26.15328 22.59409
#
# Velocity S-wave (km/s) = 3.08354 3.61441 3.35947
# Velocity P-wave (km/s) = 5.76602 6.36433 6.07255
#
# Compressibility (1/GPa) = 0.02428436
#
# Stress axis : x y z
#
# Youngs Moduli (GPa) = 82.80194 49.16793 47.44277
#
# Poissons Ratio (x) = 0.26366 -0.02509
# Poissons Ratio (y) = 0.44402 0.46356
# Poissons Ratio (z) = -0.04379 0.48042
#
# Static dielectric constant tensor:
#      x y z
#    x 3.697260 0.000000 0.019980 
#    y 0.000000 3.559350 0.000000 
#    z 0.019980 0.000000 3.628700 
# 
# 
# High freq. dielectric constant tensor:
#      x y z
#    x 1.798440 0.000000 0.004890 
#    y 0.000000 1.778780 0.000000 
#    z 0.004890 0.000000 1.780600 
# 
# From -- ./inp_files/58269.got.cif
#   From: 2010.06.25/outbox.cif.g09.slc.cpg/sg10_30_cif.got.tgz:58269.got - 2010.06.27 22:07:45.
