data_PCOD8065230
_publ_section_title
;
Structure prediction by ZEFSAII (Michael W. Deem and Ramdas Pophale) SiO2 
 PCOD8065230
Probable space group: P 2/M
;
_chemical_formula_sum "Si O2"
_cell_formula_units_Z 28
_cell_length_a 12.169745
_cell_length_b 7.789902
_cell_length_c 15.477065
_cell_angle_alpha 90.000000
_cell_angle_beta 65.669153
_cell_angle_gamma 90.000000
_cell_volume 1336.924914
_symmetry_space_group_name_H-M "P 2/M"
_symmetry_group_IT_number 10
_symmetry_cell_setting 'monoclinic'
loop_
_space_group_symop_operation_xyz
x,y,z
-x,y,-z
-x,-y,-z
x,-y,z
loop_
_atom_site_type_symbol
_atom_site_label
_atom_site_fract_x
_atom_site_fract_y
_atom_site_fract_z
Si Si1 0.441056 0.300064 0.104895
Si Si2 0.666966 0.303221 0.515653
Si Si3 0.654758 0.191549 0.149026
Si Si4 0.395717 0.695467 0.653133
Si Si5 0.832954 0.293346 0.809345
Si Si6 0.110595 0.694573 0.016770
Si Si7 0.826798 0.000000 0.515138
Si Si8 0.945892 0.000000 0.661332
O O1 0.430474 0.500000 0.091976
O O2 0.524921 0.261278 0.159920
O O3 0.305166 0.233871 0.163317
O O4 0.500000 0.214518 0.000000
O O5 0.700245 0.500000 0.528050
O O6 0.681507 0.271998 0.408206
O O7 0.532838 0.258481 0.588634
O O8 0.751109 0.174632 0.539431
O O9 0.656148 0.190805 0.252469
O O10 0.673895 0.000000 0.108844
O O11 0.764754 0.301483 0.076385
O O12 0.384483 0.500000 0.687208
O O13 0.851761 0.500000 0.788169
O O14 0.869552 0.231180 0.893836
O O15 0.913739 0.177771 0.720074
O O16 0.071532 0.500000 0.042837
O O17 0.000000 0.787242 0.000000
O O18 0.889074 0.000000 0.586136
O O19 0.911586 0.000000 0.403111
#
# Coordination Sequence:
#
# PCOD8065230 Si02
#       8
#     4   4   4   4   4   4   2   2
#     4  10  20  37  61  86 122 164 207 259 311 367
#     4   9  21  41  68  94 123 167 209 259 323 381
#     4  12  25  34  57  98 132 167 208 258 317 377
#     4   9  20  39  61  93 130 160 205 262 312 375
#     4  10  23  43  68  94 124 169 215 263 320 373
#     4  10  22  43  65  87 125 174 218 261 306 366
#     4  11  26  45  66  90 126 167 204 266 318 377
#     4  11  28  46  62  92 128 162 211 269 313 372
#
# _framework density 20.943584000000001
#
# number of rings (size 3 to 8) (size 9 to 14) (size 15 to 20)
#    0.000    1.857    1.429    2.143    6.000    3.429 
#    0.000    4.286    0.000    0.000    0.000    0.000 
#    0.000    0.000    0.000    0.000    0.000    0.000 
#
# Total GULP energy -347114.357519 kJ/mol
# GULP energy per Si atom -12396.941340 kJ/mol
# Density = 2.089592 g / cm^3
# Si number density = 20.943584 Si / 1000 Ang^3
#
#
#
# Elastic Constant Matrix: (Units=GPa)
#
#
# Indices 1 2 3 4 5 6 
#
# 1 96.0077 21.8235 18.0001 0.0000 2.2110 0.0000
# 2 21.8235 69.4668 27.4394 0.0000 -8.1733 0.0000
# 3 18.0001 27.4394 104.5985 0.0000 9.5043 0.0000
# 4 0.0000 0.0000 0.0000 33.3779 0.0000 -3.5092
# 5 2.2110 -8.1733 9.5043 0.0000 21.2797 0.0000
# 6 0.0000 0.0000 0.0000 -3.5092 0.0000 15.5111
#
#
#
# Elastic Compliance Matrix: (Units=1/GPa)
#
#
# Indices 1 2 3 4 5 6 
#
# 1 0.011422 -0.003506 -0.000850 0.000000 -0.002154 0.000000
# 2 -0.003506 0.018714 -0.005203 0.000000 0.009876 0.000000
# 3 -0.000850 -0.005203 0.011721 0.000000 -0.007145 0.000000
# 4 0.000000 0.000000 0.000000 0.030690 0.000000 0.006943
# 5 -0.002154 0.009876 -0.007145 0.000000 0.054202 0.000000
# 6 0.000000 0.000000 0.000000 0.006943 0.000000 0.066041
#
#
# Mechanical properties :
#
#
# Convention : Reuss Voigt Hill
#
# Bulk Modulus (GPa) = 43.97910 44.95542 44.46726
# Shear Modulus (GPa) = 22.78038 27.55440 25.16739
#
# Velocity S-wave (km/s) = 3.30161 3.63112 3.47028
# Velocity P-wave (km/s) = 5.96478 6.25233 6.11025
#
# Compressibility (1/GPa) = 0.02273807
#
# Stress axis : x y z
#
# Youngs Moduli (GPa) = 87.55248 53.43583 85.31762
#
# Poissons Ratio (x) = 0.18733 0.07254
# Poissons Ratio (y) = 0.30694 0.44394
# Poissons Ratio (z) = 0.07444 0.27805
#
# Static dielectric constant tensor:
#      x y z
#    x 3.892420 0.000000 0.036230 
#    y 0.000000 3.593110 0.000000 
#    z 0.036230 0.000000 3.784660 
# 
# 
# High freq. dielectric constant tensor:
#      x y z
#    x 1.817410 0.000000 0.008240 
#    y 0.000000 1.814210 0.000000 
#    z 0.008240 0.000000 1.820060 
# 
# From -- ./inp_files/49445.got.cif
#   From: 2010.06.25/outbox.cif.g09.slc.cpg/sg10_25_cif.got.tgz:49445.got - 2010.06.27 22:07:45.
