data_PCOD8065694
_publ_section_title
;
Structure prediction by ZEFSAII (Michael W. Deem and Ramdas Pophale) SiO2 
 PCOD8065694
Probable space group: P 2/M
;
_chemical_formula_sum "Si O2"
_cell_formula_units_Z 32
_cell_length_a 11.979591
_cell_length_b 8.906282
_cell_length_c 15.129057
_cell_angle_alpha 90.000000
_cell_angle_beta 88.548468
_cell_angle_gamma 90.000000
_cell_volume 1613.655823
_symmetry_space_group_name_H-M "P 2/M"
_symmetry_group_IT_number 10
_symmetry_cell_setting 'monoclinic'
loop_
_space_group_symop_operation_xyz
x,y,z
-x,y,-z
-x,-y,-z
x,-y,z
loop_
_atom_site_type_symbol
_atom_site_label
_atom_site_fract_x
_atom_site_fract_y
_atom_site_fract_z
Si Si1 0.769023 0.323126 0.333763
Si Si2 0.627618 0.822655 0.485911
Si Si3 0.724504 0.176031 0.152321
Si Si4 0.266100 0.324289 0.163731
Si Si5 0.126605 0.823107 0.017344
Si Si6 0.228541 0.176272 0.348926
Si Si7 0.993267 0.332736 0.603741
Si Si8 0.479936 0.834738 0.102736
O O1 0.753816 0.500000 0.341623
O O2 0.673250 0.248166 0.394793
O O3 0.765839 0.271989 0.233240
O O4 0.889471 0.269873 0.364771
O O5 0.500000 0.770261 0.500000
O O6 0.698889 0.766615 0.568926
O O7 0.636402 0.000000 0.475647
O O8 0.793893 0.227579 0.064786
O O9 0.594625 0.216016 0.145463
O O10 0.743556 0.000000 0.169134
O O11 0.245671 0.500000 0.167340
O O12 0.271111 0.259621 0.261716
O O13 0.386459 0.289311 0.120211
O O14 0.167206 0.253338 0.107104
O O15 0.134139 0.000000 0.032396
O O16 0.000000 0.772068 0.000000
O O17 0.099442 0.215062 0.364893
O O18 0.242736 0.000000 0.335306
O O19 0.967402 0.500000 0.642573
O O20 0.000000 0.341921 0.500000
O O21 0.442411 0.000000 0.139374
O O22 0.500000 0.850313 0.000000
#
# Coordination Sequence:
#
# PCOD8065694 Si02
#       8
#     4   4   4   4   4   4   4   4
#     4  11  24  40  62  92 127 163 199 248 309 375
#     4  10  23  43  64  89 121 160 208 258 307 360
#     4  10  22  40  64  92 123 161 205 257 304 355
#     4  12  26  41  62  93 130 164 202 254 313 373
#     4  10  22  43  67  92 123 163 212 257 303 363
#     4  11  24  41  65  92 121 162 213 259 302 363
#     4  10  21  41  64  88 124 162 200 252 313 366
#     4  10  20  41  68  89 118 160 209 257 304 358
#
# _framework density 19.830748
#
# number of rings (size 3 to 8) (size 9 to 14) (size 15 to 20)
#    0.000    1.500    2.500    1.875    3.500    3.500 
#    0.000    0.000    0.000    0.000    0.000    0.000 
#    0.000    0.000    0.000    0.000    0.000    0.000 
#
# Total GULP energy -396905.719520 kJ/mol
# GULP energy per Si atom -12403.303735 kJ/mol
# Density = 1.978561 g / cm^3
# Si number density = 19.830748 Si / 1000 Ang^3
#
#
#
# Elastic Constant Matrix: (Units=GPa)
#
#
# Indices 1 2 3 4 5 6 
#
# 1 103.2555 28.4168 17.9944 0.0000 5.2191 0.0000
# 2 28.4168 57.2084 26.3886 0.0000 -0.2374 0.0000
# 3 17.9944 26.3886 82.9616 0.0000 5.2861 0.0000
# 4 0.0000 0.0000 0.0000 50.7307 0.0000 53.0600
# 5 5.2191 -0.2374 5.2861 0.0000 33.4794 0.0000
# 6 0.0000 0.0000 0.0000 53.0600 0.0000 101.6668
#
#
#
# Elastic Compliance Matrix: (Units=1/GPa)
#
#
# Indices 1 2 3 4 5 6 
#
# 1 0.011356 -0.005346 -0.000654 0.000000 -0.001705 0.000000
# 2 -0.005346 0.023049 -0.006299 0.000000 0.001991 0.000000
# 3 -0.000654 -0.006299 0.014340 0.000000 -0.002207 0.000000
# 4 0.000000 0.000000 0.000000 0.043405 0.000000 -0.022653
# 5 -0.001705 0.001991 -0.002207 0.000000 0.030497 0.000000
# 6 0.000000 0.000000 0.000000 -0.022653 0.000000 0.021659
#
#
# Mechanical properties :
#
#
# Convention : Reuss Voigt Hill
#
# Bulk Modulus (GPa) = 41.41290 43.22500 42.31895
# Shear Modulus (GPa) = 28.25590 48.55044 38.40317
#
# Velocity S-wave (km/s) = 3.77882 4.95334 4.40540
# Velocity P-wave (km/s) = 6.32201 7.38636 6.87481
#
# Compressibility (1/GPa) = 0.02414707
#
# Stress axis : x y z
#
# Youngs Moduli (GPa) = 88.05757 43.38519 69.73614
#
# Poissons Ratio (x) = 0.23195 0.04560
# Poissons Ratio (y) = 0.47078 0.43926
# Poissons Ratio (z) = 0.05759 0.27328
#
# Static dielectric constant tensor:
#      x y z
#    x 3.574470 0.000000 0.108130 
#    y 0.000000 3.640570 0.000000 
#    z 0.108130 0.000000 3.679210 
# 
# 
# High freq. dielectric constant tensor:
#      x y z
#    x 1.785660 0.000000 0.004640 
#    y 0.000000 1.763930 0.000000 
#    z 0.004640 0.000000 1.782700 
# 
# From -- ./inp_files/63751.got.cif
#   From: 2010.06.25/outbox.cif.g09.slc.cpg/sg10_32_cif.got.tgz:63751.got - 2010.06.27 22:07:45.
