data_PCOD8065576
_publ_section_title
;
Structure prediction by ZEFSAII (Michael W. Deem and Ramdas Pophale) SiO2 
 PCOD8065576
Probable space group: P 2/M
;
_chemical_formula_sum "Si O2"
_cell_formula_units_Z 32
_cell_length_a 12.458753
_cell_length_b 9.217011
_cell_length_c 32.875223
_cell_angle_alpha 90.000000
_cell_angle_beta 24.813865
_cell_angle_gamma 90.000000
_cell_volume 1584.320778
_symmetry_space_group_name_H-M "P 2/M"
_symmetry_group_IT_number 10
_symmetry_cell_setting 'monoclinic'
loop_
_space_group_symop_operation_xyz
x,y,z
-x,y,-z
-x,-y,-z
x,-y,z
loop_
_atom_site_type_symbol
_atom_site_label
_atom_site_fract_x
_atom_site_fract_y
_atom_site_fract_z
Si Si1 0.237606 0.832568 0.390261
Si Si2 0.741428 0.838929 0.114187
Si Si3 0.011942 0.665502 0.085937
Si Si4 0.054438 0.163792 0.589767
Si Si5 0.063997 0.332818 0.668405
Si Si6 0.370103 0.833729 0.627699
Si Si7 0.704766 0.667442 0.266941
Si Si8 0.499805 0.334197 0.129552
O O1 0.470149 0.729454 0.321813
O O2 0.000000 0.789070 0.500000
O O3 0.166912 0.806502 0.367196
O O4 0.314391 0.000000 0.371736
O O5 0.527855 0.759260 0.160941
O O6 0.795014 0.758718 0.137929
O O7 0.640655 0.000000 0.158792
O O8 0.000000 0.841825 0.000000
O O9 0.970194 0.500000 0.086707
O O10 0.963028 0.683844 0.150916
O O11 0.300895 0.715278 0.974403
O O12 0.325413 0.180798 0.473624
O O13 0.033840 0.279169 0.632726
O O14 0.032166 0.000000 0.614882
O O15 0.150571 0.500000 0.637942
O O16 0.791380 0.314329 0.785449
O O17 0.277379 0.239727 0.617869
O O18 0.243595 0.753537 0.709458
O O19 0.280315 0.000000 0.658661
O O20 0.649989 0.500000 0.296283
O O21 0.552968 0.500000 0.123468
#
# Coordination Sequence:
#
# PCOD8065576 Si02
#       8
#     4   4   4   4   4   4   4   4
#     4  10  20  39  61  85 119 158 194 229 283 352
#     4   9  17  29  49  78 109 142 184 234 280 324
#     4   9  19  36  56  79 113 156 192 226 280 347
#     4  10  22  40  62  86 116 156 194 229 284 357
#     4  11  24  39  60  89 116 147 195 248 291 331
#     4  11  23  43  64  82 112 155 196 234 290 355
#     4  11  23  37  59  90 119 150 195 243 288 335
#     4   9  19  37  56  77 113 155 191 230 282 343
#
# _framework density 20.197929999999999
#
# number of rings (size 3 to 8) (size 9 to 14) (size 15 to 20)
#    0.000    2.000    1.250    1.875    1.750    6.750 
#    0.000    0.625    0.000    3.750    0.000    0.000 
#    0.000    0.000    0.000    0.000    0.000    0.000 
#
# Total GULP energy -396839.402800 kJ/mol
# GULP energy per Si atom -12401.231337 kJ/mol
# Density = 2.015196 g / cm^3
# Si number density = 20.197930 Si / 1000 Ang^3
#
#
#
# Elastic Constant Matrix: (Units=GPa)
#
#
# Indices 1 2 3 4 5 6 
#
# 1 72.2996 37.4058 11.0037 0.0000 11.0640 0.0000
# 2 37.4058 114.4987 26.9664 0.0000 8.3969 0.0000
# 3 11.0037 26.9664 53.5954 0.0000 13.0909 0.0000
# 4 0.0000 0.0000 0.0000 22.2481 0.0000 6.1484
# 5 11.0640 8.3969 13.0909 0.0000 28.1849 0.0000
# 6 0.0000 0.0000 0.0000 6.1484 0.0000 35.9391
#
#
#
# Elastic Compliance Matrix: (Units=1/GPa)
#
#
# Indices 1 2 3 4 5 6 
#
# 1 0.017380 -0.005390 0.000471 0.000000 -0.005436 0.000000
# 2 -0.005390 0.011592 -0.004962 0.000000 0.000967 0.000000
# 3 0.000471 -0.004962 0.023397 0.000000 -0.009574 0.000000
# 4 0.000000 0.000000 0.000000 0.047178 0.000000 -0.008071
# 5 -0.005436 0.000967 -0.009574 0.000000 0.041772 0.000000
# 6 0.000000 0.000000 0.000000 -0.008071 0.000000 0.029206
#
#
# Mechanical properties :
#
#
# Convention : Reuss Voigt Hill
#
# Bulk Modulus (GPa) = 30.66818 43.46060 37.06439
# Shear Modulus (GPa) = 24.85625 28.27562 26.56594
#
# Velocity S-wave (km/s) = 3.51184 3.74562 3.63061
# Velocity P-wave (km/s) = 5.62680 6.34589 5.99713
#
# Compressibility (1/GPa) = 0.03260709
#
# Stress axis : x y z
#
# Youngs Moduli (GPa) = 57.53661 86.26283 42.74117
#
# Poissons Ratio (x) = 0.46499 -0.02015
# Poissons Ratio (y) = 0.31014 0.21209
# Poissons Ratio (z) = -0.02713 0.42806
#
# Static dielectric constant tensor:
#      x y z
#    x 3.423240 0.000000 0.022280 
#    y 0.000000 3.749330 0.000000 
#    z 0.022280 0.000000 3.759290 
# 
# 
# High freq. dielectric constant tensor:
#      x y z
#    x 1.768630 0.000000 0.005620 
#    y 0.000000 1.791690 0.000000 
#    z 0.005620 0.000000 1.795570 
# 
# From -- ./inp_files/94989.got.cif
#   From: 2010.06.25/outbox.cif.g09.slc.cpg/sg10_48_cif.got.tgz:94989.got - 2010.06.27 22:07:45.
