data_PCOD8065200
_publ_section_title
;
Structure prediction by ZEFSAII (Michael W. Deem and Ramdas Pophale) SiO2 
 PCOD8065200
Probable space group: P 2/M
;
_chemical_formula_sum "Si O2"
_cell_formula_units_Z 28
_cell_length_a 13.897530
_cell_length_b 14.315971
_cell_length_c 8.547862
_cell_angle_alpha 90.000000
_cell_angle_beta 132.482849
_cell_angle_gamma 90.000000
_cell_volume 1254.197429
_symmetry_space_group_name_H-M "P 2/M"
_symmetry_group_IT_number 10
_symmetry_cell_setting 'monoclinic'
loop_
_space_group_symop_operation_xyz
x,y,z
-x,y,-z
-x,-y,-z
x,-y,z
loop_
_atom_site_type_symbol
_atom_site_label
_atom_site_fract_x
_atom_site_fract_y
_atom_site_fract_z
Si Si1 0.630857 0.604707 0.547482
Si Si2 0.966885 0.664228 0.796453
Si Si3 0.136475 0.261697 0.737278
Si Si4 0.737261 0.399237 0.348137
Si Si5 0.547390 0.107745 0.224068
Si Si6 0.725653 0.105874 0.934737
Si Si7 0.758402 0.792565 0.658170
O O1 0.500000 0.617380 0.500000
O O2 0.687741 0.500000 0.644818
O O3 0.617674 0.615814 0.341162
O O4 0.718674 0.692693 0.694582
O O5 0.869024 0.596170 0.597774
O O6 0.900067 0.768751 0.740535
O O7 0.102787 0.677497 0.853728
O O8 0.000000 0.619201 0.000000
O O9 0.247033 0.317431 0.760909
O O10 0.000000 0.245091 0.500000
O O11 0.198424 0.163382 0.850129
O O12 0.721864 0.500000 0.246799
O O13 0.429407 0.119776 0.217200
O O14 0.665113 0.172491 0.415162
O O15 0.594771 0.000000 0.269373
O O16 0.500000 0.140158 0.000000
O O17 0.765796 0.131489 0.802438
O O18 0.766471 0.000000 0.010231
#
# Coordination Sequence:
#
# PCOD8065200 Si02
#       7
#     4   4   4   4   4   4   4
#     4   9  18  34  61  94 124 155 198 247 301 377
#     4  10  20  37  60  90 124 161 211 256 304 373
#     4  10  22  39  61  86 127 168 205 266 308 371
#     4   9  20  37  61  91 126 167 204 251 310 367
#     4  10  23  39  60  91 120 156 210 263 315 377
#     4  11  23  40  62  89 121 161 214 262 316 376
#     4  11  21  39  64  87 123 167 201 260 316 369
#
# _framework density 22.325032
#
# number of rings (size 3 to 8) (size 9 to 14) (size 15 to 20)
#    0.000    2.000    1.429    1.714    6.000    4.286 
#    0.000    2.857    0.000    1.286    0.000    0.000 
#    0.000    0.000    0.000    0.000    0.000    0.000 
#
# Total GULP energy -346901.855542 kJ/mol
# GULP energy per Si atom -12389.351984 kJ/mol
# Density = 2.227422 g / cm^3
# Si number density = 22.325032 Si / 1000 Ang^3
#
#
#
# Elastic Constant Matrix: (Units=GPa)
#
#
# Indices 1 2 3 4 5 6 
#
# 1 126.6863 35.9139 13.4681 0.0000 -20.2979 0.0000
# 2 35.9139 104.4907 32.8597 0.0000 -13.3017 0.0000
# 3 13.4681 32.8597 73.4995 0.0000 -17.0322 0.0000
# 4 0.0000 0.0000 0.0000 30.2951 0.0000 -4.3778
# 5 -20.2979 -13.3017 -17.0322 0.0000 25.3996 0.0000
# 6 0.0000 0.0000 0.0000 -4.3778 0.0000 25.4393
#
#
#
# Elastic Compliance Matrix: (Units=1/GPa)
#
#
# Indices 1 2 3 4 5 6 
#
# 1 0.009691 -0.002781 0.001095 0.000000 0.007022 0.000000
# 2 -0.002781 0.012124 -0.004682 0.000000 0.000987 0.000000
# 3 0.001095 -0.004682 0.017917 0.000000 0.010437 0.000000
# 4 0.000000 0.000000 0.000000 0.033850 0.000000 0.005825
# 5 0.007022 0.000987 0.010437 0.000000 0.052498 0.000000
# 6 0.000000 0.000000 0.000000 0.005825 0.000000 0.040312
#
#
# Mechanical properties :
#
#
# Convention : Reuss Voigt Hill
#
# Bulk Modulus (GPa) = 37.04382 52.12886 44.58634
# Shear Modulus (GPa) = 26.57783 31.05580 28.81682
#
# Velocity S-wave (km/s) = 3.45410 3.73376 3.59665
# Velocity P-wave (km/s) = 5.70409 6.47986 6.10431
#
# Compressibility (1/GPa) = 0.02699506
#
# Stress axis : x y z
#
# Youngs Moduli (GPa) = 103.19295 82.47995 55.81354
#
# Poissons Ratio (x) = 0.22939 -0.06111
# Poissons Ratio (y) = 0.28699 0.26132
# Poissons Ratio (z) = -0.11298 0.38617
#
# Static dielectric constant tensor:
#      x y z
#    x 4.412850 0.000000 -0.173720 
#    y 0.000000 4.019270 0.000000 
#    z -0.173720 0.000000 3.682120 
# 
# 
# High freq. dielectric constant tensor:
#      x y z
#    x 1.891180 0.000000 -0.018800 
#    y 0.000000 1.875410 0.000000 
#    z -0.018800 0.000000 1.849620 
# 
# From -- ./inp_files/29601.got.cif
#   From: 2010.06.25/outbox.cif.g09.slc.cpg/sg10_15_cif.got.tgz:29601.got - 2010.06.27 22:07:45.
