data_PCOD8065910
_publ_section_title
;
Structure prediction by ZEFSAII (Michael W. Deem and Ramdas Pophale) SiO2 
 PCOD8065910
Probable space group: P 2/M
;
_chemical_formula_sum "Si O2"
_cell_formula_units_Z 26
_cell_length_a 11.285474
_cell_length_b 10.064273
_cell_length_c 14.170088
_cell_angle_alpha 90.000000
_cell_angle_beta 121.266901
_cell_angle_gamma 90.000000
_cell_volume 1375.682918
_symmetry_space_group_name_H-M "P 2/M"
_symmetry_group_IT_number 10
_symmetry_cell_setting 'monoclinic'
loop_
_space_group_symop_operation_xyz
x,y,z
-x,y,-z
-x,-y,-z
x,-y,z
loop_
_atom_site_type_symbol
_atom_site_label
_atom_site_fract_x
_atom_site_fract_y
_atom_site_fract_z
Si Si1 0.971882 0.153184 0.338695
Si Si2 0.778206 0.847382 0.419720
Si Si3 0.381711 0.651629 0.022076
Si Si4 0.000000 0.750628 0.000000
Si Si5 0.497449 0.155950 0.604826
Si Si6 0.301896 0.150835 0.149671
Si Si7 0.921852 0.354552 0.162250
O O1 0.848056 0.212977 0.353585
O O2 0.987635 0.238713 0.251310
O O3 0.117512 0.167494 0.450565
O O4 0.944419 0.000000 0.299552
O O5 0.631786 0.781001 0.388982
O O6 0.754641 0.000000 0.385222
O O7 0.406466 0.500000 0.067632
O O8 0.242655 0.662027 0.904026
O O9 0.500000 0.700312 0.000000
O O10 0.377429 0.748945 0.109708
O O11 0.023842 0.655239 0.921660
O O12 0.864580 0.839799 0.923071
O O13 0.500000 0.218636 0.500000
O O14 0.639970 0.184112 0.720898
O O15 0.468749 0.000000 0.582136
O O16 0.343456 0.000000 0.139792
O O17 0.964466 0.500000 0.218817
#
# Coordination Sequence:
#
# PCOD8065910 Si02
#       7
#     4   4   4   2   4   4   4
#     4   9  18  32  55  81 106 139 174 220 270 317
#     4   8  16  32  50  76 111 142 174 209 267 333
#     4   9  20  38  56  76 107 147 180 213 270 336
#     4  10  22  38  54  76 112 148 180 224 274 330
#     4   9  18  31  51  79 111 143 175 215 269 326
#     4  10  21  35  56  85 110 138 180 232 272 310
#     4  10  21  36  56  79 103 141 186 223 268 324
#
# _framework density 18.899704
#
# number of rings (size 3 to 8) (size 9 to 14) (size 15 to 20)
#    0.000    2.769    0.000    1.385    4.308    4.000 
#    0.000    1.538    0.000    1.385    0.000    0.000 
#    0.000    0.000    0.000    0.000    0.000    0.000 
#
# Total GULP energy -322243.234001 kJ/mol
# GULP energy per Si atom -12393.970538 kJ/mol
# Density = 1.885669 g / cm^3
# Si number density = 18.899704 Si / 1000 Ang^3
#
#
#
# Elastic Constant Matrix: (Units=GPa)
#
#
# Indices 1 2 3 4 5 6 
#
# 1 111.6837 25.4501 43.6238 0.0000 0.1024 0.0000
# 2 25.4501 80.6876 47.4074 0.0000 -8.1933 0.0000
# 3 43.6238 47.4074 100.4528 0.0000 -8.3260 0.0000
# 4 0.0000 0.0000 0.0000 9.2507 0.0000 -5.0859
# 5 0.1024 -8.1933 -8.3260 0.0000 20.5697 0.0000
# 6 0.0000 0.0000 0.0000 -5.0859 0.0000 12.9289
#
#
#
# Elastic Compliance Matrix: (Units=1/GPa)
#
#
# Indices 1 2 3 4 5 6 
#
# 1 0.010931 -0.001078 -0.004427 0.000000 -0.002276 0.000000
# 2 -0.001078 0.017528 -0.007476 0.000000 0.003961 0.000000
# 3 -0.004427 -0.007476 0.015687 0.000000 0.003394 0.000000
# 4 0.000000 0.000000 0.000000 0.137931 0.000000 0.054258
# 5 -0.002276 0.003961 0.003394 0.000000 0.051578 0.000000
# 6 0.000000 0.000000 0.000000 0.054258 0.000000 0.098690
#
#
# Mechanical properties :
#
#
# Convention : Reuss Voigt Hill
#
# Bulk Modulus (GPa) = 54.99144 58.42073 56.70608
# Shear Modulus (GPa) = 13.72246 20.30605 17.01425
#
# Velocity S-wave (km/s) = 2.69749 3.28138 3.00365
# Velocity P-wave (km/s) = 6.23390 6.73310 6.48830
#
# Compressibility (1/GPa) = 0.01818465
#
# Stress axis : x y z
#
# Youngs Moduli (GPa) = 91.48564 57.05177 63.74817
#
# Poissons Ratio (x) = 0.06149 0.28220
# Poissons Ratio (y) = 0.09861 0.47656
# Poissons Ratio (z) = 0.40499 0.42650
#
# Static dielectric constant tensor:
#      x y z
#    x 3.819570 0.000000 0.065700 
#    y 0.000000 3.137360 0.000000 
#    z 0.065700 0.000000 3.386690 
# 
# 
# High freq. dielectric constant tensor:
#      x y z
#    x 1.744830 0.000000 0.000510 
#    y 0.000000 1.694460 0.000000 
#    z 0.000510 0.000000 1.730100 
# 
# From -- ./inp_files/63563.got.cif
#   From: 2010.06.25/outbox.cif.g09.slc.cpg/sg10_32_cif.got.tgz:63563.got - 2010.06.27 22:07:45.
