data_PCOD8065222
_publ_section_title
;
Structure prediction by ZEFSAII (Michael W. Deem and Ramdas Pophale) SiO2 
 PCOD8065222
Probable space group: P 2/M
;
_chemical_formula_sum "Si O2"
_cell_formula_units_Z 28
_cell_length_a 14.762008
_cell_length_b 8.859291
_cell_length_c 20.333937
_cell_angle_alpha 90.000000
_cell_angle_beta 147.451185
_cell_angle_gamma 90.000000
_cell_volume 1430.746384
_symmetry_space_group_name_H-M "P 2/M"
_symmetry_group_IT_number 10
_symmetry_cell_setting 'monoclinic'
loop_
_space_group_symop_operation_xyz
x,y,z
-x,y,-z
-x,-y,-z
x,-y,z
loop_
_atom_site_type_symbol
_atom_site_label
_atom_site_fract_x
_atom_site_fract_y
_atom_site_fract_z
Si Si1 0.992214 0.321392 0.201368
Si Si2 0.645710 0.825599 0.221399
Si Si3 0.655970 0.321405 0.640381
Si Si4 0.680525 0.321302 0.924563
Si Si5 0.790657 0.828139 0.450880
Si Si6 0.421987 0.176817 0.270085
Si Si7 0.910038 0.322327 0.295807
O O1 0.996729 0.500000 0.208178
O O2 0.174868 0.261820 0.291089
O O3 0.949121 0.257894 0.247189
O O4 0.852954 0.267088 0.064153
O O5 0.472406 0.737172 0.124607
O O6 0.765109 0.804849 0.357702
O O7 0.741093 0.759077 0.216889
O O8 0.602337 0.000000 0.183380
O O9 0.500000 0.270982 0.500000
O O10 0.657288 0.500000 0.652597
O O11 0.646316 0.241514 0.704230
O O12 0.668032 0.500000 0.911976
O O13 0.680165 0.253279 0.851542
O O14 0.619675 0.786957 0.384624
O O15 0.933212 0.714083 0.561336
O O16 0.846466 0.000000 0.499841
O O17 0.388460 0.000000 0.245181
O O18 0.878007 0.500000 0.276558
#
# Coordination Sequence:
#
# PCOD8065222 Si02
#       7
#     4   4   4   4   4   4   4
#     4   9  21  38  55  80 112 143 180 232 279 315
#     4  10  21  37  55  79 113 146 180 226 278 328
#     4  10  20  37  61  86 112 145 185 225 269 326
#     4  10  20  38  60  79 105 144 189 228 269 324
#     4   9  19  35  53  76 111 147 176 219 278 329
#     4  10  21  37  57  83 115 146 179 226 280 327
#     4  11  21  34  55  82 110 143 186 229 272 325
#
# _framework density 19.570205999999999
#
# number of rings (size 3 to 8) (size 9 to 14) (size 15 to 20)
#    0.000    2.143    0.000    3.857    0.000    7.714 
#    0.000   11.429    0.000    0.000    0.000    0.000 
#    0.000    0.000    0.000    0.000    0.000    0.000 
#
# Total GULP energy -347308.961472 kJ/mol
# GULP energy per Si atom -12403.891481 kJ/mol
# Density = 1.952566 g / cm^3
# Si number density = 19.570206 Si / 1000 Ang^3
#
#
#
# Elastic Constant Matrix: (Units=GPa)
#
#
# Indices 1 2 3 4 5 6 
#
# 1 166.0023 44.9514 66.1536 0.0000 4.9371 0.0000
# 2 44.9514 63.2039 41.8884 0.0000 -2.6723 0.0000
# 3 66.1536 41.8884 130.2219 0.0000 8.6910 0.0000
# 4 0.0000 0.0000 0.0000 8.4219 0.0000 4.8703
# 5 4.9371 -2.6723 8.6910 0.0000 15.5232 0.0000
# 6 0.0000 0.0000 0.0000 4.8703 0.0000 27.1737
#
#
#
# Elastic Compliance Matrix: (Units=1/GPa)
#
#
# Indices 1 2 3 4 5 6 
#
# 1 0.008302 -0.004151 -0.002762 0.000000 -0.001809 0.000000
# 2 -0.004151 0.023027 -0.005870 0.000000 0.008571 0.000000
# 3 -0.002762 -0.005870 0.011406 0.000000 -0.006518 0.000000
# 4 0.000000 0.000000 0.000000 0.132468 0.000000 -0.023742
# 5 -0.001809 0.008571 -0.006518 0.000000 0.070120 0.000000
# 6 0.000000 0.000000 0.000000 -0.023742 0.000000 0.041055
#
#
# Mechanical properties :
#
#
# Convention : Reuss Voigt Hill
#
# Bulk Modulus (GPa) = 58.24524 73.93501 66.09013
# Shear Modulus (GPa) = 15.73974 23.98607 19.86290
#
# Velocity S-wave (km/s) = 2.83904 3.50472 3.18929
# Velocity P-wave (km/s) = 6.36975 7.36470 6.88522
#
# Compressibility (1/GPa) = 0.01716879
#
# Stress axis : x y z
#
# Youngs Moduli (GPa) = 120.44699 43.42734 87.67697
#
# Poissons Ratio (x) = 0.18026 0.24214
# Poissons Ratio (y) = 0.49997 0.51470
# Poissons Ratio (z) = 0.33264 0.25494
#
# Static dielectric constant tensor:
#      x y z
#    x 3.754990 0.000000 0.054080 
#    y 0.000000 3.414150 0.000000 
#    z 0.054080 0.000000 3.578220 
# 
# 
# High freq. dielectric constant tensor:
#      x y z
#    x 1.774000 0.000000 0.002400 
#    y 0.000000 1.753460 0.000000 
#    z 0.002400 0.000000 1.760400 
# 
# From -- ./inp_files/49060.got.cif
#   From: 2010.06.25/outbox.cif.g09.slc.cpg/sg10_25_cif.got.tgz:49060.got - 2010.06.27 22:07:45.
