data_PCOD8065654
_publ_section_title
;
Structure prediction by ZEFSAII (Michael W. Deem and Ramdas Pophale) SiO2 
 PCOD8065654
Probable space group: P 2/M
;
_chemical_formula_sum "Si O2"
_cell_formula_units_Z 32
_cell_length_a 11.634443
_cell_length_b 9.068390
_cell_length_c 14.909221
_cell_angle_alpha 90.000000
_cell_angle_beta 87.472419
_cell_angle_gamma 90.000000
_cell_volume 1571.476934
_symmetry_space_group_name_H-M "P 2/M"
_symmetry_group_IT_number 10
_symmetry_cell_setting 'monoclinic'
loop_
_space_group_symop_operation_xyz
x,y,z
-x,y,-z
-x,-y,-z
x,-y,z
loop_
_atom_site_type_symbol
_atom_site_label
_atom_site_fract_x
_atom_site_fract_y
_atom_site_fract_z
Si Si1 0.099622 0.827328 0.191701
Si Si2 0.584568 0.825664 0.418348
Si Si3 0.929385 0.668616 0.089075
Si Si4 0.315539 0.327850 0.122544
Si Si5 0.066499 0.669282 0.366837
Si Si6 0.338953 0.332378 0.921618
Si Si7 0.821304 0.668555 0.448469
Si Si8 0.493866 0.174158 0.776912
O O1 0.191358 0.748053 0.124069
O O2 0.121373 0.778428 0.292735
O O3 0.972298 0.772697 0.168394
O O4 0.112850 0.000000 0.181173
O O5 0.500000 0.765331 0.500000
O O6 0.713142 0.766675 0.425687
O O7 0.537661 0.775134 0.322738
O O8 0.591942 0.000000 0.423521
O O9 0.956629 0.500000 0.113122
O O10 0.796058 0.693984 0.078853
O O11 0.000000 0.718576 0.000000
O O12 0.299412 0.500000 0.142688
O O13 0.389192 0.255227 0.199287
O O14 0.376697 0.303099 0.023669
O O15 0.069717 0.500000 0.334003
O O16 0.148447 0.689436 0.448927
O O17 0.934438 0.716285 0.389303
O O18 0.372571 0.500000 0.893410
O O19 0.395816 0.220018 0.850686
O O20 0.789595 0.500000 0.428306
O O21 0.512478 0.000000 0.781715
#
# Coordination Sequence:
#
# PCOD8065654 Si02
#       8
#     4   4   4   4   4   4   4   4
#     4  12  25  37  58  93 128 162 202 248 305 367
#     4  10  24  44  62  85 126 167 200 247 309 369
#     4  10  20  40  63  86 120 163 205 245 296 356
#     4  11  23  43  66  89 121 163 213 259 305 365
#     4   9  20  40  63  91 124 157 196 252 306 359
#     4  10  22  41  66  91 120 163 209 254 308 367
#     4   9  20  40  66  92 118 152 204 256 302 355
#     4  11  25  42  62  92 126 161 205 257 313 367
#
# _framework density 20.363009000000002
#
# number of rings (size 3 to 8) (size 9 to 14) (size 15 to 20)
#    0.000    1.750    1.250    3.000    3.500    5.500 
#    0.000    1.250    0.000    0.000    0.000    0.000 
#    0.000    0.000    0.000    0.000    0.000    0.000 
#
# Total GULP energy -396850.974981 kJ/mol
# GULP energy per Si atom -12401.592968 kJ/mol
# Density = 2.031666 g / cm^3
# Si number density = 20.363009 Si / 1000 Ang^3
#
#
#
# Elastic Constant Matrix: (Units=GPa)
#
#
# Indices 1 2 3 4 5 6 
#
# 1 72.3868 34.5774 29.6307 0.0000 15.8942 0.0000
# 2 34.5774 91.3996 46.1857 0.0000 6.7632 0.0000
# 3 29.6307 46.1857 106.9427 0.0000 7.9921 0.0000
# 4 0.0000 0.0000 0.0000 30.0757 0.0000 2.7226
# 5 15.8942 6.7632 7.9921 0.0000 29.6271 0.0000
# 6 0.0000 0.0000 0.0000 2.7226 0.0000 24.2535
#
#
#
# Elastic Compliance Matrix: (Units=1/GPa)
#
#
# Indices 1 2 3 4 5 6 
#
# 1 0.019239 -0.005473 -0.002336 0.000000 -0.008442 0.000000
# 2 -0.005473 0.015627 -0.005292 0.000000 0.000797 0.000000
# 3 -0.002336 -0.005292 0.012348 0.000000 -0.000870 0.000000
# 4 0.000000 0.000000 0.000000 0.033591 0.000000 -0.003771
# 5 -0.008442 0.000797 -0.000870 0.000000 0.038334 0.000000
# 6 0.000000 0.000000 0.000000 -0.003771 0.000000 0.041655
#
#
# Mechanical properties :
#
#
# Convention : Reuss Voigt Hill
#
# Bulk Modulus (GPa) = 47.59182 54.61298 51.10240
# Shear Modulus (GPa) = 25.77327 27.48026 26.62677
#
# Velocity S-wave (km/s) = 3.56151 3.67757 3.62000
# Velocity P-wave (km/s) = 6.35098 6.70153 6.52861
#
# Compressibility (1/GPa) = 0.02101202
#
# Stress axis : x y z
#
# Youngs Moduli (GPa) = 51.97821 63.99332 80.98209
#
# Poissons Ratio (x) = 0.35025 0.18917
# Poissons Ratio (y) = 0.28449 0.42854
# Poissons Ratio (z) = 0.12142 0.33864
#
# Static dielectric constant tensor:
#      x y z
#    x 3.717410 0.000000 0.031860 
#    y 0.000000 3.518130 0.000000 
#    z 0.031860 0.000000 3.821520 
# 
# 
# High freq. dielectric constant tensor:
#      x y z
#    x 1.804740 0.000000 0.004770 
#    y 0.000000 1.783710 0.000000 
#    z 0.004770 0.000000 1.803170 
# 
# From -- ./inp_files/63761.got.cif
#   From: 2010.06.25/outbox.cif.g09.slc.cpg/sg10_32_cif.got.tgz:63761.got - 2010.06.27 22:07:45.
