data_PCOD8065988
_publ_section_title
;
Structure prediction by ZEFSAII (Michael W. Deem and Ramdas Pophale) SiO2 
 PCOD8065988
Probable space group: P 2/M
;
_chemical_formula_sum "Si O2"
_cell_formula_units_Z 32
_cell_length_a 20.637959
_cell_length_b 9.603326
_cell_length_c 20.637924
_cell_angle_alpha 90.000000
_cell_angle_beta 154.948317
_cell_angle_gamma 90.000000
_cell_volume 1731.975757
_symmetry_space_group_name_H-M "P 2/M"
_symmetry_group_IT_number 10
_symmetry_cell_setting 'monoclinic'
loop_
_space_group_symop_operation_xyz
x,y,z
-x,y,-z
-x,-y,-z
x,-y,z
loop_
_atom_site_type_symbol
_atom_site_label
_atom_site_fract_x
_atom_site_fract_y
_atom_site_fract_z
Si Si1 0.080627 0.839660 0.264259
Si Si2 0.367724 0.339013 0.291273
Si Si3 0.735733 0.160339 0.919363
Si Si4 0.291265 0.339015 0.367718
Si Si5 0.391043 0.660226 0.959202
Si Si6 0.513943 0.162652 0.832679
Si Si7 0.959199 0.339775 0.391041
Si Si8 0.167312 0.162650 0.486049
O O1 0.157678 0.751168 0.277644
O O2 0.146046 0.791204 0.392579
O O3 0.120651 0.000000 0.287285
O O4 0.899712 0.813138 0.100279
O O5 0.352797 0.500000 0.258635
O O6 0.277646 0.248841 0.157680
O O7 0.289798 0.311058 0.289799
O O8 0.545507 0.294958 0.454498
O O9 0.607413 0.208792 0.853944
O O10 0.712708 0.000000 0.879340
O O11 0.258624 0.500000 0.352791
O O12 0.424177 0.500000 0.007227
O O13 0.219382 0.683469 0.780620
O O14 0.500000 0.710408 0.000000
O O15 0.422293 0.753106 0.049456
O O16 0.337837 0.200474 0.662156
O O17 0.538468 0.000000 0.868989
O O18 0.007225 0.500000 0.424175
O O19 0.000000 0.289585 0.500000
O O20 0.049453 0.246898 0.422290
O O21 0.131000 0.000000 0.461526
#
# Coordination Sequence:
#
# PCOD8065988 Si02
#       8
#     4   4   4   4   4   4   4   4
#     4  10  21  36  54  78 108 140 175 217 264 314
#     4   9  19  36  56  78 105 138 177 219 262 311
#     4  10  21  36  54  78 108 140 175 217 264 314
#     4   9  19  36  56  78 105 138 177 219 262 311
#     4  10  21  37  57  81 109 141 177 217 262 312
#     4  10  21  37  57  80 106 139 179 220 263 312
#     4  10  21  37  57  81 109 141 177 217 262 312
#     4  10  21  37  57  80 106 139 179 220 263 312
#
# _framework density 18.476009000000001
#
# number of rings (size 3 to 8) (size 9 to 14) (size 15 to 20)
#    0.000    2.250    0.000    3.000    0.000    7.500 
#    0.000    3.750    0.000    0.000    0.000    0.000 
#    0.000    0.000    0.000    0.000    0.000    0.000 
#
# Total GULP energy -396946.542163 kJ/mol
# GULP energy per Si atom -12404.579443 kJ/mol
# Density = 1.843396 g / cm^3
# Si number density = 18.476009 Si / 1000 Ang^3
#
#
#
# Elastic Constant Matrix: (Units=GPa)
#
#
# Indices 1 2 3 4 5 6 
#
# 1 109.4057 55.5367 42.3221 0.0000 3.0880 0.0000
# 2 55.5367 60.0941 38.4037 0.0000 -3.1182 0.0000
# 3 42.3221 38.4037 81.7248 0.0000 -8.1243 0.0000
# 4 0.0000 0.0000 0.0000 34.3324 0.0000 -0.8222
# 5 3.0880 -3.1182 -8.1243 0.0000 39.9828 0.0000
# 6 0.0000 0.0000 0.0000 -0.8222 0.0000 38.8531
#
#
#
# Elastic Compliance Matrix: (Units=1/GPa)
#
#
# Indices 1 2 3 4 5 6 
#
# 1 0.017820 -0.015057 -0.002456 0.000000 -0.003050 0.000000
# 2 -0.015057 0.036513 -0.009146 0.000000 0.002152 0.000000
# 3 -0.002456 -0.009146 0.018120 0.000000 0.003158 0.000000
# 4 0.000000 0.000000 0.000000 0.029142 0.000000 0.000617
# 5 -0.003050 0.002152 0.003158 0.000000 0.026056 0.000000
# 6 0.000000 0.000000 0.000000 0.000617 0.000000 0.025751
#
#
# Mechanical properties :
#
#
# Convention : Reuss Voigt Hill
#
# Bulk Modulus (GPa) = 52.26384 58.19441 55.22912
# Shear Modulus (GPa) = 23.46349 30.29778 26.88063
#
# Velocity S-wave (km/s) = 3.56749 4.05389 3.81845
# Velocity P-wave (km/s) = 6.73188 7.31285 7.02837
#
# Compressibility (1/GPa) = 0.01913369
#
# Stress axis : x y z
#
# Youngs Moduli (GPa) = 56.11776 27.38783 55.18816
#
# Poissons Ratio (x) = 0.41238 0.13552
# Poissons Ratio (y) = 0.84498 0.50477
# Poissons Ratio (z) = 0.13781 0.25050
#
# Static dielectric constant tensor:
#      x y z
#    x 3.429520 0.000000 0.009750 
#    y 0.000000 3.328580 0.000000 
#    z 0.009750 0.000000 3.482770 
# 
# 
# High freq. dielectric constant tensor:
#      x y z
#    x 1.724210 0.000000 0.000800 
#    y 0.000000 1.711660 0.000000 
#    z 0.000800 0.000000 1.728590 
# 
# From -- ./inp_files/90657.got.cif
#   From: 2010.06.25/outbox.cif.g09.slc.cpg/sg10_46_cif.got.tgz:90657.got - 2010.06.27 22:07:45.
