data_PCOD8065526
_publ_section_title
;
Structure prediction by ZEFSAII (Michael W. Deem and Ramdas Pophale) SiO2 
 PCOD8065526
Probable space group: P 2/M
;
_chemical_formula_sum "Si O2"
_cell_formula_units_Z 28
_cell_length_a 13.528430
_cell_length_b 8.718726
_cell_length_c 12.513359
_cell_angle_alpha 90.000000
_cell_angle_beta 112.186015
_cell_angle_gamma 90.000000
_cell_volume 1366.683225
_symmetry_space_group_name_H-M "P 2/M"
_symmetry_group_IT_number 10
_symmetry_cell_setting 'monoclinic'
loop_
_space_group_symop_operation_xyz
x,y,z
-x,y,-z
-x,-y,-z
x,-y,z
loop_
_atom_site_type_symbol
_atom_site_label
_atom_site_fract_x
_atom_site_fract_y
_atom_site_fract_z
Si Si1 0.272149 0.681102 0.273254
Si Si2 0.717414 0.819318 0.502404
Si Si3 0.114227 0.677564 0.584184
Si Si4 0.486855 0.682037 0.673359
Si Si5 0.576813 0.317965 0.121308
Si Si6 0.188963 0.676975 0.845151
Si Si7 0.878743 0.179156 0.966142
O O1 0.265101 0.500000 0.281760
O O2 0.231339 0.757165 0.366485
O O3 0.393320 0.736232 0.302333
O O4 0.197749 0.730430 0.145220
O O5 0.790346 0.768921 0.432801
O O6 0.597362 0.753144 0.444006
O O7 0.712139 0.000000 0.504006
O O8 0.130303 0.500000 0.560041
O O9 0.114173 0.699842 0.711727
O O10 0.000000 0.740931 0.500000
O O11 0.476239 0.500000 0.661624
O O12 0.457797 0.747250 0.778358
O O13 0.567533 0.500000 0.120724
O O14 0.695013 0.265054 0.141945
O O15 0.500000 0.247596 0.000000
O O16 0.190525 0.500000 0.883890
O O17 0.149807 0.784013 0.923825
O O18 0.865086 0.000000 0.938223
O O19 0.000000 0.233592 0.000000
#
# Coordination Sequence:
#
# PCOD8065526 Si02
#       7
#     4   4   4   4   4   4   4
#     4  11  24  42  68  94 121 165 220 266 309 365
#     4  12  25  40  62  94 134 171 204 253 323 385
#     4  10  22  41  66  95 123 160 214 266 309 362
#     4  10  20  39  64  92 125 163 211 262 310 369
#     4   9  16  30  57  89 120 152 194 249 304 355
#     4  10  20  38  64  92 122 158 206 261 307 360
#     4  11  26  45  63  89 129 170 206 254 319 382
#
# _framework density 20.487556000000001
#
# number of rings (size 3 to 8) (size 9 to 14) (size 15 to 20)
#    0.000    1.571    1.429    3.429    2.000    7.143 
#    0.000    0.000    0.000    1.714    0.000    0.000 
#    0.000    0.000    0.000    0.000    0.000    0.000 
#
# Total GULP energy -347319.098997 kJ/mol
# GULP energy per Si atom -12404.253536 kJ/mol
# Density = 2.044093 g / cm^3
# Si number density = 20.487556 Si / 1000 Ang^3
#
#
#
# Elastic Constant Matrix: (Units=GPa)
#
#
# Indices 1 2 3 4 5 6 
#
# 1 86.1298 32.4344 43.3633 0.0000 5.5720 0.0000
# 2 32.4344 62.5048 26.3843 0.0000 3.4906 0.0000
# 3 43.3633 26.3843 125.1587 0.0000 5.8555 0.0000
# 4 0.0000 0.0000 0.0000 21.8431 0.0000 -1.5891
# 5 5.5720 3.4906 5.8555 0.0000 43.1811 0.0000
# 6 0.0000 0.0000 0.0000 -1.5891 0.0000 23.0165
#
#
#
# Elastic Compliance Matrix: (Units=1/GPa)
#
#
# Indices 1 2 3 4 5 6 
#
# 1 0.016282 -0.006621 -0.004199 0.000000 -0.000996 0.000000
# 2 -0.006621 0.020290 -0.001959 0.000000 -0.000520 0.000000
# 3 -0.004199 -0.001959 0.009888 0.000000 -0.000641 0.000000
# 4 0.000000 0.000000 0.000000 0.046012 0.000000 0.003177
# 5 -0.000996 -0.000520 -0.000641 0.000000 0.023416 0.000000
# 6 0.000000 0.000000 0.000000 0.003177 0.000000 0.043666
#
#
# Mechanical properties :
#
#
# Convention : Reuss Voigt Hill
#
# Bulk Modulus (GPa) = 47.84139 53.12859 50.48499
# Shear Modulus (GPa) = 26.03089 29.04890 27.53989
#
# Velocity S-wave (km/s) = 3.56837 3.76956 3.67035
# Velocity P-wave (km/s) = 6.35451 6.70332 6.53125
#
# Compressibility (1/GPa) = 0.02090240
#
# Stress axis : x y z
#
# Youngs Moduli (GPa) = 61.41727 49.28432 101.13701
#
# Poissons Ratio (x) = 0.32631 0.42466
# Poissons Ratio (y) = 0.40664 0.19814
# Poissons Ratio (z) = 0.25788 0.09655
#
# Static dielectric constant tensor:
#      x y z
#    x 3.830530 0.000000 0.032510 
#    y 0.000000 3.386740 0.000000 
#    z 0.032510 0.000000 3.916370 
# 
# 
# High freq. dielectric constant tensor:
#      x y z
#    x 1.807230 0.000000 -0.000570 
#    y 0.000000 1.774100 0.000000 
#    z -0.000570 0.000000 1.820460 
# 
# From -- ./inp_files/50073.got.cif
#   From: 2010.06.25/outbox.cif.g09.slc.cpg/sg10_26_cif.got.tgz:50073.got - 2010.06.27 22:07:45.
