data_PCOD8065669
_publ_section_title
;
Structure prediction by ZEFSAII (Michael W. Deem and Ramdas Pophale) SiO2 
 PCOD8065669
Probable space group: P 2/M
;
_chemical_formula_sum "Si O2"
_cell_formula_units_Z 20
_cell_length_a 19.100913
_cell_length_b 8.956453
_cell_length_c 12.497681
_cell_angle_alpha 90.000000
_cell_angle_beta 151.038285
_cell_angle_gamma 90.000000
_cell_volume 1035.301643
_symmetry_space_group_name_H-M "P 2/M"
_symmetry_group_IT_number 10
_symmetry_cell_setting 'monoclinic'
loop_
_space_group_symop_operation_xyz
x,y,z
-x,y,-z
-x,-y,-z
x,-y,z
loop_
_atom_site_type_symbol
_atom_site_label
_atom_site_fract_x
_atom_site_fract_y
_atom_site_fract_z
Si Si1 0.115289 0.672244 0.363100
Si Si2 0.307632 0.324486 0.419110
Si Si3 0.609400 0.825770 0.874626
Si Si4 0.352826 0.326964 0.858384
Si Si5 0.816018 0.173971 0.954960
O O1 0.065744 0.500000 0.292793
O O2 0.193621 0.717855 0.358245
O O3 0.220707 0.702108 0.602783
O O4 0.978958 0.778049 0.196739
O O5 0.330896 0.500000 0.443829
O O6 0.459824 0.252982 0.649407
O O7 0.248182 0.266283 0.228287
O O8 0.722864 0.787717 0.934203
O O9 0.579500 0.000000 0.843946
O O10 0.677179 0.766488 0.075266
O O11 0.368526 0.500000 0.910537
O O12 0.500000 0.270349 0.000000
O O13 0.810218 0.000000 0.918397
#
# Coordination Sequence:
#
# PCOD8065669 Si02
#       5
#     4   4   4   4   4
#     4  10  22  40  63  90 119 154 198 249 299 351
#     4  11  22  40  65  90 118 156 204 250 294 351
#     4  11  24  40  60  89 124 160 198 243 297 355
#     4  10  20  40  65  89 118 152 199 251 295 349
#     4  11  25  41  57  87 128 161 196 244 297 355
#
# _framework density 19.31804
#
# number of rings (size 3 to 8) (size 9 to 14) (size 15 to 20)
#    0.000    1.400    2.000    3.000    0.000   11.600 
#    0.000    4.000    0.000    0.000    0.000    0.000 
#    0.000    0.000    0.000    0.000    0.000    0.000 
#
# Total GULP energy -248129.145362 kJ/mol
# GULP energy per Si atom -12406.457268 kJ/mol
# Density = 1.927407 g / cm^3
# Si number density = 19.318040 Si / 1000 Ang^3
#
#
#
# Elastic Constant Matrix: (Units=GPa)
#
#
# Indices 1 2 3 4 5 6 
#
# 1 187.4686 103.5543 79.6105 0.0000 7.3887 0.0000
# 2 103.5543 99.5056 48.1215 0.0000 9.4123 0.0000
# 3 79.6105 48.1215 136.7273 0.0000 16.9697 0.0000
# 4 0.0000 0.0000 0.0000 10.8478 0.0000 4.6491
# 5 7.3887 9.4123 16.9697 0.0000 47.0317 0.0000
# 6 0.0000 0.0000 0.0000 4.6491 0.0000 35.2528
#
#
#
# Elastic Compliance Matrix: (Units=1/GPa)
#
#
# Indices 1 2 3 4 5 6 
#
# 1 0.014024 -0.012903 -0.003844 0.000000 0.001766 0.000000
# 2 -0.012903 0.024022 -0.000624 0.000000 -0.002555 0.000000
# 3 -0.003844 -0.000624 0.010135 0.000000 -0.002928 0.000000
# 4 0.000000 0.000000 0.000000 0.097707 0.000000 -0.012885
# 5 0.001766 -0.002555 -0.002928 0.000000 0.022553 0.000000
# 6 0.000000 0.000000 0.000000 -0.012885 0.000000 0.030066
#
#
# Mechanical properties :
#
#
# Convention : Reuss Voigt Hill
#
# Bulk Modulus (GPa) = 74.41331 98.47489 86.44410
# Shear Modulus (GPa) = 21.03241 31.45413 26.24327
#
# Velocity S-wave (km/s) = 3.30319 4.03951 3.68976
# Velocity P-wave (km/s) = 7.29053 8.53482 7.93709
#
# Compressibility (1/GPa) = 0.01343846
#
# Stress axis : x y z
#
# Youngs Moduli (GPa) = 71.30445 41.62936 98.66836
#
# Poissons Ratio (x) = 0.53715 0.37925
# Poissons Ratio (y) = 0.92006 0.06160
# Poissons Ratio (z) = 0.27407 0.02599
#
# Static dielectric constant tensor:
#      x y z
#    x 3.688190 0.000000 -0.058170 
#    y 0.000000 3.545410 0.000000 
#    z -0.058170 0.000000 3.684580 
# 
# 
# High freq. dielectric constant tensor:
#      x y z
#    x 1.764110 0.000000 -0.004680 
#    y 0.000000 1.756680 0.000000 
#    z -0.004680 0.000000 1.765450 
# 
# From -- ./inp_files/22142.got.cif
#   From: 2010.06.25/outbox.cif.g09.slc.cpg/sg10_12_cif.got.tgz:22142.got - 2010.06.27 22:07:45.
