data_PCOD8065676
_publ_section_title
;
Structure prediction by ZEFSAII (Michael W. Deem and Ramdas Pophale) SiO2 
 PCOD8065676
Probable space group: P 2/M
;
_chemical_formula_sum "Si O2"
_cell_formula_units_Z 24
_cell_length_a 9.136211
_cell_length_b 15.840438
_cell_length_c 13.985697
_cell_angle_alpha 90.000000
_cell_angle_beta 40.443152
_cell_angle_gamma 90.000000
_cell_volume 1312.976072
_symmetry_space_group_name_H-M "P 2/M"
_symmetry_group_IT_number 10
_symmetry_cell_setting 'monoclinic'
loop_
_space_group_symop_operation_xyz
x,y,z
-x,y,-z
-x,-y,-z
x,-y,z
loop_
_atom_site_type_symbol
_atom_site_label
_atom_site_fract_x
_atom_site_fract_y
_atom_site_fract_z
Si Si1 0.265862 0.177484 0.358228
Si Si2 0.156425 0.000000 0.123451
Si Si3 0.016794 0.164807 0.103063
Si Si4 0.555279 0.719174 0.079967
Si Si5 0.735824 0.598530 0.136641
Si Si6 0.629534 0.000000 0.781617
Si Si7 0.427032 0.734572 0.643230
O O1 0.335818 0.238727 0.236617
O O2 0.336341 0.081305 0.301988
O O3 0.387973 0.208250 0.394536
O O4 0.000000 0.185256 0.500000
O O5 0.194744 0.000000 0.218091
O O6 0.009633 0.080979 0.169873
O O7 0.381805 0.000000 0.948654
O O8 0.809142 0.218609 0.242020
O O9 0.000000 0.142355 0.000000
O O10 0.247158 0.213279 0.008441
O O11 0.622522 0.631058 0.095444
O O12 0.500000 0.696260 0.000000
O O13 0.692720 0.500000 0.170058
O O14 0.612967 0.645080 0.285256
O O15 0.000000 0.621421 0.000000
O O16 0.500000 0.714537 0.500000
#
# Coordination Sequence:
#
# PCOD8065676 Si02
#       7
#     4   2   4   4   4   2   4
#     4  11  24  39  58  85 121 162 200 243 296 355
#     4  11  23  32  64  87 115 154 211 259 286 341
#     4  12  20  41  59  89 116 157 208 251 294 343
#     4  11  21  37  65  88 120 158 198 245 292 355
#     4  10  20  40  66  92 119 150 192 248 302 357
#     4  11  21  40  54  86 119 160 201 250 301 342
#     4  11  24  40  62  88 121 157 197 248 298 355
#
# _framework density 18.279083
#
# number of rings (size 3 to 8) (size 9 to 14) (size 15 to 20)
#    0.000    1.000    6.667    1.500    4.667    1.333 
#    0.000    0.833    0.000    8.000    0.000    0.000 
#    0.000    0.000    0.000    0.000    0.000    0.000 
#
# Total GULP energy -297677.165919 kJ/mol
# GULP energy per Si atom -12403.215247 kJ/mol
# Density = 1.823748 g / cm^3
# Si number density = 18.279083 Si / 1000 Ang^3
#
#
#
# Elastic Constant Matrix: (Units=GPa)
#
#
# Indices 1 2 3 4 5 6 
#
# 1 121.8071 61.6372 47.2076 0.0000 25.8075 0.0000
# 2 61.6372 127.9246 45.8031 0.0000 9.0521 0.0000
# 3 47.2076 45.8031 85.7606 0.0000 8.7184 0.0000
# 4 0.0000 0.0000 0.0000 -1.8830 0.0000 -7.3787
# 5 25.8075 9.0521 8.7184 0.0000 36.8636 0.0000
# 6 0.0000 0.0000 0.0000 -7.3787 0.0000 23.7621
#
#
#
# Elastic Compliance Matrix: (Units=1/GPa)
#
#
# Indices 1 2 3 4 5 6 
#
# 1 0.013809 -0.004543 -0.004412 0.000000 -0.007509 0.000000
# 2 -0.004543 0.011210 -0.003617 0.000000 0.001283 0.000000
# 3 -0.004412 -0.003617 0.016001 0.000000 0.000193 0.000000
# 4 0.000000 0.000000 0.000000 -0.239564 0.000000 -0.074390
# 5 -0.007509 0.001283 0.000193 0.000000 0.032023 0.000000
# 6 0.000000 0.000000 0.000000 -0.074390 0.000000 0.018984
#
#
# Mechanical properties :
#
#
# Convention : Reuss Voigt Hill
#
# Bulk Modulus (GPa) = 62.98284 71.64312 67.31298
# Shear Modulus (GPa) = -42.69826 23.80483 -9.44671
#
# Velocity S-wave (km/s) = -4.83837 3.61265 -2.27580
# Velocity P-wave (km/s) = 1.82153 7.52867 5.47717
#
# Compressibility (1/GPa) = 0.01587734
#
# Stress axis : x y z
#
# Youngs Moduli (GPa) = 72.41611 89.20512 62.49545
#
# Poissons Ratio (x) = 0.40522 0.27572
# Poissons Ratio (y) = 0.32895 0.22605
# Poissons Ratio (z) = 0.31949 0.32266
#
# Static dielectric constant tensor:
#      x y z
#    x 3.172000 0.000000 -0.003470 
#    y 0.000000 3.380640 0.000000 
#    z -0.003470 0.000000 3.449400 
# 
# 
# High freq. dielectric constant tensor:
#      x y z
#    x 1.717700 0.000000 -0.001700 
#    y 0.000000 1.707340 0.000000 
#    z -0.001700 0.000000 1.706320 
# 
# From -- ./inp_files/25655.got.cif
#   From: 2010.06.25/outbox.cif.g09.slc.cpg/sg10_13_cif.got.tgz:25655.got - 2010.06.27 22:07:45.
