data_PCOD8065218
_publ_section_title
;
Structure prediction by ZEFSAII (Michael W. Deem and Ramdas Pophale) SiO2 
 PCOD8065218
Probable space group: P 2/M
;
_chemical_formula_sum "Si O2"
_cell_formula_units_Z 20
_cell_length_a 12.419414
_cell_length_b 9.217868
_cell_length_c 12.322482
_cell_angle_alpha 90.000000
_cell_angle_beta 48.118202
_cell_angle_gamma 90.000000
_cell_volume 1050.287727
_symmetry_space_group_name_H-M "P 2/M"
_symmetry_group_IT_number 10
_symmetry_cell_setting 'monoclinic'
loop_
_space_group_symop_operation_xyz
x,y,z
-x,y,-z
-x,-y,-z
x,-y,z
loop_
_atom_site_type_symbol
_atom_site_label
_atom_site_fract_x
_atom_site_fract_y
_atom_site_fract_z
Si Si1 0.336041 0.667752 0.315577
Si Si2 0.849579 0.170037 0.151593
Si Si3 0.842466 0.330690 0.777463
Si Si4 0.330932 0.330744 0.894717
Si Si5 0.866360 0.171020 0.390632
O O1 0.312658 0.500000 0.362799
O O2 0.263888 0.704392 0.249557
O O3 0.503783 0.706995 0.191281
O O4 0.270444 0.767444 0.453391
O O5 0.717210 0.248156 0.181133
O O6 0.845031 0.213659 0.280003
O O7 0.831267 0.000000 0.145721
O O8 0.000000 0.226053 0.000000
O O9 0.881245 0.500000 0.756358
O O10 0.988554 0.242126 0.660140
O O11 0.764861 0.277477 0.939364
O O12 0.309034 0.500000 0.889460
O O13 0.877244 0.000000 0.399873
#
# Coordination Sequence:
#
# PCOD8065218 Si02
#       5
#     4   4   4   4   4
#     4  10  22  39  57  84 120 150 181 229 286 335
#     4  10  21  39  59  80 112 150 188 233 282 330
#     4  10  20  37  61  85 113 150 188 229 279 333
#     4  10  21  37  61  88 112 145 190 234 276 332
#     4  11  23  38  58  84 114 150 191 233 277 331
#
# _framework density 19.042401999999999
#
# number of rings (size 3 to 8) (size 9 to 14) (size 15 to 20)
#    0.000    1.800    2.000    1.800    0.000    9.200 
#    0.000    4.000    0.000    3.600    0.000    0.000 
#    0.000    0.000    0.000    0.000    0.000    0.000 
#
# Total GULP energy -248127.188369 kJ/mol
# GULP energy per Si atom -12406.359418 kJ/mol
# Density = 1.899906 g / cm^3
# Si number density = 19.042402 Si / 1000 Ang^3
#
#
#
# Elastic Constant Matrix: (Units=GPa)
#
#
# Indices 1 2 3 4 5 6 
#
# 1 99.9335 34.3884 19.6779 0.0000 12.3150 0.0000
# 2 34.3884 45.9531 28.7825 0.0000 7.5815 0.0000
# 3 19.6779 28.7825 76.9498 0.0000 2.4884 0.0000
# 4 0.0000 0.0000 0.0000 30.5122 0.0000 7.4618
# 5 12.3150 7.5815 2.4884 0.0000 23.5098 0.0000
# 6 0.0000 0.0000 0.0000 7.4618 0.0000 10.7286
#
#
#
# Elastic Compliance Matrix: (Units=1/GPa)
#
#
# Indices 1 2 3 4 5 6 
#
# 1 0.013852 -0.009864 0.000280 0.000000 -0.004105 0.000000
# 2 -0.009864 0.037055 -0.011157 0.000000 -0.005602 0.000000
# 3 0.000280 -0.011157 0.017044 0.000000 0.001647 0.000000
# 4 0.000000 0.000000 0.000000 0.039491 0.000000 -0.027466
# 5 -0.004105 -0.005602 0.001647 0.000000 0.046318 0.000000
# 6 0.000000 0.000000 0.000000 -0.027466 0.000000 0.112312
#
#
# Mechanical properties :
#
#
# Convention : Reuss Voigt Hill
#
# Bulk Modulus (GPa) = 37.77947 43.17043 40.47495
# Shear Modulus (GPa) = 15.80408 22.28263 19.04336
#
# Velocity S-wave (km/s) = 2.88400 3.42447 3.16579
# Velocity P-wave (km/s) = 5.56531 6.19321 5.88764
#
# Compressibility (1/GPa) = 0.02646940
#
# Stress axis : x y z
#
# Youngs Moduli (GPa) = 72.19376 26.98698 58.67303
#
# Poissons Ratio (x) = 0.26620 -0.01643
# Poissons Ratio (y) = 0.71211 0.65459
# Poissons Ratio (z) = -0.02022 0.30108
#
# Static dielectric constant tensor:
#      x y z
#    x 3.494910 0.000000 0.040340 
#    y 0.000000 3.375100 0.000000 
#    z 0.040340 0.000000 3.611760 
# 
# 
# High freq. dielectric constant tensor:
#      x y z
#    x 1.750780 0.000000 0.002750 
#    y 0.000000 1.732170 0.000000 
#    z 0.002750 0.000000 1.747630 
# 
# From -- ./inp_files/22144.got.cif
#   From: 2010.06.25/outbox.cif.g09.slc.cpg/sg10_12_cif.got.tgz:22144.got - 2010.06.27 22:07:45.
