data_PCOD8065392
_publ_section_title
;
Structure prediction by ZEFSAII (Michael W. Deem and Ramdas Pophale) SiO2 
 PCOD8065392
Probable space group: P 2/M
;
_chemical_formula_sum "Si O2"
_cell_formula_units_Z 24
_cell_length_a 21.918746
_cell_length_b 11.079918
_cell_length_c 21.938051
_cell_angle_alpha 90.000000
_cell_angle_beta 13.133672
_cell_angle_gamma 90.000000
_cell_volume 1210.608854
_symmetry_space_group_name_H-M "P 2/M"
_symmetry_group_IT_number 10
_symmetry_cell_setting 'monoclinic'
loop_
_space_group_symop_operation_xyz
x,y,z
-x,y,-z
-x,-y,-z
x,-y,z
loop_
_atom_site_type_symbol
_atom_site_label
_atom_site_fract_x
_atom_site_fract_y
_atom_site_fract_z
Si Si1 0.373241 0.000000 0.367226
Si Si2 0.073394 0.360346 0.752700
Si Si3 0.340222 0.254594 0.032799
Si Si4 0.232090 0.643404 0.731695
Si Si5 0.533920 0.745176 0.231908
Si Si6 0.123349 0.638408 0.444509
Si Si7 0.179546 0.000000 0.167120
O O1 0.418335 0.877996 0.362295
O O2 0.596578 0.000000 0.100207
O O3 0.097024 0.000000 0.599751
O O4 0.984546 0.500000 0.841411
O O5 0.198003 0.314839 0.695149
O O6 0.298510 0.346123 0.481260
O O7 0.809373 0.280520 0.998931
O O8 0.406041 0.272379 0.897745
O O9 0.224533 0.121390 0.162778
O O10 0.614909 0.278633 0.801512
O O11 0.101975 0.344805 0.283943
O O12 0.500000 0.698989 0.500000
O O13 0.237792 0.500000 0.728654
O O14 0.000000 0.696568 0.000000
O O15 0.218350 0.500000 0.353119
O O16 0.000000 0.676367 0.500000
#
# Coordination Sequence:
#
# PCOD8065392 Si02
#       7
#     2   4   4   4   4   4   2
#     4  10  20  38  58  78 109 151 192 218 258 334
#     4  11  22  34  52  86 122 142 175 232 281 328
#     4  11  22  39  61  83 110 146 184 229 285 328
#     4   9  17  31  50  72 105 150 187 215 262 325
#     4  11  22  36  57  84 112 146 182 226 280 330
#     4  11  24  41  59  81 112 151 192 224 259 330
#     4  10  20  38  61  84 108 137 182 236 276 322
#
# _framework density 19.824735
#
# number of rings (size 3 to 8) (size 9 to 14) (size 15 to 20)
#    0.000    1.500    0.000    7.500    0.000    8.000 
#    0.000    2.500    0.000    0.000    0.000   11.667 
#    0.000    0.000    0.000    0.000    0.000    0.000 
#
# Total GULP energy -297573.316336 kJ/mol
# GULP energy per Si atom -12398.888181 kJ/mol
# Density = 1.977961 g / cm^3
# Si number density = 19.824735 Si / 1000 Ang^3
#
#
#
# Elastic Constant Matrix: (Units=GPa)
#
#
# Indices 1 2 3 4 5 6 
#
# 1 99.4417 61.6956 50.9691 0.0000 -23.4242 0.0000
# 2 61.6956 84.1107 45.0783 0.0000 -20.8747 0.0000
# 3 50.9691 45.0783 158.4236 0.0000 -28.8212 0.0000
# 4 0.0000 0.0000 0.0000 29.3340 0.0000 -12.7230
# 5 -23.4242 -20.8747 -28.8212 0.0000 46.5258 0.0000
# 6 0.0000 0.0000 0.0000 -12.7230 0.0000 11.8534
#
#
#
# Elastic Compliance Matrix: (Units=1/GPa)
#
#
# Indices 1 2 3 4 5 6 
#
# 1 0.019627 -0.012479 -0.002237 0.000000 0.002897 0.000000
# 2 -0.012479 0.022772 -0.001971 0.000000 0.002713 0.000000
# 3 -0.002237 -0.001971 0.008145 0.000000 0.003035 0.000000
# 4 0.000000 0.000000 0.000000 0.063785 0.000000 0.068464
# 5 0.002897 0.002713 0.003035 0.000000 0.026050 0.000000
# 6 0.000000 0.000000 0.000000 0.068464 0.000000 0.157850
#
#
# Mechanical properties :
#
#
# Convention : Reuss Voigt Hill
#
# Bulk Modulus (GPa) = 58.23920 73.05134 65.64527
# Shear Modulus (GPa) = 14.82246 29.82486 22.32366
#
# Velocity S-wave (km/s) = 2.73733 3.88290 3.35931
# Velocity P-wave (km/s) = 6.27945 7.55190 6.94488
#
# Compressibility (1/GPa) = 0.01717057
#
# Stress axis : x y z
#
# Youngs Moduli (GPa) = 50.94991 43.91313 122.77694
#
# Poissons Ratio (x) = 0.54798 0.27462
# Poissons Ratio (y) = 0.63579 0.24203
# Poissons Ratio (z) = 0.11396 0.08656
#
# Static dielectric constant tensor:
#      x y z
#    x 3.595030 0.000000 -0.041360 
#    y 0.000000 -3.191240 0.000000 
#    z -0.041360 0.000000 3.789430 
# 
# 
# High freq. dielectric constant tensor:
#      x y z
#    x 1.762650 0.000000 -0.007540 
#    y 0.000000 1.753280 0.000000 
#    z -0.007540 0.000000 1.798130 
# 
# From -- ./inp_files/90808.got.cif
#   From: 2010.06.25/outbox.cif.g09.slc.cpg/sg10_46_cif.got.tgz:90808.got - 2010.06.27 22:07:45.
