data_PCOD8065817
_publ_section_title
;
Structure prediction by ZEFSAII (Michael W. Deem and Ramdas Pophale) SiO2 
 PCOD8065817
Probable space group: P 2/M
;
_chemical_formula_sum "Si O2"
_cell_formula_units_Z 28
_cell_length_a 12.706419
_cell_length_b 8.943129
_cell_length_c 16.040829
_cell_angle_alpha 90.000000
_cell_angle_beta 55.826946
_cell_angle_gamma 90.000000
_cell_volume 1508.085740
_symmetry_space_group_name_H-M "P 2/M"
_symmetry_group_IT_number 10
_symmetry_cell_setting 'monoclinic'
loop_
_space_group_symop_operation_xyz
x,y,z
-x,y,-z
-x,-y,-z
x,-y,z
loop_
_atom_site_type_symbol
_atom_site_label
_atom_site_fract_x
_atom_site_fract_y
_atom_site_fract_z
Si Si1 0.200811 0.677826 0.405819
Si Si2 0.588294 0.327832 0.035430
Si Si3 0.169984 0.174012 0.016858
Si Si4 0.944676 0.677638 0.207910
Si Si5 0.994135 0.677585 0.371107
Si Si6 0.728639 0.825391 0.210897
Si Si7 0.515565 0.326716 0.736668
O O1 0.206611 0.500000 0.399406
O O2 0.127991 0.732829 0.521317
O O3 0.344251 0.740737 0.342988
O O4 0.123451 0.735213 0.358409
O O5 0.628832 0.500000 0.005236
O O6 0.510852 0.303441 0.154294
O O7 0.500000 0.271783 0.000000
O O8 0.715239 0.229105 0.975815
O O9 0.042693 0.262031 0.095910
O O10 0.145789 0.000000 0.042311
O O11 0.203131 0.210708 0.906853
O O12 0.941191 0.500000 0.206285
O O13 0.984976 0.739047 0.281198
O O14 0.805060 0.740577 0.249308
O O15 0.994081 0.500000 0.369919
O O16 0.584640 0.764855 0.274228
O O17 0.726322 0.000000 0.231324
O O18 0.505119 0.500000 0.716004
#
# Coordination Sequence:
#
# PCOD8065817 Si02
#       7
#     4   4   4   4   4   4   4
#     4   8  14  29  52  77 105 132 161 201 253 308
#     4   9  18  30  47  75 107 132 164 211 253 294
#     4  10  21  35  50  70 100 140 175 204 248 302
#     4  11  21  32  53  79 103 129 169 216 257 296
#     4   8  16  29  49  79 107 129 159 206 258 302
#     4  10  21  37  52  69 101 139 174 208 249 302
#     4   9  17  30  53  77  99 132 170 206 251 299
#
# _framework density 18.566585
#
# number of rings (size 3 to 8) (size 9 to 14) (size 15 to 20)
#    0.000    2.714    0.000    2.571    2.000    3.714 
#    0.000    0.714    0.000    6.000    0.000    5.000 
#    0.000    0.000    0.000    0.000    0.000    0.000 
#
# Total GULP energy -347187.147779 kJ/mol
# GULP energy per Si atom -12399.540992 kJ/mol
# Density = 1.852433 g / cm^3
# Si number density = 18.566585 Si / 1000 Ang^3
#
#
#
# Elastic Constant Matrix: (Units=GPa)
#
#
# Indices 1 2 3 4 5 6 
#
# 1 145.5277 42.7757 54.3735 0.0000 -14.6082 0.0000
# 2 42.7757 52.6127 25.9087 0.0000 -2.0572 0.0000
# 3 54.3735 25.9087 61.0453 0.0000 -14.1976 0.0000
# 4 0.0000 0.0000 0.0000 11.1892 0.0000 1.0748
# 5 -14.6082 -2.0572 -14.1976 0.0000 31.8470 0.0000
# 6 0.0000 0.0000 0.0000 1.0748 0.0000 12.9948
#
#
#
# Elastic Compliance Matrix: (Units=1/GPa)
#
#
# Indices 1 2 3 4 5 6 
#
# 1 0.011461 -0.005574 -0.007480 0.000000 0.001563 0.000000
# 2 -0.005574 0.027063 -0.007485 0.000000 -0.004146 0.000000
# 3 -0.007480 -0.007485 0.028238 0.000000 0.008674 0.000000
# 4 0.000000 0.000000 0.000000 0.090088 0.000000 -0.007451
# 5 0.001563 -0.004146 0.008674 0.000000 0.035716 0.000000
# 6 0.000000 0.000000 0.000000 -0.007451 0.000000 0.077570
#
#
# Mechanical properties :
#
#
# Convention : Reuss Voigt Hill
#
# Bulk Modulus (GPa) = 38.93463 56.14462 47.53962
# Shear Modulus (GPa) = 15.63601 20.28137 17.95869
#
# Velocity S-wave (km/s) = 2.90514 3.30867 3.11345
# Velocity P-wave (km/s) = 5.68058 6.70087 6.21171
#
# Compressibility (1/GPa) = 0.02568408
#
# Stress axis : x y z
#
# Youngs Moduli (GPa) = 87.24901 36.95126 35.41389
#
# Poissons Ratio (x) = 0.20597 0.26488
# Poissons Ratio (y) = 0.48634 0.26508
# Poissons Ratio (z) = 0.65258 0.27658
#
# Static dielectric constant tensor:
#      x y z
#    x 3.694360 0.000000 -0.031430 
#    y 0.000000 3.099570 0.000000 
#    z -0.031430 0.000000 3.399990 
# 
# 
# High freq. dielectric constant tensor:
#      x y z
#    x 1.734870 0.000000 -0.004720 
#    y 0.000000 1.689350 0.000000 
#    z -0.004720 0.000000 1.703880 
# 
# From -- ./inp_files/49369.got.cif
#   From: 2010.06.25/outbox.cif.g09.slc.cpg/sg10_25_cif.got.tgz:49369.got - 2010.06.27 22:07:45.
