data_PCOD8065690
_publ_section_title
;
Structure prediction by ZEFSAII (Michael W. Deem and Ramdas Pophale) SiO2 
 PCOD8065690
Probable space group: P 2/M
;
_chemical_formula_sum "Si O2"
_cell_formula_units_Z 28
_cell_length_a 9.420483
_cell_length_b 18.419098
_cell_length_c 14.162119
_cell_angle_alpha 90.000000
_cell_angle_beta 38.437950
_cell_angle_gamma 90.000000
_cell_volume 1527.662403
_symmetry_space_group_name_H-M "P 2/M"
_symmetry_group_IT_number 10
_symmetry_cell_setting 'monoclinic'
loop_
_space_group_symop_operation_xyz
x,y,z
-x,y,-z
-x,-y,-z
x,-y,z
loop_
_atom_site_type_symbol
_atom_site_label
_atom_site_fract_x
_atom_site_fract_y
_atom_site_fract_z
Si Si1 0.284097 0.077657 0.547820
Si Si2 0.049648 0.681192 0.367303
Si Si3 0.230089 0.230909 0.624867
Si Si4 0.904289 0.705473 0.946849
Si Si5 0.262330 0.082226 0.350158
Si Si6 0.535184 0.210007 0.870825
Si Si7 0.234529 0.582629 0.118225
O O1 0.500000 0.069713 0.500000
O O2 0.139529 0.147937 0.655572
O O3 0.377381 0.089442 0.392991
O O4 0.144880 0.000000 0.624852
O O5 0.268137 0.732279 0.249520
O O6 0.096010 0.608955 0.282492
O O7 0.000000 0.657729 0.500000
O O8 0.832306 0.722722 0.435658
O O9 0.500000 0.232990 0.500000
O O10 0.108934 0.260922 0.780069
O O11 0.825991 0.629642 0.942100
O O12 0.695140 0.761865 0.058912
O O13 0.000000 0.689103 0.000000
O O14 0.396968 0.132726 0.207543
O O15 0.000000 0.107387 0.500000
O O16 0.275328 0.000000 0.304347
O O17 0.500000 0.200657 0.000000
O O18 0.165131 0.500000 0.133355
O O19 0.500000 0.591421 0.000000
#
# Coordination Sequence:
#
# PCOD8065690 Si02
#       7
#     4   4   4   4   4   4   4
#     4   9  18  33  53  75 107 149 194 233 279 340
#     4  11  21  36  61  88 116 152 192 243 284 343
#     4  10  21  35  55  86 112 153 195 243 292 340
#     4  11  24  38  59  89 119 151 194 245 290 349
#     4  10  22  37  57  85 116 155 200 247 301 354
#     4  12  21  39  59  85 118 155 201 245 297 345
#     4  10  20  41  65  88 120 153 189 235 292 357
#
# _framework density 18.328657
#
# number of rings (size 3 to 8) (size 9 to 14) (size 15 to 20)
#    0.000    1.571    4.286    2.143    6.000    0.857 
#    0.000    0.714    0.000    7.714    0.000    0.000 
#    0.000    0.000    0.000    0.000    0.000    0.000 
#
# Total GULP energy -347117.463822 kJ/mol
# GULP energy per Si atom -12397.052279 kJ/mol
# Density = 1.828694 g / cm^3
# Si number density = 18.328657 Si / 1000 Ang^3
#
#
#
# Elastic Constant Matrix: (Units=GPa)
#
#
# Indices 1 2 3 4 5 6 
#
# 1 127.0823 51.4724 51.5384 0.0000 15.3633 0.0000
# 2 51.4724 148.2645 57.1105 0.0000 5.5919 0.0000
# 3 51.5384 57.1105 87.7533 0.0000 4.6485 0.0000
# 4 0.0000 0.0000 0.0000 30.4834 0.0000 -0.4221
# 5 15.3633 5.5919 4.6485 0.0000 34.5198 0.0000
# 6 0.0000 0.0000 0.0000 -0.4221 0.0000 17.9307
#
#
#
# Elastic Compliance Matrix: (Units=1/GPa)
#
#
# Indices 1 2 3 4 5 6 
#
# 1 0.011166 -0.001710 -0.005234 0.000000 -0.003988 0.000000
# 2 -0.001710 0.009279 -0.005031 0.000000 -0.000064 0.000000
# 3 -0.005234 -0.005031 0.017703 0.000000 0.000760 0.000000
# 4 0.000000 0.000000 0.000000 0.032815 0.000000 0.000772
# 5 -0.003988 -0.000064 0.000760 0.000000 0.030652 0.000000
# 6 0.000000 0.000000 0.000000 0.000772 0.000000 0.055788
#
#
# Mechanical properties :
#
#
# Convention : Reuss Voigt Hill
#
# Bulk Modulus (GPa) = 70.42938 75.92697 73.17818
# Shear Modulus (GPa) = 26.86925 30.11872 28.49398
#
# Velocity S-wave (km/s) = 3.83295 4.05811 3.94714
# Velocity P-wave (km/s) = 7.62220 7.96699 7.79650
#
# Compressibility (1/GPa) = 0.01419862
#
# Stress axis : x y z
#
# Youngs Moduli (GPa) = 89.55552 107.77404 56.48656
#
# Poissons Ratio (x) = 0.18430 0.29564
# Poissons Ratio (y) = 0.15315 0.28418
# Poissons Ratio (z) = 0.46872 0.54220
#
# Static dielectric constant tensor:
#      x y z
#    x 3.535400 0.000000 -0.013850 
#    y 0.000000 3.723870 0.000000 
#    z -0.013850 0.000000 2.929820 
# 
# 
# High freq. dielectric constant tensor:
#      x y z
#    x 1.725700 0.000000 0.005190 
#    y 0.000000 1.715190 0.000000 
#    z 0.005190 0.000000 1.689970 
# 
# From -- ./inp_files/62305.got.cif
#   From: 2010.06.25/outbox.cif.g09.slc.cpg/sg10_32_cif.got.tgz:62305.got - 2010.06.27 22:07:45.
