data_PCOD8065446
_publ_section_title
;
Structure prediction by ZEFSAII (Michael W. Deem and Ramdas Pophale) SiO2 
 PCOD8065446
Probable space group: P 2/M
;
_chemical_formula_sum "Si O2"
_cell_formula_units_Z 28
_cell_length_a 12.581793
_cell_length_b 8.685583
_cell_length_c 14.481893
_cell_angle_alpha 90.000000
_cell_angle_beta 120.170627
_cell_angle_gamma 90.000000
_cell_volume 1368.195638
_symmetry_space_group_name_H-M "P 2/M"
_symmetry_group_IT_number 10
_symmetry_cell_setting 'monoclinic'
loop_
_space_group_symop_operation_xyz
x,y,z
-x,y,-z
-x,-y,-z
x,-y,z
loop_
_atom_site_type_symbol
_atom_site_label
_atom_site_fract_x
_atom_site_fract_y
_atom_site_fract_z
Si Si1 0.982469 0.322836 0.384598
Si Si2 0.848235 0.180272 0.683796
Si Si3 0.708661 0.681872 0.217731
Si Si4 0.958637 0.182552 0.079496
Si Si5 0.491979 0.818251 0.224338
Si Si6 0.407976 0.319857 0.379350
Si Si7 0.308377 0.182808 0.983897
O O1 0.999404 0.500000 0.362111
O O2 0.088584 0.219374 0.385713
O O3 0.000000 0.301947 0.500000
O O4 0.848270 0.261358 0.295177
O O5 0.726322 0.277999 0.643470
O O6 0.942380 0.235783 0.803075
O O7 0.817446 0.000000 0.676630
O O8 0.702155 0.500000 0.215043
O O9 0.625309 0.743857 0.265386
O O10 0.653970 0.747259 0.098233
O O11 0.825729 0.248512 0.048426
O O12 0.950100 0.000000 0.069394
O O13 0.000000 0.253316 0.000000
O O14 0.438972 0.769702 0.299587
O O15 0.504959 0.000000 0.228505
O O16 0.400758 0.760770 0.103646
O O17 0.500000 0.267629 0.500000
O O18 0.417928 0.500000 0.363451
O O19 0.309797 0.000000 0.974991
#
# Coordination Sequence:
#
# PCOD8065446 Si02
#       7
#     4   4   4   4   4   4   4
#     4  10  23  42  63  88 124 169 209 250 309 374
#     4  11  22  39  66  96 124 156 202 260 308 356
#     4  11  23  39  62  92 128 167 208 255 309 369
#     4   9  17  32  57  87 121 158 195 240 299 361
#     4  11  24  41  65  93 124 163 210 260 308 363
#     4  11  26  46  66  88 123 168 207 249 309 374
#     4  10  20  38  61  89 126 165 205 251 310 370
#
# _framework density 20.464908999999999
#
# number of rings (size 3 to 8) (size 9 to 14) (size 15 to 20)
#    0.000    1.571    1.429    3.000    2.000    7.143 
#    0.000    0.000    0.000    2.143    0.000    0.000 
#    0.000    0.000    0.000    0.000    0.000    0.000 
#
# Total GULP energy -347341.167828 kJ/mol
# GULP energy per Si atom -12405.041708 kJ/mol
# Density = 2.041833 g / cm^3
# Si number density = 20.464909 Si / 1000 Ang^3
#
#
#
# Elastic Constant Matrix: (Units=GPa)
#
#
# Indices 1 2 3 4 5 6 
#
# 1 133.9802 20.3019 44.6700 0.0000 4.5508 0.0000
# 2 20.3019 37.4480 27.2147 0.0000 -0.6367 0.0000
# 3 44.6700 27.2147 108.0190 0.0000 -5.1586 0.0000
# 4 0.0000 0.0000 0.0000 25.9518 0.0000 -2.8029
# 5 4.5508 -0.6367 -5.1586 0.0000 26.4047 0.0000
# 6 0.0000 0.0000 0.0000 -2.8029 0.0000 33.9878
#
#
#
# Elastic Compliance Matrix: (Units=1/GPa)
#
#
# Indices 1 2 3 4 5 6 
#
# 1 0.008991 -0.002611 -0.003167 0.000000 -0.002231 0.000000
# 2 -0.002611 0.033465 -0.007360 0.000000 -0.000181 0.000000
# 3 -0.003167 -0.007360 0.012556 0.000000 0.002821 0.000000
# 4 0.000000 0.000000 0.000000 0.038879 0.000000 0.003206
# 5 -0.002231 -0.000181 0.002821 0.000000 0.038803 0.000000
# 6 0.000000 0.000000 0.000000 0.003206 0.000000 0.029687
#
#
# Mechanical properties :
#
#
# Convention : Reuss Voigt Hill
#
# Bulk Modulus (GPa) = 34.79903 51.53561 43.16732
# Shear Modulus (GPa) = 25.22238 29.75292 27.48765
#
# Velocity S-wave (km/s) = 3.51446 3.81708 3.66889
# Velocity P-wave (km/s) = 5.78876 6.68310 6.25194
#
# Compressibility (1/GPa) = 0.02873644
#
# Stress axis : x y z
#
# Youngs Moduli (GPa) = 111.22155 29.88196 79.64070
#
# Poissons Ratio (x) = 0.07802 0.25222
# Poissons Ratio (y) = 0.29038 0.58618
# Poissons Ratio (z) = 0.35223 0.21994
#
# Static dielectric constant tensor:
#      x y z
#    x 3.872820 0.000000 0.064970 
#    y 0.000000 3.484940 0.000000 
#    z 0.064970 0.000000 3.844840 
# 
# 
# High freq. dielectric constant tensor:
#      x y z
#    x 1.818040 0.000000 -0.000490 
#    y 0.000000 1.783990 0.000000 
#    z -0.000490 0.000000 1.808160 
# 
# From -- ./inp_files/50031.got.cif
#   From: 2010.06.25/outbox.cif.g09.slc.cpg/sg10_26_cif.got.tgz:50031.got - 2010.06.27 22:07:45.
