data_PCOD8065078
_publ_section_title
;
Structure prediction by ZEFSAII (Michael W. Deem and Ramdas Pophale) SiO2 
 PCOD8065078
Probable space group: P 2/M
;
_chemical_formula_sum "Si O2"
_cell_formula_units_Z 28
_cell_length_a 27.577339
_cell_length_b 9.295928
_cell_length_c 10.132113
_cell_angle_alpha 90.000000
_cell_angle_beta 34.574441
_cell_angle_gamma 90.000000
_cell_volume 1473.984826
_symmetry_space_group_name_H-M "P 2/M"
_symmetry_group_IT_number 10
_symmetry_cell_setting 'monoclinic'
loop_
_space_group_symop_operation_xyz
x,y,z
-x,y,-z
-x,-y,-z
x,-y,z
loop_
_atom_site_type_symbol
_atom_site_label
_atom_site_fract_x
_atom_site_fract_y
_atom_site_fract_z
Si Si1 0.335556 0.834099 0.135814
Si Si2 0.057548 0.669035 0.991914
Si Si3 0.224903 0.168003 0.136651
Si Si4 0.252140 0.333267 0.552547
Si Si5 0.685713 0.330555 0.296447
Si Si6 0.518228 0.165750 0.609028
Si Si7 0.972836 0.833216 0.415906
O O1 0.278785 0.777062 0.141229
O O2 0.314516 0.750921 0.315898
O O3 0.314607 0.000000 0.206809
O O4 0.434659 0.808543 0.883584
O O5 0.047140 0.500000 0.037662
O O6 0.029416 0.744755 0.188200
O O7 0.154699 0.711457 0.742074
O O8 0.000000 0.724547 0.000000
O O9 0.126340 0.199309 0.386777
O O10 0.242488 0.000000 0.068737
O O11 0.253082 0.258026 0.947379
O O12 0.267058 0.500000 0.491589
O O13 0.274657 0.292812 0.651247
O O14 0.681937 0.500000 0.278416
O O15 0.590880 0.266975 0.504551
O O16 0.500000 0.211084 0.500000
O O17 0.548504 0.000000 0.546339
O O18 0.000000 0.781922 0.500000
O O19 0.994192 0.000000 0.347909
#
# Coordination Sequence:
#
# PCOD8065078 Si02
#       7
#     4   4   4   4   4   4   4
#     4  10  21  37  60  85 107 144 191 231 277 335
#     4  10  21  38  59  81 111 153 195 232 279 335
#     4  10  20  37  58  82 114 148 187 236 285 332
#     4  10  23  40  55  81 120 153 184 232 285 333
#     4  11  23  37  57  85 116 151 189 228 281 340
#     4  10  20  39  62  84 114 146 184 234 282 330
#     4  10  21  35  55  85 115 145 186 236 286 334
#
# _framework density 18.996124999999999
#
# number of rings (size 3 to 8) (size 9 to 14) (size 15 to 20)
#    0.000    1.857    1.429    2.143    0.000    4.857 
#    0.000    2.857    0.000    0.000    0.000    0.000 
#    0.000    0.000    0.000    0.000    0.000    0.000 
#
# Total GULP energy -347360.420681 kJ/mol
# GULP energy per Si atom -12405.729310 kJ/mol
# Density = 1.895289 g / cm^3
# Si number density = 18.996125 Si / 1000 Ang^3
#
#
#
# Elastic Constant Matrix: (Units=GPa)
#
#
# Indices 1 2 3 4 5 6 
#
# 1 73.9076 33.8206 19.5929 0.0000 4.3466 0.0000
# 2 33.8206 57.7611 44.5745 0.0000 11.6622 0.0000
# 3 19.5929 44.5745 99.4809 0.0000 17.5461 0.0000
# 4 0.0000 0.0000 0.0000 24.7792 0.0000 8.3067
# 5 4.3466 11.6622 17.5461 0.0000 30.2389 0.0000
# 6 0.0000 0.0000 0.0000 8.3067 0.0000 30.1737
#
#
#
# Elastic Compliance Matrix: (Units=1/GPa)
#
#
# Indices 1 2 3 4 5 6 
#
# 1 0.018742 -0.012535 0.001724 0.000000 0.001140 0.000000
# 2 -0.012535 0.035224 -0.012517 0.000000 -0.004520 0.000000
# 3 0.001724 -0.012517 0.016168 0.000000 -0.004802 0.000000
# 4 0.000000 0.000000 0.000000 0.044459 0.000000 -0.012239
# 5 0.001140 -0.004520 -0.004802 0.000000 0.037436 0.000000
# 6 0.000000 0.000000 0.000000 -0.012239 0.000000 0.036511
#
#
# Mechanical properties :
#
#
# Convention : Reuss Voigt Hill
#
# Bulk Modulus (GPa) = 42.59066 47.45839 45.02452
# Shear Modulus (GPa) = 20.57428 25.91579 23.24504
#
# Velocity S-wave (km/s) = 3.29458 3.69761 3.50190
# Velocity P-wave (km/s) = 6.07797 6.57778 6.33281
#
# Compressibility (1/GPa) = 0.02347933
#
# Stress axis : x y z
#
# Youngs Moduli (GPa) = 53.35529 28.38972 61.85052
#
# Poissons Ratio (x) = 0.35586 -0.10663
# Poissons Ratio (y) = 0.66879 0.77418
# Poissons Ratio (z) = -0.09199 0.35535
#
# Static dielectric constant tensor:
#      x y z
#    x 3.676990 0.000000 -0.093790 
#    y 0.000000 3.390320 0.000000 
#    z -0.093790 0.000000 3.422490 
# 
# 
# High freq. dielectric constant tensor:
#      x y z
#    x 1.750360 0.000000 -0.004240 
#    y 0.000000 1.730920 0.000000 
#    z -0.004240 0.000000 1.748480 
# 
# From -- ./inp_files/36928.got.cif
#   From: 2010.06.25/outbox.cif.g09.slc.cpg/sg10_19_cif.got.tgz:36928.got - 2010.06.27 22:07:45.
