data_PCOD8065590
_publ_section_title
;
Structure prediction by ZEFSAII (Michael W. Deem and Ramdas Pophale) SiO2 
 PCOD8065590
Probable space group: P 2/M
;
_chemical_formula_sum "Si O2"
_cell_formula_units_Z 32
_cell_length_a 14.368781
_cell_length_b 9.016565
_cell_length_c 14.880491
_cell_angle_alpha 90.000000
_cell_angle_beta 119.983460
_cell_angle_gamma 90.000000
_cell_volume 1669.864744
_symmetry_space_group_name_H-M "P 2/M"
_symmetry_group_IT_number 10
_symmetry_cell_setting 'monoclinic'
loop_
_space_group_symop_operation_xyz
x,y,z
-x,y,-z
-x,-y,-z
x,-y,z
loop_
_atom_site_type_symbol
_atom_site_label
_atom_site_fract_x
_atom_site_fract_y
_atom_site_fract_z
Si Si1 0.885919 0.327154 0.481942
Si Si2 0.931389 0.330302 0.706135
Si Si3 0.284599 0.825318 0.725249
Si Si4 0.503937 0.331669 0.223728
Si Si5 0.819909 0.328352 0.161589
Si Si6 0.216107 0.174737 0.229128
Si Si7 0.571204 0.669730 0.616161
Si Si8 0.263253 0.326722 0.071978
O O1 0.874627 0.500000 0.452461
O O2 0.876559 0.298015 0.583701
O O3 0.788758 0.242836 0.388134
O O4 0.000000 0.267739 0.500000
O O5 0.912219 0.500000 0.726160
O O6 0.884571 0.224118 0.759637
O O7 0.056851 0.296627 0.757059
O O8 0.407819 0.779571 0.771283
O O9 0.250768 0.770588 0.806908
O O10 0.274271 0.000000 0.715293
O O11 0.533458 0.500000 0.210319
O O12 0.499986 0.316514 0.329162
O O13 0.389070 0.284884 0.126789
O O14 0.790278 0.500000 0.162823
O O15 0.794258 0.280523 0.047584
O O16 0.323669 0.230273 0.329113
O O17 0.204321 0.240118 0.123544
O O18 0.218042 0.000000 0.222885
O O19 0.500000 0.729078 0.500000
O O20 0.608110 0.500000 0.618361
O O21 0.251381 0.500000 0.088226
#
# Coordination Sequence:
#
# PCOD8065590 Si02
#       8
#     4   4   4   4   4   4   4   4
#     4  10  20  39  63  84 111 152 199 244 286 334
#     4  10  21  38  62  87 114 151 197 244 286 338
#     4  12  25  37  55  87 125 158 188 232 292 357
#     4   9  19  37  59  84 114 150 194 241 286 337
#     4  10  21  41  66  88 110 147 202 251 287 333
#     4  11  23  37  56  85 124 157 185 231 292 356
#     4   9  19  37  60  84 109 147 200 246 284 333
#     4   9  20  41  67  88 110 147 199 251 289 331
#
# _framework density 19.163228
#
# number of rings (size 3 to 8) (size 9 to 14) (size 15 to 20)
#    0.000    2.000    1.250    3.000    1.750    5.000 
#    0.000    5.000    0.000    0.000    0.000    0.000 
#    0.000    0.000    0.000    0.000    0.000    0.000 
#
# Total GULP energy -396943.621893 kJ/mol
# GULP energy per Si atom -12404.488184 kJ/mol
# Density = 1.911961 g / cm^3
# Si number density = 19.163228 Si / 1000 Ang^3
#
#
#
# Elastic Constant Matrix: (Units=GPa)
#
#
# Indices 1 2 3 4 5 6 
#
# 1 72.8569 40.1480 9.5860 0.0000 -14.5852 0.0000
# 2 40.1480 90.8205 31.7014 0.0000 -9.5476 0.0000
# 3 9.5860 31.7014 89.8099 0.0000 -13.0933 0.0000
# 4 0.0000 0.0000 0.0000 14.8296 0.0000 -5.5816
# 5 -14.5852 -9.5476 -13.0933 0.0000 16.3637 0.0000
# 6 0.0000 0.0000 0.0000 -5.5816 0.0000 7.8900
#
#
#
# Elastic Compliance Matrix: (Units=1/GPa)
#
#
# Indices 1 2 3 4 5 6 
#
# 1 0.021532 -0.008914 0.003269 0.000000 0.016607 0.000000
# 2 -0.008914 0.016518 -0.005244 0.000000 -0.002503 0.000000
# 3 0.003269 -0.005244 0.014282 0.000000 0.011281 0.000000
# 4 0.000000 0.000000 0.000000 0.091903 0.000000 0.065014
# 5 0.016607 -0.002503 0.011281 0.000000 0.083479 0.000000
# 6 0.000000 0.000000 0.000000 0.065014 0.000000 0.172736
#
#
# Mechanical properties :
#
#
# Convention : Reuss Voigt Hill
#
# Bulk Modulus (GPa) = 32.72856 46.26200 39.49528
# Shear Modulus (GPa) = 11.56305 19.28678 15.42491
#
# Velocity S-wave (km/s) = 2.45908 3.17590 2.84019
# Velocity P-wave (km/s) = 5.01784 6.13530 5.60449
#
# Compressibility (1/GPa) = 0.03055435
#
# Stress axis : x y z
#
# Youngs Moduli (GPa) = 46.44303 60.53826 70.02057
#
# Poissons Ratio (x) = 0.53962 -0.22891
# Poissons Ratio (y) = 0.41398 0.36721
# Poissons Ratio (z) = -0.15183 0.31748
#
# Static dielectric constant tensor:
#      x y z
#    x 3.434160 0.000000 -0.011590 
#    y 0.000000 3.341660 0.000000 
#    z -0.011590 0.000000 3.611770 
# 
# 
# High freq. dielectric constant tensor:
#      x y z
#    x 1.747070 0.000000 -0.002810 
#    y 0.000000 1.727840 0.000000 
#    z -0.002810 0.000000 1.754010 
# 
# From -- ./inp_files/66493.got.cif
#   From: 2010.06.25/outbox.cif.g09.slc.cpg/sg10_34_cif.got.tgz:66493.got - 2010.06.27 22:07:45.
