data_PCOD8065255
_publ_section_title
;
Structure prediction by ZEFSAII (Michael W. Deem and Ramdas Pophale) SiO2 
 PCOD8065255
Probable space group: P 2/M
;
_chemical_formula_sum "Si O2"
_cell_formula_units_Z 32
_cell_length_a 23.936524
_cell_length_b 8.663721
_cell_length_c 14.247485
_cell_angle_alpha 90.000000
_cell_angle_beta 32.926964
_cell_angle_gamma 90.000000
_cell_volume 1606.049214
_symmetry_space_group_name_H-M "P 2/M"
_symmetry_group_IT_number 10
_symmetry_cell_setting 'monoclinic'
loop_
_space_group_symop_operation_xyz
x,y,z
-x,y,-z
-x,-y,-z
x,-y,z
loop_
_atom_site_type_symbol
_atom_site_label
_atom_site_fract_x
_atom_site_fract_y
_atom_site_fract_z
Si Si1 0.882284 0.317735 0.172738
Si Si2 0.480933 0.680818 0.309814
Si Si3 0.703872 0.819246 0.318229
Si Si4 0.563043 0.818598 0.819932
Si Si5 0.915370 0.317511 0.495109
Si Si6 0.858355 0.317423 0.781266
Si Si7 0.667558 0.819960 0.155007
Si Si8 0.787734 0.682836 0.501680
O O1 0.870114 0.500000 0.175670
O O2 0.819820 0.231372 0.178864
O O3 0.839428 0.260356 0.332924
O O4 0.000000 0.266012 0.000000
O O5 0.481567 0.500000 0.290694
O O6 0.371693 0.727528 0.506661
O O7 0.498495 0.764286 0.185469
O O8 0.571237 0.725401 0.252923
O O9 0.681472 0.772461 0.243201
O O10 0.688232 0.000000 0.356971
O O11 0.672452 0.738772 0.670554
O O12 0.578959 0.000000 0.793966
O O13 0.500000 0.766403 0.000000
O O14 0.916136 0.500000 0.488781
O O15 0.860047 0.268619 0.669634
O O16 0.853168 0.245439 0.495652
O O17 0.033970 0.263670 0.324425
O O18 0.839131 0.500000 0.820835
O O19 0.769416 0.221349 0.955142
O O20 0.643602 0.000000 0.177979
O O21 0.788942 0.500000 0.505622
#
# Coordination Sequence:
#
# PCOD8065255 Si02
#       8
#     4   4   4   4   4   4   4   4
#     4  10  22  38  61  94 127 163 207 254 305 360
#     4  12  25  43  67  92 117 154 203 254 304 358
#     4  11  24  43  64  87 122 162 198 247 309 368
#     4  11  25  43  63  91 128 167 203 248 307 368
#     4   8  17  34  58  87 122 157 199 248 299 350
#     4   9  18  36  60  88 118 158 203 248 296 351
#     4  11  25  41  60  89 123 157 196 246 308 367
#     4  10  20  37  61  91 125 164 205 254 304 355
#
# _framework density 19.924669000000002
#
# number of rings (size 3 to 8) (size 9 to 14) (size 15 to 20)
#    0.000    1.750    1.250    3.375    3.500    4.750 
#    0.000    1.875    0.000    0.000    0.000    0.000 
#    0.000    0.000    0.000    0.000    0.000    0.000 
#
# Total GULP energy -396922.743458 kJ/mol
# GULP energy per Si atom -12403.835733 kJ/mol
# Density = 1.987932 g / cm^3
# Si number density = 19.924669 Si / 1000 Ang^3
#
#
#
# Elastic Constant Matrix: (Units=GPa)
#
#
# Indices 1 2 3 4 5 6 
#
# 1 -154.1774 -570.8628 -329.0723 0.0000 -55.6676 0.0000
# 2 -570.8628-1116.8751 -716.7146 0.0000 -98.1378 0.0000
# 3 -329.0723 -716.7146 -353.3321 0.0000 -67.5261 0.0000
# 4 0.0000 0.0000 0.0000 -39.2817 0.0000 38.8201
# 5 -55.6676 -98.1378 -67.5261 0.0000 10.6846 0.0000
# 6 0.0000 0.0000 0.0000 38.8201 0.0000 5.2610
#
#
#
# Elastic Compliance Matrix: (Units=1/GPa)
#
#
# Indices 1 2 3 4 5 6 
#
# 1 0.008079 -0.002508 -0.002753 0.000000 0.001655 0.000000
# 2 -0.002508 0.004441 -0.005423 0.000000 -0.006544 0.000000
# 3 -0.002753 -0.005423 0.010415 0.000000 0.001669 0.000000
# 4 0.000000 0.000000 0.000000 -0.003070 0.000000 0.022653
# 5 0.001655 -0.006544 0.001669 0.000000 0.052658 0.000000
# 6 0.000000 0.000000 0.000000 0.022653 0.000000 0.022923
#
#
# Mechanical properties :
#
#
# Convention : Reuss Voigt Hill
#
# Bulk Modulus (GPa) = 638.07415 -539.74267 49.16574
# Shear Modulus (GPa) = 42.61243 -5.18288 18.71478
#
# Velocity S-wave (km/s) = 4.62960 -1.61458 3.06809
# Velocity P-wave (km/s) = 18.69535 16.58178 6.10576
#
# Compressibility (1/GPa) = 0.00156722
#
# Stress axis : x y z
#
# Youngs Moduli (GPa) = 123.77902 225.14953 96.01549
#
# Poissons Ratio (x) = 0.56468 0.26435
# Poissons Ratio (y) = 0.31044 0.52068
# Poissons Ratio (z) = 0.34079 1.22095
#
# Static dielectric constant tensor:
#      x y z
#    x 4.174850 0.000000 0.066840 
#    y 0.000000 3.408630 0.000000 
#    z 0.066840 0.000000 3.682610 
# 
# 
# High freq. dielectric constant tensor:
#      x y z
#    x 1.795950 0.000000 -0.001060 
#    y 0.000000 1.761300 0.000000 
#    z -0.001060 0.000000 1.784520 
# 
# From -- ./inp_files/71411.got.cif
#   From: 2010.06.25/outbox.cif.g09.slc.cpg/sg10_36_cif.got.tgz:71411.got - 2010.06.27 22:07:45.
