data_PCOD8065424
_publ_section_title
;
Structure prediction by ZEFSAII (Michael W. Deem and Ramdas Pophale) SiO2 
 PCOD8065424
Probable space group: P 2/M
;
_chemical_formula_sum "Si O2"
_cell_formula_units_Z 24
_cell_length_a 17.478625
_cell_length_b 8.664943
_cell_length_c 23.681581
_cell_angle_alpha 90.000000
_cell_angle_beta 19.973425
_cell_angle_gamma 90.000000
_cell_volume 1225.128138
_symmetry_space_group_name_H-M "P 2/M"
_symmetry_group_IT_number 10
_symmetry_cell_setting 'monoclinic'
loop_
_space_group_symop_operation_xyz
x,y,z
-x,y,-z
-x,-y,-z
x,-y,z
loop_
_atom_site_type_symbol
_atom_site_label
_atom_site_fract_x
_atom_site_fract_y
_atom_site_fract_z
Si Si1 0.081364 0.679629 0.532946
Si Si2 0.648942 0.321551 0.763839
Si Si3 0.197704 0.818801 0.569503
Si Si4 0.671191 0.682189 0.245077
Si Si5 0.179808 0.181510 0.083777
Si Si6 0.067007 0.183743 0.037526
O O1 0.115543 0.500000 0.524538
O O2 0.250418 0.730227 0.366113
O O3 0.131653 0.785906 0.551107
O O4 0.827750 0.710933 0.689068
O O5 0.587086 0.500000 0.804381
O O6 0.426006 0.228935 0.933080
O O7 0.418674 0.727481 0.434761
O O8 0.001081 0.755015 0.746220
O O9 0.239580 0.000000 0.548218
O O10 0.698538 0.500000 0.221044
O O11 0.828892 0.744997 0.185395
O O12 0.737987 0.758575 0.139224
O O13 0.125358 0.246166 0.059280
O O14 0.166938 0.000000 0.091468
O O15 0.051724 0.000000 0.044982
#
# Coordination Sequence:
#
# PCOD8065424 Si02
#       6
#     4   4   4   4   4   4
#     4   9  19  37  58  83 109 140 181 226 272 322
#     4   9  19  36  59  82 109 141 179 226 274 320
#     4  11  23  38  54  78 112 149 182 221 270 322
#     4  11  22  37  58  85 111 139 179 228 272 320
#     4  10  23  38  54  79 112 146 183 222 267 321
#     4  10  20  38  61  83 108 143 182 223 269 321
#
# _framework density 19.589786
#
# number of rings (size 3 to 8) (size 9 to 14) (size 15 to 20)
#    0.000    2.000    0.000    5.500    0.000    8.000 
#    0.000    8.333    0.000    0.000    0.000    0.000 
#    0.000    0.000    0.000    0.000    0.000    0.000 
#
# Total GULP energy -297683.484843 kJ/mol
# GULP energy per Si atom -12403.478535 kJ/mol
# Density = 1.954520 g / cm^3
# Si number density = 19.589786 Si / 1000 Ang^3
#
#
#
# Elastic Constant Matrix: (Units=GPa)
#
#
# Indices 1 2 3 4 5 6 
#
# 1 55.1353 -3.8146 31.2095 0.0000 -16.3980 0.0000
# 2 -3.8146 99.0949 26.8692 0.0000 0.9828 0.0000
# 3 31.2095 26.8692 139.3786 0.0000 -15.7757 0.0000
# 4 0.0000 0.0000 0.0000 25.7798 0.0000 -10.9220
# 5 -16.3980 0.9828 -15.7757 0.0000 22.3112 0.0000
# 6 0.0000 0.0000 0.0000 -10.9220 0.0000 21.0780
#
#
#
# Elastic Compliance Matrix: (Units=1/GPa)
#
#
# Indices 1 2 3 4 5 6 
#
# 1 0.025311 0.001986 -0.004299 0.000000 0.015475 0.000000
# 2 0.001986 0.010894 -0.002646 0.000000 -0.000891 0.000000
# 3 -0.004299 -0.002646 0.009025 0.000000 0.003339 0.000000
# 4 0.000000 0.000000 0.000000 0.049701 0.000000 0.025753
# 5 0.015475 -0.000891 0.003339 0.000000 0.058594 0.000000
# 6 0.000000 0.000000 0.000000 0.025753 0.000000 0.060787
#
#
# Mechanical properties :
#
#
# Convention : Reuss Voigt Hill
#
# Bulk Modulus (GPa) = 28.31775 44.68190 36.49983
# Shear Modulus (GPa) = 21.18644 29.79010 25.48827
#
# Velocity S-wave (km/s) = 3.29219 3.90384 3.61099
# Velocity P-wave (km/s) = 5.37942 6.57102 6.00485
#
# Compressibility (1/GPa) = 0.03531353
#
# Stress axis : x y z
#
# Youngs Moduli (GPa) = 39.50909 91.79339 110.80054
#
# Poissons Ratio (x) = -0.18234 0.47632
# Poissons Ratio (y) = -0.07848 0.29315
# Poissons Ratio (z) = 0.16985 0.24286
#
# Static dielectric constant tensor:
#      x y z
#    x 3.651630 0.000000 -0.007090 
#    y 0.000000 3.436060 0.000000 
#    z -0.007090 0.000000 3.722450 
# 
# 
# High freq. dielectric constant tensor:
#      x y z
#    x 1.765850 0.000000 -0.009590 
#    y 0.000000 1.759890 0.000000 
#    z -0.009590 0.000000 1.768750 
# 
# From -- ./inp_files/60275.got.cif
#   From: 2010.06.25/outbox.cif.g09.slc.cpg/sg10_31_cif.got.tgz:60275.got - 2010.06.27 22:07:45.
