data_PCOD8065708
_publ_section_title
;
Structure prediction by ZEFSAII (Michael W. Deem and Ramdas Pophale) SiO2 
 PCOD8065708
Probable space group: P 2/M
;
_chemical_formula_sum "Si O2"
_cell_formula_units_Z 24
_cell_length_a 11.883752
_cell_length_b 9.467982
_cell_length_c 11.883755
_cell_angle_alpha 90.000000
_cell_angle_beta 90.000031
_cell_angle_gamma 90.000000
_cell_volume 1337.102477
_symmetry_space_group_name_H-M "P 2/M"
_symmetry_group_IT_number 10
_symmetry_cell_setting 'monoclinic'
loop_
_space_group_symop_operation_xyz
x,y,z
-x,y,-z
-x,-y,-z
x,-y,z
loop_
_atom_site_type_symbol
_atom_site_label
_atom_site_fract_x
_atom_site_fract_y
_atom_site_fract_z
Si Si1 0.317998 0.838138 0.476790
Si Si2 0.418736 0.333274 0.898505
Si Si3 0.827699 0.332118 0.043407
Si Si4 0.043408 0.332118 0.172301
Si Si5 0.101494 0.333273 0.418736
Si Si6 0.476790 0.838138 0.682002
O O1 0.212925 0.735972 0.467053
O O2 0.376313 0.805993 0.595693
O O3 0.404309 0.805990 0.376316
O O4 0.277912 0.000000 0.471243
O O5 0.415400 0.500000 0.879029
O O6 0.294642 0.271442 0.925555
O O7 0.467055 0.264027 0.787076
O O8 0.500000 0.291399 0.000000
O O9 0.823605 0.500000 0.042126
O O10 0.919101 0.279048 0.135179
O O11 0.864821 0.279048 0.919101
O O12 0.042127 0.500000 0.176395
O O13 0.074445 0.271442 0.294641
O O14 0.120969 0.500000 0.415402
O O15 0.000000 0.291394 0.500000
O O16 0.471247 0.000000 0.722088
#
# Coordination Sequence:
#
# PCOD8065708 Si02
#       6
#     4   4   4   4   4   4
#     4   9  20  39  58  75 101 142 185 220 263 319
#     4  10  21  32  51  84 112 133 170 221 266 314
#     4   8  15  29  48  69 100 141 172 200 250 312
#     4   8  15  29  48  69 100 141 172 200 250 312
#     4  10  21  32  51  84 112 133 170 221 266 314
#     4   9  20  39  58  75 101 142 185 220 263 319
#
# _framework density 17.949259000000001
#
# number of rings (size 3 to 8) (size 9 to 14) (size 15 to 20)
#    0.000    3.000    0.000    2.000    4.667    2.000 
#    0.000    1.667    0.000    0.000    0.000    2.333 
#    0.000    0.000    0.000    0.000    0.000    0.000 
#
# Total GULP energy -297552.946301 kJ/mol
# GULP energy per Si atom -12398.039429 kJ/mol
# Density = 1.790841 g / cm^3
# Si number density = 17.949259 Si / 1000 Ang^3
#
#
#
# Elastic Constant Matrix: (Units=GPa)
#
#
# Indices 1 2 3 4 5 6 
#
# 1 129.8232 42.0098 56.7316 0.0000 2.1008 0.0000
# 2 42.0098 27.2804 42.0108 0.0000 0.0006 0.0000
# 3 56.7316 42.0108 129.8253 0.0000 -2.1008 0.0000
# 4 0.0000 0.0000 0.0000 23.2673 0.0000 0.0000
# 5 2.1008 0.0006 -2.1008 0.0000 20.3563 0.0000
# 6 0.0000 0.0000 0.0000 0.0000 0.0000 23.2674
#
#
#
# Elastic Compliance Matrix: (Units=1/GPa)
#
#
# Indices 1 2 3 4 5 6 
#
# 1 0.015627 -0.026936 0.001865 0.000000 -0.001420 0.000000
# 2 -0.026936 0.119619 -0.026937 0.000000 -0.000004 0.000000
# 3 0.001865 -0.026937 0.015628 0.000000 0.001421 0.000000
# 4 0.000000 0.000000 0.000000 0.042979 0.000000 0.000000
# 5 -0.001420 -0.000004 0.001421 0.000000 0.049418 0.000000
# 6 0.000000 0.000000 0.000000 0.000000 0.000000 0.042979
#
#
# Mechanical properties :
#
#
# Convention : Reuss Voigt Hill
#
# Bulk Modulus (GPa) = 21.34211 63.15926 42.25068
# Shear Modulus (GPa) = 12.31871 23.12331 17.72101
#
# Velocity S-wave (km/s) = 2.62259 3.59313 3.14552
# Velocity P-wave (km/s) = 4.59202 7.24418 6.06485
#
# Compressibility (1/GPa) = 0.04685571
#
# Stress axis : x y z
#
# Youngs Moduli (GPa) = 63.99031 8.35986 63.98906
#
# Poissons Ratio (x) = 0.22518 -0.11931
# Poissons Ratio (y) = 1.72367 1.72370
# Poissons Ratio (z) = -0.11932 0.22519
#
# Static dielectric constant tensor:
#      x y z
#    x 3.478710 0.000000 -0.000010 
#    y 0.000000 2.867990 0.000000 
#    z -0.000010 0.000000 3.478710 
# 
# 
# High freq. dielectric constant tensor:
#      x y z
#    x 1.704780 0.000000 0.000000 
#    y 0.000000 1.650700 0.000000 
#    z 0.000000 0.000000 1.704780 
# 
# From -- ./inp_files/45174.got.cif
#   From: 2010.06.25/outbox.cif.g09.slc.cpg/sg10_23_cif.got.tgz:45174.got - 2010.06.27 22:07:45.
