data_PCOD8065984
_publ_section_title
;
Structure prediction by ZEFSAII (Michael W. Deem and Ramdas Pophale) SiO2 
 PCOD8065984
Probable space group: P 2/M
;
_chemical_formula_sum "Si O2"
_cell_formula_units_Z 28
_cell_length_a 30.955410
_cell_length_b 8.850334
_cell_length_c 30.952958
_cell_angle_alpha 90.000000
_cell_angle_beta 9.594350
_cell_angle_gamma 90.000000
_cell_volume 1413.382679
_symmetry_space_group_name_H-M "P 2/M"
_symmetry_group_IT_number 10
_symmetry_cell_setting 'monoclinic'
loop_
_space_group_symop_operation_xyz
x,y,z
-x,y,-z
-x,-y,-z
x,-y,z
loop_
_atom_site_type_symbol
_atom_site_label
_atom_site_fract_x
_atom_site_fract_y
_atom_site_fract_z
Si Si1 0.411869 0.325954 0.349391
Si Si2 0.236142 0.323887 0.236642
Si Si3 0.529381 0.673882 0.521908
Si Si4 0.813130 0.179264 0.807089
Si Si5 0.337705 0.821220 0.331747
Si Si6 0.061479 0.674866 0.122369
Si Si7 0.950514 0.821577 0.957127
O O1 0.392365 0.500000 0.354920
O O2 0.354011 0.226056 0.365087
O O3 0.202235 0.286783 0.592632
O O4 0.695791 0.284951 0.086761
O O5 0.228384 0.500000 0.232954
O O6 0.215928 0.231325 0.212972
O O7 0.000000 0.275743 0.500000
O O8 0.500000 0.277366 0.000000
O O9 0.500000 0.687961 0.500000
O O10 0.541122 0.500000 0.525253
O O11 0.789085 0.755470 0.279980
O O12 0.288772 0.752698 0.781498
O O13 0.077044 0.244817 0.567307
O O14 0.812609 0.000000 0.808341
O O15 0.578372 0.245130 0.067299
O O16 0.336826 0.000000 0.330655
O O17 0.070964 0.500000 0.098454
O O18 0.072944 0.781614 0.069839
O O19 0.949854 0.000000 0.963641
#
# Coordination Sequence:
#
# PCOD8065984 Si02
#       7
#     4   4   4   4   4   4   4
#     4  10  21  36  57  83 109 145 192 235 278 334
#     4  10  21  36  54  78 106 136 173 218 267 315
#     4  11  24  43  66  90 121 165 208 245 298 366
#     4  10  21  36  54  78 106 140 179 216 265 327
#     4  10  21  36  54  78 109 141 176 223 275 327
#     4  10  21  38  58  82 115 153 193 236 284 346
#     4  12  25  40  63  95 126 158 201 254 307 355
#
# _framework density 19.81063
#
# number of rings (size 3 to 8) (size 9 to 14) (size 15 to 20)
#    0.000    1.571    0.000    4.714    0.000    6.857 
#    0.000    0.000    0.000    0.000    0.000    0.000 
#    0.000    0.000    0.000    0.000    0.000    0.000 
#
# Total GULP energy -347369.438333 kJ/mol
# GULP energy per Si atom -12406.051369 kJ/mol
# Density = 1.976554 g / cm^3
# Si number density = 19.810630 Si / 1000 Ang^3
#
#
#
# Elastic Constant Matrix: (Units=GPa)
#
#
# Indices 1 2 3 4 5 6 
#
# 1 97.9451 38.7243 45.6180 0.0000 -2.6607 0.0000
# 2 38.7243 73.4884 48.5287 0.0000 -1.3412 0.0000
# 3 45.6180 48.5287 161.9159 0.0000 -5.0034 0.0000
# 4 0.0000 0.0000 0.0000 21.6220 0.0000 1.3408
# 5 -2.6607 -1.3412 -5.0034 0.0000 35.2351 0.0000
# 6 0.0000 0.0000 0.0000 1.3408 0.0000 39.4370
#
#
#
# Elastic Compliance Matrix: (Units=1/GPa)
#
#
# Indices 1 2 3 4 5 6 
#
# 1 0.013442 -0.005714 -0.002059 0.000000 0.000505 0.000000
# 2 -0.005714 0.019395 -0.004212 0.000000 -0.000291 0.000000
# 3 -0.002059 -0.004212 0.008044 0.000000 0.000826 0.000000
# 4 0.000000 0.000000 0.000000 0.046347 0.000000 -0.001576
# 5 0.000505 -0.000291 0.000826 0.000000 0.028525 0.000000
# 6 0.000000 0.000000 0.000000 -0.001576 0.000000 0.025410
#
#
# Mechanical properties :
#
#
# Convention : Reuss Voigt Hill
#
# Bulk Modulus (GPa) = 59.13517 66.56571 62.85044
# Shear Modulus (GPa) = 29.27920 32.62407 30.95164
#
# Velocity S-wave (km/s) = 3.84859 4.06248 3.95698
# Velocity P-wave (km/s) = 7.04726 7.46183 7.25751
#
# Compressibility (1/GPa) = 0.01691041
#
# Stress axis : x y z
#
# Youngs Moduli (GPa) = 74.39576 51.56027 124.31599
#
# Poissons Ratio (x) = 0.29463 0.25594
# Poissons Ratio (y) = 0.42512 0.52362
# Poissons Ratio (z) = 0.15316 0.21717
#
# Static dielectric constant tensor:
#      x y z
#    x 3.585780 0.000000 -0.036420 
#    y 0.000000 3.542760 0.000000 
#    z -0.036420 0.000000 4.027270 
# 
# 
# High freq. dielectric constant tensor:
#      x y z
#    x 1.786010 0.000000 -0.001360 
#    y 0.000000 1.763500 0.000000 
#    z -0.001360 0.000000 1.798500 
# 
# From -- ./inp_files/13685.got.cif
#   From: 2010.06.25/outbox.cif.g09.slc.cpg/sg10_7_cif.got.tgz:13685.got - 2010.06.27 22:07:45.
