data_PCOD8065044
_publ_section_title
;
Structure prediction by ZEFSAII (Michael W. Deem and Ramdas Pophale) SiO2 
 PCOD8065044
Probable space group: P 2/M
;
_chemical_formula_sum "Si O2"
_cell_formula_units_Z 32
_cell_length_a 23.264954
_cell_length_b 9.218897
_cell_length_c 14.278920
_cell_angle_alpha 90.000000
_cell_angle_beta 147.731714
_cell_angle_gamma 90.000000
_cell_volume 1635.022582
_symmetry_space_group_name_H-M "P 2/M"
_symmetry_group_IT_number 10
_symmetry_cell_setting 'monoclinic'
loop_
_space_group_symop_operation_xyz
x,y,z
-x,y,-z
-x,-y,-z
x,-y,z
loop_
_atom_site_type_symbol
_atom_site_label
_atom_site_fract_x
_atom_site_fract_y
_atom_site_fract_z
Si Si1 0.502875 0.336641 0.755441
Si Si2 0.994280 0.171332 0.387081
Si Si3 0.261150 0.332548 0.459647
Si Si4 0.394336 0.663976 0.908090
Si Si5 0.827837 0.828531 0.004650
Si Si6 0.584792 0.828166 0.693037
Si Si7 0.199962 0.827943 0.556113
Si Si8 0.101348 0.331915 0.078652
O O1 0.494733 0.500000 0.703498
O O2 0.385405 0.284572 0.627301
O O3 0.547863 0.227630 0.741799
O O4 0.586511 0.330649 0.955227
O O5 0.094032 0.228532 0.463375
O O6 0.000000 0.239791 0.500000
O O7 0.884592 0.215443 0.181310
O O8 0.002022 0.000000 0.406987
O O9 0.249385 0.500000 0.472609
O O10 0.199615 0.237936 0.451859
O O11 0.209286 0.303700 0.286958
O O12 0.365109 0.500000 0.835011
O O13 0.300298 0.773981 0.754612
O O14 0.500000 0.717691 0.000000
O O15 0.832977 0.000000 0.996710
O O16 0.704942 0.771102 0.836074
O O17 0.892465 0.757358 0.008394
O O18 0.500000 0.768825 0.500000
O O19 0.584532 0.000000 0.696087
O O20 0.203674 0.000000 0.553066
O O21 0.087287 0.500000 0.032861
O O22 0.000000 0.277806 0.000000
#
# Coordination Sequence:
#
# PCOD8065044 Si02
#       8
#     4   4   4   4   4   4   4   4
#     4  10  21  36  57  81 106 149 194 221 268 341
#     4   9  20  38  57  79 110 150 192 229 276 340
#     4  10  20  37  57  79 114 153 181 220 284 344
#     4  10  20  38  58  79 115 154 184 223 281 345
#     4  10  21  38  60  82 112 154 189 228 286 340
#     4  10  22  38  57  85 118 148 183 234 289 330
#     4  11  22  34  57  87 111 142 191 240 279 323
#     4  10  21  36  58  86 113 144 184 233 284 331
#
# _framework density 19.571596
#
# number of rings (size 3 to 8) (size 9 to 14) (size 15 to 20)
#    0.000    2.000    1.250    1.875    1.750    2.750 
#    0.000    0.625    0.000    1.875    0.000    0.000 
#    0.000    0.000    0.000    0.000    0.000    0.000 
#
# Total GULP energy -396873.227433 kJ/mol
# GULP energy per Si atom -12402.288357 kJ/mol
# Density = 1.952705 g / cm^3
# Si number density = 19.571596 Si / 1000 Ang^3
#
#
#
# Elastic Constant Matrix: (Units=GPa)
#
#
# Indices 1 2 3 4 5 6 
#
# 1 127.5728 35.3415 54.4469 0.0000 -2.9560 0.0000
# 2 35.3415 38.0195 27.5517 0.0000 1.2902 0.0000
# 3 54.4469 27.5517 116.0752 0.0000 -1.1429 0.0000
# 4 0.0000 0.0000 0.0000 19.9453 0.0000 -2.5532
# 5 -2.9560 1.2902 -1.1429 0.0000 34.5832 0.0000
# 6 0.0000 0.0000 0.0000 -2.5532 0.0000 29.2616
#
#
#
# Elastic Compliance Matrix: (Units=1/GPa)
#
#
# Indices 1 2 3 4 5 6 
#
# 1 0.011668 -0.008368 -0.003475 0.000000 0.001195 0.000000
# 2 -0.008368 0.037839 -0.005079 0.000000 -0.002295 0.000000
# 3 -0.003475 -0.005079 0.011453 0.000000 0.000271 0.000000
# 4 0.000000 0.000000 0.000000 0.050704 0.000000 0.004424
# 5 0.001195 -0.002295 0.000271 0.000000 0.029112 0.000000
# 6 0.000000 0.000000 0.000000 0.004424 0.000000 0.034561
#
#
# Mechanical properties :
#
#
# Convention : Reuss Voigt Hill
#
# Bulk Modulus (GPa) = 36.87813 57.37198 47.12505
# Shear Modulus (GPa) = 22.91270 27.71317 25.31293
#
# Velocity S-wave (km/s) = 3.42528 3.76705 3.60022
# Velocity P-wave (km/s) = 5.87596 6.94970 6.43527
#
# Compressibility (1/GPa) = 0.02711634
#
# Stress axis : x y z
#
# Youngs Moduli (GPa) = 85.70735 26.42743 87.31147
#
# Poissons Ratio (x) = 0.22115 0.30339
# Poissons Ratio (y) = 0.71722 0.44345
# Poissons Ratio (z) = 0.29782 0.13422
#
# Static dielectric constant tensor:
#      x y z
#    x 3.575800 0.000000 0.041030 
#    y 0.000000 3.304550 0.000000 
#    z 0.041030 0.000000 3.924170 
# 
# 
# High freq. dielectric constant tensor:
#      x y z
#    x 1.765760 0.000000 -0.002630 
#    y 0.000000 1.737730 0.000000 
#    z -0.002630 0.000000 1.779510 
# 
# From -- ./inp_files/71427.got.cif
#   From: 2010.06.25/outbox.cif.g09.slc.cpg/sg10_36_cif.got.tgz:71427.got - 2010.06.27 22:07:45.
