data_PCOD8065045
_publ_section_title
;
Structure prediction by ZEFSAII (Michael W. Deem and Ramdas Pophale) SiO2 
 PCOD8065045
Probable space group: P 2/M
;
_chemical_formula_sum "Si O2"
_cell_formula_units_Z 28
_cell_length_a 16.089652
_cell_length_b 17.472282
_cell_length_c 9.807493
_cell_angle_alpha 90.000000
_cell_angle_beta 146.711133
_cell_angle_gamma 90.000000
_cell_volume 1513.269187
_symmetry_space_group_name_H-M "P 2/M"
_symmetry_group_IT_number 10
_symmetry_cell_setting 'monoclinic'
loop_
_space_group_symop_operation_xyz
x,y,z
-x,y,-z
-x,-y,-z
x,-y,z
loop_
_atom_site_type_symbol
_atom_site_label
_atom_site_fract_x
_atom_site_fract_y
_atom_site_fract_z
Si Si1 0.111616 0.704806 0.953497
Si Si2 0.160370 0.415380 0.787671
Si Si3 0.589787 0.148994 0.417347
Si Si4 0.222983 0.291290 0.403250
Si Si5 0.732517 0.853172 0.901105
Si Si6 0.509427 0.000000 0.856566
Si Si7 0.842345 0.000000 0.197370
Si Si8 0.675399 0.415126 0.249321
O O1 0.146834 0.633229 0.906157
O O2 0.937715 0.722874 0.746761
O O3 0.205094 0.688520 0.219470
O O4 0.163896 0.779235 0.944419
O O5 0.220329 0.500000 0.911541
O O6 0.267644 0.378995 0.816652
O O7 0.000000 0.421893 0.500000
O O8 0.666971 0.217166 0.435099
O O9 0.417131 0.168283 0.219000
O O10 0.689550 0.129733 0.686371
O O11 0.584752 0.072450 0.323627
O O12 0.293540 0.363041 0.577324
O O13 0.832592 0.924041 0.091715
O O14 0.500000 0.000000 0.000000
O O15 0.688175 0.000000 0.072092
O O16 0.000000 0.000000 0.500000
O O17 0.750781 0.500000 0.372922
O O18 0.500000 0.425775 0.000000
#
# Coordination Sequence:
#
# PCOD8065045 Si02
#       8
#     4   4   4   4   4   2   2   4
#     4  10  21  36  57  85 113 142 186 233 277 328
#     4  10  20  37  57  80 111 150 189 224 275 338
#     4   9  19  37  59  79 105 147 186 225 270 325
#     4  10  21  37  56  84 114 144 184 233 279 325
#     4   9  19  37  59  79 106 145 188 223 270 329
#     4  10  21  37  55  81 113 142 182 226 269 325
#     4  10  21  37  55  83 113 142 180 227 274 322
#     4  10  22  39  57  80 113 150 187 228 278 333
#
# _framework density 18.502987000000001
#
# number of rings (size 3 to 8) (size 9 to 14) (size 15 to 20)
#    0.000    2.286    1.429    0.429    2.000    4.571 
#    2.571    1.429    0.000    6.857    0.000    0.000 
#    0.000    0.000    0.000    0.000    0.000    0.000 
#
# Total GULP energy -347018.380072 kJ/mol
# GULP energy per Si atom -12393.513574 kJ/mol
# Density = 1.846087 g / cm^3
# Si number density = 18.502987 Si / 1000 Ang^3
#
#
#
# Elastic Constant Matrix: (Units=GPa)
#
#
# Indices 1 2 3 4 5 6 
#
# 1 106.6522 71.0779 35.9529 0.0000 -10.3514 0.0000
# 2 71.0779 147.0015 65.4081 0.0000 -13.7025 0.0000
# 3 35.9529 65.4081 84.6261 0.0000 0.4267 0.0000
# 4 0.0000 0.0000 0.0000 18.5150 0.0000 11.9384
# 5 -10.3514 -13.7025 0.4267 0.0000 23.4588 0.0000
# 6 0.0000 0.0000 0.0000 11.9384 0.0000 24.8444
#
#
#
# Elastic Compliance Matrix: (Units=1/GPa)
#
#
# Indices 1 2 3 4 5 6 
#
# 1 0.014063 -0.005907 -0.001423 0.000000 0.002781 0.000000
# 2 -0.005907 0.013838 -0.008214 0.000000 0.005626 0.000000
# 3 -0.001423 -0.008214 0.018799 0.000000 -0.005768 0.000000
# 4 0.000000 0.000000 0.000000 0.078258 0.000000 -0.037605
# 5 0.002781 0.005626 -0.005768 0.000000 0.047246 0.000000
# 6 0.000000 0.000000 0.000000 -0.037605 0.000000 0.058321
#
#
# Mechanical properties :
#
#
# Convention : Reuss Voigt Hill
#
# Bulk Modulus (GPa) = 64.05594 75.90641 69.98117
# Shear Modulus (GPa) = 18.73941 24.41970 21.57956
#
# Velocity S-wave (km/s) = 3.18587 3.63681 3.41878
# Velocity P-wave (km/s) = 6.94460 7.66473 7.31353
#
# Compressibility (1/GPa) = 0.01561135
#
# Stress axis : x y z
#
# Youngs Moduli (GPa) = 71.11030 72.26287 53.19399
#
# Poissons Ratio (x) = 0.42688 0.07567
# Poissons Ratio (y) = 0.42008 0.43696
# Poissons Ratio (z) = 0.10116 0.59360
#
# Static dielectric constant tensor:
#      x y z
#    x 3.456780 0.000000 0.129570 
#    y 0.000000 3.571410 0.000000 
#    z 0.129570 0.000000 3.281710 
# 
# 
# High freq. dielectric constant tensor:
#      x y z
#    x 1.727360 0.000000 0.004700 
#    y 0.000000 1.721290 0.000000 
#    z 0.004700 0.000000 1.709850 
# 
# From -- ./inp_files/30207.got.cif
#   From: 2010.06.25/outbox.cif.g09.slc.cpg/sg10_16_cif.got.tgz:30207.got - 2010.06.27 22:07:45.
