data_PCOD8065320
_publ_section_title
;
Structure prediction by ZEFSAII (Michael W. Deem and Ramdas Pophale) SiO2 
 PCOD8065320
Probable space group: P 2/M
;
_chemical_formula_sum "Si O2"
_cell_formula_units_Z 26
_cell_length_a 16.481716
_cell_length_b 7.721514
_cell_length_c 15.938010
_cell_angle_alpha 90.000000
_cell_angle_beta 37.754567
_cell_angle_gamma 90.000000
_cell_volume 1241.907567
_symmetry_space_group_name_H-M "P 2/M"
_symmetry_group_IT_number 10
_symmetry_cell_setting 'monoclinic'
loop_
_space_group_symop_operation_xyz
x,y,z
-x,y,-z
-x,-y,-z
x,-y,z
loop_
_atom_site_type_symbol
_atom_site_label
_atom_site_fract_x
_atom_site_fract_y
_atom_site_fract_z
Si Si1 0.269704 0.698086 0.475038
Si Si2 0.356391 0.297417 0.588563
Si Si3 0.747256 0.692007 0.022828
Si Si4 0.964381 0.695166 0.711015
Si Si5 0.851902 0.802825 0.108195
Si Si6 0.385169 0.000000 0.953215
Si Si7 0.165432 0.000000 0.271947
Si Si8 0.676026 0.000000 0.694658
O O1 0.300823 0.500000 0.422816
O O2 0.342662 0.745612 0.501744
O O3 0.320634 0.826318 0.362495
O O4 0.114170 0.726508 0.615572
O O5 0.500000 0.226269 0.500000
O O6 0.344380 0.500000 0.616345
O O7 0.236428 0.206414 0.735866
O O8 0.692651 0.500000 0.046337
O O9 0.881990 0.731910 0.862463
O O10 0.777540 0.697470 0.096528
O O11 0.637822 0.830750 0.085375
O O12 0.941248 0.500000 0.695795
O O13 0.921266 0.828420 0.673806
O O14 0.865460 0.000000 0.066931
O O15 0.000000 0.725447 0.000000
O O16 0.537240 0.000000 0.857788
O O17 0.296824 0.000000 0.108260
O O18 0.203780 0.000000 0.337935
#
# Coordination Sequence:
#
# PCOD8065320 Si02
#       8
#     4   4   4   4   4   2   2   2
#     4  10  23  41  61  90 123 158 201 248 299 362
#     4  10  23  41  60  84 122 168 210 254 302 356
#     4  10  20  37  63  88 116 160 204 248 303 354
#     4   9  19  38  64  91 122 154 193 250 308 358
#     4  11  23  36  57  91 125 160 209 261 301 352
#     4  10  23  42  60  88 122 151 198 251 294 357
#     4  10  22  42  65  90 119 151 200 247 305 368
#     4  12  26  40  63  89 118 165 197 242 307 366
#
# _framework density 20.935537
#
# number of rings (size 3 to 8) (size 9 to 14) (size 15 to 20)
#    0.000    1.846    0.769    2.077    3.231    5.231 
#    0.000    1.538    0.000    4.615    0.000    0.000 
#    0.000    0.000    0.000    0.000    0.000    0.000 
#
# Total GULP energy -322493.290389 kJ/mol
# GULP energy per Si atom -12403.588092 kJ/mol
# Density = 2.088789 g / cm^3
# Si number density = 20.935537 Si / 1000 Ang^3
#
#
#
# Elastic Constant Matrix: (Units=GPa)
#
#
# Indices 1 2 3 4 5 6 
#
# 1 137.6277 51.9028 35.0682 0.0000 0.6050 0.0000
# 2 51.9028 115.5690 27.8234 0.0000 0.9137 0.0000
# 3 35.0682 27.8234 67.8841 0.0000 -5.1151 0.0000
# 4 0.0000 0.0000 0.0000 10.1938 0.0000 7.1613
# 5 0.6050 0.9137 -5.1151 0.0000 30.2673 0.0000
# 6 0.0000 0.0000 0.0000 7.1613 0.0000 17.4741
#
#
#
# Elastic Compliance Matrix: (Units=1/GPa)
#
#
# Indices 1 2 3 4 5 6 
#
# 1 0.009449 -0.003384 -0.003546 0.000000 -0.000686 0.000000
# 2 -0.003384 0.010840 -0.002749 0.000000 -0.000724 0.000000
# 3 -0.003546 -0.002749 0.017929 0.000000 0.003184 0.000000
# 4 0.000000 0.000000 0.000000 0.137761 0.000000 -0.056457
# 5 -0.000686 -0.000724 0.003184 0.000000 0.033613 0.000000
# 6 0.000000 0.000000 0.000000 -0.056457 0.000000 0.080365
#
#
# Mechanical properties :
#
#
# Convention : Reuss Voigt Hill
#
# Bulk Modulus (GPa) = 53.02297 61.18552 57.10425
# Shear Modulus (GPa) = 15.84270 25.33947 20.59109
#
# Velocity S-wave (km/s) = 2.75387 3.48279 3.13956
# Velocity P-wave (km/s) = 5.95764 6.74257 6.36222
#
# Compressibility (1/GPa) = 0.01885975
#
# Stress axis : x y z
#
# Youngs Moduli (GPa) = 105.83332 92.24698 55.77430
#
# Poissons Ratio (x) = 0.31221 0.19776
# Poissons Ratio (y) = 0.35819 0.15334
# Poissons Ratio (z) = 0.37525 0.25362
#
# Static dielectric constant tensor:
#      x y z
#    x 3.667650 0.000000 -0.153270 
#    y 0.000000 3.915490 0.000000 
#    z -0.153270 0.000000 3.627100 
# 
# 
# High freq. dielectric constant tensor:
#      x y z
#    x 1.810800 0.000000 -0.007750 
#    y 0.000000 1.828590 0.000000 
#    z -0.007750 0.000000 1.817440 
# 
# From -- ./inp_files/66831.got.cif
#   From: 2010.06.25/outbox.cif.g09.slc.cpg/sg10_34_cif.got.tgz:66831.got - 2010.06.27 22:07:45.
