data_PCOD8065728
_publ_section_title
;
Structure prediction by ZEFSAII (Michael W. Deem and Ramdas Pophale) SiO2 
 PCOD8065728
Probable space group: P 2/M
;
_chemical_formula_sum "Si O2"
_cell_formula_units_Z 32
_cell_length_a 12.656914
_cell_length_b 8.543295
_cell_length_c 21.211728
_cell_angle_alpha 90.000000
_cell_angle_beta 54.320324
_cell_angle_gamma 90.000000
_cell_volume 1863.119192
_symmetry_space_group_name_H-M "P 2/M"
_symmetry_group_IT_number 10
_symmetry_cell_setting 'monoclinic'
loop_
_space_group_symop_operation_xyz
x,y,z
-x,y,-z
-x,-y,-z
x,-y,z
loop_
_atom_site_type_symbol
_atom_site_label
_atom_site_fract_x
_atom_site_fract_y
_atom_site_fract_z
Si Si1 0.533284 0.316227 0.178768
Si Si2 0.870221 0.818180 0.824757
Si Si3 0.191523 0.182049 0.916349
Si Si4 0.883556 0.685519 0.498693
Si Si5 0.965775 0.318439 0.919280
Si Si6 0.716792 0.685199 0.664622
Si Si7 0.572374 0.182370 0.910330
Si Si8 0.043732 0.315178 0.330829
O O1 0.553639 0.500000 0.180796
O O2 0.663621 0.228269 0.153879
O O3 0.420722 0.246736 0.263978
O O4 0.496008 0.283266 0.119674
O O5 0.926694 0.718225 0.861998
O O6 0.722226 0.766602 0.863643
O O7 0.957823 0.780205 0.733416
O O8 0.878930 0.000000 0.839037
O O9 0.094752 0.222329 0.892861
O O10 0.183520 0.000000 0.934698
O O11 0.152456 0.274501 0.993211
O O12 0.888978 0.500000 0.500221
O O13 0.750431 0.742132 0.580490
O O14 0.000000 0.754750 0.500000
O O15 0.911691 0.733697 0.416067
O O16 0.997915 0.500000 0.915276
O O17 0.707523 0.500000 0.669820
O O18 0.830348 0.737569 0.672934
O O19 0.558731 0.000000 0.898109
O O20 0.500000 0.223247 0.000000
O O21 0.046391 0.500000 0.315713
#
# Coordination Sequence:
#
# PCOD8065728 Si02
#       8
#     4   4   4   4   4   4   4   4
#     4  11  20  31  50  75 101 129 167 209 246 286
#     4  11  21  32  48  72 104 136 164 200 252 303
#     4  11  22  38  56  74 100 130 162 201 254 303
#     4   7  11  21  41  66  93 127 166 203 243 285
#     4  11  22  38  58  77  95 121 168 216 250 285
#     4   8  14  25  43  70 100 129 164 208 247 283
#     4  10  21  34  46  63  94 135 170 199 241 299
#     4   9  15  27  46  69  97 132 170 206 241 287
#
# _framework density 17.175498000000001
#
# number of rings (size 3 to 8) (size 9 to 14) (size 15 to 20)
#    0.000    2.250    1.250    6.000    0.000    1.750 
#    0.000    0.000    0.000    4.875    0.000    0.875 
#    0.000    7.000    0.000    0.000    0.000    0.000 
#
# Total GULP energy -396606.380454 kJ/mol
# GULP energy per Si atom -12393.949389 kJ/mol
# Density = 1.713641 g / cm^3
# Si number density = 17.175498 Si / 1000 Ang^3
#
#
#
# Elastic Constant Matrix: (Units=GPa)
#
#
# Indices 1 2 3 4 5 6 
#
# 1 62.3529 14.1658 39.7733 0.0000 -10.0797 0.0000
# 2 14.1658 44.3498 15.8633 0.0000 -0.9311 0.0000
# 3 39.7733 15.8633 125.0158 0.0000 -14.1239 0.0000
# 4 0.0000 0.0000 0.0000 7.7713 0.0000 -0.9668
# 5 -10.0797 -0.9311 -14.1239 0.0000 18.7592 0.0000
# 6 0.0000 0.0000 0.0000 -0.9668 0.0000 22.4947
#
#
#
# Elastic Compliance Matrix: (Units=1/GPa)
#
#
# Indices 1 2 3 4 5 6 
#
# 1 0.021838 -0.004853 -0.005501 0.000000 0.007351 0.000000
# 2 -0.004853 0.024723 -0.001912 0.000000 -0.002820 0.000000
# 3 -0.005501 -0.001912 0.010544 0.000000 0.004888 0.000000
# 4 0.000000 0.000000 0.000000 0.129370 0.000000 0.005560
# 5 0.007351 -0.002820 0.004888 0.000000 0.060797 0.000000
# 6 0.000000 0.000000 0.000000 0.005560 0.000000 0.044694
#
#
# Mechanical properties :
#
#
# Convention : Reuss Voigt Hill
#
# Bulk Modulus (GPa) = 30.70093 41.25814 35.97954
# Shear Modulus (GPa) = 15.27397 20.59947 17.93672
#
# Velocity S-wave (km/s) = 2.98533 3.46692 3.23510
# Velocity P-wave (km/s) = 5.45862 6.33244 5.91170
#
# Compressibility (1/GPa) = 0.03257230
#
# Stress axis : x y z
#
# Youngs Moduli (GPa) = 45.79227 40.44865 94.84093
#
# Poissons Ratio (x) = 0.19630 0.52175
# Poissons Ratio (y) = 0.22224 0.18130
# Poissons Ratio (z) = 0.25192 0.07732
#
# Static dielectric constant tensor:
#      x y z
#    x 2.956920 0.000000 -0.186170 
#    y 0.000000 3.014990 0.000000 
#    z -0.186170 0.000000 3.693180 
# 
# 
# High freq. dielectric constant tensor:
#      x y z
#    x 1.623170 0.000000 -0.006280 
#    y 0.000000 1.649210 0.000000 
#    z -0.006280 0.000000 1.675980 
# 
# From -- ./inp_files/56406.got.cif
#   From: 2010.06.25/outbox.cif.g09.slc.cpg/sg10_29_cif.got.tgz:56406.got - 2010.06.27 22:07:45.
