data_PCOD8065240
_publ_section_title
;
Structure prediction by ZEFSAII (Michael W. Deem and Ramdas Pophale) SiO2 
 PCOD8065240
Probable space group: P 2/M
;
_chemical_formula_sum "Si O2"
_cell_formula_units_Z 24
_cell_length_a 10.244263
_cell_length_b 8.624743
_cell_length_c 20.910978
_cell_angle_alpha 90.000000
_cell_angle_beta 138.104546
_cell_angle_gamma 90.000000
_cell_volume 1233.759207
_symmetry_space_group_name_H-M "P 2/M"
_symmetry_group_IT_number 10
_symmetry_cell_setting 'monoclinic'
loop_
_space_group_symop_operation_xyz
x,y,z
-x,y,-z
-x,-y,-z
x,-y,z
loop_
_atom_site_type_symbol
_atom_site_label
_atom_site_fract_x
_atom_site_fract_y
_atom_site_fract_z
Si Si1 0.488756 0.181287 0.591962
Si Si2 0.068310 0.819076 0.897851
Si Si3 0.422028 0.180289 0.119395
Si Si4 0.654627 0.679754 0.774692
Si Si5 0.833868 0.819601 0.210137
Si Si6 0.789904 0.319100 0.606115
O O1 0.517593 0.225505 0.676087
O O2 0.683765 0.226510 0.624393
O O3 0.300771 0.270393 0.495085
O O4 0.451159 0.000000 0.571551
O O5 0.139738 0.770493 0.853717
O O6 0.880516 0.722458 0.849427
O O7 0.014637 0.000000 0.881321
O O8 0.238269 0.775671 0.008938
O O9 0.418542 0.282795 0.181313
O O10 0.615113 0.223105 0.150317
O O11 0.416898 0.000000 0.136553
O O12 0.627038 0.500000 0.750015
O O13 0.981878 0.723396 0.308911
O O14 0.877637 0.000000 0.236063
O O15 0.756993 0.500000 0.605283
#
# Coordination Sequence:
#
# PCOD8065240 Si02
#       6
#     4   4   4   4   4   4
#     4  11  21  37  61  86 113 150 196 242 284 339
#     4  10  20  37  62  87 114 153 202 247 285 339
#     4  10  22  39  59  85 118 158 201 242 286 342
#     4  12  24  38  57  86 121 156 193 242 298 348
#     4  10  20  37  61  88 118 155 198 241 286 342
#     4  11  21  35  58  90 122 149 184 236 293 348
#
# _framework density 19.452743000000002
#
# number of rings (size 3 to 8) (size 9 to 14) (size 15 to 20)
#    0.000    1.333    1.667    6.500    0.000    5.333 
#    0.000    0.833    0.000    8.000    0.000    0.000 
#    0.000    0.000    0.000    0.000    0.000    0.000 
#
# Total GULP energy -297747.820694 kJ/mol
# GULP energy per Si atom -12406.159196 kJ/mol
# Density = 1.940847 g / cm^3
# Si number density = 19.452743 Si / 1000 Ang^3
#
#
#
# Elastic Constant Matrix: (Units=GPa)
#
#
# Indices 1 2 3 4 5 6 
#
# 1 64.6944 16.8083 20.0527 0.0000 -17.2094 0.0000
# 2 16.8083 74.4945 23.2921 0.0000 -2.4656 0.0000
# 3 20.0527 23.2921 110.6440 0.0000 -15.4110 0.0000
# 4 0.0000 0.0000 0.0000 18.1052 0.0000 -6.5682
# 5 -17.2094 -2.4656 -15.4110 0.0000 14.1527 0.0000
# 6 0.0000 0.0000 0.0000 -6.5682 0.0000 8.0875
#
#
#
# Elastic Compliance Matrix: (Units=1/GPa)
#
#
# Indices 1 2 3 4 5 6 
#
# 1 0.024319 -0.004729 0.000698 0.000000 0.029508 0.000000
# 2 -0.004729 0.015300 -0.003293 0.000000 -0.006670 0.000000
# 3 0.000698 -0.003293 0.011367 0.000000 0.012653 0.000000
# 4 0.000000 0.000000 0.000000 0.078304 0.000000 0.063594
# 5 0.029508 -0.006670 0.012653 0.000000 0.119155 0.000000
# 6 0.000000 0.000000 0.000000 0.063594 0.000000 0.175295
#
#
# Mechanical properties :
#
#
# Convention : Reuss Voigt Hill
#
# Bulk Modulus (GPa) = 27.51918 41.12657 34.32288
# Shear Modulus (GPa) = 11.09882 20.71439 15.90660
#
# Velocity S-wave (km/s) = 2.39122 3.26675 2.86266
# Velocity P-wave (km/s) = 4.66918 5.95118 5.34873
#
# Compressibility (1/GPa) = 0.03633829
#
# Stress axis : x y z
#
# Youngs Moduli (GPa) = 41.12033 65.36144 87.97383
#
# Poissons Ratio (x) = 0.30907 -0.06140
# Poissons Ratio (y) = 0.19445 0.28968
# Poissons Ratio (z) = -0.02870 0.21522
#
# Static dielectric constant tensor:
#      x y z
#    x 3.407910 0.000000 -0.003610 
#    y 0.000000 3.501510 0.000000 
#    z -0.003610 0.000000 3.745200 
# 
# 
# High freq. dielectric constant tensor:
#      x y z
#    x 1.738990 0.000000 -0.000730 
#    y 0.000000 1.755860 0.000000 
#    z -0.000730 0.000000 1.775580 
# 
# From -- ./inp_files/83442.got.cif
#   From: 2010.06.25/outbox.cif.g09.slc.cpg/sg10_42_cif.got.tgz:83442.got - 2010.06.27 22:07:45.
