data_PCOD8065229
_publ_section_title
;
Structure prediction by ZEFSAII (Michael W. Deem and Ramdas Pophale) SiO2 
 PCOD8065229
Probable space group: P 2/M
;
_chemical_formula_sum "Si O2"
_cell_formula_units_Z 28
_cell_length_a 17.289773
_cell_length_b 7.629568
_cell_length_c 18.663373
_cell_angle_alpha 90.000000
_cell_angle_beta 32.595035
_cell_angle_gamma 90.000000
_cell_volume 1326.247447
_symmetry_space_group_name_H-M "P 2/M"
_symmetry_group_IT_number 10
_symmetry_cell_setting 'monoclinic'
loop_
_space_group_symop_operation_xyz
x,y,z
-x,y,-z
-x,-y,-z
x,-y,z
loop_
_atom_site_type_symbol
_atom_site_label
_atom_site_fract_x
_atom_site_fract_y
_atom_site_fract_z
Si Si1 0.955816 0.500000 0.616449
Si Si2 0.870510 0.798997 0.444174
Si Si3 0.547376 0.795277 0.682699
Si Si4 0.572126 0.701134 0.373998
Si Si5 0.648488 0.500000 0.926484
Si Si6 0.000374 0.801013 0.190081
Si Si7 0.120228 0.696983 0.859296
Si Si8 0.320194 0.791836 0.980761
O O1 0.784524 0.500000 0.765570
O O2 0.000000 0.500000 0.500000
O O3 0.022421 0.676571 0.596247
O O4 0.705830 0.740547 0.585904
O O5 0.903703 0.776202 0.335084
O O6 0.896195 0.000000 0.448756
O O7 0.518286 0.711272 0.628185
O O8 0.433123 0.734772 0.831408
O O9 0.538537 0.000000 0.677327
O O10 0.500000 0.791931 0.500000
O O11 0.598723 0.500000 0.373450
O O12 0.728015 0.793633 0.245019
O O13 0.500000 0.500000 0.000000
O O14 0.649579 0.677750 0.972377
O O15 0.924405 0.687795 0.188755
O O16 0.002548 0.000000 0.162052
O O17 0.162826 0.737702 0.076416
O O18 0.133957 0.500000 0.878380
O O19 0.000000 0.797949 0.000000
O O20 0.330523 0.000000 0.991237
#
# Coordination Sequence:
#
# PCOD8065229 Si02
#       8
#     2   4   4   4   2   4   4   4
#     4  12  28  46  72 104 130 167 206 250 318 389
#     4  10  23  43  66  98 130 166 216 261 311 377
#     4  10  22  39  63  92 125 173 221 266 322 373
#     4  10  21  35  50  83 126 168 215 271 324 369
#     4  12  28  46  72 104 130 168 206 246 324 392
#     4  10  20  37  61  86 119 165 215 263 313 371
#     4  10  21  33  50  81 120 160 211 264 319 366
#     4  10  23  43  66  98 132 166 216 266 315 381
#
# _framework density 21.112197999999999
#
# number of rings (size 3 to 8) (size 9 to 14) (size 15 to 20)
#    0.000    1.714    1.429    1.714    6.000    1.714 
#    0.000    0.000    0.000    0.000    0.000    0.000 
#    0.000    0.000    0.000    0.000    0.000    0.000 
#
# Total GULP energy -347138.773562 kJ/mol
# GULP energy per Si atom -12397.813342 kJ/mol
# Density = 2.106415 g / cm^3
# Si number density = 21.112198 Si / 1000 Ang^3
#
#
#
# Elastic Constant Matrix: (Units=GPa)
#
#
# Indices 1 2 3 4 5 6 
#
# 1 103.1284 32.7957 41.0764 0.0000 -6.9313 0.0000
# 2 32.7957 60.1601 26.0583 0.0000 -1.3328 0.0000
# 3 41.0764 26.0583 159.9593 0.0000 -13.0072 0.0000
# 4 0.0000 0.0000 0.0000 11.2492 0.0000 -9.9674
# 5 -6.9313 -1.3328 -13.0072 0.0000 41.0504 0.0000
# 6 0.0000 0.0000 0.0000 -9.9674 0.0000 -15.1380
#
#
#
# Elastic Compliance Matrix: (Units=1/GPa)
#
#
# Indices 1 2 3 4 5 6 
#
# 1 0.012500 -0.005853 -0.002156 0.000000 0.001237 0.000000
# 2 -0.005853 0.020630 -0.001933 0.000000 -0.000931 0.000000
# 3 -0.002156 -0.001933 0.007273 0.000000 0.001878 0.000000
# 4 0.000000 0.000000 0.000000 0.056142 0.000000 -0.036966
# 5 0.001237 -0.000931 0.001878 0.000000 0.025134 0.000000
# 6 0.000000 0.000000 0.000000 -0.036966 0.000000 -0.041719
#
#
# Mechanical properties :
#
#
# Convention : Reuss Voigt Hill
#
# Bulk Modulus (GPa) = 48.73730 58.12316 53.43023
# Shear Modulus (GPa) = 46.86816 22.32015 34.59415
#
# Velocity S-wave (km/s) = 4.71675 3.25501 4.05234
# Velocity P-wave (km/s) = 7.26627 6.45888 6.87444
#
# Compressibility (1/GPa) = 0.02051817
#
# Stress axis : x y z
#
# Youngs Moduli (GPa) = 80.00163 48.47347 137.49811
#
# Poissons Ratio (x) = 0.28371 0.29641
# Poissons Ratio (y) = 0.46824 0.26585
# Poissons Ratio (z) = 0.17246 0.09372
#
# Static dielectric constant tensor:
#      x y z
#    x 3.604590 0.000000 -0.074050 
#    y 0.000000 -10.198480 0.000000 
#    z -0.074050 0.000000 4.511430 
# 
# 
# High freq. dielectric constant tensor:
#      x y z
#    x 1.809640 0.000000 -0.007690 
#    y 0.000000 1.820830 0.000000 
#    z -0.007690 0.000000 1.854130 
# 
# From -- ./inp_files/77736.got.cif
#   From: 2010.06.25/outbox.cif.g09.slc.cpg/sg10_39_cif.got.tgz:77736.got - 2010.06.27 22:07:45.
