data_PCOD8065684
_publ_section_title
;
Structure prediction by ZEFSAII (Michael W. Deem and Ramdas Pophale) SiO2 
 PCOD8065684
Probable space group: P 2/M
;
_chemical_formula_sum "Si O2"
_cell_formula_units_Z 24
_cell_length_a 9.197085
_cell_length_b 18.472288
_cell_length_c 9.374171
_cell_angle_alpha 90.000000
_cell_angle_beta 130.457807
_cell_angle_gamma 90.000000
_cell_volume 1211.775659
_symmetry_space_group_name_H-M "P 2/M"
_symmetry_group_IT_number 10
_symmetry_cell_setting 'monoclinic'
loop_
_space_group_symop_operation_xyz
x,y,z
-x,y,-z
-x,-y,-z
x,-y,z
loop_
_atom_site_type_symbol
_atom_site_label
_atom_site_fract_x
_atom_site_fract_y
_atom_site_fract_z
Si Si1 0.681716 0.584282 0.521432
Si Si2 0.063185 0.830343 0.883485
Si Si3 0.314125 0.423859 0.797642
Si Si4 0.020618 0.685730 0.682747
Si Si5 0.153993 0.914361 0.481613
Si Si6 0.550986 0.918564 0.868126
O O1 0.500000 0.606611 0.500000
O O2 0.740307 0.500000 0.589457
O O3 0.625966 0.598409 0.322873
O O4 0.850716 0.642582 0.655493
O O5 0.070669 0.759945 0.790752
O O6 0.907949 0.883942 0.712100
O O7 0.270088 0.866184 0.035182
O O8 0.000000 0.807870 0.000000
O O9 0.194785 0.500000 0.714020
O O10 0.203158 0.364523 0.816215
O O11 0.500000 0.440666 0.000000
O O12 0.000000 0.698832 0.500000
O O13 0.367478 0.888423 0.662176
O O14 0.000000 0.886844 0.500000
O O15 0.150106 0.000000 0.469884
O O16 0.603238 0.000000 0.848916
O O17 0.500000 0.921830 0.000000
#
# Coordination Sequence:
#
# PCOD8065684 Si02
#       6
#     4   4   4   4   4   4
#     4   9  18  36  62  89 117 152 195 249 306 354
#     4  12  26  41  57  91 131 164 199 251 311 362
#     4   9  18  35  60  87 112 148 201 249 290 350
#     4  10  22  40  58  83 118 164 203 241 297 362
#     4  10  20  40  69  94 118 155 206 253 298 362
#     4  10  21  40  69  95 116 156 208 254 300 361
#
# _framework density 19.805648000000001
#
# number of rings (size 3 to 8) (size 9 to 14) (size 15 to 20)
#    0.000    2.000    1.667    1.500    0.000    6.000 
#    6.000    1.667    0.000    5.000    0.000    0.000 
#    0.000    0.000    0.000    0.000    0.000    0.000 
#
# Total GULP energy -297381.358585 kJ/mol
# GULP energy per Si atom -12390.889941 kJ/mol
# Density = 1.976057 g / cm^3
# Si number density = 19.805648 Si / 1000 Ang^3
#
#
#
# Elastic Constant Matrix: (Units=GPa)
#
#
# Indices 1 2 3 4 5 6 
#
# 1 116.2262 63.0806 40.8847 0.0000 14.5178 0.0000
# 2 63.0806 95.9701 41.6520 0.0000 18.9529 0.0000
# 3 40.8847 41.6520 107.3189 0.0000 23.8048 0.0000
# 4 0.0000 0.0000 0.0000 105.7884 0.0000 104.0633
# 5 14.5178 18.9529 23.8048 0.0000 30.1450 0.0000
# 6 0.0000 0.0000 0.0000 104.0633 0.0000 160.6935
#
#
#
# Elastic Compliance Matrix: (Units=1/GPa)
#
#
# Indices 1 2 3 4 5 6 
#
# 1 0.013752 -0.008157 -0.002112 0.000000 0.000173 0.000000
# 2 -0.008157 0.017994 -0.002714 0.000000 -0.005242 0.000000
# 3 -0.002112 -0.002714 0.012817 0.000000 -0.007398 0.000000
# 4 0.000000 0.000000 0.000000 0.026043 0.000000 -0.016865
# 5 0.000173 -0.005242 -0.007398 0.000000 0.042228 0.000000
# 6 0.000000 0.000000 0.000000 -0.016865 0.000000 0.017145
#
#
# Mechanical properties :
#
#
# Convention : Reuss Voigt Hill
#
# Bulk Modulus (GPa) = 53.76639 67.86107 60.81373
# Shear Modulus (GPa) = 30.83707 70.91857 50.87782
#
# Velocity S-wave (km/s) = 3.95014 5.99041 5.07388
# Velocity P-wave (km/s) = 6.92898 9.06557 8.06831
#
# Compressibility (1/GPa) = 0.01859898
#
# Stress axis : x y z
#
# Youngs Moduli (GPa) = 72.71559 55.57278 78.02359
#
# Poissons Ratio (x) = 0.45330 0.16476
# Poissons Ratio (y) = 0.59314 0.21172
# Poissons Ratio (z) = 0.15355 0.15080
#
# Static dielectric constant tensor:
#      x y z
#    x 4.332420 0.000000 0.511240 
#    y 0.000000 3.647620 0.000000 
#    z 0.511240 0.000000 3.978950 
# 
# 
# High freq. dielectric constant tensor:
#      x y z
#    x 1.762610 0.000000 0.004160 
#    y 0.000000 1.774890 0.000000 
#    z 0.004160 0.000000 1.773330 
# 
# From -- ./inp_files/20121.got.cif
#   From: 2010.06.25/outbox.cif.g09.slc.cpg/sg10_11_cif.got.tgz:20121.got - 2010.06.27 22:07:45.
