data_PCOD8065287
_publ_section_title
;
Structure prediction by ZEFSAII (Michael W. Deem and Ramdas Pophale) SiO2 
 PCOD8065287
Probable space group: P 2/M
;
_chemical_formula_sum "Si O2"
_cell_formula_units_Z 28
_cell_length_a 9.868881
_cell_length_b 12.860004
_cell_length_c 12.153144
_cell_angle_alpha 90.000000
_cell_angle_beta 109.866281
_cell_angle_gamma 90.000000
_cell_volume 1450.611271
_symmetry_space_group_name_H-M "P 2/M"
_symmetry_group_IT_number 10
_symmetry_cell_setting 'monoclinic'
loop_
_space_group_symop_operation_xyz
x,y,z
-x,y,-z
-x,-y,-z
x,-y,z
loop_
_atom_site_type_symbol
_atom_site_label
_atom_site_fract_x
_atom_site_fract_y
_atom_site_fract_z
Si Si1 0.338728 0.263990 0.940383
Si Si2 0.150746 0.879479 0.486463
Si Si3 0.940543 0.618585 0.104724
Si Si4 0.614253 0.204051 0.286337
Si Si5 0.825328 0.748922 0.727110
Si Si6 0.541671 0.381230 0.637503
Si Si7 0.317095 0.880559 0.137335
O O1 0.228771 0.355993 0.938462
O O2 0.311521 0.220978 0.810850
O O3 0.500000 0.309444 0.000000
O O4 0.315013 0.168221 0.015884
O O5 0.277357 0.858534 0.607239
O O6 0.176303 0.808312 0.388165
O O7 0.000000 0.849170 0.500000
O O8 0.153570 0.000000 0.451638
O O9 0.963027 0.500000 0.146244
O O10 0.022982 0.690951 0.215061
O O11 0.000000 0.640059 0.000000
O O12 0.574470 0.316939 0.324272
O O13 0.471600 0.134061 0.237927
O O14 0.701154 0.662490 0.699134
O O15 0.805756 0.830573 0.820432
O O16 0.500000 0.372183 0.500000
O O17 0.537754 0.500000 0.677976
O O18 0.279600 0.000000 0.112771
#
# Coordination Sequence:
#
# PCOD8065287 Si02
#       7
#     4   4   4   4   4   4   4
#     4  10  22  41  61  90 126 157 199 253 298 355
#     4  11  23  38  58  85 119 161 201 244 302 359
#     4  11  23  41  64  88 118 159 200 246 306 362
#     4  10  21  38  60  88 123 157 196 248 297 357
#     4  11  21  40  61  88 123 153 197 253 295 360
#     4  10  20  37  62  89 117 155 197 242 297 355
#     4  10  21  37  62  91 120 159 203 246 300 357
#
# _framework density 19.302208
#
# number of rings (size 3 to 8) (size 9 to 14) (size 15 to 20)
#    0.000    1.571    2.857    2.143    0.000    4.000 
#    0.000    4.286    0.000    2.143    0.000    0.000 
#    0.000    0.000    0.000    0.000    0.000    0.000 
#
# Total GULP energy -347337.993803 kJ/mol
# GULP energy per Si atom -12404.928350 kJ/mol
# Density = 1.925828 g / cm^3
# Si number density = 19.302208 Si / 1000 Ang^3
#
#
#
# Elastic Constant Matrix: (Units=GPa)
#
#
# Indices 1 2 3 4 5 6 
#
# 1 94.9613 42.5612 35.1059 0.0000 -0.2731 0.0000
# 2 42.5612 99.7281 47.6492 0.0000 -4.1263 0.0000
# 3 35.1059 47.6492 106.8161 0.0000 -8.4141 0.0000
# 4 0.0000 0.0000 0.0000 26.7749 0.0000 11.8099
# 5 -0.2731 -4.1263 -8.4141 0.0000 29.4732 0.0000
# 6 0.0000 0.0000 0.0000 11.8099 0.0000 29.0942
#
#
#
# Elastic Compliance Matrix: (Units=1/GPa)
#
#
# Indices 1 2 3 4 5 6 
#
# 1 0.013520 -0.004641 -0.002470 0.000000 -0.001230 0.000000
# 2 -0.004641 0.014337 -0.004824 0.000000 0.000587 0.000000
# 3 -0.002470 -0.004824 0.012553 0.000000 0.002885 0.000000
# 4 0.000000 0.000000 0.000000 0.045494 0.000000 -0.018467
# 5 -0.001230 0.000587 0.002885 0.000000 0.034824 0.000000
# 6 0.000000 0.000000 0.000000 -0.018467 0.000000 0.041867
#
#
# Mechanical properties :
#
#
# Convention : Reuss Voigt Hill
#
# Bulk Modulus (GPa) = 60.45889 61.34870 60.90379
# Shear Modulus (GPa) = 26.04464 28.81440 27.42952
#
# Velocity S-wave (km/s) = 3.67728 3.86787 3.77378
# Velocity P-wave (km/s) = 7.02994 7.19719 7.11406
#
# Compressibility (1/GPa) = 0.01654016
#
# Stress axis : x y z
#
# Youngs Moduli (GPa) = 73.96335 69.74970 79.66216
#
# Poissons Ratio (x) = 0.32369 0.19678
# Poissons Ratio (y) = 0.34324 0.38430
# Poissons Ratio (z) = 0.18271 0.33648
#
# Static dielectric constant tensor:
#      x y z
#    x 3.631090 0.000000 -0.023730 
#    y 0.000000 3.463110 0.000000 
#    z -0.023730 0.000000 3.561710 
# 
# 
# High freq. dielectric constant tensor:
#      x y z
#    x 1.754000 0.000000 -0.001370 
#    y 0.000000 1.749610 0.000000 
#    z -0.001370 0.000000 1.760350 
# 
# From -- ./inp_files/42730.got.cif
#   From: 2010.06.25/outbox.cif.g09.slc.cpg/sg10_22_cif.got.tgz:42730.got - 2010.06.27 22:07:45.
