data_PCOD8065830
_publ_section_title
;
Structure prediction by ZEFSAII (Michael W. Deem and Ramdas Pophale) SiO2 
 PCOD8065830
Probable space group: P 2/M
;
_chemical_formula_sum "Si O2"
_cell_formula_units_Z 32
_cell_length_a 18.384575
_cell_length_b 13.400571
_cell_length_c 13.951539
_cell_angle_alpha 90.000000
_cell_angle_beta 147.365273
_cell_angle_gamma 90.000000
_cell_volume 1853.592974
_symmetry_space_group_name_H-M "P 2/M"
_symmetry_group_IT_number 10
_symmetry_cell_setting 'monoclinic'
loop_
_space_group_symop_operation_xyz
x,y,z
-x,y,-z
-x,-y,-z
x,-y,z
loop_
_atom_site_type_symbol
_atom_site_label
_atom_site_fract_x
_atom_site_fract_y
_atom_site_fract_z
Si Si1 0.562597 0.204466 0.174221
Si Si2 0.130970 0.882668 0.758708
Si Si3 0.130971 0.382668 0.258708
Si Si4 0.562597 0.704466 0.674221
Si Si5 0.166046 0.881878 0.584060
Si Si6 0.395358 0.614832 0.652845
Si Si7 0.166046 0.618122 0.084060
Si Si8 0.395358 0.885168 0.152845
O O1 0.718748 0.173320 0.347768
O O2 0.549054 0.317073 0.199388
O O3 0.484036 0.128025 0.155658
O O4 0.500000 0.198276 0.000000
O O5 0.168016 0.839567 0.695008
O O6 0.979730 0.852093 0.623350
O O7 0.135263 0.000000 0.749627
O O8 0.241951 0.849775 0.959653
O O9 0.135264 0.500000 0.249628
O O10 0.241951 0.349774 0.459653
O O11 0.168016 0.339567 0.195008
O O12 0.979730 0.352094 0.123350
O O13 0.500000 0.698276 0.500000
O O14 0.484036 0.628025 0.655658
O O15 0.718748 0.673320 0.847768
O O16 0.549054 0.817073 0.699389
O O17 0.191505 0.000000 0.607440
O O18 0.402062 0.500000 0.693337
O O19 0.191504 0.500000 0.107440
O O20 0.402063 0.000000 0.193337
#
# Coordination Sequence:
#
# PCOD8065830 Si02
#       8
#     4   4   4   4   4   4   4   4
#     4  11  21  32  51  76  98 129 166 198 241 289
#     4   8  15  29  49  73  97 123 158 201 245 283
#     4   8  15  29  49  73  97 123 158 201 245 283
#     4  11  21  32  51  76  98 129 166 198 241 289
#     4   9  16  28  50  76  99 123 156 202 246 283
#     4  10  21  35  50  72 101 129 163 203 240 287
#     4   9  16  28  50  76  99 123 156 202 246 283
#     4  10  21  35  50  72 101 129 163 203 240 287
#
# _framework density 17.263767999999999
#
# number of rings (size 3 to 8) (size 9 to 14) (size 15 to 20)
#    0.000    2.500    2.500    2.250    0.000    2.500 
#    0.000    0.000    0.000    0.000    0.000    3.500 
#    0.000    0.000    0.000    0.000    0.000    0.000 
#
# Total GULP energy -396641.012685 kJ/mol
# GULP energy per Si atom -12395.031646 kJ/mol
# Density = 1.722447 g / cm^3
# Si number density = 17.263768 Si / 1000 Ang^3
#
#
#
# Elastic Constant Matrix: (Units=GPa)
#
#
# Indices 1 2 3 4 5 6 
#
# 1 71.8179 19.9821 29.5890 0.0000 17.3994 0.0000
# 2 19.9821 53.7062 13.3092 0.0000 5.7615 0.0000
# 3 29.5890 13.3092 60.3914 0.0000 28.1611 0.0000
# 4 0.0000 0.0000 0.0000 20.9503 0.0000 0.3486
# 5 17.3994 5.7615 28.1611 0.0000 27.2361 0.0000
# 6 0.0000 0.0000 0.0000 0.3486 0.0000 5.7496
#
#
#
# Elastic Compliance Matrix: (Units=1/GPa)
#
#
# Indices 1 2 3 4 5 6 
#
# 1 0.018950 -0.005068 -0.005837 0.000000 -0.004999 0.000000
# 2 -0.005068 0.021056 -0.003070 0.000000 0.001958 0.000000
# 3 -0.005837 -0.003070 0.034862 0.000000 -0.031668 0.000000
# 4 0.000000 0.000000 0.000000 0.047780 0.000000 -0.002897
# 5 -0.004999 0.001958 -0.031668 0.000000 0.072238 0.000000
# 6 0.000000 0.000000 0.000000 -0.002897 0.000000 0.174100
#
#
# Mechanical properties :
#
#
# Convention : Reuss Voigt Hill
#
# Bulk Modulus (GPa) = 21.31374 34.63070 27.97222
# Shear Modulus (GPa) = 12.11899 18.98955 15.55427
#
# Velocity S-wave (km/s) = 2.65238 3.32017 3.00489
# Velocity P-wave (km/s) = 4.66400 5.89927 5.31763
#
# Compressibility (1/GPa) = 0.04691810
#
# Stress axis : x y z
#
# Youngs Moduli (GPa) = 52.77043 47.49182 28.68459
#
# Poissons Ratio (x) = 0.24068 0.16742
# Poissons Ratio (y) = 0.26744 0.08807
# Poissons Ratio (z) = 0.30800 0.14582
#
# Static dielectric constant tensor:
#      x y z
#    x 3.066820 0.000000 0.206920 
#    y 0.000000 2.845890 0.000000 
#    z 0.206920 0.000000 3.724980 
# 
# 
# High freq. dielectric constant tensor:
#      x y z
#    x 1.652980 0.000000 0.020050 
#    y 0.000000 1.634680 0.000000 
#    z 0.020050 0.000000 1.676880 
# 
# From -- ./inp_files/69329.got.cif
#   From: 2010.06.25/outbox.cif.g09.slc.cpg/sg10_35_cif.got.tgz:69329.got - 2010.06.27 22:07:45.
