data_PCOD8065542
_publ_section_title
;
Structure prediction by ZEFSAII (Michael W. Deem and Ramdas Pophale) SiO2 
 PCOD8065542
Probable space group: P 2/M
;
_chemical_formula_sum "Si O2"
_cell_formula_units_Z 22
_cell_length_a 15.642468
_cell_length_b 12.285092
_cell_length_c 5.336410
_cell_angle_alpha 90.000000
_cell_angle_beta 66.584644
_cell_angle_gamma 90.000000
_cell_volume 941.042141
_symmetry_space_group_name_H-M "P 2/M"
_symmetry_group_IT_number 10
_symmetry_cell_setting 'monoclinic'
loop_
_space_group_symop_operation_xyz
x,y,z
-x,y,-z
-x,-y,-z
x,-y,z
loop_
_atom_site_type_symbol
_atom_site_label
_atom_site_fract_x
_atom_site_fract_y
_atom_site_fract_z
Si Si1 0.442636 0.874494 0.819953
Si Si2 0.816869 0.122790 0.428485
Si Si3 0.294635 0.268985 0.771475
Si Si4 0.717989 0.500000 0.229036
Si Si5 0.832486 0.500000 0.592451
Si Si6 0.000000 0.192074 0.000000
Si Si7 0.112565 0.714430 0.270235
O O1 0.500000 0.851294 0.500000
O O2 0.352016 0.797475 0.914485
O O3 0.411139 0.000000 0.871803
O O4 0.500000 0.841335 0.000000
O O5 0.725221 0.188528 0.439962
O O6 0.905184 0.122154 0.132941
O O7 0.853853 0.174824 0.638518
O O8 0.783408 0.000000 0.515429
O O9 0.342280 0.387220 0.654320
O O10 0.192503 0.308999 0.973967
O O11 0.796836 0.500000 0.350885
O O12 0.752051 0.500000 0.898848
O O13 0.895930 0.608354 0.544872
O O14 0.013817 0.265068 0.238427
#
# Coordination Sequence:
#
# PCOD8065542 Si02
#       7
#     4   4   4   2   2   2   4
#     4  10  23  41  63  93 132 167 200 252 307 361
#     4  11  22  37  60  85 118 161 207 256 309 373
#     4  10  22  40  63  91 120 161 209 253 305 375
#     4  10  20  38  66  91 123 158 202 261 311 354
#     4  10  20  39  61  90 122 160 206 259 309 361
#     4  10  23  39  52  86 124 159 199 264 314 366
#     4  10  22  38  61  85 120 160 210 253 312 366
#
# _framework density 23.378336999999998
#
# number of rings (size 3 to 8) (size 9 to 14) (size 15 to 20)
#    0.000    1.818    1.818    1.364    2.545    5.455 
#    0.000    3.636    0.000    0.000    0.000    0.000 
#    0.000    0.000    0.000    0.000    0.000    0.000 
#
# Total GULP energy -272622.853688 kJ/mol
# GULP energy per Si atom -12391.947895 kJ/mol
# Density = 2.332513 g / cm^3
# Si number density = 23.378337 Si / 1000 Ang^3
#
#
#
# Elastic Constant Matrix: (Units=GPa)
#
#
# Indices 1 2 3 4 5 6 
#
# 1 117.1511 63.6295 24.0478 0.0000 39.4907 0.0000
# 2 63.6295 208.9763 22.7789 0.0000 34.2023 0.0000
# 3 24.0478 22.7789 69.8113 0.0000 34.6442 0.0000
# 4 0.0000 0.0000 0.0000 24.4212 0.0000 10.6319
# 5 39.4907 34.2023 34.6442 0.0000 43.1903 0.0000
# 6 0.0000 0.0000 0.0000 10.6319 0.0000 32.6444
#
#
#
# Elastic Compliance Matrix: (Units=1/GPa)
#
#
# Indices 1 2 3 4 5 6 
#
# 1 0.013480 -0.002342 0.002188 0.000000 -0.012226 0.000000
# 2 -0.002342 0.005920 0.000231 0.000000 -0.002732 0.000000
# 3 0.002188 0.000231 0.024220 0.000000 -0.021610 0.000000
# 4 0.000000 0.000000 0.000000 0.047713 0.000000 -0.015540
# 5 -0.012226 -0.002732 -0.021610 0.000000 0.053830 0.000000
# 6 0.000000 0.000000 0.000000 -0.015540 0.000000 0.035694
#
#
# Mechanical properties :
#
#
# Convention : Reuss Voigt Hill
#
# Bulk Modulus (GPa) = 22.84504 68.53899 45.69202
# Shear Modulus (GPa) = 25.60225 39.08334 32.34280
#
# Velocity S-wave (km/s) = 3.31286 4.09317 3.72351
# Velocity P-wave (km/s) = 4.94232 7.19164 6.17034
#
# Compressibility (1/GPa) = 0.04377317
#
# Stress axis : x y z
#
# Youngs Moduli (GPa) = 74.18339 168.91015 41.28866
#
# Poissons Ratio (x) = 0.39559 -0.09033
# Poissons Ratio (y) = 0.17374 -0.00953
# Poissons Ratio (z) = -0.16230 -0.03898
#
# Static dielectric constant tensor:
#      x y z
#    x 3.930310 0.000000 0.151510 
#    y 0.000000 4.607270 0.000000 
#    z 0.151510 0.000000 4.072160 
# 
# 
# High freq. dielectric constant tensor:
#      x y z
#    x 1.897290 0.000000 0.024020 
#    y 0.000000 1.937540 0.000000 
#    z 0.024020 0.000000 1.919780 
# 
# From -- ./inp_files/8903.got.cif
#   From: 2010.06.25/outbox.cif.g09.slc.cpg/sg10_5_cif.got.tgz:8903.got - 2010.06.27 22:07:45.
