data_PCOD8065899
_publ_section_title
;
Structure prediction by ZEFSAII (Michael W. Deem and Ramdas Pophale) SiO2 
 PCOD8065899
Probable space group: P 2/M
;
_chemical_formula_sum "Si O2"
_cell_formula_units_Z 32
_cell_length_a 14.551954
_cell_length_b 8.975104
_cell_length_c 12.667924
_cell_angle_alpha 90.000000
_cell_angle_beta 81.549252
_cell_angle_gamma 90.000000
_cell_volume 1636.534402
_symmetry_space_group_name_H-M "P 2/M"
_symmetry_group_IT_number 10
_symmetry_cell_setting 'monoclinic'
loop_
_space_group_symop_operation_xyz
x,y,z
-x,y,-z
-x,-y,-z
x,-y,z
loop_
_atom_site_type_symbol
_atom_site_label
_atom_site_fract_x
_atom_site_fract_y
_atom_site_fract_z
Si Si1 0.398239 0.174233 0.486013
Si Si2 0.931645 0.173387 0.802876
Si Si3 0.856214 0.666077 0.623297
Si Si4 0.780993 0.825974 0.003198
Si Si5 0.603077 0.325956 0.951532
Si Si6 0.352613 0.665295 0.289752
Si Si7 0.881197 0.323545 0.180736
Si Si8 0.216310 0.323955 0.586505
O O1 0.500000 0.232284 0.500000
O O2 0.387069 0.211615 0.365291
O O3 0.319132 0.254085 0.568811
O O4 0.387643 0.000000 0.506871
O O5 0.921021 0.228727 0.683656
O O6 0.015859 0.258179 0.844702
O O7 0.955070 0.000000 0.796273
O O8 0.840548 0.207721 0.887883
O O9 0.900672 0.500000 0.613260
O O10 0.757897 0.660969 0.697505
O O11 0.843956 0.728910 0.505724
O O12 0.821222 0.738991 0.095724
O O13 0.780833 0.000000 0.029654
O O14 0.676202 0.770096 0.005398
O O15 0.623049 0.500000 0.968984
O O16 0.609570 0.283835 0.828470
O O17 0.500000 0.278612 0.000000
O O18 0.389607 0.500000 0.314614
O O19 0.886125 0.500000 0.170955
O O20 0.835437 0.273272 0.299173
O O21 0.230076 0.500000 0.575852
#
# Coordination Sequence:
#
# PCOD8065899 Si02
#       8
#     4   4   4   4   4   4   4   4
#     4  10  21  35  55  84 115 151 193 235 286 351
#     4  11  23  38  59  88 119 154 197 241 294 355
#     4   9  17  34  60  84 110 147 191 238 287 341
#     4  11  24  41  60  85 122 159 196 244 296 354
#     4  10  21  38  61  89 117 150 198 247 292 345
#     4   9  18  34  56  81 111 148 190 239 288 337
#     4  11  24  41  62  86 117 157 200 246 296 351
#     4   9  21  40  59  84 115 150 194 244 295 345
#
# _framework density 19.553515000000001
#
# number of rings (size 3 to 8) (size 9 to 14) (size 15 to 20)
#    0.000    2.000    1.250    2.625    0.000    9.250 
#    0.000    6.250    0.000    0.000    0.000    0.000 
#    0.000    0.000    0.000    0.000    0.000    0.000 
#
# Total GULP energy -396847.136877 kJ/mol
# GULP energy per Si atom -12401.473027 kJ/mol
# Density = 1.950901 g / cm^3
# Si number density = 19.553515 Si / 1000 Ang^3
#
#
#
# Elastic Constant Matrix: (Units=GPa)
#
#
# Indices 1 2 3 4 5 6 
#
# 1 106.0804 46.1924 36.7718 0.0000 11.7641 0.0000
# 2 46.1924 73.4421 41.5432 0.0000 5.0992 0.0000
# 3 36.7718 41.5432 82.6879 0.0000 1.3260 0.0000
# 4 0.0000 0.0000 0.0000 3.3141 0.0000 5.9606
# 5 11.7641 5.0992 1.3260 0.0000 19.1875 0.0000
# 6 0.0000 0.0000 0.0000 5.9606 0.0000 33.0678
#
#
#
# Elastic Compliance Matrix: (Units=1/GPa)
#
#
# Indices 1 2 3 4 5 6 
#
# 1 0.014093 -0.006872 -0.002709 0.000000 -0.006627 0.000000
# 2 -0.006872 0.022751 -0.008354 0.000000 -0.001256 0.000000
# 3 -0.002709 -0.008354 0.017453 0.000000 0.002675 0.000000
# 4 0.000000 0.000000 0.000000 0.446493 0.000000 -0.080482
# 5 -0.006627 -0.001256 0.002675 0.000000 0.056329 0.000000
# 6 0.000000 0.000000 0.000000 -0.080482 0.000000 0.044748
#
#
# Mechanical properties :
#
#
# Convention : Reuss Voigt Hill
#
# Bulk Modulus (GPa) = 54.26683 56.80278 55.53480
# Shear Modulus (GPa) = 7.76544 20.29409 14.02976
#
# Velocity S-wave (km/s) = 1.99499 3.22510 2.68154
# Velocity P-wave (km/s) = 5.75499 6.55602 6.16852
#
# Compressibility (1/GPa) = 0.01842746
#
# Stress axis : x y z
#
# Youngs Moduli (GPa) = 70.95780 43.95388 57.29810
#
# Poissons Ratio (x) = 0.30204 0.15519
# Poissons Ratio (y) = 0.48760 0.47869
# Poissons Ratio (z) = 0.19219 0.36721
#
# Static dielectric constant tensor:
#      x y z
#    x 3.550700 0.000000 -0.014250 
#    y 0.000000 3.499960 0.000000 
#    z -0.014250 0.000000 3.641980 
# 
# 
# High freq. dielectric constant tensor:
#      x y z
#    x 1.759690 0.000000 0.001620 
#    y 0.000000 1.758020 0.000000 
#    z 0.001620 0.000000 1.766890 
# 
# From -- ./inp_files/49935.got.cif
#   From: 2010.06.25/outbox.cif.g09.slc.cpg/sg10_25_cif.got.tgz:49935.got - 2010.06.27 22:07:45.
