data_PCOD8065248
_publ_section_title
;
Structure prediction by ZEFSAII (Michael W. Deem and Ramdas Pophale) SiO2 
 PCOD8065248
Probable space group: P 2/M
;
_chemical_formula_sum "Si O2"
_cell_formula_units_Z 32
_cell_length_a 14.827000
_cell_length_b 9.056423
_cell_length_c 22.754137
_cell_angle_alpha 90.000000
_cell_angle_beta 147.869481
_cell_angle_gamma 90.000000
_cell_volume 1625.022198
_symmetry_space_group_name_H-M "P 2/M"
_symmetry_group_IT_number 10
_symmetry_cell_setting 'monoclinic'
loop_
_space_group_symop_operation_xyz
x,y,z
-x,y,-z
-x,-y,-z
x,-y,z
loop_
_atom_site_type_symbol
_atom_site_label
_atom_site_fract_x
_atom_site_fract_y
_atom_site_fract_z
Si Si1 0.638837 0.826311 0.624742
Si Si2 0.968526 0.672871 0.759790
Si Si3 0.081258 0.328798 0.401418
Si Si4 0.536451 0.675127 0.366843
Si Si5 0.494574 0.825395 0.220342
Si Si6 0.801283 0.828871 0.305687
Si Si7 0.726425 0.660845 0.987283
Si Si8 0.413645 0.662028 0.895701
O O1 0.500000 0.782735 0.500000
O O2 0.597583 0.742638 0.662054
O O3 0.819172 0.772622 0.701857
O O4 0.643583 0.000000 0.639460
O O5 0.924108 0.500000 0.742682
O O6 0.995983 0.708968 0.705754
O O7 0.133624 0.718813 0.889051
O O8 0.069904 0.500000 0.409141
O O9 0.275505 0.274981 0.510088
O O10 0.984019 0.251287 0.403067
O O11 0.516434 0.500000 0.354772
O O12 0.491487 0.739129 0.278952
O O13 0.672688 0.781207 0.286530
O O14 0.322053 0.777978 0.090394
O O15 0.486190 0.000000 0.225164
O O16 0.721865 0.781485 0.199530
O O17 0.838128 0.000000 0.328483
O O18 0.783384 0.500000 0.992766
O O19 0.551633 0.634467 0.923054
O O20 0.328703 0.500000 0.863132
O O21 0.500000 0.732344 0.000000
#
# Coordination Sequence:
#
# PCOD8065248 Si02
#       8
#     4   4   4   4   4   4   4   4
#     4  11  23  39  61  90 122 152 183 225 287 354
#     4  10  20  37  61  89 120 150 189 240 289 339
#     4  10  21  36  57  86 117 150 192 241 290 337
#     4  11  23  40  64  87 111 149 196 243 286 339
#     4  10  22  40  58  80 117 158 196 238 286 341
#     4  10  21  34  51  78 114 155 193 234 284 339
#     4   9  18  33  56  83 111 149 193 236 282 335
#     4   9  16  29  50  74 106 147 191 237 283 332
#
# _framework density 19.692041
#
# number of rings (size 3 to 8) (size 9 to 14) (size 15 to 20)
#    0.000    2.000    1.250    2.250    0.000    6.750 
#    0.000    5.625    0.000    3.750    0.000    0.000 
#    0.000    0.000    0.000    0.000    0.000    0.000 
#
# Total GULP energy -396586.378879 kJ/mol
# GULP energy per Si atom -12393.324340 kJ/mol
# Density = 1.964722 g / cm^3
# Si number density = 19.692041 Si / 1000 Ang^3
#
#
#
# Elastic Constant Matrix: (Units=GPa)
#
#
# Indices 1 2 3 4 5 6 
#
# 1 71.7265 34.9030 13.3494 0.0000 -9.6504 0.0000
# 2 34.9030 63.6767 26.7988 0.0000 -3.9381 0.0000
# 3 13.3494 26.7988 74.0358 0.0000 -7.7685 0.0000
# 4 0.0000 0.0000 0.0000 27.2214 0.0000 5.6714
# 5 -9.6504 -3.9381 -7.7685 0.0000 30.9738 0.0000
# 6 0.0000 0.0000 0.0000 5.6714 0.0000 32.4912
#
#
#
# Elastic Compliance Matrix: (Units=1/GPa)
#
#
# Indices 1 2 3 4 5 6 
#
# 1 0.019748 -0.010898 0.000908 0.000000 0.004995 0.000000
# 2 -0.010898 0.024555 -0.007140 0.000000 -0.002064 0.000000
# 3 0.000908 -0.007140 0.016291 0.000000 0.003461 0.000000
# 4 0.000000 0.000000 0.000000 0.038122 0.000000 -0.006654
# 5 0.004995 -0.002064 0.003461 0.000000 0.034447 0.000000
# 6 0.000000 0.000000 0.000000 -0.006654 0.000000 0.031939
#
#
# Mechanical properties :
#
#
# Convention : Reuss Voigt Hill
#
# Bulk Modulus (GPa) = 37.97267 39.94903 38.96085
# Shear Modulus (GPa) = 24.02246 27.09647 25.55946
#
# Velocity S-wave (km/s) = 3.49651 3.71349 3.60663
# Velocity P-wave (km/s) = 5.96874 6.22234 6.09686
#
# Compressibility (1/GPa) = 0.02633473
#
# Stress axis : x y z
#
# Youngs Moduli (GPa) = 50.63870 40.72534 61.38429
#
# Poissons Ratio (x) = 0.44380 -0.05574
# Poissons Ratio (y) = 0.55184 0.43827
# Poissons Ratio (z) = -0.04598 0.29077
#
# Static dielectric constant tensor:
#      x y z
#    x 3.564250 0.000000 -0.102170 
#    y 0.000000 3.596270 0.000000 
#    z -0.102170 0.000000 4.002230 
# 
# 
# High freq. dielectric constant tensor:
#      x y z
#    x 1.759170 0.000000 -0.000440 
#    y 0.000000 1.762360 0.000000 
#    z -0.000440 0.000000 1.766170 
# 
# From -- ./inp_files/89644.got.cif
#   From: 2010.06.25/outbox.cif.g09.slc.cpg/sg10_45_cif.got.tgz:89644.got - 2010.06.27 22:07:45.
