data_PCOD8065607
_publ_section_title
;
Structure prediction by ZEFSAII (Michael W. Deem and Ramdas Pophale) SiO2 
 PCOD8065607
Probable space group: P 2/M
;
_chemical_formula_sum "Si O2"
_cell_formula_units_Z 32
_cell_length_a 12.366371
_cell_length_b 19.598211
_cell_length_c 8.680299
_cell_angle_alpha 90.000000
_cell_angle_beta 51.432388
_cell_angle_gamma 90.000000
_cell_volume 1644.862535
_symmetry_space_group_name_H-M "P 2/M"
_symmetry_group_IT_number 10
_symmetry_cell_setting 'monoclinic'
loop_
_space_group_symop_operation_xyz
x,y,z
-x,y,-z
-x,-y,-z
x,-y,z
loop_
_atom_site_type_symbol
_atom_site_label
_atom_site_fract_x
_atom_site_fract_y
_atom_site_fract_z
Si Si1 0.418335 0.818309 0.719803
Si Si2 0.885928 0.830757 0.971136
Si Si3 0.601760 0.694297 0.038181
Si Si4 0.585869 0.578491 0.272552
Si Si5 0.411313 0.076003 0.229921
Si Si6 0.912136 0.299380 0.732545
Si Si7 0.144000 0.920521 0.296573
Si Si8 0.099194 0.575674 0.054622
O O1 0.500000 0.793908 0.500000
O O2 0.399095 0.752832 0.838481
O O3 0.506669 0.878561 0.720069
O O4 0.261093 0.835200 0.810359
O O5 0.926719 0.760844 0.846029
O O6 0.863260 0.889035 0.865188
O O7 0.000000 0.847520 0.000000
O O8 0.542922 0.624169 0.164250
O O9 0.500000 0.719758 0.000000
O O10 0.752908 0.688832 0.827433
O O11 0.500000 0.600750 0.500000
O O12 0.553624 0.500000 0.261670
O O13 0.749205 0.593263 0.148649
O O14 0.264480 0.108801 0.303333
O O15 0.389014 0.000000 0.321907
O O16 0.500000 0.069266 0.000000
O O17 0.958651 0.370358 0.769952
O O18 0.000000 0.283902 0.500000
O O19 0.000000 0.902698 0.500000
O O20 0.172751 0.000000 0.249010
O O21 0.099694 0.500000 0.130088
O O22 0.000000 0.577939 0.000000
#
# Coordination Sequence:
#
# PCOD8065607 Si02
#       8
#     4   4   4   4   4   4   4   4
#     4  11  24  38  58  85 114 150 191 236 286 338
#     4  11  24  39  57  84 117 150 188 237 286 339
#     4  10  22  37  56  81 112 146 188 238 282 332
#     4   9  18  34  55  80 112 148 185 227 280 338
#     4  10  20  39  64  85 114 152 190 234 280 335
#     4  10  22  38  56  81 111 148 189 233 285 338
#     4  10  22  40  63  89 116 151 191 231 281 339
#     4   9  18  34  56  81 111 146 185 231 280 333
#
# _framework density 19.454514
#
# number of rings (size 3 to 8) (size 9 to 14) (size 15 to 20)
#    0.000    2.000    1.250    1.500    3.500    3.000 
#    0.000    0.000    0.000    0.000    0.000    0.000 
#    0.000    0.000    0.000    0.000    0.000    0.000 
#
# Total GULP energy -396565.782726 kJ/mol
# GULP energy per Si atom -12392.680710 kJ/mol
# Density = 1.941023 g / cm^3
# Si number density = 19.454514 Si / 1000 Ang^3
#
#
#
# Elastic Constant Matrix: (Units=GPa)
#
#
# Indices 1 2 3 4 5 6 
#
# 1 113.4431 4.1007 32.5867 0.0000 -21.5656 0.0000
# 2 4.1007 -20.2164 36.8526 0.0000 -23.2143 0.0000
# 3 32.5867 36.8526 102.5698 0.0000 -12.6557 0.0000
# 4 0.0000 0.0000 0.0000 -2.9073 0.0000 -27.2588
# 5 -21.5656 -23.2143 -12.6557 0.0000 17.0769 0.0000
# 6 0.0000 0.0000 0.0000 -27.2588 0.0000 3.3645
#
#
#
# Elastic Compliance Matrix: (Units=1/GPa)
#
#
# Indices 1 2 3 4 5 6 
#
# 1 0.010204 -0.005240 -0.000713 0.000000 0.005234 0.000000
# 2 -0.005240 -0.015192 0.004137 0.000000 -0.024205 0.000000
# 3 -0.000713 0.004137 0.009986 0.000000 0.012123 0.000000
# 4 0.000000 0.000000 0.000000 -0.004469 0.000000 -0.036209
# 5 0.005234 -0.024205 0.012123 0.000000 0.041249 0.000000
# 6 0.000000 0.000000 0.000000 -0.036209 0.000000 0.003862
#
#
# Mechanical properties :
#
#
# Convention : Reuss Voigt Hill
#
# Bulk Modulus (GPa) = 733.27201 38.09739 385.68470
# Shear Modulus (GPa) = 100.54880 11.65727 56.10303
#
# Velocity S-wave (km/s) = 7.19696 2.45053 5.37593
# Velocity P-wave (km/s) = 21.13755 5.25662 15.40176
#
# Compressibility (1/GPa) = 0.00136375
#
# Stress axis : x y z
#
# Youngs Moduli (GPa) = 97.99809 -65.82205 100.14493
#
# Poissons Ratio (x) = -0.34494 0.07143
# Poissons Ratio (y) = 0.51356 -0.41429
# Poissons Ratio (z) = 0.06990 0.27230
#
# Static dielectric constant tensor:
#      x y z
#    x 3.571950 0.000000 -0.993300 
#    y 0.000000 3.804310 0.000000 
#    z -0.993300 0.000000 8.931700 
# 
# 
# High freq. dielectric constant tensor:
#      x y z
#    x 1.755840 0.000000 -0.016520 
#    y 0.000000 1.767290 0.000000 
#    z -0.016520 0.000000 1.753670 
# 
# From -- ./inp_files/26073.got.cif
#   From: 2010.06.25/outbox.cif.g09.slc.cpg/sg10_14_cif.got.tgz:26073.got - 2010.06.27 22:07:45.
