data_PCOD8065225
_publ_section_title
;
Structure prediction by ZEFSAII (Michael W. Deem and Ramdas Pophale) SiO2 
 PCOD8065225
Probable space group: P 2/M
;
_chemical_formula_sum "Si O2"
_cell_formula_units_Z 32
_cell_length_a 12.099929
_cell_length_b 8.993410
_cell_length_c 29.164556
_cell_angle_alpha 90.000000
_cell_angle_beta 31.075260
_cell_angle_gamma 90.000000
_cell_volume 1638.135855
_symmetry_space_group_name_H-M "P 2/M"
_symmetry_group_IT_number 10
_symmetry_cell_setting 'monoclinic'
loop_
_space_group_symop_operation_xyz
x,y,z
-x,y,-z
-x,-y,-z
x,-y,z
loop_
_atom_site_type_symbol
_atom_site_label
_atom_site_fract_x
_atom_site_fract_y
_atom_site_fract_z
Si Si1 0.670111 0.175742 0.680962
Si Si2 0.093193 0.327198 0.558895
Si Si3 0.136482 0.829888 0.733119
Si Si4 0.514287 0.327685 0.646191
Si Si5 0.885074 0.673352 0.970565
Si Si6 0.273674 0.171960 0.064235
Si Si7 0.324130 0.325888 0.860452
Si Si8 0.745841 0.172562 0.411364
O O1 0.558022 0.228212 0.674569
O O2 0.532613 0.232097 0.773050
O O3 0.906896 0.242396 0.598447
O O4 0.685264 0.000000 0.676743
O O5 0.035296 0.500000 0.580825
O O6 0.311552 0.295049 0.454534
O O7 0.115968 0.267198 0.602164
O O8 0.284816 0.717529 0.708275
O O9 0.150398 0.793993 0.674536
O O10 0.894065 0.802030 0.835137
O O11 0.209231 0.000000 0.716657
O O12 0.511140 0.500000 0.661858
O O13 0.873013 0.500000 0.964880
O O14 0.809232 0.756666 0.952741
O O15 0.128022 0.718647 0.896720
O O16 0.732100 0.715550 0.067370
O O17 0.305484 0.000000 0.041767
O O18 0.500000 0.242149 0.000000
O O19 0.374155 0.500000 0.837865
O O20 0.500000 0.226065 0.500000
O O21 0.761126 0.000000 0.419650
#
# Coordination Sequence:
#
# PCOD8065225 Si02
#       8
#     4   4   4   4   4   4   4   4
#     4  12  25  38  57  86 119 154 195 239 291 353
#     4  11  24  40  59  84 117 155 195 242 295 350
#     4  10  21  38  61  87 116 155 199 241 293 349
#     4  11  23  39  60  85 116 152 194 243 294 349
#     4   9  19  37  62  87 113 149 191 235 288 347
#     4  10  22  38  55  81 119 156 192 239 289 339
#     4   9  19  38  61  86 117 149 185 236 293 348
#     4  10  20  37  61  86 116 152 195 246 291 342
#
# _framework density 19.534396999999998
#
# number of rings (size 3 to 8) (size 9 to 14) (size 15 to 20)
#    0.000    1.750    1.250    3.750    0.000    8.500 
#    0.000    2.500    0.000    0.000    0.000    0.000 
#    0.000    0.000    0.000    0.000    0.000    0.000 
#
# Total GULP energy -396961.651042 kJ/mol
# GULP energy per Si atom -12405.051595 kJ/mol
# Density = 1.948994 g / cm^3
# Si number density = 19.534397 Si / 1000 Ang^3
#
#
#
# Elastic Constant Matrix: (Units=GPa)
#
#
# Indices 1 2 3 4 5 6 
#
# 1 53.6531 22.4483 48.9878 0.0000 19.4715 0.0000
# 2 22.4483 76.0488 42.7999 0.0000 5.2640 0.0000
# 3 48.9878 42.7999 104.8528 0.0000 0.7798 0.0000
# 4 0.0000 0.0000 0.0000 17.8475 0.0000 -7.7713
# 5 19.4715 5.2640 0.7798 0.0000 27.3083 0.0000
# 6 0.0000 0.0000 0.0000 -7.7713 0.0000 32.3359
#
#
#
# Elastic Compliance Matrix: (Units=1/GPa)
#
#
# Indices 1 2 3 4 5 6 
#
# 1 0.057550 0.001007 -0.026998 0.000000 -0.040458 0.000000
# 2 0.001007 0.017354 -0.007525 0.000000 -0.003848 0.000000
# 3 -0.026998 -0.007525 0.025074 0.000000 0.019985 0.000000
# 4 0.000000 0.000000 0.000000 0.062579 0.000000 0.015040
# 5 -0.040458 -0.003848 0.019985 0.000000 0.065637 0.000000
# 6 0.000000 0.000000 0.000000 0.015040 0.000000 0.034540
#
#
# Mechanical properties :
#
#
# Convention : Reuss Voigt Hill
#
# Bulk Modulus (GPa) = 30.35374 51.44741 40.90058
# Shear Modulus (GPa) = 14.67364 23.51959 19.09661
#
# Velocity S-wave (km/s) = 2.74372 3.47365 3.13003
# Velocity P-wave (km/s) = 5.06060 6.51785 5.83489
#
# Compressibility (1/GPa) = 0.03294487
#
# Stress axis : x y z
#
# Youngs Moduli (GPa) = 17.37631 57.62395 39.88232
#
# Poissons Ratio (x) = -0.05802 1.07673
# Poissons Ratio (y) = -0.01749 0.30013
# Poissons Ratio (z) = 0.46912 0.43365
#
# Static dielectric constant tensor:
#      x y z
#    x 3.525280 0.000000 0.033700 
#    y 0.000000 3.484640 0.000000 
#    z 0.033700 0.000000 3.744720 
# 
# 
# High freq. dielectric constant tensor:
#      x y z
#    x 1.762460 0.000000 0.006100 
#    y 0.000000 1.756130 0.000000 
#    z 0.006100 0.000000 1.772140 
# 
# From -- ./inp_files/58358.got.cif
#   From: 2010.06.25/outbox.cif.g09.slc.cpg/sg10_30_cif.got.tgz:58358.got - 2010.06.27 22:07:45.
