data_PCOD8065517
_publ_section_title
;
Structure prediction by ZEFSAII (Michael W. Deem and Ramdas Pophale) SiO2 
 PCOD8065517
Probable space group: P 2/M
;
_chemical_formula_sum "Si O2"
_cell_formula_units_Z 32
_cell_length_a 20.603971
_cell_length_b 9.081469
_cell_length_c 26.634314
_cell_angle_alpha 90.000000
_cell_angle_beta 18.600347
_cell_angle_gamma 90.000000
_cell_volume 1589.613886
_symmetry_space_group_name_H-M "P 2/M"
_symmetry_group_IT_number 10
_symmetry_cell_setting 'monoclinic'
loop_
_space_group_symop_operation_xyz
x,y,z
-x,y,-z
-x,-y,-z
x,-y,z
loop_
_atom_site_type_symbol
_atom_site_label
_atom_site_fract_x
_atom_site_fract_y
_atom_site_fract_z
Si Si1 0.454323 0.832054 0.977041
Si Si2 0.902518 0.168535 0.622160
Si Si3 0.962847 0.172166 0.862831
Si Si4 0.236489 0.171785 0.824313
Si Si5 0.698510 0.671938 0.322193
Si Si6 0.430677 0.170078 0.787125
Si Si7 0.071934 0.328557 0.214713
Si Si8 0.847372 0.670955 0.479795
O O1 0.660095 0.818597 0.794115
O O2 0.371428 0.000000 0.037546
O O3 0.500000 0.780308 0.000000
O O4 0.291376 0.726122 0.071536
O O5 0.000000 0.233633 0.500000
O O6 0.976316 0.258947 0.615901
O O7 0.970554 0.000000 0.580316
O O8 0.002012 0.243218 0.780155
O O9 0.110191 0.242986 0.795550
O O10 0.011534 0.000000 0.824286
O O11 0.731332 0.200046 0.049965
O O12 0.343853 0.267526 0.702482
O O13 0.337275 0.219457 0.802616
O O14 0.268602 0.000000 0.789147
O O15 0.000000 0.211753 0.000000
O O16 0.500000 0.705606 0.500000
O O17 0.749182 0.500000 0.283214
O O18 0.629860 0.262918 0.653285
O O19 0.492994 0.000000 0.739934
O O20 0.088864 0.500000 0.189430
O O21 0.903064 0.298056 0.381032
O O22 0.841247 0.500000 0.496377
#
# Coordination Sequence:
#
# PCOD8065517 Si02
#       8
#     4   4   4   4   4   4   4   4
#     4  10  20  38  64  90 116 156 207 252 299 360
#     4  10  22  40  63  90 122 158 204 259 305 355
#     4  11  24  44  67  91 121 162 210 256 305 363
#     4  10  20  41  67  92 120 156 208 258 301 359
#     4  11  25  42  62  93 131 164 201 253 310 367
#     4  10  23  42  65  91 122 159 205 259 306 359
#     4  11  25  42  61  90 129 165 202 252 309 368
#     4  11  25  42  61  89 127 166 204 248 305 372
#
# _framework density 20.130673999999999
#
# number of rings (size 3 to 8) (size 9 to 14) (size 15 to 20)
#    0.000    1.500    2.500    1.500    3.500    5.250 
#    0.000    0.000    0.000    0.000    0.000    0.000 
#    0.000    0.000    0.000    0.000    0.000    0.000 
#
# Total GULP energy -397006.681863 kJ/mol
# GULP energy per Si atom -12406.458808 kJ/mol
# Density = 2.008486 g / cm^3
# Si number density = 20.130674 Si / 1000 Ang^3
#
#
#
# Elastic Constant Matrix: (Units=GPa)
#
#
# Indices 1 2 3 4 5 6 
#
# 1 57.6733 28.5957 2.5960 0.0000 12.9249 0.0000
# 2 28.5957 89.4679 35.9806 0.0000 8.0314 0.0000
# 3 2.5960 35.9806 69.8946 0.0000 6.5929 0.0000
# 4 0.0000 0.0000 0.0000 14.7142 0.0000 8.4258
# 5 12.9249 8.0314 6.5929 0.0000 36.5179 0.0000
# 6 0.0000 0.0000 0.0000 8.4258 0.0000 20.4166
#
#
#
# Elastic Compliance Matrix: (Units=1/GPa)
#
#
# Indices 1 2 3 4 5 6 
#
# 1 0.022849 -0.008322 0.004095 0.000000 -0.006996 0.000000
# 2 -0.008322 0.017246 -0.008636 0.000000 0.000712 0.000000
# 3 0.004095 -0.008636 0.018880 0.000000 -0.002959 0.000000
# 4 0.000000 0.000000 0.000000 0.088992 0.000000 -0.036726
# 5 -0.006996 0.000712 -0.002959 0.000000 0.030238 0.000000
# 6 0.000000 0.000000 0.000000 -0.036726 0.000000 0.064136
#
#
# Mechanical properties :
#
#
# Convention : Reuss Voigt Hill
#
# Bulk Modulus (GPa) = 30.07565 39.04227 34.55896
# Shear Modulus (GPa) = 17.91156 24.32065 21.11610
#
# Velocity S-wave (km/s) = 2.98613 3.47960 3.24227
# Velocity P-wave (km/s) = 5.18285 5.96490 5.58757
#
# Compressibility (1/GPa) = 0.03324949
#
# Stress axis : x y z
#
# Youngs Moduli (GPa) = 43.76614 57.98368 52.96623
#
# Poissons Ratio (x) = 0.48253 -0.21691
# Poissons Ratio (y) = 0.36421 0.45742
# Poissons Ratio (z) = -0.17923 0.50075
#
# Static dielectric constant tensor:
#      x y z
#    x 3.704380 0.000000 0.132930 
#    y 0.000000 3.617910 0.000000 
#    z 0.132930 0.000000 3.680160 
# 
# 
# High freq. dielectric constant tensor:
#      x y z
#    x 1.791770 0.000000 0.006920 
#    y 0.000000 1.783720 0.000000 
#    z 0.006920 0.000000 1.794330 
# 
# From -- ./inp_files/93582.got.cif
#   From: 2010.06.25/outbox.cif.g09.slc.cpg/sg10_47_cif.got.tgz:93582.got - 2010.06.27 22:07:45.
