data_PCOD8065121
_publ_section_title
;
Structure prediction by ZEFSAII (Michael W. Deem and Ramdas Pophale) SiO2 
 PCOD8065121
Probable space group: P 2/M
;
_chemical_formula_sum "Si O2"
_cell_formula_units_Z 28
_cell_length_a 9.297332
_cell_length_b 8.951254
_cell_length_c 26.894322
_cell_angle_alpha 90.000000
_cell_angle_beta 38.587364
_cell_angle_gamma 90.000000
_cell_volume 1395.994141
_symmetry_space_group_name_H-M "P 2/M"
_symmetry_group_IT_number 10
_symmetry_cell_setting 'monoclinic'
loop_
_space_group_symop_operation_xyz
x,y,z
-x,y,-z
-x,-y,-z
x,-y,z
loop_
_atom_site_type_symbol
_atom_site_label
_atom_site_fract_x
_atom_site_fract_y
_atom_site_fract_z
Si Si1 0.455799 0.676692 0.867307
Si Si2 0.336387 0.174872 0.699747
Si Si3 0.758796 0.668251 0.428765
Si Si4 0.224132 0.668218 0.462743
Si Si5 0.946022 0.825857 0.730131
Si Si6 0.206806 0.172655 0.843069
Si Si7 0.326092 0.172346 0.003782
O O1 0.449925 0.500000 0.867850
O O2 0.715531 0.730810 0.791729
O O3 0.298156 0.733333 0.864643
O O4 0.354564 0.732211 0.946553
O O5 0.541565 0.248418 0.613609
O O6 0.329352 0.228119 0.759039
O O7 0.094077 0.215527 0.738969
O O8 0.377605 0.000000 0.685954
O O9 0.500000 0.729252 0.500000
O O10 0.768984 0.500000 0.402770
O O11 0.844322 0.667362 0.461510
O O12 0.911162 0.784068 0.357240
O O13 0.253717 0.500000 0.434356
O O14 0.000000 0.747909 0.500000
O O15 0.882560 0.000000 0.745798
O O16 0.263871 0.000000 0.838363
O O17 0.934780 0.194472 0.907687
O O18 0.381167 0.000000 0.976279
O O19 0.500000 0.228673 0.000000
#
# Coordination Sequence:
#
# PCOD8065121 Si02
#       7
#     4   4   4   4   4   4   4
#     4  12  26  41  61  92 128 162 201 248 301 358
#     4  10  22  40  62  89 118 154 204 255 300 355
#     4  10  20  37  59  85 120 159 201 248 304 363
#     4  10  22  38  57  83 120 162 200 243 301 365
#     4  11  23  40  63  89 120 158 207 256 305 361
#     4  10  22  41  64  91 124 161 200 246 300 356
#     4  10  21  42  71  96 124 161 201 244 297 357
#
# _framework density 20.057390999999999
#
# number of rings (size 3 to 8) (size 9 to 14) (size 15 to 20)
#    0.000    1.571    1.429    3.000    2.000    7.143 
#    0.000    1.429    0.000    0.000    0.000    0.000 
#    0.000    0.000    0.000    0.000    0.000    0.000 
#
# Total GULP energy -347235.499877 kJ/mol
# GULP energy per Si atom -12401.267853 kJ/mol
# Density = 2.001174 g / cm^3
# Si number density = 20.057391 Si / 1000 Ang^3
#
#
#
# Elastic Constant Matrix: (Units=GPa)
#
#
# Indices 1 2 3 4 5 6 
#
# 1 121.5982 51.9709 29.0643 0.0000 6.1900 0.0000
# 2 51.9709 81.6590 38.9721 0.0000 4.2720 0.0000
# 3 29.0643 38.9721 78.9203 0.0000 12.4173 0.0000
# 4 0.0000 0.0000 0.0000 32.2171 0.0000 -4.6578
# 5 6.1900 4.2720 12.4173 0.0000 35.0188 0.0000
# 6 0.0000 0.0000 0.0000 -4.6578 0.0000 23.5848
#
#
#
# Elastic Compliance Matrix: (Units=1/GPa)
#
#
# Indices 1 2 3 4 5 6 
#
# 1 0.011364 -0.006878 -0.000641 0.000000 -0.000943 0.000000
# 2 -0.006878 0.020211 -0.007680 0.000000 0.001473 0.000000
# 3 -0.000641 -0.007680 0.017511 0.000000 -0.005159 0.000000
# 4 0.000000 0.000000 0.000000 0.031952 0.000000 0.006310
# 5 -0.000943 0.001473 -0.005159 0.000000 0.030372 0.000000
# 6 0.000000 0.000000 0.000000 0.006310 0.000000 0.043646
#
#
# Mechanical properties :
#
#
# Convention : Reuss Voigt Hill
#
# Bulk Modulus (GPa) = 53.50186 58.02134 55.76160
# Shear Modulus (GPa) = 26.08472 28.97551 27.53011
#
# Velocity S-wave (km/s) = 3.61016 3.80495 3.70884
# Velocity P-wave (km/s) = 6.64154 6.94939 6.79721
#
# Compressibility (1/GPa) = 0.01869094
#
# Stress axis : x y z
#
# Youngs Moduli (GPa) = 87.99390 49.47724 57.10713
#
# Poissons Ratio (x) = 0.34029 0.03658
# Poissons Ratio (y) = 0.60520 0.43856
# Poissons Ratio (z) = 0.05637 0.37996
#
# Static dielectric constant tensor:
#      x y z
#    x 3.891600 0.000000 0.121010 
#    y 0.000000 3.595030 0.000000 
#    z 0.121010 0.000000 3.971150 
# 
# 
# High freq. dielectric constant tensor:
#      x y z
#    x 1.800220 0.000000 -0.000460 
#    y 0.000000 1.769710 0.000000 
#    z -0.000460 0.000000 1.790520 
# 
# From -- ./inp_files/34194.got.cif
#   From: 2010.06.25/outbox.cif.g09.slc.cpg/sg10_18_cif.got.tgz:34194.got - 2010.06.27 22:07:45.
