data_PCOD8065757
_publ_section_title
;
Structure prediction by ZEFSAII (Michael W. Deem and Ramdas Pophale) SiO2 
 PCOD8065757
Probable space group: P 2/M
;
_chemical_formula_sum "Si O2"
_cell_formula_units_Z 28
_cell_length_a 21.338042
_cell_length_b 7.980594
_cell_length_c 19.507581
_cell_angle_alpha 90.000000
_cell_angle_beta 153.889981
_cell_angle_gamma 90.000000
_cell_volume 1461.977931
_symmetry_space_group_name_H-M "P 2/M"
_symmetry_group_IT_number 10
_symmetry_cell_setting 'monoclinic'
loop_
_space_group_symop_operation_xyz
x,y,z
-x,y,-z
-x,-y,-z
x,-y,z
loop_
_atom_site_type_symbol
_atom_site_label
_atom_site_fract_x
_atom_site_fract_y
_atom_site_fract_z
Si Si1 0.824946 0.000000 0.252688
Si Si2 0.656590 0.192744 0.866631
Si Si3 0.837693 0.000000 0.416109
Si Si4 0.150071 0.302698 0.063485
Si Si5 0.818959 0.686660 0.153908
Si Si6 0.656452 0.193303 0.467437
Si Si7 0.172017 0.696569 0.239879
Si Si8 0.122694 0.811306 0.423045
O O1 0.775305 0.830582 0.165497
O O2 0.758897 0.000000 0.265293
O O3 0.992555 0.000000 0.425339
O O4 0.754393 0.202698 0.895717
O O5 0.501122 0.269682 0.696073
O O6 0.648392 0.000000 0.881543
O O7 0.719225 0.300657 0.989821
O O8 0.802066 0.166276 0.427297
O O9 0.168946 0.500000 0.071073
O O10 0.198572 0.250021 0.187522
O O11 0.985858 0.249499 0.891275
O O12 0.797951 0.500000 0.165115
O O13 0.982036 0.699753 0.289174
O O14 0.709887 0.215668 0.597373
O O15 0.767614 0.275570 0.522341
O O16 0.646624 0.000000 0.438962
O O17 0.189460 0.500000 0.265109
O O18 0.076422 0.000000 0.352843
#
# Coordination Sequence:
#
# PCOD8065757 Si02
#       8
#     2   4   2   4   4   4   4   4
#     4   9  16  34  53  85 116 141 172 227 263 318
#     4  11  22  35  49  74 109 141 178 230 270 319
#     4   7  14  30  59  77 112 141 168 219 271 306
#     4   9  19  36  54  74  99 136 179 221 278 331
#     4  11  20  33  56  82 109 146 183 219 271 323
#     4  10  21  34  52  74 105 139 180 221 272 322
#     4   9  19  35  54  74 101 133 176 229 273 325
#     4   8  16  34  55  77 106 139 176 221 261 317
#
# _framework density 19.152134
#
# number of rings (size 3 to 8) (size 9 to 14) (size 15 to 20)
#    0.429    2.143    1.429    2.143    0.000    5.714 
#    0.000   10.000    0.000    1.714    0.000    1.000 
#    0.000    0.000    0.000    0.000    0.000    0.000 
#
# Total GULP energy -346993.497369 kJ/mol
# GULP energy per Si atom -12392.624906 kJ/mol
# Density = 1.910854 g / cm^3
# Si number density = 19.152134 Si / 1000 Ang^3
#
#
#
# Elastic Constant Matrix: (Units=GPa)
#
#
# Indices 1 2 3 4 5 6 
#
# 1 68.1721 20.4123 56.0645 0.0000 -27.9029 0.0000
# 2 20.4123 73.5047 29.1277 0.0000 -7.7206 0.0000
# 3 56.0645 29.1277 113.2044 0.0000 -15.5301 0.0000
# 4 0.0000 0.0000 0.0000 7.0361 0.0000 2.7190
# 5 -27.9029 -7.7206 -15.5301 0.0000 20.5926 0.0000
# 6 0.0000 0.0000 0.0000 2.7190 0.0000 13.7552
#
#
#
# Elastic Compliance Matrix: (Units=1/GPa)
#
#
# Indices 1 2 3 4 5 6 
#
# 1 0.054875 -0.001605 -0.018567 0.000000 0.059751 0.000000
# 2 -0.001605 0.015371 -0.002975 0.000000 0.001343 0.000000
# 3 -0.018567 -0.002975 0.016943 0.000000 -0.013496 0.000000
# 4 0.000000 0.000000 0.000000 0.153878 0.000000 -0.030417
# 5 0.059751 0.001343 -0.013496 0.000000 0.119849 0.000000
# 6 0.000000 0.000000 0.000000 -0.030417 0.000000 0.078712
#
#
# Mechanical properties :
#
#
# Convention : Reuss Voigt Hill
#
# Bulk Modulus (GPa) = 24.45401 51.78781 38.12091
# Shear Modulus (GPa) = 10.00893 18.22856 14.11875
#
# Velocity S-wave (km/s) = 2.28853 3.08844 2.71807
# Velocity P-wave (km/s) = 4.44738 6.31006 5.45875
#
# Compressibility (1/GPa) = 0.04089310
#
# Stress axis : x y z
#
# Youngs Moduli (GPa) = 18.22334 65.05925 59.02180
#
# Poissons Ratio (x) = 0.10445 1.09584
# Poissons Ratio (y) = 0.02926 0.17562
# Poissons Ratio (z) = 0.33835 0.19358
#
# Static dielectric constant tensor:
#      x y z
#    x 3.776990 0.000000 -0.126760 
#    y 0.000000 3.230120 0.000000 
#    z -0.126760 0.000000 3.489350 
# 
# 
# High freq. dielectric constant tensor:
#      x y z
#    x 1.736610 0.000000 -0.010060 
#    y 0.000000 1.724190 0.000000 
#    z -0.010060 0.000000 1.728830 
# 
# From -- ./inp_files/86570.got.cif
#   From: 2010.06.25/outbox.cif.g09.slc.cpg/sg10_44_cif.got.tgz:86570.got - 2010.06.27 22:07:45.
