data_PCOD8065411
_publ_section_title
;
Structure prediction by ZEFSAII (Michael W. Deem and Ramdas Pophale) SiO2 
 PCOD8065411
Probable space group: P 2/M
;
_chemical_formula_sum "Si O2"
_cell_formula_units_Z 20
_cell_length_a 12.642922
_cell_length_b 7.812506
_cell_length_c 29.031095
_cell_angle_alpha 90.000000
_cell_angle_beta 159.559284
_cell_angle_gamma 90.000000
_cell_volume 1001.434974
_symmetry_space_group_name_H-M "P 2/M"
_symmetry_group_IT_number 10
_symmetry_cell_setting 'monoclinic'
loop_
_space_group_symop_operation_xyz
x,y,z
-x,y,-z
-x,-y,-z
x,-y,z
loop_
_atom_site_type_symbol
_atom_site_label
_atom_site_fract_x
_atom_site_fract_y
_atom_site_fract_z
Si Si1 0.355678 0.500000 0.641857
Si Si2 0.681073 0.807335 0.531662
Si Si3 0.357504 0.500000 0.141481
Si Si4 0.661988 0.800670 0.021686
Si Si5 0.641167 0.795961 0.198018
Si Si6 0.333096 0.685817 0.305920
O O1 0.497379 0.500000 0.749470
O O2 0.464770 0.669750 0.658191
O O3 0.000000 0.500000 0.500000
O O4 0.500000 0.715699 0.500000
O O5 0.484870 0.810987 0.404828
O O6 0.012017 0.727914 0.657782
O O7 0.745891 0.000000 0.574162
O O8 0.454076 0.676872 0.156325
O O9 0.000000 0.500000 0.000000
O O10 0.003822 0.740898 0.155504
O O11 0.669932 0.000000 0.032883
O O12 0.500000 0.714180 0.000000
O O13 0.474606 0.752234 0.900139
O O14 0.603777 0.000000 0.194758
O O15 0.314853 0.500000 0.323032
#
# Coordination Sequence:
#
# PCOD8065411 Si02
#       6
#     2   4   2   4   4   4
#     4  10  22  40  57  80 115 154 192 250 306 338
#     4  10  20  38  61  88 125 160 190 235 297 360
#     4  12  24  42  65  82 119 160 200 262 312 338
#     4  10  20  38  60  85 123 159 188 235 296 357
#     4  10  23  40  62  92 120 157 205 245 297 364
#     4  10  22  36  57  88 114 154 197 240 288 355
#
# _framework density 19.971340999999999
#
# number of rings (size 3 to 8) (size 9 to 14) (size 15 to 20)
#    0.600    1.200    0.000    4.200    2.800    4.400 
#    3.600    2.000    0.000    5.400    0.000    0.000 
#    0.000    0.000    0.000    0.000    0.000    0.000 
#
# Total GULP energy -247875.015549 kJ/mol
# GULP energy per Si atom -12393.750777 kJ/mol
# Density = 1.992589 g / cm^3
# Si number density = 19.971341 Si / 1000 Ang^3
#
#
#
# Elastic Constant Matrix: (Units=GPa)
#
#
# Indices 1 2 3 4 5 6 
#
# 1 173.9092 8.6117 76.4144 0.0000 -26.6510 0.0000
# 2 8.6117 104.1575 1.0542 0.0000 44.0075 0.0003
# 3 76.4144 1.0542 167.2702 -0.0001 -13.4729 0.0006
# 4 0.0000 0.0000 -0.0001 28.3132 0.0000 -1.1877
# 5 -26.6510 44.0075 -13.4729 0.0000 75.3536 0.0002
# 6 0.0000 0.0003 0.0006 -1.1877 0.0002 -14.5928
#
#
#
# Elastic Compliance Matrix: (Units=1/GPa)
#
#
# Indices 1 2 3 4 5 6 
#
# 1 0.007809 -0.002033 -0.003284 0.000000 0.003362 0.000000
# 2 -0.002033 0.013354 0.000161 0.000000 -0.008489 0.000000
# 3 -0.003284 0.000161 0.007484 0.000000 0.000083 0.000000
# 4 0.000000 0.000000 0.000000 0.035199 0.000000 -0.002865
# 5 0.003362 -0.008489 0.000083 0.000000 0.019432 0.000000
# 6 0.000000 0.000000 0.000000 -0.002865 0.000000 -0.068294
#
#
# Mechanical properties :
#
#
# Convention : Reuss Voigt Hill
#
# Bulk Modulus (GPa) = 54.53945 68.61082 61.57513
# Shear Modulus (GPa) = 159.19431 41.76525 100.47978
#
# Velocity S-wave (km/s) = 8.93781 4.57799 7.10079
# Velocity P-wave (km/s) = 11.57068 7.89767 9.90591
#
# Compressibility (1/GPa) = 0.01833535
#
# Stress axis : x y z
#
# Youngs Moduli (GPa) = 128.05999 74.88373 133.61618
#
# Poissons Ratio (x) = 0.15223 0.43876
# Poissons Ratio (y) = 0.26032 -0.02148
# Poissons Ratio (z) = 0.42051 -0.01204
#
# Static dielectric constant tensor:
#      x y z
#    x 3.712530 0.000000 0.145410 
#    y 0.000000 3.488690 0.000000 
#    z 0.145410 0.000000 3.790160 
# 
# 
# High freq. dielectric constant tensor:
#      x y z
#    x 1.779970 0.000000 -0.001130 
#    y 0.000000 1.763030 0.000000 
#    z -0.001130 0.000000 1.799640 
# 
# From -- ./inp_files/94908.got.cif
#   From: 2010.06.25/outbox.cif.g09.slc.cpg/sg10_48_cif.got.tgz:94908.got - 2010.06.27 22:07:45.
