data_PCOD8065631
_publ_section_title
;
Structure prediction by ZEFSAII (Michael W. Deem and Ramdas Pophale) SiO2 
 PCOD8065631
Probable space group: P 2/M
;
_chemical_formula_sum "Si O2"
_cell_formula_units_Z 20
_cell_length_a 10.526084
_cell_length_b 11.887113
_cell_length_c 13.624501
_cell_angle_alpha 90.000000
_cell_angle_beta 30.775021
_cell_angle_gamma 90.000000
_cell_volume 872.272885
_symmetry_space_group_name_H-M "P 2/M"
_symmetry_group_IT_number 10
_symmetry_cell_setting 'monoclinic'
loop_
_space_group_symop_operation_xyz
x,y,z
-x,y,-z
-x,-y,-z
x,-y,z
loop_
_atom_site_type_symbol
_atom_site_label
_atom_site_fract_x
_atom_site_fract_y
_atom_site_fract_z
Si Si1 0.261107 0.630360 0.933585
Si Si2 0.044895 0.237320 0.242400
Si Si3 0.491199 0.232707 0.620692
Si Si4 0.719799 0.000000 0.934888
Si Si5 0.759964 0.628264 0.720204
Si Si6 0.291475 0.000000 0.829222
O O1 0.181876 0.500000 0.980884
O O2 0.301458 0.678255 0.797032
O O3 0.519299 0.651541 0.816616
O O4 0.055517 0.704068 0.127454
O O5 0.104974 0.106540 0.196030
O O6 0.247979 0.297521 0.176342
O O7 0.773139 0.252504 0.470015
O O8 0.500000 0.253634 0.500000
O O9 0.408925 0.107442 0.699744
O O10 0.500000 0.000000 0.000000
O O11 0.629261 0.000000 0.108262
O O12 0.775244 0.500000 0.745757
O O13 0.000000 0.663155 0.500000
O O14 0.000000 0.000000 0.000000
#
# Coordination Sequence:
#
# PCOD8065631 Si02
#       6
#     4   4   4   2   4   2
#     4  11  24  43  69 102 141 184 230 283 350 415
#     4  12  24  43  69 102 144 181 223 291 353 417
#     4  12  27  46  72 100 132 182 242 288 340 418
#     4  12  25  41  73 110 140 176 232 297 360 402
#     4  10  20  39  68 100 138 190 232 269 339 431
#     4  12  26  53  79  97 139 194 235 282 347 444
#
# _framework density 22.928604
#
# number of rings (size 3 to 8) (size 9 to 14) (size 15 to 20)
#    0.000    0.600    4.000    4.500    0.000    2.800 
#    0.000    2.500    0.000    0.000    0.000    0.000 
#    0.000    0.000    0.000    0.000    0.000    0.000 
#
# Total GULP energy -248060.490857 kJ/mol
# GULP energy per Si atom -12403.024543 kJ/mol
# Density = 2.287642 g / cm^3
# Si number density = 22.928604 Si / 1000 Ang^3
#
#
#
# Elastic Constant Matrix: (Units=GPa)
#
#
# Indices 1 2 3 4 5 6 
#
# 1 95.4823 24.2658 6.5456 0.0000 23.8009 0.0000
# 2 24.2658 146.8555 42.4671 0.0000 22.0932 0.0000
# 3 6.5456 42.4671 101.8024 0.0000 15.4630 0.0000
# 4 0.0000 0.0000 0.0000 -4.7959 0.0000 17.2509
# 5 23.8009 22.0932 15.4630 0.0000 38.6524 0.0000
# 6 0.0000 0.0000 0.0000 17.2509 0.0000 22.4971
#
#
#
# Elastic Compliance Matrix: (Units=1/GPa)
#
#
# Indices 1 2 3 4 5 6 
#
# 1 0.012561 -0.001201 0.000814 0.000000 -0.007373 0.000000
# 2 -0.001201 0.008285 -0.002951 0.000000 -0.002815 0.000000
# 3 0.000814 -0.002951 0.011522 0.000000 -0.003423 0.000000
# 4 0.000000 0.000000 0.000000 -0.055481 0.000000 0.042544
# 5 -0.007373 -0.002815 -0.003423 0.000000 0.033390 0.000000
# 6 0.000000 0.000000 0.000000 0.042544 0.000000 0.011828
#
#
# Mechanical properties :
#
#
# Convention : Reuss Voigt Hill
#
# Bulk Modulus (GPa) = 38.92746 54.52192 46.72469
# Shear Modulus (GPa) = 133.88644 29.32815 81.60729
#
# Velocity S-wave (km/s) = 7.64981 3.58034 5.97237
# Velocity P-wave (km/s) = 9.74888 6.39706 8.24509
#
# Compressibility (1/GPa) = 0.02568880
#
# Stress axis : x y z
#
# Youngs Moduli (GPa) = 79.61399 120.70203 86.79248
#
# Poissons Ratio (x) = 0.14502 -0.07061
# Poissons Ratio (y) = 0.09566 0.25614
# Poissons Ratio (z) = -0.06477 0.35622
#
# Static dielectric constant tensor:
#      x y z
#    x 4.209740 0.000000 0.037400 
#    y 0.000000 4.108160 0.000000 
#    z 0.037400 0.000000 4.412920 
# 
# 
# High freq. dielectric constant tensor:
#      x y z
#    x 1.913120 0.000000 0.003950 
#    y 0.000000 1.909510 0.000000 
#    z 0.003950 0.000000 1.920930 
# 
# From -- ./inp_files/64597.got.cif
#   From: 2010.06.25/outbox.cif.g09.slc.cpg/sg10_33_cif.got.tgz:64597.got - 2010.06.27 22:07:45.
