data_PCOD8065163
_publ_section_title
;
Structure prediction by ZEFSAII (Michael W. Deem and Ramdas Pophale) SiO2 
 PCOD8065163
Probable space group: P 2/M
;
_chemical_formula_sum "Si O2"
_cell_formula_units_Z 28
_cell_length_a 16.272542
_cell_length_b 8.922471
_cell_length_c 11.199328
_cell_angle_alpha 90.000000
_cell_angle_beta 120.173864
_cell_angle_gamma 90.000000
_cell_volume 1405.722520
_symmetry_space_group_name_H-M "P 2/M"
_symmetry_group_IT_number 10
_symmetry_cell_setting 'monoclinic'
loop_
_space_group_symop_operation_xyz
x,y,z
-x,y,-z
-x,-y,-z
x,-y,z
loop_
_atom_site_type_symbol
_atom_site_label
_atom_site_fract_x
_atom_site_fract_y
_atom_site_fract_z
Si Si1 0.520761 0.173723 0.380450
Si Si2 0.728157 0.826597 0.153413
Si Si3 0.926496 0.828999 0.194045
Si Si4 0.277440 0.172371 0.578744
Si Si5 0.354977 0.676542 0.129461
Si Si6 0.882468 0.324660 0.680148
Si Si7 0.181064 0.826767 0.125114
O O1 0.500000 0.224931 0.500000
O O2 0.630878 0.205584 0.434577
O O3 0.459329 0.272018 0.244744
O O4 0.495178 0.000000 0.342034
O O5 0.839037 0.785825 0.216287
O O6 0.697984 0.790835 0.266101
O O7 0.712455 0.000000 0.107212
O O8 0.662245 0.729203 0.018642
O O9 0.013116 0.720252 0.290053
O O10 0.958827 0.000000 0.238583
O O11 0.895951 0.804366 0.034797
O O12 0.193176 0.279452 0.475300
O O13 0.244717 0.000000 0.542263
O O14 0.346718 0.500000 0.129574
O O15 0.279075 0.745691 0.165263
O O16 0.877435 0.500000 0.699935
O O17 0.862783 0.238659 0.787684
O O18 0.205570 0.000000 0.163560
#
# Coordination Sequence:
#
# PCOD8065163 Si02
#       7
#     4   4   4   4   4   4   4
#     4  10  21  38  61  87 114 148 190 235 282 336
#     4   9  20  40  62  83 109 148 199 243 277 327
#     4   9  19  36  58  81 108 147 193 239 283 334
#     4  10  22  40  61  82 109 151 200 243 279 328
#     4  11  22  36  59  88 119 151 181 229 293 346
#     4  12  24  35  53  84 120 152 184 233 294 346
#     4  10  20  37  60  84 113 150 194 237 276 332
#
# _framework density 19.918583999999999
#
# number of rings (size 3 to 8) (size 9 to 14) (size 15 to 20)
#    0.000    1.857    0.000    5.143    0.000    8.286 
#    0.000    5.714    0.000    0.000    0.000    0.000 
#    0.000    0.000    0.000    0.000    0.000    0.000 
#
# Total GULP energy -347366.235033 kJ/mol
# GULP energy per Si atom -12405.936965 kJ/mol
# Density = 1.987325 g / cm^3
# Si number density = 19.918584 Si / 1000 Ang^3
#
#
#
# Elastic Constant Matrix: (Units=GPa)
#
#
# Indices 1 2 3 4 5 6 
#
# 1 65.1964 32.5690 48.1247 0.0000 -8.8069 0.0000
# 2 32.5690 117.2864 53.7933 0.0000 8.7460 0.0000
# 3 48.1247 53.7933 88.7196 0.0000 5.4839 0.0000
# 4 0.0000 0.0000 0.0000 17.6128 0.0000 -5.0714
# 5 -8.8069 8.7460 5.4839 0.0000 33.5079 0.0000
# 6 0.0000 0.0000 0.0000 -5.0714 0.0000 12.3547
#
#
#
# Elastic Compliance Matrix: (Units=1/GPa)
#
#
# Indices 1 2 3 4 5 6 
#
# 1 0.028927 -0.001835 -0.015232 0.000000 0.010575 0.000000
# 2 -0.001835 0.012052 -0.006150 0.000000 -0.002622 0.000000
# 3 -0.015232 -0.006150 0.023650 0.000000 -0.006269 0.000000
# 4 0.000000 0.000000 0.000000 0.064387 0.000000 0.026430
# 5 0.010575 -0.002622 -0.006269 0.000000 0.034333 0.000000
# 6 0.000000 0.000000 0.000000 0.026430 0.000000 0.091790
#
#
# Mechanical properties :
#
#
# Convention : Reuss Voigt Hill
#
# Bulk Modulus (GPa) = 54.96016 60.01961 57.48988
# Shear Modulus (GPa) = 16.25284 21.80945 19.03115
#
# Velocity S-wave (km/s) = 2.85961 3.31256 3.09438
# Velocity P-wave (km/s) = 6.20930 6.69542 6.45694
#
# Compressibility (1/GPa) = 0.01819500
#
# Stress axis : x y z
#
# Youngs Moduli (GPa) = 34.56982 82.97468 42.28288
#
# Poissons Ratio (x) = 0.15227 0.64405
# Poissons Ratio (y) = 0.06344 0.26004
# Poissons Ratio (z) = 0.52657 0.51029
#
# Static dielectric constant tensor:
#      x y z
#    x 3.640400 0.000000 -0.016820 
#    y 0.000000 3.507260 0.000000 
#    z -0.016820 0.000000 3.546700 
# 
# 
# High freq. dielectric constant tensor:
#      x y z
#    x 1.780410 0.000000 0.000760 
#    y 0.000000 1.767220 0.000000 
#    z 0.000760 0.000000 1.777690 
# 
# From -- ./inp_files/50094.got.cif
#   From: 2010.06.25/outbox.cif.g09.slc.cpg/sg10_26_cif.got.tgz:50094.got - 2010.06.27 22:07:45.
