data_PCOD8065561
_publ_section_title
;
Structure prediction by ZEFSAII (Michael W. Deem and Ramdas Pophale) SiO2 
 PCOD8065561
Probable space group: P 2/M
;
_chemical_formula_sum "Si O2"
_cell_formula_units_Z 18
_cell_length_a 8.493565
_cell_length_b 15.448102
_cell_length_c 9.407073
_cell_angle_alpha 90.000000
_cell_angle_beta 131.887039
_cell_angle_gamma 90.000000
_cell_volume 918.887918
_symmetry_space_group_name_H-M "P 2/M"
_symmetry_group_IT_number 10
_symmetry_cell_setting 'monoclinic'
loop_
_space_group_symop_operation_xyz
x,y,z
-x,y,-z
-x,-y,-z
x,-y,z
loop_
_atom_site_type_symbol
_atom_site_label
_atom_site_fract_x
_atom_site_fract_y
_atom_site_fract_z
Si Si1 0.834751 0.262921 0.175278
Si Si2 0.541379 0.714928 0.258385
Si Si3 0.137760 0.594548 0.443315
Si Si4 0.500000 0.161363 0.500000
Si Si5 0.046810 0.096597 0.190618
O O1 0.729091 0.255334 0.266181
O O2 0.028239 0.331237 0.281031
O O3 0.917464 0.166292 0.202404
O O4 0.673381 0.296861 0.958466
O O5 0.621922 0.624233 0.374872
O O6 0.504496 0.782712 0.360158
O O7 0.148949 0.500000 0.373896
O O8 0.000000 0.583548 0.500000
O O9 0.295452 0.100973 0.372110
O O10 0.968066 0.000000 0.183694
O O11 0.000000 0.117432 0.000000
#
# Coordination Sequence:
#
# PCOD8065561 Si02
#       5
#     4   4   4   2   4
#     4  10  20  39  59  85 117 155 191 237 286 340
#     4  10  21  35  61  85 117 152 193 233 290 337
#     4   9  18  34  59  87 116 150 192 237 283 340
#     4  12  21  38  61  84 112 154 191 240 287 344
#     4  11  23  39  60  87 117 152 193 238 290 343
#
# _framework density 19.588894
#
# number of rings (size 3 to 8) (size 9 to 14) (size 15 to 20)
#    0.000    1.778    4.444    0.333    0.000    0.889 
#    0.000   10.556    0.000    2.000    0.000    0.000 
#    0.000    0.000    0.000    0.000    0.000    0.000 
#
# Total GULP energy -223124.165676 kJ/mol
# GULP energy per Si atom -12395.786982 kJ/mol
# Density = 1.954431 g / cm^3
# Si number density = 19.588894 Si / 1000 Ang^3
#
#
#
# Elastic Constant Matrix: (Units=GPa)
#
#
# Indices 1 2 3 4 5 6 
#
# 1 45.9345 40.1323 32.0374 0.0000 3.2902 0.0000
# 2 40.1323 154.4310 41.7038 0.0000 2.8907 0.0000
# 3 32.0374 41.7038 96.7136 0.0000 9.5664 0.0000
# 4 0.0000 0.0000 0.0000 22.4056 0.0000 7.0076
# 5 3.2902 2.8907 9.5664 0.0000 33.6232 0.0000
# 6 0.0000 0.0000 0.0000 7.0076 0.0000 5.4330
#
#
#
# Elastic Compliance Matrix: (Units=1/GPa)
#
#
# Indices 1 2 3 4 5 6 
#
# 1 0.033067 -0.006381 -0.008166 0.000000 -0.000364 0.000000
# 2 -0.006381 0.008563 -0.001613 0.000000 0.000347 0.000000
# 3 -0.008166 -0.001613 0.014043 0.000000 -0.003058 0.000000
# 4 0.000000 0.000000 0.000000 0.074812 0.000000 -0.096495
# 5 -0.000364 0.000347 -0.003058 0.000000 0.030617 0.000000
# 6 0.000000 0.000000 0.000000 -0.096495 0.000000 0.308525
#
#
# Mechanical properties :
#
#
# Convention : Reuss Voigt Hill
#
# Bulk Modulus (GPa) = 42.82260 58.31401 50.56830
# Shear Modulus (GPa) = 9.80911 24.50605 17.15758
#
# Velocity S-wave (km/s) = 2.24017 3.54081 2.96274
# Velocity P-wave (km/s) = 5.34783 6.82276 6.12981
#
# Compressibility (1/GPa) = 0.02335216
#
# Stress axis : x y z
#
# Youngs Moduli (GPa) = 30.24183 116.78572 71.21051
#
# Poissons Ratio (x) = 0.74522 0.58152
# Poissons Ratio (y) = 0.19297 0.11485
# Poissons Ratio (z) = 0.24696 0.18836
#
# Static dielectric constant tensor:
#      x y z
#    x 3.414310 0.000000 0.150030 
#    y 0.000000 3.708420 0.000000 
#    z 0.150030 0.000000 3.860820 
# 
# 
# High freq. dielectric constant tensor:
#      x y z
#    x 1.744090 0.000000 0.010800 
#    y 0.000000 1.760110 0.000000 
#    z 0.010800 0.000000 1.778070 
# 
# From -- ./inp_files/45704.got.cif
#   From: 2010.06.25/outbox.cif.g09.slc.cpg/sg10_23_cif.got.tgz:45704.got - 2010.06.27 22:07:45.
