data_PCOD8065010
_publ_section_title
;
Structure prediction by ZEFSAII (Michael W. Deem and Ramdas Pophale) SiO2 
 PCOD8065010
Probable space group: P 2/M
;
_chemical_formula_sum "Si O2"
_cell_formula_units_Z 24
_cell_length_a 14.772131
_cell_length_b 11.556005
_cell_length_c 14.405337
_cell_angle_alpha 90.000000
_cell_angle_beta 30.323628
_cell_angle_gamma 90.000000
_cell_volume 1241.553924
_symmetry_space_group_name_H-M "P 2/M"
_symmetry_group_IT_number 10
_symmetry_cell_setting 'monoclinic'
loop_
_space_group_symop_operation_xyz
x,y,z
-x,y,-z
-x,-y,-z
x,-y,z
loop_
_atom_site_type_symbol
_atom_site_label
_atom_site_fract_x
_atom_site_fract_y
_atom_site_fract_z
Si Si1 0.265841 0.500000 0.803147
Si Si2 0.466954 0.137085 0.733114
Si Si3 0.184559 0.258055 0.598216
Si Si4 0.888409 0.744087 0.010817
Si Si5 0.590273 0.133151 0.011312
Si Si6 0.683115 0.500000 0.460686
Si Si7 0.001920 0.132598 0.392028
O O1 0.469068 0.500000 0.658958
O O2 0.256746 0.500000 0.699666
O O3 0.161522 0.609462 0.936029
O O4 0.640552 0.185035 0.524711
O O5 0.474522 0.185699 0.832889
O O6 0.463776 0.000000 0.733282
O O7 0.291280 0.181487 0.836153
O O8 0.235034 0.391999 0.557412
O O9 0.013270 0.230809 0.812527
O O10 0.134125 0.218304 0.539128
O O11 0.000000 0.787496 0.000000
O O12 0.531101 0.000000 0.062055
O O13 0.500000 0.193574 0.000000
O O14 0.801902 0.148403 0.822590
O O15 0.000000 0.169810 0.500000
O O16 0.934899 0.000000 0.439481
#
# Coordination Sequence:
#
# PCOD8065010 Si02
#       7
#     2   4   4   4   4   2   4
#     4  11  22  45  68  92 117 157 221 276 312 383
#     4  11  24  40  59  91 132 169 207 257 318 380
#     4  12  23  40  65  96 124 165 212 268 315 374
#     4  12  24  41  67  91 123 165 215 264 320 375
#     4   9  17  33  57  86 121 161 206 253 299 357
#     4  11  23  40  72  92 118 160 215 270 330 365
#     4  10  20  36  62  94 128 170 212 251 306 379
#
# _framework density 19.330615000000002
#
# number of rings (size 3 to 8) (size 9 to 14) (size 15 to 20)
#    0.000    1.167    5.000    2.250    0.000    4.333 
#    0.000    1.250    0.000    0.000    0.000    4.083 
#    0.000    0.000    0.000    0.000    0.000    0.000 
#
# Total GULP energy -297611.781012 kJ/mol
# GULP energy per Si atom -12400.490876 kJ/mol
# Density = 1.928662 g / cm^3
# Si number density = 19.330615 Si / 1000 Ang^3
#
#
#
# Elastic Constant Matrix: (Units=GPa)
#
#
# Indices 1 2 3 4 5 6 
#
# 1 123.6938 60.8645 40.8112 0.0000 -15.1551 0.0000
# 2 60.8645 97.6221 38.7210 0.0000 -5.0724 0.0000
# 3 40.8112 38.7210 112.4086 0.0000 -7.6832 0.0000
# 4 0.0000 0.0000 0.0000 29.0277 0.0000 -9.1873
# 5 -15.1551 -5.0724 -7.6832 0.0000 29.1535 0.0000
# 6 0.0000 0.0000 0.0000 -9.1873 0.0000 27.6050
#
#
#
# Elastic Compliance Matrix: (Units=1/GPa)
#
#
# Indices 1 2 3 4 5 6 
#
# 1 0.012717 -0.006921 -0.001898 0.000000 0.004907 0.000000
# 2 -0.006921 0.015660 -0.002995 0.000000 -0.001663 0.000000
# 3 -0.001898 -0.002995 0.010707 0.000000 0.001314 0.000000
# 4 0.000000 0.000000 0.000000 0.038506 0.000000 0.012815
# 5 0.004907 -0.001663 0.001314 0.000000 0.036909 0.000000
# 6 0.000000 0.000000 0.000000 0.012815 0.000000 0.040490
#
#
# Mechanical properties :
#
#
# Convention : Reuss Voigt Hill
#
# Bulk Modulus (GPa) = 64.69955 68.27974 66.48965
# Shear Modulus (GPa) = 27.20786 30.04576 28.62681
#
# Velocity S-wave (km/s) = 3.75574 3.94675 3.85243
# Velocity P-wave (km/s) = 7.23533 7.49452 7.36607
#
# Compressibility (1/GPa) = 0.01545606
#
# Stress axis : x y z
#
# Youngs Moduli (GPa) = 78.63220 63.85496 93.39956
#
# Poissons Ratio (x) = 0.44196 0.17724
# Poissons Ratio (y) = 0.54424 0.27976
# Poissons Ratio (z) = 0.14922 0.19126
#
# Static dielectric constant tensor:
#      x y z
#    x 3.671260 0.000000 -0.061730 
#    y 0.000000 3.310970 0.000000 
#    z -0.061730 0.000000 3.786410 
# 
# 
# High freq. dielectric constant tensor:
#      x y z
#    x 1.757550 0.000000 -0.013210 
#    y 0.000000 1.720250 0.000000 
#    z -0.013210 0.000000 1.775260 
# 
# From -- ./inp_files/67265.got.cif
#   From: 2010.06.25/outbox.cif.g09.slc.cpg/sg10_34_cif.got.tgz:67265.got - 2010.06.27 22:07:45.
