data_PCOD8065896
_publ_section_title
;
Structure prediction by ZEFSAII (Michael W. Deem and Ramdas Pophale) SiO2 
 PCOD8065896
Probable space group: P 2/M
;
_chemical_formula_sum "Si O2"
_cell_formula_units_Z 32
_cell_length_a 22.591489
_cell_length_b 9.670111
_cell_length_c 13.882721
_cell_angle_alpha 90.000000
_cell_angle_beta 149.066898
_cell_angle_gamma 90.000000
_cell_volume 1558.996751
_symmetry_space_group_name_H-M "P 2/M"
_symmetry_group_IT_number 10
_symmetry_cell_setting 'monoclinic'
loop_
_space_group_symop_operation_xyz
x,y,z
-x,y,-z
-x,-y,-z
x,-y,z
loop_
_atom_site_type_symbol
_atom_site_label
_atom_site_fract_x
_atom_site_fract_y
_atom_site_fract_z
Si Si1 0.529562 0.644918 0.432540
Si Si2 0.469432 0.152618 0.129340
Si Si3 0.685434 0.782583 0.924015
Si Si4 0.871716 0.340633 0.846921
Si Si5 0.872161 0.660012 0.310969
Si Si6 0.681926 0.340975 0.423643
Si Si7 0.280202 0.843735 0.247902
Si Si8 0.687509 0.659454 0.212560
O O1 0.500000 0.621663 0.500000
O O2 0.588770 0.500000 0.477481
O O3 0.407674 0.658622 0.208270
O O4 0.614761 0.775597 0.545287
O O5 0.375408 0.119493 0.081804
O O6 0.577615 0.245066 0.318258
O O7 0.510071 0.000000 0.149928
O O8 0.413706 0.240153 0.964574
O O9 0.699056 0.850213 0.838071
O O10 0.809582 0.733648 0.133987
O O11 0.867964 0.500000 0.875153
O O12 0.793460 0.313241 0.644207
O O13 0.832121 0.246161 0.882078
O O14 0.000000 0.294611 0.000000
O O15 0.881075 0.500000 0.296419
O O16 0.803721 0.684853 0.314424
O O17 0.000000 0.723913 0.500000
O O18 0.642452 0.500000 0.372371
O O19 0.714673 0.300188 0.360306
O O20 0.267426 0.000000 0.267626
O O21 0.646932 0.500000 0.145227
#
# Coordination Sequence:
#
# PCOD8065896 Si02
#       8
#     4   4   4   4   4   4   4   4
#     4   9  18  32  52  80 111 143 182 226 273 328
#     4  11  22  35  55  85 117 147 184 228 273 329
#     4  10  21  35  55  81 117 154 185 224 281 337
#     4  10  23  42  62  84 110 144 190 239 282 329
#     4   9  18  33  56  86 114 143 187 237 279 326
#     4  10  21  38  59  82 112 148 183 226 283 338
#     4  11  23  38  58  84 115 151 188 229 282 341
#     4   9  19  36  57  82 113 147 182 225 280 337
#
# _framework density 20.526019999999999
#
# number of rings (size 3 to 8) (size 9 to 14) (size 15 to 20)
#    0.000    2.125    0.000    2.625    0.000   11.500 
#    0.000    2.500    0.000   12.375    0.000    0.000 
#    0.000    0.000    0.000    0.000    0.000    0.000 
#
# Total GULP energy -396547.178258 kJ/mol
# GULP energy per Si atom -12392.099321 kJ/mol
# Density = 2.047930 g / cm^3
# Si number density = 20.526020 Si / 1000 Ang^3
#
#
#
# Elastic Constant Matrix: (Units=GPa)
#
#
# Indices 1 2 3 4 5 6 
#
# 1 96.6538 35.4566 42.4205 0.0000 -1.3007 0.0000
# 2 35.4566 125.8695 51.2304 0.0000 10.9949 0.0000
# 3 42.4205 51.2304 140.0111 0.0000 13.3777 0.0000
# 4 0.0000 0.0000 0.0000 -14.3957 0.0000 4.4001
# 5 -1.3007 10.9949 13.3777 0.0000 35.5913 0.0000
# 6 0.0000 0.0000 0.0000 4.4001 0.0000 19.9696
#
#
#
# Elastic Compliance Matrix: (Units=1/GPa)
#
#
# Indices 1 2 3 4 5 6 
#
# 1 0.012682 -0.002498 -0.003160 0.000000 0.002423 0.000000
# 2 -0.002498 0.009922 -0.002668 0.000000 -0.002154 0.000000
# 3 -0.003160 -0.002668 0.009344 0.000000 -0.002803 0.000000
# 4 0.000000 0.000000 0.000000 -0.065082 0.000000 0.014340
# 5 0.002423 -0.002154 -0.002803 0.000000 0.029904 0.000000
# 6 0.000000 0.000000 0.000000 0.014340 0.000000 0.046916
#
#
# Mechanical properties :
#
#
# Convention : Reuss Voigt Hill
#
# Bulk Modulus (GPa) = 65.37458 68.97215 67.17337
# Shear Modulus (GPa) = 76.40904 23.79485 50.10195
#
# Velocity S-wave (km/s) = 6.10789 3.40847 4.94591
# Velocity P-wave (km/s) = 9.03662 7.01181 8.08783
#
# Compressibility (1/GPa) = 0.01529646
#
# Stress axis : x y z
#
# Youngs Moduli (GPa) = 78.85189 100.78158 107.02342
#
# Poissons Ratio (x) = 0.25175 0.33818
# Poissons Ratio (y) = 0.19697 0.28554
# Poissons Ratio (z) = 0.24916 0.26889
#
# Static dielectric constant tensor:
#      x y z
#    x 4.434770 0.000000 -0.583670 
#    y 0.000000 3.711240 0.000000 
#    z -0.583670 0.000000 4.243420 
# 
# 
# High freq. dielectric constant tensor:
#      x y z
#    x 1.812500 0.000000 -0.010520 
#    y 0.000000 1.790300 0.000000 
#    z -0.010520 0.000000 1.790800 
# 
# From -- ./inp_files/71602.got.cif
#   From: 2010.06.25/outbox.cif.g09.slc.cpg/sg10_36_cif.got.tgz:71602.got - 2010.06.27 22:07:45.
