data_PCOD8065253
_publ_section_title
;
Structure prediction by ZEFSAII (Michael W. Deem and Ramdas Pophale) SiO2 
 PCOD8065253
Probable space group: P 2/M
;
_chemical_formula_sum "Si O2"
_cell_formula_units_Z 32
_cell_length_a 16.736234
_cell_length_b 15.616497
_cell_length_c 11.023577
_cell_angle_alpha 90.000000
_cell_angle_beta 32.057161
_cell_angle_gamma 90.000000
_cell_volume 1529.206805
_symmetry_space_group_name_H-M "P 2/M"
_symmetry_group_IT_number 10
_symmetry_cell_setting 'monoclinic'
loop_
_space_group_symop_operation_xyz
x,y,z
-x,y,-z
-x,-y,-z
x,-y,z
loop_
_atom_site_type_symbol
_atom_site_label
_atom_site_fract_x
_atom_site_fract_y
_atom_site_fract_z
Si Si1 0.669039 0.770682 0.979203
Si Si2 0.115899 0.845853 0.111745
Si Si3 0.963190 0.405528 0.413357
Si Si4 0.359674 0.405341 0.101011
Si Si5 0.044042 0.702804 0.808904
Si Si6 0.681103 0.190658 0.550102
Si Si7 0.345156 0.906359 0.648976
Si Si8 0.187945 0.098901 0.396495
O O1 0.766770 0.782985 0.972922
O O2 0.744918 0.831030 0.780714
O O3 0.676279 0.668599 0.949014
O O4 0.495787 0.795492 0.211538
O O5 0.034326 0.794225 0.109118
O O6 0.993285 0.888118 0.359662
O O7 0.219111 0.917402 0.915774
O O8 0.039417 0.500000 0.314017
O O9 0.017896 0.355527 0.222867
O O10 0.000000 0.363080 0.500000
O O11 0.784276 0.412898 0.626956
O O12 0.390991 0.500000 0.001410
O O13 0.500000 0.374511 0.000000
O O14 0.224068 0.720363 0.561156
O O15 0.000000 0.666030 0.000000
O O16 0.720832 0.155187 0.367403
O O17 0.731443 0.118218 0.580416
O O18 0.500000 0.866000 0.500000
O O19 0.380917 0.000000 0.548825
O O20 0.219802 0.000000 0.316469
#
# Coordination Sequence:
#
# PCOD8065253 Si02
#       8
#     4   4   4   4   4   4   4   4
#     4  12  23  39  63  90 127 159 202 257 316 380
#     4  11  23  40  60  86 120 163 207 252 311 368
#     4  10  21  38  61  91 125 162 206 255 313 381
#     4  10  20  37  61  91 121 157 201 249 305 373
#     4  11  22  38  62  88 124 162 209 261 317 372
#     4  11  23  40  60  88 120 161 207 254 315 368
#     4  11  22  39  61  85 113 158 214 258 296 356
#     4  11  25  40  59  90 127 164 204 258 322 379
#
# _framework density 20.925882999999999
#
# number of rings (size 3 to 8) (size 9 to 14) (size 15 to 20)
#    0.000    1.125    2.500    5.250    0.000    3.250 
#    0.000    1.875    0.000    0.000    0.000    0.875 
#    0.000    0.500    0.000    0.000    0.000    0.000 
#
# Total GULP energy -396510.369554 kJ/mol
# GULP energy per Si atom -12390.949049 kJ/mol
# Density = 2.087825 g / cm^3
# Si number density = 20.925883 Si / 1000 Ang^3
#
#
#
# Elastic Constant Matrix: (Units=GPa)
#
#
# Indices 1 2 3 4 5 6 
#
# 1 98.0191 31.8938 33.2247 0.0000 3.3361 0.0000
# 2 31.8938 100.8888 19.5878 0.0000 10.9014 0.0000
# 3 33.2247 19.5878 118.9290 0.0000 -4.7490 0.0000
# 4 0.0000 0.0000 0.0000 17.9276 0.0000 2.2703
# 5 3.3361 10.9014 -4.7490 0.0000 39.0867 0.0000
# 6 0.0000 0.0000 0.0000 2.2703 0.0000 23.7663
#
#
#
# Elastic Compliance Matrix: (Units=1/GPa)
#
#
# Indices 1 2 3 4 5 6 
#
# 1 0.012266 -0.003260 -0.002909 0.000000 -0.000491 0.000000
# 2 -0.003260 0.011487 -0.001104 0.000000 -0.003060 0.000000
# 3 -0.002909 -0.001104 0.009471 0.000000 0.001707 0.000000
# 4 0.000000 0.000000 0.000000 0.056463 0.000000 -0.005394
# 5 -0.000491 -0.003060 0.001707 0.000000 0.026687 0.000000
# 6 0.000000 0.000000 0.000000 -0.005394 0.000000 0.042592
#
#
# Mechanical properties :
#
#
# Convention : Reuss Voigt Hill
#
# Bulk Modulus (GPa) = 53.53613 54.13884 53.83749
# Shear Modulus (GPa) = 27.81848 31.69815 29.75831
#
# Velocity S-wave (km/s) = 3.65002 3.89624 3.77514
# Velocity P-wave (km/s) = 6.58808 6.79476 6.69222
#
# Compressibility (1/GPa) = 0.01867897
#
# Stress axis : x y z
#
# Youngs Moduli (GPa) = 81.52892 87.05332 105.58479
#
# Poissons Ratio (x) = 0.28376 0.30718
# Poissons Ratio (y) = 0.26575 0.11652
# Poissons Ratio (z) = 0.23720 0.09607
#
# Static dielectric constant tensor:
#      x y z
#    x 3.903310 0.000000 -0.226940 
#    y 0.000000 3.717020 0.000000 
#    z -0.226940 0.000000 3.814560 
# 
# 
# High freq. dielectric constant tensor:
#      x y z
#    x 1.826620 0.000000 -0.020490 
#    y 0.000000 1.806780 0.000000 
#    z -0.020490 0.000000 1.817050 
# 
# From -- ./inp_files/53993.got.cif
#   From: 2010.06.25/outbox.cif.g09.slc.cpg/sg10_27_cif.got.tgz:53993.got - 2010.06.27 22:07:45.
