data_PCOD8065187
_publ_section_title
;
Structure prediction by ZEFSAII (Michael W. Deem and Ramdas Pophale) SiO2 
 PCOD8065187
Probable space group: P 2/M
;
_chemical_formula_sum "Si O2"
_cell_formula_units_Z 24
_cell_length_a 19.141968
_cell_length_b 7.808562
_cell_length_c 26.803261
_cell_angle_alpha 90.000000
_cell_angle_beta 17.820020
_cell_angle_gamma 90.000000
_cell_volume 1226.045004
_symmetry_space_group_name_H-M "P 2/M"
_symmetry_group_IT_number 10
_symmetry_cell_setting 'monoclinic'
loop_
_space_group_symop_operation_xyz
x,y,z
-x,y,-z
-x,-y,-z
x,-y,z
loop_
_atom_site_type_symbol
_atom_site_label
_atom_site_fract_x
_atom_site_fract_y
_atom_site_fract_z
Si Si1 0.213173 0.500000 0.748557
Si Si2 0.048050 0.193928 0.024478
Si Si3 0.963811 0.202184 0.468195
Si Si4 0.156212 0.189541 0.605569
Si Si5 0.451518 0.302036 0.315006
Si Si6 0.731089 0.500000 0.405937
Si Si7 0.754903 0.300758 0.813456
O O1 0.464772 0.500000 0.600666
O O2 0.220457 0.500000 0.684710
O O3 0.089512 0.326461 0.848504
O O4 0.965830 0.000000 0.091856
O O5 0.314635 0.206773 0.857186
O O6 0.000000 0.242619 0.000000
O O7 0.730136 0.282423 0.606086
O O8 0.000000 0.268110 0.500000
O O9 0.181823 0.261463 0.287161
O O10 0.939792 0.000000 0.482518
O O11 0.359509 0.222374 0.428653
O O12 0.153722 0.329347 0.650634
O O13 0.917922 0.193280 0.738383
O O14 0.186844 0.000000 0.608087
O O15 0.503715 0.500000 0.288646
O O16 0.793686 0.500000 0.798140
O O17 0.500000 0.242669 0.000000
#
# Coordination Sequence:
#
# PCOD8065187 Si02
#       7
#     2   4   4   4   4   2   4
#     4  11  25  42  64  86 125 162 189 255 299 355
#     4  11  23  40  64  95 123 154 201 249 304 361
#     4  10  21  37  56  85 123 160 202 251 307 366
#     4  11  21  38  64  89 119 158 202 250 297 354
#     4  11  20  36  63  89 121 156 199 252 301 363
#     4  11  24  44  61  88 120 158 210 236 299 366
#     4  10  20  37  60  87 119 155 207 258 295 357
#
# _framework density 19.575137999999999
#
# number of rings (size 3 to 8) (size 9 to 14) (size 15 to 20)
#    0.000    1.333    2.500    5.750    0.000    5.333 
#    3.000    1.667    0.000    0.000    0.000    0.000 
#    0.000    0.000    0.000    0.000    0.000    0.000 
#
# Total GULP energy -297686.027782 kJ/mol
# GULP energy per Si atom -12403.584491 kJ/mol
# Density = 1.953058 g / cm^3
# Si number density = 19.575138 Si / 1000 Ang^3
#
#
#
# Elastic Constant Matrix: (Units=GPa)
#
#
# Indices 1 2 3 4 5 6 
#
# 1 91.4674 28.3980 43.8117 0.0000 2.7987 0.0000
# 2 28.3980 133.3752 30.9775 0.0000 3.1678 0.0000
# 3 43.8117 30.9775 120.6161 0.0000 -1.1984 0.0000
# 4 0.0000 0.0000 0.0000 11.9089 0.0000 -0.6792
# 5 2.7987 3.1678 -1.1984 0.0000 13.2125 0.0000
# 6 0.0000 0.0000 0.0000 -0.6792 0.0000 45.5795
#
#
#
# Elastic Compliance Matrix: (Units=1/GPa)
#
#
# Indices 1 2 3 4 5 6 
#
# 1 0.013769 -0.001802 -0.004567 0.000000 -0.002899 0.000000
# 2 -0.001802 0.008268 -0.001486 0.000000 -0.001735 0.000000
# 3 -0.004567 -0.001486 0.010354 0.000000 0.002263 0.000000
# 4 0.000000 0.000000 0.000000 0.084042 0.000000 0.001252
# 5 -0.002899 -0.001735 0.002263 0.000000 0.076921 0.000000
# 6 0.000000 0.000000 0.000000 0.001252 0.000000 0.021958
#
#
# Mechanical properties :
#
#
# Convention : Reuss Voigt Hill
#
# Bulk Modulus (GPa) = 59.95324 61.31481 60.63403
# Shear Modulus (GPa) = 21.13425 30.29160 25.71293
#
# Velocity S-wave (km/s) = 3.28936 3.93804 3.62823
# Velocity P-wave (km/s) = 6.71716 7.21584 6.97096
#
# Compressibility (1/GPa) = 0.01667967
#
# Stress axis : x y z
#
# Youngs Moduli (GPa) = 72.62871 120.95281 96.58213
#
# Poissons Ratio (x) = 0.21795 0.44111
# Poissons Ratio (y) = 0.13087 0.14353
# Poissons Ratio (z) = 0.33171 0.17974
#
# Static dielectric constant tensor:
#      x y z
#    x 3.568660 0.000000 -0.114020 
#    y 0.000000 3.697420 0.000000 
#    z -0.114020 0.000000 3.624230 
# 
# 
# High freq. dielectric constant tensor:
#      x y z
#    x 1.753160 0.000000 -0.011940 
#    y 0.000000 1.782060 0.000000 
#    z -0.011940 0.000000 1.756690 
# 
# From -- ./inp_files/90024.got.cif
#   From: 2010.06.25/outbox.cif.g09.slc.cpg/sg10_46_cif.got.tgz:90024.got - 2010.06.27 22:07:45.
