data_PCOD8065726
_publ_section_title
;
Structure prediction by ZEFSAII (Michael W. Deem and Ramdas Pophale) SiO2 
 PCOD8065726
Probable space group: P 2/M
;
_chemical_formula_sum "Si O2"
_cell_formula_units_Z 32
_cell_length_a 14.951081
_cell_length_b 9.052559
_cell_length_c 14.926586
_cell_angle_alpha 90.000000
_cell_angle_beta 78.654980
_cell_angle_gamma 90.000000
_cell_volume 1980.772053
_symmetry_space_group_name_H-M "P 2/M"
_symmetry_group_IT_number 10
_symmetry_cell_setting 'monoclinic'
loop_
_space_group_symop_operation_xyz
x,y,z
-x,y,-z
-x,-y,-z
x,-y,z
loop_
_atom_site_type_symbol
_atom_site_label
_atom_site_fract_x
_atom_site_fract_y
_atom_site_fract_z
Si Si1 0.747132 0.326124 0.251553
Si Si2 0.583745 0.174748 0.364635
Si Si3 0.930643 0.170746 0.885836
Si Si4 0.190068 0.175538 0.426158
Si Si5 0.120309 0.327957 0.614389
Si Si6 0.386361 0.174222 0.441402
Si Si7 0.085131 0.327880 0.289660
Si Si8 0.131178 0.170408 0.908202
O O1 0.738631 0.500000 0.247880
O O2 0.646689 0.256553 0.280057
O O3 0.809570 0.275781 0.322943
O O4 0.790388 0.269285 0.150783
O O5 0.477763 0.221465 0.369427
O O6 0.612160 0.234449 0.457332
O O7 0.597695 0.000000 0.351903
O O8 0.891888 0.272272 0.814465
O O9 0.033887 0.218062 0.887318
O O10 0.927088 0.000000 0.857342
O O11 0.868021 0.197580 0.985314
O O12 0.135129 0.234250 0.522324
O O13 0.295395 0.230122 0.409908
O O14 0.149685 0.240876 0.344098
O O15 0.182167 0.000000 0.426272
O O16 0.132420 0.500000 0.588917
O O17 0.019505 0.292356 0.668388
O O18 0.386608 0.000000 0.449985
O O19 0.106995 0.500000 0.292856
O O20 0.150577 0.000000 0.882409
#
# Coordination Sequence:
#
# PCOD8065726 Si02
#       8
#     4   4   4   4   4   4   4   4
#     4  11  20  30  46  73 102 130 160 193 235 288
#     4   9  16  31  51  69  92 124 159 198 242 289
#     4   9  18  33  51  72  94 121 162 206 238 276
#     4  11  21  33  50  71  92 125 170 209 238 276
#     4  10  21  34  44  63  99 136 166 195 231 279
#     4   8  16  30  49  70  92 120 159 203 245 283
#     4  11  22  35  48  66  97 136 166 196 239 284
#     4   9  18  32  51  72  96 124 157 200 245 281
#
# _framework density 16.155315999999999
#
# number of rings (size 3 to 8) (size 9 to 14) (size 15 to 20)
#    0.000    2.250    2.500    3.000    0.000    3.500 
#    0.000    3.750    0.000    0.000    0.000    0.875 
#    0.000    7.000    0.000    0.000    0.000    0.000 
#
# Total GULP energy -396798.336256 kJ/mol
# GULP energy per Si atom -12399.948008 kJ/mol
# Density = 1.611855 g / cm^3
# Si number density = 16.155316 Si / 1000 Ang^3
#
#
#
# Elastic Constant Matrix: (Units=GPa)
#
#
# Indices 1 2 3 4 5 6 
#
# 1 72.5342 33.3505 41.8148 0.0000 -9.2061 0.0000
# 2 33.3505 56.8206 41.7938 0.0000 -2.9897 0.0000
# 3 41.8148 41.7938 97.3401 0.0000 -6.0319 0.0000
# 4 0.0000 0.0000 0.0000 24.0914 0.0000 3.1747
# 5 -9.2061 -2.9897 -6.0319 0.0000 25.6971 0.0000
# 6 0.0000 0.0000 0.0000 3.1747 0.0000 16.4367
#
#
#
# Elastic Compliance Matrix: (Units=1/GPa)
#
#
# Indices 1 2 3 4 5 6 
#
# 1 0.021355 -0.008402 -0.005229 0.000000 0.005446 0.000000
# 2 -0.008402 0.029032 -0.008964 0.000000 -0.001736 0.000000
# 3 -0.005229 -0.008964 0.016426 0.000000 0.000940 0.000000
# 4 0.000000 0.000000 0.000000 0.042593 0.000000 -0.008227
# 5 0.005446 -0.001736 0.000940 0.000000 0.040884 0.000000
# 6 0.000000 0.000000 0.000000 -0.008227 0.000000 0.062428
#
#
# Mechanical properties :
#
#
# Convention : Reuss Voigt Hill
#
# Bulk Modulus (GPa) = 46.24214 51.17923 48.71068
# Shear Modulus (GPa) = 18.85965 20.56077 19.71021
#
# Velocity S-wave (km/s) = 3.42042 3.57135 3.49670
# Velocity P-wave (km/s) = 6.65467 6.98243 6.82052
#
# Compressibility (1/GPa) = 0.02162530
#
# Stress axis : x y z
#
# Youngs Moduli (GPa) = 46.82718 34.44421 60.87799
#
# Poissons Ratio (x) = 0.28939 0.31832
# Poissons Ratio (y) = 0.39343 0.54569
# Poissons Ratio (z) = 0.24485 0.30875
#
# Static dielectric constant tensor:
#      x y z
#    x 3.161860 0.000000 -0.065690 
#    y 0.000000 2.934070 0.000000 
#    z -0.065690 0.000000 2.947660 
# 
# 
# High freq. dielectric constant tensor:
#      x y z
#    x 1.606420 0.000000 -0.011320 
#    y 0.000000 1.616570 0.000000 
#    z -0.011320 0.000000 1.607920 
# 
# From -- ./inp_files/66047.got.cif
#   From: 2010.06.25/outbox.cif.g09.slc.cpg/sg10_34_cif.got.tgz:66047.got - 2010.06.27 22:07:45.
