data_PCOD8065667
_publ_section_title
;
Structure prediction by ZEFSAII (Michael W. Deem and Ramdas Pophale) SiO2 
 PCOD8065667
Probable space group: P 2/M
;
_chemical_formula_sum "Si O2"
_cell_formula_units_Z 28
_cell_length_a 14.097746
_cell_length_b 18.352609
_cell_length_c 9.211435
_cell_angle_alpha 90.000000
_cell_angle_beta 40.714669
_cell_angle_gamma 90.000000
_cell_volume 1554.594613
_symmetry_space_group_name_H-M "P 2/M"
_symmetry_group_IT_number 10
_symmetry_cell_setting 'monoclinic'
loop_
_space_group_symop_operation_xyz
x,y,z
-x,y,-z
-x,-y,-z
x,-y,z
loop_
_atom_site_type_symbol
_atom_site_label
_atom_site_fract_x
_atom_site_fract_y
_atom_site_fract_z
Si Si1 0.612756 0.782547 0.999209
Si Si2 0.860536 0.308870 0.571137
Si Si3 0.220448 0.918687 0.169019
Si Si4 0.874504 0.227411 0.259739
Si Si5 0.927676 0.917526 0.350662
Si Si6 0.426707 0.698254 0.435400
Si Si7 0.630184 0.584781 0.738222
O O1 0.547511 0.744849 0.214349
O O2 0.500000 0.777559 0.000000
O O3 0.763495 0.746495 0.776417
O O4 0.643991 0.865240 0.010904
O O5 0.910131 0.270269 0.365744
O O6 0.776266 0.383938 0.639679
O O7 0.000000 0.331369 0.500000
O O8 0.094560 0.900717 0.198939
O O9 0.165982 0.909477 0.396030
O O10 0.278548 0.000000 0.075754
O O11 0.719293 0.253522 0.376301
O O12 0.872368 0.140400 0.294992
O O13 0.000000 0.246711 0.000000
O O14 0.912465 0.000000 0.305899
O O15 0.500000 0.674850 0.500000
O O16 0.396483 0.623965 0.383856
O O17 0.649681 0.500000 0.684826
O O18 0.500000 0.601710 0.000000
#
# Coordination Sequence:
#
# PCOD8065667 Si02
#       7
#     4   4   4   4   4   4   4
#     4  12  19  37  59  83 115 150 195 243 288 334
#     4  11  21  36  62  89 115 151 189 239 281 331
#     4   9  18  30  54  84 110 144 194 246 290 336
#     4  11  23  36  55  87 113 151 194 239 285 336
#     4   9  17  33  53  79 111 148 193 239 290 340
#     4  11  24  39  58  86 119 152 187 236 287 339
#     4  10  20  40  65  89 117 148 187 230 282 345
#
# _framework density 18.011126000000001
#
# number of rings (size 3 to 8) (size 9 to 14) (size 15 to 20)
#    0.000    1.571    5.714    1.714    4.000    1.143 
#    0.000    0.714    0.000    7.714    0.000    0.000 
#    0.000    0.000    0.000    0.000    0.000    0.000 
#
# Total GULP energy -347221.868090 kJ/mol
# GULP energy per Si atom -12400.781003 kJ/mol
# Density = 1.797013 g / cm^3
# Si number density = 18.011126 Si / 1000 Ang^3
#
#
#
# Elastic Constant Matrix: (Units=GPa)
#
#
# Indices 1 2 3 4 5 6 
#
# 1 128.2356 59.2254 45.2116 0.0000 -5.1894 0.0000
# 2 59.2254 128.3610 57.7872 0.0000 -5.1561 0.0000
# 3 45.2116 57.7872 97.0979 0.0000 -5.7105 0.0000
# 4 0.0000 0.0000 0.0000 20.6789 0.0000 -9.6071
# 5 -5.1894 -5.1561 -5.7105 0.0000 16.0482 0.0000
# 6 0.0000 0.0000 0.0000 -9.6071 0.0000 19.6871
#
#
#
# Elastic Compliance Matrix: (Units=1/GPa)
#
#
# Indices 1 2 3 4 5 6 
#
# 1 0.010435 -0.003565 -0.002662 0.000000 0.001282 0.000000
# 2 -0.003565 0.011882 -0.005367 0.000000 0.000755 0.000000
# 3 -0.002662 -0.005367 0.014892 0.000000 0.002714 0.000000
# 4 0.000000 0.000000 0.000000 0.062536 0.000000 0.030517
# 5 0.001282 0.000755 0.002714 0.000000 0.063935 0.000000
# 6 0.000000 0.000000 0.000000 0.030517 0.000000 0.065687
#
#
# Mechanical properties :
#
#
# Convention : Reuss Voigt Hill
#
# Bulk Modulus (GPa) = 71.31978 75.34920 73.33449
# Shear Modulus (GPa) = 19.43797 24.04752 21.74274
#
# Velocity S-wave (km/s) = 3.28871 3.65793 3.47822
# Velocity P-wave (km/s) = 7.35557 7.73086 7.54555
#
# Compressibility (1/GPa) = 0.01402136
#
# Stress axis : x y z
#
# Youngs Moduli (GPa) = 95.83237 84.16160 67.14938
#
# Poissons Ratio (x) = 0.30002 0.17874
# Poissons Ratio (y) = 0.34162 0.36040
# Poissons Ratio (z) = 0.25509 0.45171
#
# Static dielectric constant tensor:
#      x y z
#    x 3.268600 0.000000 -0.045540 
#    y 0.000000 3.409970 0.000000 
#    z -0.045540 0.000000 3.160970 
# 
# 
# High freq. dielectric constant tensor:
#      x y z
#    x 1.691580 0.000000 -0.006220 
#    y 0.000000 1.699610 0.000000 
#    z -0.006220 0.000000 1.686950 
# 
# From -- ./inp_files/30091.got.cif
#   From: 2010.06.25/outbox.cif.g09.slc.cpg/sg10_16_cif.got.tgz:30091.got - 2010.06.27 22:07:45.
