data_PCOD8065419
_publ_section_title
;
Structure prediction by ZEFSAII (Michael W. Deem and Ramdas Pophale) SiO2 
 PCOD8065419
Probable space group: P 2/M
;
_chemical_formula_sum "Si O2"
_cell_formula_units_Z 28
_cell_length_a 5.055477
_cell_length_b 33.312732
_cell_length_c 9.044853
_cell_angle_alpha 90.000000
_cell_angle_beta 118.029578
_cell_angle_gamma 90.000000
_cell_volume 1344.588980
_symmetry_space_group_name_H-M "P 2/M"
_symmetry_group_IT_number 10
_symmetry_cell_setting 'monoclinic'
loop_
_space_group_symop_operation_xyz
x,y,z
-x,y,-z
-x,-y,-z
x,-y,z
loop_
_atom_site_type_symbol
_atom_site_label
_atom_site_fract_x
_atom_site_fract_y
_atom_site_fract_z
Si Si1 0.894535 0.870967 0.305724
Si Si2 0.653254 0.500000 0.384910
Si Si3 0.152676 0.218742 0.698352
Si Si4 0.344227 0.000000 0.118444
Si Si5 0.660090 0.653765 0.889655
Si Si6 0.345671 0.733462 0.300769
Si Si7 0.715100 0.085921 0.818297
Si Si8 0.350271 0.587001 0.619103
O O1 0.865191 0.825681 0.235733
O O2 0.567083 0.889617 0.194140
O O3 0.000000 0.870369 0.500000
O O4 0.164191 0.896012 0.302408
O O5 0.500000 0.500000 0.500000
O O6 0.571446 0.542811 0.287700
O O7 0.000000 0.500000 0.500000
O O8 0.489298 0.234139 0.761016
O O9 0.000000 0.218198 0.500000
O O10 0.988899 0.249765 0.765045
O O11 0.413172 0.959728 0.230600
O O12 0.500000 0.000000 0.000000
O O13 0.000000 0.000000 0.000000
O O14 0.666927 0.691120 0.781504
O O15 0.466604 0.618561 0.767570
O O16 0.500000 0.666043 0.000000
O O17 0.000000 0.638623 0.000000
O O18 0.500000 0.727716 0.500000
O O19 0.000000 0.088707 0.000000
O O20 0.500000 0.593277 0.500000
O O21 0.000000 0.593275 0.500000
#
# Coordination Sequence:
#
# PCOD8065419 Si02
#       8
#     4   2   4   2   4   4   4   4
#     4  11  22  39  61  89 121 149 182 237 297 343
#     4   8  16  32  58  88 112 140 194 252 280 316
#     4   9  19  36  60  84 109 146 192 234 281 342
#     4  10  20  38  61  82 113 156 197 232 273 330
#     4  12  25  39  55  85 124 153 184 240 303 344
#     4  10  20  38  61  80 103 150 204 235 267 340
#     4  11  22  39  61  87 115 154 198 234 275 337
#     4  10  20  38  63  87 113 154 201 239 281 345
#
# _framework density 20.824204999999999
#
# number of rings (size 3 to 8) (size 9 to 14) (size 15 to 20)
#    0.000    1.714    0.000    5.571    0.000    4.000 
#    0.000   10.000    0.000    0.000    0.000    0.000 
#    0.000    0.000    0.000    0.000    0.000    0.000 
#
# Total GULP energy -347009.880839 kJ/mol
# GULP energy per Si atom -12393.210030 kJ/mol
# Density = 2.077681 g / cm^3
# Si number density = 20.824205 Si / 1000 Ang^3
#
#
#
# Elastic Constant Matrix: (Units=GPa)
#
#
# Indices 1 2 3 4 5 6 
#
# 1 153.5381 59.6483 27.0698 0.0000 -9.7926 0.0000
# 2 59.6483 195.0583 50.3390 0.0000 -11.7568 0.0000
# 3 27.0698 50.3390 49.4402 0.0000 -2.8649 0.0000
# 4 0.0000 0.0000 0.0000 38.5032 0.0000 -5.8048
# 5 -9.7926 -11.7568 -2.8649 0.0000 32.9348 0.0000
# 6 0.0000 0.0000 0.0000 -5.8048 0.0000 37.8056
#
#
#
# Elastic Compliance Matrix: (Units=1/GPa)
#
#
# Indices 1 2 3 4 5 6 
#
# 1 0.007672 -0.001620 -0.002465 0.000000 0.001488 0.000000
# 2 -0.001620 0.007413 -0.006569 0.000000 0.001593 0.000000
# 3 -0.002465 -0.006569 0.028228 0.000000 -0.000622 0.000000
# 4 0.000000 0.000000 0.000000 0.026587 0.000000 0.004082
# 5 0.001488 0.001593 -0.000622 0.000000 0.031320 0.000000
# 6 0.000000 0.000000 0.000000 0.004082 0.000000 0.027078
#
#
# Mechanical properties :
#
#
# Convention : Reuss Voigt Hill
#
# Bulk Modulus (GPa) = 45.44189 74.68343 60.06266
# Shear Modulus (GPa) = 31.85907 39.24735 35.55321
#
# Velocity S-wave (km/s) = 3.91564 4.34602 4.13643
# Velocity P-wave (km/s) = 6.50477 7.81828 7.19158
#
# Compressibility (1/GPa) = 0.02200613
#
# Stress axis : x y z
#
# Youngs Moduli (GPa) = 130.34455 134.89136 35.42591
#
# Poissons Ratio (x) = 0.21857 0.08731
# Poissons Ratio (y) = 0.21120 0.23270
# Poissons Ratio (z) = 0.32125 0.88606
#
# Static dielectric constant tensor:
#      x y z
#    x 4.175850 0.000000 -0.028830 
#    y 0.000000 5.323690 0.000000 
#    z -0.028830 0.000000 3.444730 
# 
# 
# High freq. dielectric constant tensor:
#      x y z
#    x 1.841120 0.000000 -0.003340 
#    y 0.000000 1.834670 0.000000 
#    z -0.003340 0.000000 1.778230 
# 
# From -- ./inp_files/15927.got.cif
#   From: 2010.06.25/outbox.cif.g09.slc.cpg/sg10_8_cif.got.tgz:15927.got - 2010.06.27 22:07:45.
