data_PCOD8065666
_publ_section_title
;
Structure prediction by ZEFSAII (Michael W. Deem and Ramdas Pophale) SiO2 
 PCOD8065666
Probable space group: P 2/M
;
_chemical_formula_sum "Si O2"
_cell_formula_units_Z 32
_cell_length_a 21.817316
_cell_length_b 8.863725
_cell_length_c 15.465407
_cell_angle_alpha 90.000000
_cell_angle_beta 147.106491
_cell_angle_gamma 90.000000
_cell_volume 1624.210149
_symmetry_space_group_name_H-M "P 2/M"
_symmetry_group_IT_number 10
_symmetry_cell_setting 'monoclinic'
loop_
_space_group_symop_operation_xyz
x,y,z
-x,y,-z
-x,-y,-z
x,-y,z
loop_
_atom_site_type_symbol
_atom_site_label
_atom_site_fract_x
_atom_site_fract_y
_atom_site_fract_z
Si Si1 0.426629 0.821859 0.992011
Si Si2 0.793484 0.823185 0.842395
Si Si3 0.996241 0.325491 0.170408
Si Si4 0.232597 0.673515 0.369599
Si Si5 0.474254 0.674664 0.722856
Si Si6 0.169189 0.820098 0.690026
Si Si7 0.584578 0.321997 0.674165
Si Si8 0.014317 0.321175 0.643510
O O1 0.297803 0.766807 0.830586
O O2 0.431296 0.000000 0.994644
O O3 0.500000 0.753123 0.000000
O O4 0.478437 0.770952 0.143252
O O5 0.763772 0.775979 0.710374
O O6 0.706682 0.751517 0.807570
O O7 0.785591 0.000000 0.840957
O O8 0.919025 0.770700 0.014954
O O9 0.968770 0.500000 0.121646
O O10 0.125416 0.288050 0.301443
O O11 0.973171 0.279517 0.241588
O O12 0.233277 0.500000 0.339023
O O13 0.341388 0.707687 0.556827
O O14 0.498004 0.500000 0.769609
O O15 0.536671 0.727496 0.709788
O O16 0.099450 0.755522 0.526638
O O17 0.122649 0.747326 0.723381
O O18 0.156174 0.000000 0.679039
O O19 0.500000 0.261994 0.500000
O O20 0.598374 0.500000 0.683059
O O21 0.007448 0.500000 0.620030
#
# Coordination Sequence:
#
# PCOD8065666 Si02
#       8
#     4   4   4   4   4   4   4   4
#     4  10  24  43  61  87 126 165 196 237 301 367
#     4  12  25  38  58  90 125 158 199 245 293 352
#     4  10  23  40  62  87 117 157 200 248 299 351
#     4  10  21  42  64  85 118 159 201 244 299 356
#     4  10  22  39  65  94 117 153 204 255 299 349
#     4  10  21  39  61  84 118 158 193 233 294 358
#     4  10  20  40  65  88 120 160 201 247 301 359
#     4  10  21  38  62  90 114 146 196 250 298 344
#
# _framework density 19.701884
#
# number of rings (size 3 to 8) (size 9 to 14) (size 15 to 20)
#    0.000    1.750    1.250    3.000    3.500    5.500 
#    0.000    0.000    0.000    0.000    0.000    0.000 
#    0.000    0.000    0.000    0.000    0.000    0.000 
#
# Total GULP energy -396953.741432 kJ/mol
# GULP energy per Si atom -12404.804420 kJ/mol
# Density = 1.965704 g / cm^3
# Si number density = 19.701884 Si / 1000 Ang^3
#
#
#
# Elastic Constant Matrix: (Units=GPa)
#
#
# Indices 1 2 3 4 5 6 
#
# 1 121.3587 36.7294 59.7565 0.0000 14.8145 0.0000
# 2 36.7294 45.0361 27.5447 0.0000 6.2637 0.0000
# 3 59.7565 27.5447 106.8030 0.0000 14.0439 0.0000
# 4 0.0000 0.0000 0.0000 23.5608 0.0000 -0.4972
# 5 14.8145 6.2637 14.0439 0.0000 34.6772 0.0000
# 6 0.0000 0.0000 0.0000 -0.4972 0.0000 20.7734
#
#
#
# Elastic Compliance Matrix: (Units=1/GPa)
#
#
# Indices 1 2 3 4 5 6 
#
# 1 0.013329 -0.007335 -0.005272 0.000000 -0.002234 0.000000
# 2 -0.007335 0.030548 -0.003656 0.000000 -0.000904 0.000000
# 3 -0.005272 -0.003656 0.013597 0.000000 -0.002594 0.000000
# 4 0.000000 0.000000 0.000000 0.042465 0.000000 0.001016
# 5 -0.002234 -0.000904 -0.002594 0.000000 0.031006 0.000000
# 6 0.000000 0.000000 0.000000 0.001016 0.000000 0.048163
#
#
# Mechanical properties :
#
#
# Convention : Reuss Voigt Hill
#
# Bulk Modulus (GPa) = 40.08318 57.91768 49.00043
# Shear Modulus (GPa) = 22.73270 25.74677 24.23973
#
# Velocity S-wave (km/s) = 3.40050 3.61892 3.51141
# Velocity P-wave (km/s) = 5.98388 6.85003 6.43155
#
# Compressibility (1/GPa) = 0.02494812
#
# Stress axis : x y z
#
# Youngs Moduli (GPa) = 75.02674 32.73523 73.54830
#
# Poissons Ratio (x) = 0.24012 0.38774
# Poissons Ratio (y) = 0.55033 0.26886
# Poissons Ratio (z) = 0.39553 0.11967
#
# Static dielectric constant tensor:
#      x y z
#    x 3.853780 0.000000 0.160390 
#    y 0.000000 3.465370 0.000000 
#    z 0.160390 0.000000 3.606780 
# 
# 
# High freq. dielectric constant tensor:
#      x y z
#    x 1.780420 0.000000 0.006440 
#    y 0.000000 1.758560 0.000000 
#    z 0.006440 0.000000 1.774720 
# 
# From -- ./inp_files/71674.got.cif
#   From: 2010.06.25/outbox.cif.g09.slc.cpg/sg10_36_cif.got.tgz:71674.got - 2010.06.27 22:07:45.
