data_PCOD8065472
_publ_section_title
;
Structure prediction by ZEFSAII (Michael W. Deem and Ramdas Pophale) SiO2 
 PCOD8065472
Probable space group: P 2/M
;
_chemical_formula_sum "Si O2"
_cell_formula_units_Z 24
_cell_length_a 9.340382
_cell_length_b 11.929370
_cell_length_c 23.504978
_cell_angle_alpha 90.000000
_cell_angle_beta 152.217661
_cell_angle_gamma 90.000000
_cell_volume 1220.770706
_symmetry_space_group_name_H-M "P 2/M"
_symmetry_group_IT_number 10
_symmetry_cell_setting 'monoclinic'
loop_
_space_group_symop_operation_xyz
x,y,z
-x,y,-z
-x,-y,-z
x,-y,z
loop_
_atom_site_type_symbol
_atom_site_label
_atom_site_fract_x
_atom_site_fract_y
_atom_site_fract_z
Si Si1 0.179790 0.124510 0.416186
Si Si2 0.685583 0.125247 0.144956
Si Si3 0.633330 0.500000 0.377172
Si Si4 0.265218 0.734818 0.547174
Si Si5 0.900818 0.739568 0.030522
Si Si6 0.164091 0.130307 0.218751
Si Si7 0.077204 0.500000 0.094901
O O1 0.500000 0.150822 0.500000
O O2 0.103611 0.228897 0.431393
O O3 0.930793 0.124915 0.280157
O O4 0.180815 0.000000 0.445675
O O5 0.436994 0.216082 0.075761
O O6 0.854078 0.159326 0.145286
O O7 0.538915 0.000000 0.087120
O O8 0.568896 0.612511 0.391539
O O9 0.432509 0.500000 0.246662
O O10 0.000000 0.500000 0.500000
O O11 0.529238 0.827339 0.643928
O O12 0.000000 0.744954 0.500000
O O13 0.000000 0.746084 0.000000
O O14 0.145862 0.814039 0.150437
O O15 0.917657 0.612890 0.061212
O O16 0.202599 0.000000 0.224556
O O17 0.000000 0.500000 0.000000
#
# Coordination Sequence:
#
# PCOD8065472 Si02
#       7
#     4   4   2   4   4   4   2
#     4  10  20  38  62  89 124 163 201 249 314 380
#     4  10  22  40  62  88 126 171 203 247 316 381
#     4  10  22  42  66  90 124 170 209 262 327 377
#     4  11  23  38  63  92 121 158 206 256 312 367
#     4  11  24  40  62  90 121 159 214 261 308 363
#     4  11  22  39  62  88 125 163 201 248 313 378
#     4  10  22  42  66  89 126 170 211 263 320 373
#
# _framework density 19.65971
#
# number of rings (size 3 to 8) (size 9 to 14) (size 15 to 20)
#    0.000    1.500    3.333    1.500    2.333    5.333 
#    0.000    2.917    0.000    0.000    0.000    0.000 
#    0.000    0.000    0.000    0.000    0.000    0.000 
#
# Total GULP energy -297340.644820 kJ/mol
# GULP energy per Si atom -12389.193534 kJ/mol
# Density = 1.961496 g / cm^3
# Si number density = 19.659710 Si / 1000 Ang^3
#
#
#
# Elastic Constant Matrix: (Units=GPa)
#
#
# Indices 1 2 3 4 5 6 
#
# 1 75.4750 64.9797 17.5904 0.0000 -4.8724 0.0000
# 2 64.9797 157.3644 47.9246 0.0000 3.6972 0.0000
# 3 17.5904 47.9246 67.7228 0.0000 6.1378 0.0000
# 4 0.0000 0.0000 0.0000 17.9585 0.0000 -6.1300
# 5 -4.8724 3.6972 6.1378 0.0000 35.6788 0.0000
# 6 0.0000 0.0000 0.0000 -6.1300 0.0000 14.7670
#
#
#
# Elastic Compliance Matrix: (Units=1/GPa)
#
#
# Indices 1 2 3 4 5 6 
#
# 1 0.021070 -0.008947 0.000522 0.000000 0.003715 0.000000
# 2 -0.008947 0.011900 -0.005968 0.000000 -0.001428 0.000000
# 3 0.000522 -0.005968 0.019089 0.000000 -0.002594 0.000000
# 4 0.000000 0.000000 0.000000 0.064877 0.000000 0.026931
# 5 0.003715 -0.001428 -0.002594 0.000000 0.029129 0.000000
# 6 0.000000 0.000000 0.000000 0.026931 0.000000 0.078898
#
#
# Mechanical properties :
#
#
# Convention : Reuss Voigt Hill
#
# Bulk Modulus (GPa) = 42.96741 62.39462 52.68102
# Shear Modulus (GPa) = 19.11999 25.01868 22.06933
#
# Velocity S-wave (km/s) = 3.12195 3.57120 3.35411
# Velocity P-wave (km/s) = 5.90749 6.98648 6.46952
#
# Compressibility (1/GPa) = 0.02327345
#
# Stress axis : x y z
#
# Youngs Moduli (GPa) = 47.46060 84.03385 52.38636
#
# Poissons Ratio (x) = 0.75181 -0.02733
# Poissons Ratio (y) = 0.42461 0.31264
# Poissons Ratio (z) = -0.02476 0.50151
#
# Static dielectric constant tensor:
#      x y z
#    x 3.499020 0.000000 -0.218280 
#    y 0.000000 4.162110 0.000000 
#    z -0.218280 0.000000 3.746110 
# 
# 
# High freq. dielectric constant tensor:
#      x y z
#    x 1.742610 0.000000 -0.014620 
#    y 0.000000 1.775430 0.000000 
#    z -0.014620 0.000000 1.788130 
# 
# From -- ./inp_files/76747.got.cif
#   From: 2010.06.25/outbox.cif.g09.slc.cpg/sg10_39_cif.got.tgz:76747.got - 2010.06.27 22:07:45.
