data_PCOD8065499
_publ_section_title
;
Structure prediction by ZEFSAII (Michael W. Deem and Ramdas Pophale) SiO2 
 PCOD8065499
Probable space group: P 2/M
;
_chemical_formula_sum "Si O2"
_cell_formula_units_Z 22
_cell_length_a 14.400990
_cell_length_b 10.847494
_cell_length_c 6.993197
_cell_angle_alpha 90.000000
_cell_angle_beta 79.256484
_cell_angle_gamma 90.000000
_cell_volume 1073.291008
_symmetry_space_group_name_H-M "P 2/M"
_symmetry_group_IT_number 10
_symmetry_cell_setting 'monoclinic'
loop_
_space_group_symop_operation_xyz
x,y,z
-x,y,-z
-x,-y,-z
x,-y,z
loop_
_atom_site_type_symbol
_atom_site_label
_atom_site_fract_x
_atom_site_fract_y
_atom_site_fract_z
Si Si1 0.203425 0.000000 0.133888
Si Si2 0.106270 0.189778 0.896196
Si Si3 0.600571 0.361283 0.935147
Si Si4 0.900271 0.000000 0.436100
Si Si5 0.268578 0.354410 0.783651
Si Si6 0.589417 0.000000 0.820758
Si Si7 0.401586 0.244504 0.436260
O O1 0.179174 0.000000 0.369206
O O2 0.317655 0.000000 0.080051
O O3 0.160138 0.881580 0.044990
O O4 0.158108 0.320623 0.842143
O O5 0.109070 0.118801 0.694515
O O6 0.000000 0.216504 0.000000
O O7 0.584838 0.500000 0.006924
O O8 0.626987 0.349828 0.704308
O O9 0.500000 0.288825 0.000000
O O10 0.683519 0.310952 0.036182
O O11 0.000000 0.000000 0.500000
O O12 0.279933 0.500000 0.731065
O O13 0.316336 0.259165 0.616964
O O14 0.591044 0.115077 0.675672
O O15 0.500000 0.000000 0.000000
O O16 0.500000 0.277073 0.500000
#
# Coordination Sequence:
#
# PCOD8065499 Si02
#       7
#     2   4   4   2   4   2   4
#     4  11  22  42  67  93 128 167 210 260 312 390
#     4  11  23  40  67  96 126 164 214 268 319 381
#     4  10  20  38  63  89 119 165 217 260 303 365
#     4  11  19  41  71 100 120 161 216 259 323 386
#     4  11  25  42  65  94 127 172 220 266 320 374
#     4  12  28  42  63  97 139 172 203 260 332 388
#     4  12  24  41  63  91 132 174 212 260 314 387
#
# _framework density 20.497705
#
# number of rings (size 3 to 8) (size 9 to 14) (size 15 to 20)
#    0.000    0.909    3.636    4.091    2.545    1.818 
#    0.000    0.000    0.000    0.545    0.000    0.000 
#    0.000    0.000    0.000    0.000    0.000    0.000 
#
# Total GULP energy -272632.581918 kJ/mol
# GULP energy per Si atom -12392.390087 kJ/mol
# Density = 2.045105 g / cm^3
# Si number density = 20.497705 Si / 1000 Ang^3
#
#
#
# Elastic Constant Matrix: (Units=GPa)
#
#
# Indices 1 2 3 4 5 6 
#
# 1 165.8678 50.4282 67.7903 0.0000 -7.2650 0.0000
# 2 50.4282 91.1858 45.2633 0.0000 -4.6056 0.0000
# 3 67.7903 45.2633 145.4073 0.0000 4.5402 0.0000
# 4 0.0000 0.0000 0.0000 24.5632 0.0000 -1.8979
# 5 -7.2650 -4.6056 4.5402 0.0000 33.0510 0.0000
# 6 0.0000 0.0000 0.0000 -1.8979 0.0000 28.6896
#
#
#
# Elastic Compliance Matrix: (Units=1/GPa)
#
#
# Indices 1 2 3 4 5 6 
#
# 1 0.008227 -0.002989 -0.002961 0.000000 0.001799 0.000000
# 2 -0.002989 0.014245 -0.003095 0.000000 0.001753 0.000000
# 3 -0.002961 -0.003095 0.009295 0.000000 -0.002359 0.000000
# 4 0.000000 0.000000 0.000000 0.040921 0.000000 0.002707
# 5 0.001799 0.001753 -0.002359 0.000000 0.031220 0.000000
# 6 0.000000 0.000000 0.000000 0.002707 0.000000 0.035035
#
#
# Mechanical properties :
#
#
# Convention : Reuss Voigt Hill
#
# Bulk Modulus (GPa) = 73.12418 81.04716 77.08567
# Shear Modulus (GPa) = 30.94239 33.19272 32.06756
#
# Velocity S-wave (km/s) = 3.88951 4.02847 3.95960
# Velocity P-wave (km/s) = 7.47816 7.82710 7.65462
#
# Compressibility (1/GPa) = 0.01367537
#
# Stress axis : x y z
#
# Youngs Moduli (GPa) = 121.55769 70.20200 107.58530
#
# Poissons Ratio (x) = 0.20982 0.31857
# Poissons Ratio (y) = 0.36331 0.33303
# Poissons Ratio (z) = 0.35994 0.21731
#
# Static dielectric constant tensor:
#      x y z
#    x 3.859550 0.000000 0.150370 
#    y 0.000000 3.522360 0.000000 
#    z 0.150370 0.000000 3.979350 
# 
# 
# High freq. dielectric constant tensor:
#      x y z
#    x 1.805970 0.000000 0.007480 
#    y 0.000000 1.788430 0.000000 
#    z 0.007480 0.000000 1.817350 
# 
# From -- ./inp_files/8956.got.cif
#   From: 2010.06.25/outbox.cif.g09.slc.cpg/sg10_5_cif.got.tgz:8956.got - 2010.06.27 22:07:45.
