data_PCOD8065585
_publ_section_title
;
Structure prediction by ZEFSAII (Michael W. Deem and Ramdas Pophale) SiO2 
 PCOD8065585
Probable space group: P 2/M
;
_chemical_formula_sum "Si O2"
_cell_formula_units_Z 18
_cell_length_a 16.166965
_cell_length_b 7.840738
_cell_length_c 23.115787
_cell_angle_alpha 90.000000
_cell_angle_beta 163.396176
_cell_angle_gamma 90.000000
_cell_volume 837.305414
_symmetry_space_group_name_H-M "P 2/M"
_symmetry_group_IT_number 10
_symmetry_cell_setting 'monoclinic'
loop_
_space_group_symop_operation_xyz
x,y,z
-x,y,-z
-x,-y,-z
x,-y,z
loop_
_atom_site_type_symbol
_atom_site_label
_atom_site_fract_x
_atom_site_fract_y
_atom_site_fract_z
Si Si1 0.822640 0.191909 0.626860
Si Si2 0.797761 0.807403 0.229849
Si Si3 0.901344 0.500000 0.119651
Si Si4 0.342584 0.817233 0.225581
Si Si5 0.787000 0.500000 0.913510
Si Si6 0.228576 0.500000 0.703442
O O1 0.481108 0.219118 0.382619
O O2 0.956385 0.215336 0.653041
O O3 0.943675 0.330435 0.752312
O O4 0.882502 0.000000 0.691717
O O5 0.842519 0.672107 0.310052
O O6 0.792154 0.000000 0.251653
O O7 0.500000 0.760713 0.000000
O O8 0.953382 0.500000 0.085710
O O9 0.561573 0.500000 0.905637
O O10 0.416539 0.667835 0.228960
O O11 0.464697 0.000000 0.284705
O O12 0.000000 0.829221 0.000000
O O13 0.000000 0.500000 0.000000
O O14 0.000000 0.500000 0.500000
#
# Coordination Sequence:
#
# PCOD8065585 Si02
#       6
#     4   4   2   4   2   2
#     4  10  21  38  64  93 120 161 205 247 301 358
#     4  10  20  39  62  86 125 164 200 246 298 361
#     4  12  24  39  61  89 124 160 203 257 298 359
#     4   9  19  39  64  88 116 153 199 249 303 361
#     4  10  23  41  60  85 119 159 199 248 310 364
#     4  12  26  37  56  93 129 163 202 249 301 353
#
# _framework density 21.497533000000001
#
# number of rings (size 3 to 8) (size 9 to 14) (size 15 to 20)
#    0.000    1.778    2.222    1.667    3.111    1.333 
#    0.000    8.889    0.000   12.000    0.000    0.000 
#    0.000    0.000    0.000    0.000    0.000    0.000 
#
# Total GULP energy -223002.380385 kJ/mol
# GULP energy per Si atom -12389.021133 kJ/mol
# Density = 2.144860 g / cm^3
# Si number density = 21.497533 Si / 1000 Ang^3
#
#
#
# Elastic Constant Matrix: (Units=GPa)
#
#
# Indices 1 2 3 4 5 6 
#
# 1 91.1483 66.6493 41.5348 0.0000 -29.0410 0.0000
# 2 66.6493 223.7374 73.6645 0.0000 -54.3762 0.0000
# 3 41.5348 73.6645 128.6925 0.0000 -30.8447 0.0000
# 4 0.0000 0.0000 0.0000 24.0639 0.0000 -2.9014
# 5 -29.0410 -54.3762 -30.8447 0.0000 38.3625 0.0000
# 6 0.0000 0.0000 0.0000 -2.9014 0.0000 8.5504
#
#
#
# Elastic Compliance Matrix: (Units=1/GPa)
#
#
# Indices 1 2 3 4 5 6 
#
# 1 0.015870 -0.002328 -0.002107 0.000000 0.007021 0.000000
# 2 -0.002328 0.007586 -0.001779 0.000000 0.007560 0.000000
# 3 -0.002107 -0.001779 0.010507 0.000000 0.004331 0.000000
# 4 0.000000 0.000000 0.000000 0.043329 0.000000 0.014703
# 5 0.007021 0.007560 0.004331 0.000000 0.045580 0.000000
# 6 0.000000 0.000000 0.000000 0.014703 0.000000 0.121943
#
#
# Mechanical properties :
#
#
# Convention : Reuss Voigt Hill
#
# Bulk Modulus (GPa) = 46.43435 89.69726 68.06580
# Shear Modulus (GPa) = 18.90926 31.64400 25.27663
#
# Velocity S-wave (km/s) = 2.96902 3.84081 3.43270
# Velocity P-wave (km/s) = 5.77929 7.84118 6.88783
#
# Compressibility (1/GPa) = 0.02153578
#
# Stress axis : x y z
#
# Youngs Moduli (GPa) = 63.01175 131.82093 95.17542
#
# Poissons Ratio (x) = 0.30682 0.20053
# Poissons Ratio (y) = 0.14666 0.16932
# Poissons Ratio (z) = 0.13276 0.23452
#
# Static dielectric constant tensor:
#      x y z
#    x 3.473880 0.000000 0.014740 
#    y 0.000000 6.575340 0.000000 
#    z 0.014740 0.000000 4.124600 
# 
# 
# High freq. dielectric constant tensor:
#      x y z
#    x 1.791110 0.000000 -0.000770 
#    y 0.000000 1.878350 0.000000 
#    z -0.000770 0.000000 1.865230 
# 
# From -- ./inp_files/84561.got.cif
#   From: 2010.06.25/outbox.cif.g09.slc.cpg/sg10_43_cif.got.tgz:84561.got - 2010.06.27 22:07:45.
