data_PCOD8065866
_publ_section_title
;
Structure prediction by ZEFSAII (Michael W. Deem and Ramdas Pophale) SiO2 
 PCOD8065866
Probable space group: P 2/M
;
_chemical_formula_sum "Si O2"
_cell_formula_units_Z 24
_cell_length_a 11.907998
_cell_length_b 8.557483
_cell_length_c 23.561885
_cell_angle_alpha 90.000000
_cell_angle_beta 33.621568
_cell_angle_gamma 90.000000
_cell_volume 1329.453995
_symmetry_space_group_name_H-M "P 2/M"
_symmetry_group_IT_number 10
_symmetry_cell_setting 'monoclinic'
loop_
_space_group_symop_operation_xyz
x,y,z
-x,y,-z
-x,-y,-z
x,-y,z
loop_
_atom_site_type_symbol
_atom_site_label
_atom_site_fract_x
_atom_site_fract_y
_atom_site_fract_z
Si Si1 0.508718 0.180143 0.627294
Si Si2 0.299120 0.684741 0.116624
Si Si3 0.775100 0.315482 0.612541
Si Si4 0.794495 0.182517 0.723690
Si Si5 0.208716 0.317763 0.578865
Si Si6 0.117225 0.819736 0.733339
O O1 0.598943 0.248734 0.646728
O O2 0.587867 0.275342 0.539621
O O3 0.262020 0.198214 0.727902
O O4 0.571539 0.000000 0.595478
O O5 0.280123 0.500000 0.126104
O O6 0.309545 0.746330 0.176548
O O7 0.107404 0.751795 0.162116
O O8 0.500000 0.741580 0.000000
O O9 0.772270 0.500000 0.609139
O O10 0.708053 0.261689 0.703297
O O11 0.000000 0.253154 0.500000
O O12 0.032621 0.217034 0.623801
O O13 0.749591 0.000000 0.740430
O O14 0.157582 0.500000 0.593605
O O15 0.227536 0.274171 0.636551
O O16 0.095421 0.000000 0.724279
#
# Coordination Sequence:
#
# PCOD8065866 Si02
#       6
#     4   4   4   4   4   4
#     4  11  22  34  50  74 107 146 183 218 262 315
#     4  10  21  38  61  85 108 136 174 223 275 324
#     4  11  22  35  53  77 108 148 188 222 260 313
#     4  11  21  34  55  80 109 143 180 224 268 314
#     4  11  20  31  49  74 106 144 182 219 262 313
#     4  10  21  35  52  77 107 139 177 221 269 321
#
# _framework density 18.052523999999998
#
# number of rings (size 3 to 8) (size 9 to 14) (size 15 to 20)
#    0.000    1.333    1.667    7.500    0.000    6.667 
#    0.000    0.000    0.000    1.000    0.000    7.000 
#    0.000    0.000    0.000    0.000    0.000    0.000 
#
# Total GULP energy -297565.623866 kJ/mol
# GULP energy per Si atom -12398.567661 kJ/mol
# Density = 1.801144 g / cm^3
# Si number density = 18.052524 Si / 1000 Ang^3
#
#
#
# Elastic Constant Matrix: (Units=GPa)
#
#
# Indices 1 2 3 4 5 6 
#
# 1 141.7357 43.0046 60.5936 0.0000 -9.1010 0.0000
# 2 43.0046 88.8850 39.5033 0.0000 -2.4965 0.0000
# 3 60.5936 39.5033 105.6408 0.0000 -7.3152 0.0000
# 4 0.0000 0.0000 0.0000 19.7565 0.0000 5.7521
# 5 -9.1010 -2.4965 -7.3152 0.0000 14.2025 0.0000
# 6 0.0000 0.0000 0.0000 5.7521 0.0000 14.1991
#
#
#
# Elastic Compliance Matrix: (Units=1/GPa)
#
#
# Indices 1 2 3 4 5 6 
#
# 1 0.010041 -0.002768 -0.004472 0.000000 0.003645 0.000000
# 2 -0.002768 0.014257 -0.003829 0.000000 -0.001240 0.000000
# 3 -0.004472 -0.003829 0.013707 0.000000 0.003521 0.000000
# 4 0.000000 0.000000 0.000000 0.057384 0.000000 -0.023246
# 5 0.003645 -0.001240 0.003521 0.000000 0.074341 0.000000
# 6 0.000000 0.000000 0.000000 -0.023246 0.000000 0.079844
#
#
# Mechanical properties :
#
#
# Convention : Reuss Voigt Hill
#
# Bulk Modulus (GPa) = 63.02817 69.16272 66.09545
# Shear Modulus (GPa) = 18.05043 22.50897 20.27970
#
# Velocity S-wave (km/s) = 3.16552 3.53492 3.35531
# Velocity P-wave (km/s) = 6.95344 7.41997 7.19049
#
# Compressibility (1/GPa) = 0.01586592
#
# Stress axis : x y z
#
# Youngs Moduli (GPa) = 99.59053 70.14170 72.95688
#
# Poissons Ratio (x) = 0.19418 0.32625
# Poissons Ratio (y) = 0.27570 0.27937
# Poissons Ratio (z) = 0.44535 0.26859
#
# Static dielectric constant tensor:
#      x y z
#    x 3.426620 0.000000 0.005990 
#    y 0.000000 3.457420 0.000000 
#    z 0.005990 0.000000 3.327950 
# 
# 
# High freq. dielectric constant tensor:
#      x y z
#    x 1.703150 0.000000 -0.004000 
#    y 0.000000 1.719220 0.000000 
#    z -0.004000 0.000000 1.660070 
# 
# From -- ./inp_files/54595.got.cif
#   From: 2010.06.25/outbox.cif.g09.slc.cpg/sg10_28_cif.got.tgz:54595.got - 2010.06.27 22:07:45.
