data_PCOD8065606
_publ_section_title
;
Structure prediction by ZEFSAII (Michael W. Deem and Ramdas Pophale) SiO2 
 PCOD8065606
Probable space group: P 2/M
;
_chemical_formula_sum "Si O2"
_cell_formula_units_Z 24
_cell_length_a 14.119383
_cell_length_b 14.445550
_cell_length_c 9.767373
_cell_angle_alpha 90.000000
_cell_angle_beta 141.499172
_cell_angle_gamma 90.000000
_cell_volume 1240.180879
_symmetry_space_group_name_H-M "P 2/M"
_symmetry_group_IT_number 10
_symmetry_cell_setting 'monoclinic'
loop_
_space_group_symop_operation_xyz
x,y,z
-x,y,-z
-x,-y,-z
x,-y,z
loop_
_atom_site_type_symbol
_atom_site_label
_atom_site_fract_x
_atom_site_fract_y
_atom_site_fract_z
Si Si1 0.639323 0.393939 0.059420
Si Si2 0.135313 0.753871 0.052547
Si Si3 0.560469 0.107169 0.918839
Si Si4 0.369908 0.604510 0.261770
Si Si5 0.143661 0.229799 0.753525
Si Si6 0.637421 0.103116 0.552926
O O1 0.688597 0.500000 0.151837
O O2 0.787534 0.326661 0.230267
O O3 0.500000 0.361227 0.000000
O O4 0.576460 0.388229 0.834317
O O5 0.219334 0.657672 0.128120
O O6 0.233070 0.834355 0.233755
O O7 0.078735 0.774516 0.834685
O O8 0.000000 0.732148 0.000000
O O9 0.433157 0.145362 0.668009
O O10 0.589009 0.000000 0.918765
O O11 0.500000 0.126194 0.000000
O O12 0.721413 0.156302 0.089665
O O13 0.500000 0.651461 0.500000
O O14 0.340504 0.500000 0.274424
O O15 0.000000 0.199393 0.500000
O O16 0.500000 0.095441 0.500000
O O17 0.706194 0.000000 0.604331
#
# Coordination Sequence:
#
# PCOD8065606 Si02
#       6
#     4   4   4   4   4   4
#     4   9  19  37  60  85 111 146 192 235 280 337
#     4  11  24  37  56  85 118 154 191 232 284 338
#     4  10  22  40  63  88 112 147 192 238 286 338
#     4   9  19  36  59  85 113 146 188 237 283 332
#     4  11  24  38  55  85 121 153 185 234 290 339
#     4  10  20  39  64  84 109 149 196 239 280 333
#
# _framework density 19.352017
#
# number of rings (size 3 to 8) (size 9 to 14) (size 15 to 20)
#    0.000    2.000    1.667    1.000    4.667    2.667 
#    0.000    0.000    0.000    0.000    0.000    0.000 
#    0.000    0.000    0.000    0.000    0.000    0.000 
#
# Total GULP energy -297413.332248 kJ/mol
# GULP energy per Si atom -12392.222177 kJ/mol
# Density = 1.930797 g / cm^3
# Si number density = 19.352017 Si / 1000 Ang^3
#
#
#
# Elastic Constant Matrix: (Units=GPa)
#
#
# Indices 1 2 3 4 5 6 
#
# 1 133.2847 37.5553 51.4567 0.0000 -14.0961 0.0000
# 2 37.5553 46.7930 28.4972 0.0000 -11.5719 0.0000
# 3 51.4567 28.4972 140.0420 0.0000 -19.3524 0.0000
# 4 0.0000 0.0000 0.0000 29.3315 0.0000 2.3185
# 5 -14.0961 -11.5719 -19.3524 0.0000 19.0277 0.0000
# 6 0.0000 0.0000 0.0000 2.3185 0.0000 32.1121
#
#
#
# Elastic Compliance Matrix: (Units=1/GPa)
#
#
# Indices 1 2 3 4 5 6 
#
# 1 0.010392 -0.006614 -0.002286 0.000000 0.001351 0.000000
# 2 -0.006614 0.030926 -0.002258 0.000000 0.011611 0.000000
# 3 -0.002286 -0.002258 0.009327 0.000000 0.006420 0.000000
# 4 0.000000 0.000000 0.000000 0.034289 0.000000 -0.002476
# 5 0.001351 0.011611 0.006420 0.000000 0.067147 0.000000
# 6 0.000000 0.000000 0.000000 -0.002476 0.000000 0.031320
#
#
# Mechanical properties :
#
#
# Convention : Reuss Voigt Hill
#
# Bulk Modulus (GPa) = 35.29982 61.68199 48.49091
# Shear Modulus (GPa) = 23.23862 29.60160 26.42011
#
# Velocity S-wave (km/s) = 3.46907 3.91530 3.69892
# Velocity P-wave (km/s) = 5.85888 7.23756 6.58440
#
# Compressibility (1/GPa) = 0.02832875
#
# Stress axis : x y z
#
# Youngs Moduli (GPa) = 96.23071 32.33543 107.21290
#
# Poissons Ratio (x) = 0.21387 0.24505
# Poissons Ratio (y) = 0.63647 0.24212
# Poissons Ratio (z) = 0.21995 0.07302
#
# Static dielectric constant tensor:
#      x y z
#    x 3.609090 0.000000 -0.418730 
#    y 0.000000 3.849820 0.000000 
#    z -0.418730 0.000000 3.469140 
# 
# 
# High freq. dielectric constant tensor:
#      x y z
#    x 1.750300 0.000000 -0.021430 
#    y 0.000000 1.760840 0.000000 
#    z -0.021430 0.000000 1.752170 
# 
# From -- ./inp_files/29695.got.cif
#   From: 2010.06.25/outbox.cif.g09.slc.cpg/sg10_15_cif.got.tgz:29695.got - 2010.06.27 22:07:45.
