data_PCOD8065582
_publ_section_title
;
Structure prediction by ZEFSAII (Michael W. Deem and Ramdas Pophale) SiO2 
 PCOD8065582
Probable space group: P 2/M
;
_chemical_formula_sum "Si O2"
_cell_formula_units_Z 28
_cell_length_a 11.032348
_cell_length_b 8.747755
_cell_length_c 14.913040
_cell_angle_alpha 90.000000
_cell_angle_beta 113.969886
_cell_angle_gamma 90.000000
_cell_volume 1315.111166
_symmetry_space_group_name_H-M "P 2/M"
_symmetry_group_IT_number 10
_symmetry_cell_setting 'monoclinic'
loop_
_space_group_symop_operation_xyz
x,y,z
-x,y,-z
-x,-y,-z
x,-y,z
loop_
_atom_site_type_symbol
_atom_site_label
_atom_site_fract_x
_atom_site_fract_y
_atom_site_fract_z
Si Si1 0.651001 0.679990 0.543617
Si Si2 0.047092 0.169749 0.913498
Si Si3 0.696832 0.173330 0.248538
Si Si4 0.228612 0.176631 0.247891
Si Si5 0.593724 0.174598 0.860689
Si Si6 0.849197 0.320080 0.449325
Si Si7 0.301001 0.675064 0.940029
O O1 0.500000 0.748095 0.500000
O O2 0.641917 0.500000 0.527398
O O3 0.719961 0.717377 0.657706
O O4 0.746561 0.748642 0.493230
O O5 0.928303 0.201096 0.808158
O O6 0.154594 0.302063 0.935740
O O7 0.106213 0.000000 0.911988
O O8 0.000000 0.175488 0.000000
O O9 0.544640 0.191643 0.234426
O O10 0.792631 0.281084 0.334444
O O11 0.694157 0.217699 0.144312
O O12 0.747175 0.000000 0.274540
O O13 0.294198 0.230881 0.174288
O O14 0.265218 0.000000 0.278329
O O15 0.619558 0.000000 0.897828
O O16 0.593537 0.275763 0.951547
O O17 0.856648 0.500000 0.464119
O O18 0.000000 0.252776 0.500000
O O19 0.326559 0.500000 0.921685
#
# Coordination Sequence:
#
# PCOD8065582 Si02
#       7
#     4   4   4   4   4   4   4
#     4  10  22  40  62  89 123 161 201 250 309 369
#     4  10  20  39  62  85 121 162 200 247 301 357
#     4  11  24  41  65  90 118 159 207 254 302 362
#     4  10  21  37  63  92 119 155 199 250 303 354
#     4  10  21  41  63  89 124 161 201 249 303 359
#     4  10  23  43  63  87 123 163 203 255 315 368
#     4  12  25  38  59  90 126 163 203 248 300 366
#
# _framework density 21.290977000000002
#
# number of rings (size 3 to 8) (size 9 to 14) (size 15 to 20)
#    0.000    1.571    1.429    3.000    2.000    5.429 
#    0.000    0.000    0.000    0.000    0.000    0.000 
#    0.000    0.000    0.000    0.000    0.000    0.000 
#
# Total GULP energy -347178.943597 kJ/mol
# GULP energy per Si atom -12399.247986 kJ/mol
# Density = 2.124252 g / cm^3
# Si number density = 21.290977 Si / 1000 Ang^3
#
#
#
# Elastic Constant Matrix: (Units=GPa)
#
#
# Indices 1 2 3 4 5 6 
#
# 1 95.2845 15.2482 38.6992 0.0000 11.9095 0.0000
# 2 15.2482 30.4192 4.2260 0.0000 3.0339 0.0000
# 3 38.6992 4.2260 110.2987 0.0000 15.0151 0.0000
# 4 0.0000 0.0000 0.0000 34.4855 0.0000 0.4585
# 5 11.9095 3.0339 15.0151 0.0000 35.8027 0.0000
# 6 0.0000 0.0000 0.0000 0.4585 0.0000 19.7151
#
#
#
# Elastic Compliance Matrix: (Units=1/GPa)
#
#
# Indices 1 2 3 4 5 6 
#
# 1 0.013416 -0.005924 -0.004180 0.000000 -0.002208 0.000000
# 2 -0.005924 0.035863 0.000901 0.000000 -0.001446 0.000000
# 3 -0.004180 0.000901 0.010944 0.000000 -0.003276 0.000000
# 4 0.000000 0.000000 0.000000 0.029007 0.000000 -0.000675
# 5 -0.002208 -0.001446 -0.003276 0.000000 0.030162 0.000000
# 6 0.000000 0.000000 0.000000 -0.000675 0.000000 0.050738
#
#
# Mechanical properties :
#
#
# Convention : Reuss Voigt Hill
#
# Bulk Modulus (GPa) = 23.91308 39.14990 31.53149
# Shear Modulus (GPa) = 24.69446 29.85594 27.27520
#
# Velocity S-wave (km/s) = 3.40936 3.74877 3.58308
# Velocity P-wave (km/s) = 5.17245 6.09636 5.65331
#
# Compressibility (1/GPa) = 0.04181811
#
# Stress axis : x y z
#
# Youngs Moduli (GPa) = 74.53516 27.88413 91.37273
#
# Poissons Ratio (x) = 0.16520 0.38191
# Poissons Ratio (y) = 0.44157 -0.08237
# Poissons Ratio (z) = 0.31154 -0.02514
#
# Static dielectric constant tensor:
#      x y z
#    x 4.425470 0.000000 0.257050 
#    y 0.000000 3.561280 0.000000 
#    z 0.257050 0.000000 3.806710 
# 
# 
# High freq. dielectric constant tensor:
#      x y z
#    x 1.850860 0.000000 0.008450 
#    y 0.000000 1.809180 0.000000 
#    z 0.008450 0.000000 1.838230 
# 
# From -- ./inp_files/63915.got.cif
#   From: 2010.06.25/outbox.cif.g09.slc.cpg/sg10_32_cif.got.tgz:63915.got - 2010.06.27 22:07:45.
