data_PCOD8065281
_publ_section_title
;
Structure prediction by ZEFSAII (Michael W. Deem and Ramdas Pophale) SiO2 
 PCOD8065281
Probable space group: P 2/M
;
_chemical_formula_sum "Si O2"
_cell_formula_units_Z 28
_cell_length_a 14.931535
_cell_length_b 11.473396
_cell_length_c 9.817185
_cell_angle_alpha 90.000000
_cell_angle_beta 120.348871
_cell_angle_gamma 90.000000
_cell_volume 1451.364660
_symmetry_space_group_name_H-M "P 2/M"
_symmetry_group_IT_number 10
_symmetry_cell_setting 'monoclinic'
loop_
_space_group_symop_operation_xyz
x,y,z
-x,y,-z
-x,-y,-z
x,-y,z
loop_
_atom_site_type_symbol
_atom_site_label
_atom_site_fract_x
_atom_site_fract_y
_atom_site_fract_z
Si Si1 0.246165 0.753320 0.191635
Si Si2 0.439248 0.000000 0.664510
Si Si3 0.095529 0.365518 0.875959
Si Si4 0.338169 0.000000 0.293409
Si Si5 0.575401 0.233224 0.184397
Si Si6 0.541538 0.362733 0.676252
Si Si7 0.141675 0.366089 0.347655
Si Si8 0.221077 0.633050 0.703542
O O1 0.265597 0.890574 0.204842
O O2 0.346136 0.689192 0.206932
O O3 0.223855 0.711752 0.328233
O O4 0.148203 0.720288 0.024153
O O5 0.373486 0.000000 0.476310
O O6 0.561956 0.000000 0.728177
O O7 0.407783 0.888524 0.727741
O O8 0.112097 0.500000 0.933297
O O9 0.141282 0.342282 0.762696
O O10 0.974925 0.332846 0.782143
O O11 0.534515 0.327742 0.260866
O O12 0.683051 0.279795 0.207259
O O13 0.500000 0.215580 0.000000
O O14 0.500000 0.311896 0.500000
O O15 0.549561 0.500000 0.676067
O O16 0.165298 0.500000 0.330302
O O17 0.157690 0.340710 0.518255
O O18 0.261922 0.500000 0.738697
#
# Coordination Sequence:
#
# PCOD8065281 Si02
#       8
#     4   2   4   2   4   4   4   4
#     4  12  22  37  59  87 113 148 196 245 294 339
#     4  11  23  44  60  81 112 159 207 242 280 351
#     4  10  21  38  60  88 121 153 189 239 294 347
#     4  11  24  40  65  81 111 158 202 243 291 345
#     4  12  24  38  59  88 121 154 197 245 296 347
#     4  11  22  36  57  86 121 157 191 234 291 356
#     4  10  20  37  62  88 117 154 195 236 285 350
#     4  10  21  37  58  87 122 159 192 228 285 352
#
# _framework density 19.292186999999998
#
# number of rings (size 3 to 8) (size 9 to 14) (size 15 to 20)
#    0.000    1.143    1.429    6.214    0.000    7.429 
#    0.000    1.429    0.000    0.000    0.000    4.000 
#    0.000    0.000    0.000    0.000    0.000    0.000 
#
# Total GULP energy -347384.330605 kJ/mol
# GULP energy per Si atom -12406.583236 kJ/mol
# Density = 1.924828 g / cm^3
# Si number density = 19.292187 Si / 1000 Ang^3
#
#
#
# Elastic Constant Matrix: (Units=GPa)
#
#
# Indices 1 2 3 4 5 6 
#
# 1 63.6078 34.0240 0.7533 0.0000 1.9408 0.0000
# 2 34.0240 105.4017 30.3844 0.0000 5.5346 0.0000
# 3 0.7533 30.3844 74.3406 0.0000 2.1503 0.0000
# 4 0.0000 0.0000 0.0000 13.7588 0.0000 0.5817
# 5 1.9408 5.5346 2.1503 0.0000 36.4516 0.0000
# 6 0.0000 0.0000 0.0000 0.5817 0.0000 9.0556
#
#
#
# Elastic Compliance Matrix: (Units=1/GPa)
#
#
# Indices 1 2 3 4 5 6 
#
# 1 0.019465 -0.007052 0.002689 0.000000 -0.000124 0.000000
# 2 -0.007052 0.013379 -0.005358 0.000000 -0.001340 0.000000
# 3 0.002689 -0.005358 0.015622 0.000000 -0.000251 0.000000
# 4 0.000000 0.000000 0.000000 0.072879 0.000000 -0.004682
# 5 -0.000124 -0.001340 -0.000251 0.000000 0.027659 0.000000
# 6 0.000000 0.000000 0.000000 -0.004682 0.000000 0.110730
#
#
# Mechanical properties :
#
#
# Convention : Reuss Voigt Hill
#
# Bulk Modulus (GPa) = 34.45534 41.51927 37.98731
# Shear Modulus (GPa) = 17.31002 23.73242 20.52122
#
# Velocity S-wave (km/s) = 2.99867 3.51116 3.26499
# Velocity P-wave (km/s) = 5.46698 6.16488 5.82639
#
# Compressibility (1/GPa) = 0.02902308
#
# Stress axis : x y z
#
# Youngs Moduli (GPa) = 51.37314 74.74499 64.01424
#
# Poissons Ratio (x) = 0.52710 -0.17211
# Poissons Ratio (y) = 0.36228 0.34299
# Poissons Ratio (z) = -0.13812 0.40048
#
# Static dielectric constant tensor:
#      x y z
#    x 3.586860 0.000000 -0.077980 
#    y 0.000000 3.432710 0.000000 
#    z -0.077980 0.000000 3.639540 
# 
# 
# High freq. dielectric constant tensor:
#      x y z
#    x 1.758600 0.000000 -0.006590 
#    y 0.000000 1.735470 0.000000 
#    z -0.006590 0.000000 1.763390 
# 
# From -- ./inp_files/28526.got.cif
#   From: 2010.06.25/outbox.cif.g09.slc.cpg/sg10_15_cif.got.tgz:28526.got - 2010.06.27 22:07:45.
