data_PCOD8065070
_publ_section_title
;
Structure prediction by ZEFSAII (Michael W. Deem and Ramdas Pophale) SiO2 
 PCOD8065070
Probable space group: P 2/M
;
_chemical_formula_sum "Si O2"
_cell_formula_units_Z 24
_cell_length_a 14.453392
_cell_length_b 8.857901
_cell_length_c 9.887047
_cell_angle_alpha 90.000000
_cell_angle_beta 100.004333
_cell_angle_gamma 90.000000
_cell_volume 1246.559087
_symmetry_space_group_name_H-M "P 2/M"
_symmetry_group_IT_number 10
_symmetry_cell_setting 'monoclinic'
loop_
_space_group_symop_operation_xyz
x,y,z
-x,y,-z
-x,-y,-z
x,-y,z
loop_
_atom_site_type_symbol
_atom_site_label
_atom_site_fract_x
_atom_site_fract_y
_atom_site_fract_z
Si Si1 0.527455 0.179053 0.654866
Si Si2 0.919395 0.678511 0.317435
Si Si3 0.735455 0.822302 0.770269
Si Si4 0.769486 0.676715 0.056943
Si Si5 0.574813 0.322418 0.131050
Si Si6 0.885618 0.821117 0.586707
O O1 0.500000 0.238817 0.500000
O O2 0.630474 0.242088 0.720963
O O3 0.448847 0.240500 0.735673
O O4 0.526897 0.000000 0.659137
O O5 0.929683 0.500000 0.340803
O O6 0.858992 0.718613 0.170283
O O7 0.868256 0.747936 0.435724
O O8 0.020787 0.753091 0.322154
O O9 0.797832 0.776092 0.657376
O O10 0.733143 0.000000 0.787775
O O11 0.782045 0.754010 0.915680
O O12 0.760685 0.500000 0.029396
O O13 0.676216 0.735732 0.108551
O O14 0.573066 0.500000 0.156372
O O15 0.500000 0.272482 0.000000
O O16 0.897312 0.000000 0.574544
#
# Coordination Sequence:
#
# PCOD8065070 Si02
#       6
#     4   4   4   4   4   4
#     4  10  22  38  56  82 114 147 185 227 273 326
#     4  10  21  38  59  84 111 143 185 227 275 332
#     4  10  22  38  56  82 113 146 185 227 274 328
#     4  10  22  38  57  83 113 146 185 228 274 326
#     4  10  20  37  58  81 112 147 184 226 271 324
#     4  10  21  38  59  83 113 145 182 228 276 327
#
# _framework density 19.252998000000002
#
# number of rings (size 3 to 8) (size 9 to 14) (size 15 to 20)
#    0.000    2.000    1.667    2.000    2.333    4.667 
#    0.000    3.333    0.000    0.000    0.000    0.000 
#    0.000    0.000    0.000    0.000    0.000    0.000 
#
# Total GULP energy -297687.355796 kJ/mol
# GULP energy per Si atom -12403.639825 kJ/mol
# Density = 1.920918 g / cm^3
# Si number density = 19.252998 Si / 1000 Ang^3
#
#
#
# Elastic Constant Matrix: (Units=GPa)
#
#
# Indices 1 2 3 4 5 6 
#
# 1 61.0628 22.3131 25.5001 0.0000 -2.9926 0.0000
# 2 22.3131 45.0615 33.5622 0.0000 -1.4980 0.0000
# 3 25.5001 33.5622 113.5351 0.0000 5.1828 0.0000
# 4 0.0000 0.0000 0.0000 43.9004 0.0000 -11.3056
# 5 -2.9926 -1.4980 5.1828 0.0000 34.7615 0.0000
# 6 0.0000 0.0000 0.0000 -11.3056 0.0000 31.3963
#
#
#
# Elastic Compliance Matrix: (Units=1/GPa)
#
#
# Indices 1 2 3 4 5 6 
#
# 1 0.020458 -0.008453 -0.002175 0.000000 0.001721 0.000000
# 2 -0.008453 0.032167 -0.007693 0.000000 0.001805 0.000000
# 3 -0.002175 -0.007693 0.011673 0.000000 -0.002259 0.000000
# 4 0.000000 0.000000 0.000000 0.025107 0.000000 0.009041
# 5 0.001721 0.001805 -0.002259 0.000000 0.029330 0.000000
# 6 0.000000 0.000000 0.000000 0.009041 0.000000 0.035106
#
#
# Mechanical properties :
#
#
# Convention : Reuss Voigt Hill
#
# Bulk Modulus (GPa) = 36.15661 42.49002 39.32332
# Shear Modulus (GPa) = 25.03713 31.23059 28.13386
#
# Velocity S-wave (km/s) = 3.61006 4.03192 3.82681
# Velocity P-wave (km/s) = 6.01641 6.61758 6.32414
#
# Compressibility (1/GPa) = 0.02765746
#
# Stress axis : x y z
#
# Youngs Moduli (GPa) = 48.88061 31.08731 85.66435
#
# Poissons Ratio (x) = 0.26279 0.18628
# Poissons Ratio (y) = 0.41320 0.65900
# Poissons Ratio (z) = 0.10629 0.23915
#
# Static dielectric constant tensor:
#      x y z
#    x 3.656470 0.000000 0.033490 
#    y 0.000000 3.396890 0.000000 
#    z 0.033490 0.000000 3.550120 
# 
# 
# High freq. dielectric constant tensor:
#      x y z
#    x 1.755220 0.000000 -0.000320 
#    y 0.000000 1.743010 0.000000 
#    z -0.000320 0.000000 1.757100 
# 
# From -- ./inp_files/27230.got.cif
#   From: 2010.06.25/outbox.cif.g09.slc.cpg/sg10_14_cif.got.tgz:27230.got - 2010.06.27 22:07:45.
