data_PCOD8065139
_publ_section_title
;
Structure prediction by ZEFSAII (Michael W. Deem and Ramdas Pophale) SiO2 
 PCOD8065139
Probable space group: P 2/M
;
_chemical_formula_sum "Si O2"
_cell_formula_units_Z 28
_cell_length_a 9.217150
_cell_length_b 8.786989
_cell_length_c 29.139321
_cell_angle_alpha 90.000000
_cell_angle_beta 37.910180
_cell_angle_gamma 90.000000
_cell_volume 1450.057820
_symmetry_space_group_name_H-M "P 2/M"
_symmetry_group_IT_number 10
_symmetry_cell_setting 'monoclinic'
loop_
_space_group_symop_operation_xyz
x,y,z
-x,y,-z
-x,-y,-z
x,-y,z
loop_
_atom_site_type_symbol
_atom_site_label
_atom_site_fract_x
_atom_site_fract_y
_atom_site_fract_z
Si Si1 0.641367 0.180149 0.274677
Si Si2 0.266394 0.677810 0.428671
Si Si3 0.018555 0.823363 0.731271
Si Si4 0.552379 0.176108 0.435086
Si Si5 0.202570 0.677430 0.857390
Si Si6 0.341935 0.675880 0.995601
Si Si7 0.507131 0.179432 0.134677
O O1 0.387315 0.234786 0.356207
O O2 0.844223 0.245315 0.258536
O O3 0.674160 0.239423 0.215501
O O4 0.643287 0.000000 0.273893
O O5 0.280846 0.500000 0.414794
O O6 0.391393 0.715138 0.445217
O O7 0.000000 0.735480 0.500000
O O8 0.172798 0.794320 0.646750
O O9 0.757296 0.753631 0.790423
O O10 0.983845 0.000000 0.749654
O O11 0.500000 0.221810 0.500000
O O12 0.488557 0.000000 0.441090
O O13 0.251707 0.500000 0.840651
O O14 0.311172 0.736376 0.877576
O O15 0.926472 0.715025 0.925174
O O16 0.370008 0.500000 0.973705
O O17 0.423941 0.785035 0.934535
O O18 0.500000 0.714785 0.000000
O O19 0.523245 0.000000 0.139736
#
# Coordination Sequence:
#
# PCOD8065139 Si02
#       7
#     4   4   4   4   4   4   4
#     4  10  20  37  60  82 106 140 185 229 270 322
#     4  10  21  36  54  80 114 147 181 223 272 326
#     4   8  17  34  54  79 108 138 178 228 275 320
#     4   9  18  34  56  80 107 142 186 231 273 320
#     4  11  23  38  56  81 114 145 177 223 276 327
#     4  10  22  40  60  81 108 145 185 224 271 326
#     4  11  22  36  56  82 113 146 182 226 273 322
#
# _framework density 19.309576
#
# number of rings (size 3 to 8) (size 9 to 14) (size 15 to 20)
#    0.000    2.143    0.000    3.857    0.000    5.714 
#    0.000    7.857    0.000    0.000    0.000    0.000 
#    0.000    0.000    0.000    0.000    0.000    0.000 
#
# Total GULP energy -347241.586016 kJ/mol
# GULP energy per Si atom -12401.485215 kJ/mol
# Density = 1.926563 g / cm^3
# Si number density = 19.309576 Si / 1000 Ang^3
#
#
#
# Elastic Constant Matrix: (Units=GPa)
#
#
# Indices 1 2 3 4 5 6 
#
# 1 101.2821 24.6248 64.3127 0.0000 -12.1871 0.0000
# 2 24.6248 51.2211 42.7331 0.0000 -11.2380 0.0000
# 3 64.3127 42.7331 136.6549 0.0000 -2.1757 0.0000
# 4 0.0000 0.0000 0.0000 31.1807 0.0000 3.8083
# 5 -12.1871 -11.2380 -2.1757 0.0000 36.7743 0.0000
# 6 0.0000 0.0000 0.0000 3.8083 0.0000 28.6470
#
#
#
# Elastic Compliance Matrix: (Units=1/GPa)
#
#
# Indices 1 2 3 4 5 6 
#
# 1 0.014799 -0.000555 -0.006722 0.000000 0.004337 0.000000
# 2 -0.000555 0.028736 -0.008596 0.000000 0.008089 0.000000
# 3 -0.006722 -0.008596 0.013104 0.000000 -0.004079 0.000000
# 4 0.000000 0.000000 0.000000 0.032600 0.000000 -0.004334
# 5 0.004337 0.008089 -0.004079 0.000000 0.030861 0.000000
# 6 0.000000 0.000000 0.000000 -0.004334 0.000000 0.035484
#
#
# Mechanical properties :
#
#
# Convention : Reuss Voigt Hill
#
# Bulk Modulus (GPa) = 40.17143 61.38880 50.78012
# Shear Modulus (GPa) = 25.55868 29.81957 27.68912
#
# Velocity S-wave (km/s) = 3.64212 3.93401 3.79087
# Velocity P-wave (km/s) = 6.20772 7.24542 6.74655
#
# Compressibility (1/GPa) = 0.02489331
#
# Stress axis : x y z
#
# Youngs Moduli (GPa) = 67.57430 34.79897 76.31056
#
# Poissons Ratio (x) = 0.01931 0.51295
# Poissons Ratio (y) = 0.03750 0.65598
# Poissons Ratio (z) = 0.45423 0.29914
#
# Static dielectric constant tensor:
#      x y z
#    x 3.605600 0.000000 -0.159260 
#    y 0.000000 3.373820 0.000000 
#    z -0.159260 0.000000 3.708990 
# 
# 
# High freq. dielectric constant tensor:
#      x y z
#    x 1.749720 0.000000 -0.002910 
#    y 0.000000 1.741450 0.000000 
#    z -0.002910 0.000000 1.766380 
# 
# From -- ./inp_files/91969.got.cif
#   From: 2010.06.25/outbox.cif.g09.slc.cpg/sg10_46_cif.got.tgz:91969.got - 2010.06.27 22:07:45.
