data_PCOD8065873
_publ_section_title
;
Structure prediction by ZEFSAII (Michael W. Deem and Ramdas Pophale) SiO2 
 PCOD8065873
Probable space group: P 2/M
;
_chemical_formula_sum "Si O2"
_cell_formula_units_Z 32
_cell_length_a 19.927686
_cell_length_b 8.954046
_cell_length_c 24.843392
_cell_angle_alpha 90.000000
_cell_angle_beta 156.574242
_cell_angle_gamma 90.000000
_cell_volume 1762.342218
_symmetry_space_group_name_H-M "P 2/M"
_symmetry_group_IT_number 10
_symmetry_cell_setting 'monoclinic'
loop_
_space_group_symop_operation_xyz
x,y,z
-x,y,-z
-x,-y,-z
x,-y,z
loop_
_atom_site_type_symbol
_atom_site_label
_atom_site_fract_x
_atom_site_fract_y
_atom_site_fract_z
Si Si1 0.460433 0.323581 0.164160
Si Si2 0.258243 0.823570 0.178983
Si Si3 0.590599 0.177578 0.366684
Si Si4 0.229178 0.172405 0.811050
Si Si5 0.042740 0.823457 0.116706
Si Si6 0.462423 0.827390 0.885870
Si Si7 0.924024 0.324594 0.130898
Si Si8 0.936945 0.324424 0.651275
O O1 0.473533 0.500000 0.181377
O O2 0.556807 0.243069 0.283161
O O3 0.553830 0.276848 0.178045
O O4 0.266759 0.267775 0.019113
O O5 0.444219 0.767322 0.300147
O O6 0.205379 0.773361 0.200563
O O7 0.246852 0.000000 0.167992
O O8 0.124140 0.762820 0.036669
O O9 0.762474 0.239213 0.516867
O O10 0.597608 0.000000 0.367639
O O11 0.297987 0.200706 0.801607
O O12 0.065032 0.274465 0.698625
O O13 0.178934 0.000000 0.781606
O O14 0.371571 0.218438 0.958744
O O15 0.050807 0.748101 0.180998
O O16 0.038706 0.000000 0.121882
O O17 0.472666 0.000000 0.875904
O O18 0.934490 0.500000 0.132056
O O19 0.983634 0.274527 0.233576
O O20 0.905433 0.500000 0.624030
#
# Coordination Sequence:
#
# PCOD8065873 Si02
#       8
#     4   4   4   4   4   4   4   4
#     4  11  21  35  55  83 114 145 182 225 271 325
#     4   8  16  31  53  81 109 136 175 227 278 321
#     4  11  22  38  58  81 109 146 185 227 277 329
#     4   9  18  34  56  83 112 143 181 226 273 321
#     4   9  16  31  56  82 106 136 178 230 275 317
#     4   9  18  33  56  85 113 140 179 229 274 318
#     4  10  21  35  52  80 114 144 181 223 267 321
#     4  11  23  39  55  78 114 152 184 222 270 329
#
# _framework density 18.157654000000001
#
# number of rings (size 3 to 8) (size 9 to 14) (size 15 to 20)
#    0.000    2.250    2.500    2.625    0.000    2.000 
#    0.000    5.000    0.000    7.500    0.000    0.000 
#    0.000    0.000    0.000    0.000    0.000    0.000 
#
# Total GULP energy -396793.553699 kJ/mol
# GULP energy per Si atom -12399.798553 kJ/mol
# Density = 1.811633 g / cm^3
# Si number density = 18.157654 Si / 1000 Ang^3
#
#
#
# Elastic Constant Matrix: (Units=GPa)
#
#
# Indices 1 2 3 4 5 6 
#
# 1 123.6120 40.0591 39.2590 0.0000 13.7901 0.0000
# 2 40.0591 52.5783 31.8432 0.0000 2.1733 0.0000
# 3 39.2590 31.8432 77.1451 0.0000 11.7444 0.0000
# 4 0.0000 0.0000 0.0000 22.6332 0.0000 -4.2124
# 5 13.7901 2.1733 11.7444 0.0000 26.7818 0.0000
# 6 0.0000 0.0000 0.0000 -4.2124 0.0000 22.7875
#
#
#
# Elastic Compliance Matrix: (Units=1/GPa)
#
#
# Indices 1 2 3 4 5 6 
#
# 1 0.011680 -0.007366 -0.002227 0.000000 -0.004439 0.000000
# 2 -0.007366 0.030190 -0.009555 0.000000 0.005533 0.000000
# 3 -0.002227 -0.009555 0.019017 0.000000 -0.006417 0.000000
# 4 0.000000 0.000000 0.000000 0.045757 0.000000 0.008459
# 5 -0.004439 0.005533 -0.006417 0.000000 0.041990 0.000000
# 6 0.000000 0.000000 0.000000 0.008459 0.000000 0.045447
#
#
# Mechanical properties :
#
#
# Convention : Reuss Voigt Hill
#
# Bulk Modulus (GPa) = 44.26918 52.85090 48.56004
# Shear Modulus (GPa) = 20.84133 23.91877 22.38005
#
# Velocity S-wave (km/s) = 3.39159 3.63338 3.51457
# Velocity P-wave (km/s) = 6.30639 6.83899 6.57808
#
# Compressibility (1/GPa) = 0.02258908
#
# Stress axis : x y z
#
# Youngs Moduli (GPa) = 85.61871 33.12378 52.58429
#
# Poissons Ratio (x) = 0.24400 0.11712
# Poissons Ratio (y) = 0.63069 0.50245
# Poissons Ratio (z) = 0.19070 0.31650
#
# Static dielectric constant tensor:
#      x y z
#    x 3.547650 0.000000 0.164820 
#    y 0.000000 3.154940 0.000000 
#    z 0.164820 0.000000 3.212490 
# 
# 
# High freq. dielectric constant tensor:
#      x y z
#    x 1.716830 0.000000 0.010600 
#    y 0.000000 1.691930 0.000000 
#    z 0.010600 0.000000 1.678610 
# 
# From -- ./inp_files/93755.got.cif
#   From: 2010.06.25/outbox.cif.g09.slc.cpg/sg10_47_cif.got.tgz:93755.got - 2010.06.27 22:07:45.
