data_PCOD8065597
_publ_section_title
;
Structure prediction by ZEFSAII (Michael W. Deem and Ramdas Pophale) SiO2 
 PCOD8065597
Probable space group: P 2/M
;
_chemical_formula_sum "Si O2"
_cell_formula_units_Z 28
_cell_length_a 15.075666
_cell_length_b 9.036191
_cell_length_c 21.973856
_cell_angle_alpha 90.000000
_cell_angle_beta 27.159134
_cell_angle_gamma 90.000000
_cell_volume 1366.388444
_symmetry_space_group_name_H-M "P 2/M"
_symmetry_group_IT_number 10
_symmetry_cell_setting 'monoclinic'
loop_
_space_group_symop_operation_xyz
x,y,z
-x,y,-z
-x,-y,-z
x,-y,z
loop_
_atom_site_type_symbol
_atom_site_label
_atom_site_fract_x
_atom_site_fract_y
_atom_site_fract_z
Si Si1 0.703851 0.324583 0.343826
Si Si2 0.432624 0.834294 0.303741
Si Si3 0.966619 0.834162 0.400211
Si Si4 0.544314 0.837830 0.043239
Si Si5 0.982088 0.827721 0.766017
Si Si6 0.800126 0.824665 0.155422
Si Si7 0.263606 0.328960 0.293579
O O1 0.500000 0.274519 0.500000
O O2 0.706850 0.500000 0.333253
O O3 0.751389 0.252264 0.249360
O O4 0.873325 0.275096 0.285353
O O5 0.266356 0.831679 0.456446
O O6 0.631312 0.776654 0.211883
O O7 0.362875 0.728100 0.293626
O O8 0.461691 0.000000 0.260190
O O9 0.025731 0.769867 0.298710
O O10 0.056271 0.742723 0.402068
O O11 0.049048 0.000000 0.356815
O O12 0.414813 0.706597 0.148158
O O13 0.489526 0.000000 0.104024
O O14 0.500000 0.842285 0.000000
O O15 0.767653 0.806014 0.923834
O O16 0.048001 0.000000 0.728554
O O17 0.802562 0.000000 0.166091
O O18 0.000000 0.773706 0.000000
O O19 0.224222 0.500000 0.324354
#
# Coordination Sequence:
#
# PCOD8065597 Si02
#       7
#     4   4   4   4   4   4   4
#     4  11  25  43  64  94 133 171 205 252 318 384
#     4  10  22  40  64  88 118 158 205 257 302 355
#     4  10  20  39  63  89 119 159 206 251 300 353
#     4  10  20  39  63  86 117 157 202 250 299 356
#     4  10  21  38  66  94 118 155 205 257 302 352
#     4  10  23  44  69  96 122 158 215 273 318 366
#     4  12  25  37  56  88 127 163 198 243 300 368
#
# _framework density 20.491976000000001
#
# number of rings (size 3 to 8) (size 9 to 14) (size 15 to 20)
#    0.000    1.571    1.429    3.000    2.000    6.857 
#    0.000    0.000    0.000    0.000    0.000    0.000 
#    0.000    0.000    0.000    0.000    0.000    0.000 
#
# Total GULP energy -347114.928820 kJ/mol
# GULP energy per Si atom -12396.961744 kJ/mol
# Density = 2.044533 g / cm^3
# Si number density = 20.491976 Si / 1000 Ang^3
#
#
#
# Elastic Constant Matrix: (Units=GPa)
#
#
# Indices 1 2 3 4 5 6 
#
# 1 136.9940 55.0826 55.2069 0.0000 -14.0272 0.0000
# 2 55.0826 83.7903 29.9750 0.0000 -2.3784 0.0000
# 3 55.2069 29.9750 113.3600 0.0000 -15.7820 0.0000
# 4 0.0000 0.0000 0.0000 27.3017 0.0000 18.3670
# 5 -14.0272 -2.3784 -15.7820 0.0000 40.3545 0.0000
# 6 0.0000 0.0000 0.0000 18.3670 0.0000 80.2680
#
#
#
# Elastic Compliance Matrix: (Units=1/GPa)
#
#
# Indices 1 2 3 4 5 6 
#
# 1 0.011480 -0.006178 -0.003651 0.000000 0.002198 0.000000
# 2 -0.006178 0.016521 -0.001611 0.000000 -0.001804 0.000000
# 3 -0.003651 -0.001611 0.011460 0.000000 0.003118 0.000000
# 4 0.000000 0.000000 0.000000 0.043292 0.000000 -0.009906
# 5 0.002198 -0.001804 0.003118 0.000000 0.026657 0.000000
# 6 0.000000 0.000000 0.000000 -0.009906 0.000000 0.014725
#
#
# Mechanical properties :
#
#
# Convention : Reuss Voigt Hill
#
# Bulk Modulus (GPa) = 60.31263 68.29703 64.30483
# Shear Modulus (GPa) = 32.77761 42.51016 37.64389
#
# Velocity S-wave (km/s) = 4.00376 4.55959 4.29068
# Velocity P-wave (km/s) = 7.13229 7.81798 7.48299
#
# Compressibility (1/GPa) = 0.01658028
#
# Stress axis : x y z
#
# Youngs Moduli (GPa) = 87.10578 60.52824 87.26345
#
# Poissons Ratio (x) = 0.37397 0.31861
# Poissons Ratio (y) = 0.53818 0.14056
# Poissons Ratio (z) = 0.31804 0.09750
#
# Static dielectric constant tensor:
#      x y z
#    x 3.750290 0.000000 -0.082020 
#    y 0.000000 3.578850 0.000000 
#    z -0.082020 0.000000 4.182520 
# 
# 
# High freq. dielectric constant tensor:
#      x y z
#    x 1.808370 0.000000 -0.005560 
#    y 0.000000 1.779050 0.000000 
#    z -0.005560 0.000000 1.818570 
# 
# From -- ./inp_files/63625.got.cif
#   From: 2010.06.25/outbox.cif.g09.slc.cpg/sg10_32_cif.got.tgz:63625.got - 2010.06.27 22:07:45.
