data_PCOD8065135
_publ_section_title
;
Structure prediction by ZEFSAII (Michael W. Deem and Ramdas Pophale) SiO2 
 PCOD8065135
Probable space group: P 2/M
;
_chemical_formula_sum "Si O2"
_cell_formula_units_Z 32
_cell_length_a 12.218671
_cell_length_b 15.501146
_cell_length_c 18.237060
_cell_angle_alpha 90.000000
_cell_angle_beta 151.523677
_cell_angle_gamma 90.000000
_cell_volume 1646.928722
_symmetry_space_group_name_H-M "P 2/M"
_symmetry_group_IT_number 10
_symmetry_cell_setting 'monoclinic'
loop_
_space_group_symop_operation_xyz
x,y,z
-x,y,-z
-x,-y,-z
x,-y,z
loop_
_atom_site_type_symbol
_atom_site_label
_atom_site_fract_x
_atom_site_fract_y
_atom_site_fract_z
Si Si1 0.837274 0.842800 0.462404
Si Si2 0.884301 0.270308 0.114041
Si Si3 0.356831 0.597100 0.592095
Si Si4 0.070065 0.291040 0.693218
Si Si5 0.417949 0.903677 0.556786
Si Si6 0.404395 0.310960 0.764840
Si Si7 0.704972 0.599086 0.677186
Si Si8 0.134663 0.897564 0.254740
O O1 0.656226 0.899511 0.401648
O O2 0.697328 0.772862 0.334470
O O3 0.000000 0.895139 0.500000
O O4 0.005700 0.801744 0.621992
O O5 0.092495 0.333099 0.215546
O O6 0.925906 0.168761 0.118845
O O7 0.822673 0.280211 0.163426
O O8 0.667446 0.297901 0.939203
O O9 0.279863 0.500000 0.532310
O O10 0.383862 0.611625 0.694804
O O11 0.600307 0.616393 0.696431
O O12 0.161245 0.653756 0.438894
O O13 0.257818 0.335531 0.750539
O O14 0.239016 0.862174 0.393876
O O15 0.679900 0.873152 0.699611
O O16 0.418043 0.000000 0.527939
O O17 0.500000 0.616376 0.500000
O O18 0.795305 0.500000 0.722985
O O19 0.059307 0.000000 0.209088
#
# Coordination Sequence:
#
# PCOD8065135 Si02
#       8
#     4   4   4   4   4   4   4   4
#     4   9  18  35  54  77 111 147 186 231 277 346
#     4  12  22  36  64  84 117 161 189 242 305 334
#     4  10  21  40  62  84 117 154 191 241 294 350
#     4  10  20  37  60  81 110 150 201 239 276 340
#     4   9  17  32  55  83 107 134 189 249 284 331
#     4  10  24  37  52  88 117 148 195 236 285 354
#     4  10  22  38  59  90 116 145 200 243 279 350
#     4   9  20  34  56  88 114 144 195 247 290 347
#
# _framework density 19.430107
#
# number of rings (size 3 to 8) (size 9 to 14) (size 15 to 20)
#    0.000    2.125    2.500    2.250    5.250    2.250 
#    0.000    1.875    0.000    6.000    0.000    0.000 
#    0.000    0.000    0.000    0.000    0.000    0.000 
#
# Total GULP energy -396502.704468 kJ/mol
# GULP energy per Si atom -12390.709515 kJ/mol
# Density = 1.938588 g / cm^3
# Si number density = 19.430107 Si / 1000 Ang^3
#
#
#
# Elastic Constant Matrix: (Units=GPa)
#
#
# Indices 1 2 3 4 5 6 
#
# 1 139.4776 24.9509 12.0077 0.0000 4.5191 0.0000
# 2 24.9509 56.7386 4.3118 0.0000 6.4709 0.0000
# 3 12.0077 4.3118 46.8560 0.0000 3.0486 0.0000
# 4 0.0000 0.0000 0.0000 2.1351 0.0000 1.3733
# 5 4.5191 6.4709 3.0486 0.0000 20.0425 0.0000
# 6 0.0000 0.0000 0.0000 1.3733 0.0000 24.0187
#
#
#
# Elastic Compliance Matrix: (Units=1/GPa)
#
#
# Indices 1 2 3 4 5 6 
#
# 1 0.007921 -0.003302 -0.001696 0.000000 -0.000462 0.000000
# 2 -0.003302 0.019755 -0.000611 0.000000 -0.005541 0.000000
# 3 -0.001696 -0.000611 0.022013 0.000000 -0.002769 0.000000
# 4 0.000000 0.000000 0.000000 0.486247 0.000000 -0.027802
# 5 -0.000462 -0.005541 -0.002769 0.000000 0.052208 0.000000
# 6 0.000000 0.000000 0.000000 -0.027802 0.000000 0.043224
#
#
# Mechanical properties :
#
#
# Convention : Reuss Voigt Hill
#
# Bulk Modulus (GPa) = 25.99359 36.17922 31.08641
# Shear Modulus (GPa) = 7.62881 22.69271 15.16076
#
# Velocity S-wave (km/s) = 1.98363 3.42118 2.79636
# Velocity P-wave (km/s) = 4.31896 5.85377 5.14393
#
# Compressibility (1/GPa) = 0.03847102
#
# Stress axis : x y z
#
# Youngs Moduli (GPa) = 126.24272 50.62008 45.42770
#
# Poissons Ratio (x) = 0.16714 0.07705
# Poissons Ratio (y) = 0.41683 0.02777
# Poissons Ratio (z) = 0.21412 0.03094
#
# Static dielectric constant tensor:
#      x y z
#    x 4.009410 0.000000 0.022110 
#    y 0.000000 3.361520 0.000000 
#    z 0.022110 0.000000 3.218820 
# 
# 
# High freq. dielectric constant tensor:
#      x y z
#    x 1.780660 0.000000 0.001760 
#    y 0.000000 1.740940 0.000000 
#    z 0.001760 0.000000 1.723060 
# 
# From -- ./inp_files/77138.got.cif
#   From: 2010.06.25/outbox.cif.g09.slc.cpg/sg10_39_cif.got.tgz:77138.got - 2010.06.27 22:07:45.
