data_PCOD8065932
_publ_section_title
;
Structure prediction by ZEFSAII (Michael W. Deem and Ramdas Pophale) SiO2 
 PCOD8065932
Probable space group: P 2/M
;
_chemical_formula_sum "Si O2"
_cell_formula_units_Z 32
_cell_length_a 16.382763
_cell_length_b 9.136231
_cell_length_c 24.945532
_cell_angle_alpha 90.000000
_cell_angle_beta 153.074230
_cell_angle_gamma 90.000000
_cell_volume 1690.782383
_symmetry_space_group_name_H-M "P 2/M"
_symmetry_group_IT_number 10
_symmetry_cell_setting 'monoclinic'
loop_
_space_group_symop_operation_xyz
x,y,z
-x,y,-z
-x,-y,-z
x,-y,z
loop_
_atom_site_type_symbol
_atom_site_label
_atom_site_fract_x
_atom_site_fract_y
_atom_site_fract_z
Si Si1 0.068587 0.331020 0.324262
Si Si2 0.187406 0.167286 0.495472
Si Si3 0.310392 0.672347 0.367230
Si Si4 0.679282 0.669474 0.135331
Si Si5 0.787833 0.166859 0.301659
Si Si6 0.624373 0.672031 0.304165
Si Si7 0.850640 0.325766 0.836635
Si Si8 0.769001 0.328239 0.905626
O O1 0.106668 0.500000 0.361106
O O2 0.173312 0.230882 0.427763
O O3 0.146408 0.291037 0.311646
O O4 0.854009 0.298570 0.200500
O O5 0.330479 0.264380 0.611093
O O6 0.999315 0.179709 0.416250
O O7 0.252747 0.000000 0.530522
O O8 0.500000 0.739675 0.500000
O O9 0.336110 0.500000 0.376347
O O10 0.254897 0.740692 0.276811
O O11 0.671209 0.500000 0.147183
O O12 0.680289 0.762911 0.189737
O O13 0.500000 0.718737 0.000000
O O14 0.746244 0.252572 0.331267
O O15 0.725393 0.000000 0.271549
O O16 0.662396 0.500000 0.326069
O O17 0.414362 0.709726 0.170333
O O18 0.844026 0.500000 0.827696
O O19 0.761995 0.267721 0.840173
O O20 0.059742 0.269791 0.960174
O O21 0.793420 0.500000 0.913285
#
# Coordination Sequence:
#
# PCOD8065932 Si02
#       8
#     4   4   4   4   4   4   4   4
#     4   9  18  32  50  76 103 131 169 213 261 306
#     4  10  21  36  52  70 100 139 171 206 255 311
#     4   9  17  26  44  74 105 134 164 207 257 303
#     4   9  18  33  53  76 104 135 169 214 263 306
#     4  10  21  36  51  71 102 138 175 209 250 309
#     4  11  21  31  51  80 103 127 168 216 260 304
#     4   8  14  28  45  67 105 138 164 200 252 308
#     4   8  16  28  45  71 101 135 166 204 254 304
#
# _framework density 18.926148999999999
#
# number of rings (size 3 to 8) (size 9 to 14) (size 15 to 20)
#    0.000    2.750    0.000    2.250    1.750    4.250 
#    0.000    3.750    0.000    0.375    0.000    7.000 
#    0.000    0.000    0.000    0.000    0.000    0.000 
#
# Total GULP energy -396682.222784 kJ/mol
# GULP energy per Si atom -12396.319462 kJ/mol
# Density = 1.888307 g / cm^3
# Si number density = 18.926149 Si / 1000 Ang^3
#
#
#
# Elastic Constant Matrix: (Units=GPa)
#
#
# Indices 1 2 3 4 5 6 
#
# 1 74.9146 15.2179 34.6020 0.0000 -14.8710 0.0000
# 2 15.2179 56.2979 23.3393 0.0000 -6.0423 0.0000
# 3 34.6020 23.3393 112.3742 0.0000 -20.6443 0.0000
# 4 0.0000 0.0000 0.0000 9.3648 0.0000 2.0084
# 5 -14.8710 -6.0423 -20.6443 0.0000 23.2623 0.0000
# 6 0.0000 0.0000 0.0000 2.0084 0.0000 5.3227
#
#
#
# Elastic Compliance Matrix: (Units=1/GPa)
#
#
# Indices 1 2 3 4 5 6 
#
# 1 0.016804 -0.002380 -0.003369 0.000000 0.007134 0.000000
# 2 -0.002380 0.019833 -0.003249 0.000000 0.000747 0.000000
# 3 -0.003369 -0.003249 0.012020 0.000000 0.007669 0.000000
# 4 0.000000 0.000000 0.000000 0.116185 0.000000 -0.043839
# 5 0.007134 0.000747 0.007669 0.000000 0.054549 0.000000
# 6 0.000000 0.000000 0.000000 -0.043839 0.000000 0.204417
#
#
# Mechanical properties :
#
#
# Convention : Reuss Voigt Hill
#
# Bulk Modulus (GPa) = 32.61510 43.32278 37.96894
# Shear Modulus (GPa) = 11.06132 18.95179 15.00656
#
# Velocity S-wave (km/s) = 2.42016 3.16785 2.81890
# Velocity P-wave (km/s) = 5.00797 6.02665 5.54077
#
# Compressibility (1/GPa) = 0.03066064
#
# Stress axis : x y z
#
# Youngs Moduli (GPa) = 59.50798 50.42076 83.19362
#
# Poissons Ratio (x) = 0.11999 0.28032
# Poissons Ratio (y) = 0.14162 0.27031
# Poissons Ratio (z) = 0.20051 0.16383
#
# Static dielectric constant tensor:
#      x y z
#    x 3.459730 0.000000 0.000120 
#    y 0.000000 3.139070 0.000000 
#    z 0.000120 0.000000 3.729810 
# 
# 
# High freq. dielectric constant tensor:
#      x y z
#    x 1.734920 0.000000 0.000820 
#    y 0.000000 1.692220 0.000000 
#    z 0.000820 0.000000 1.741940 
# 
# From -- ./inp_files/89647.got.cif
#   From: 2010.06.25/outbox.cif.g09.slc.cpg/sg10_45_cif.got.tgz:89647.got - 2010.06.27 22:07:45.
