data_PCOD8065593
_publ_section_title
;
Structure prediction by ZEFSAII (Michael W. Deem and Ramdas Pophale) SiO2 
 PCOD8065593
Probable space group: P 2/M
;
_chemical_formula_sum "Si O2"
_cell_formula_units_Z 32
_cell_length_a 10.438841
_cell_length_b 19.469402
_cell_length_c 9.545609
_cell_angle_alpha 90.000000
_cell_angle_beta 47.463087
_cell_angle_gamma 90.000000
_cell_volume 1429.495752
_symmetry_space_group_name_H-M "P 2/M"
_symmetry_group_IT_number 10
_symmetry_cell_setting 'monoclinic'
loop_
_space_group_symop_operation_xyz
x,y,z
-x,y,-z
-x,-y,-z
x,-y,z
loop_
_atom_site_type_symbol
_atom_site_label
_atom_site_fract_x
_atom_site_fract_y
_atom_site_fract_z
Si Si1 0.802314 0.850872 0.125376
Si Si2 0.355007 0.854292 0.220440
Si Si3 0.807808 0.280100 0.574816
Si Si4 0.288532 0.079641 0.541183
Si Si5 0.831961 0.575289 0.217064
Si Si6 0.300338 0.280617 0.658934
Si Si7 0.173151 0.427758 0.458002
Si Si8 0.885752 0.079730 0.797488
O O1 0.676203 0.890550 0.329285
O O2 0.782810 0.768826 0.161004
O O3 0.766223 0.874601 0.993175
O O4 0.000000 0.875713 0.000000
O O5 0.316426 0.772993 0.254405
O O6 0.406248 0.880926 0.338296
O O7 0.184165 0.898242 0.303239
O O8 0.500000 0.870313 0.000000
O O9 0.804537 0.266275 0.408960
O O10 0.727748 0.357323 0.657820
O O11 0.000000 0.274532 0.500000
O O12 0.088657 0.096857 0.652669
O O13 0.334676 0.000000 0.504939
O O14 0.745548 0.500000 0.246132
O O15 0.706017 0.640204 0.282442
O O16 0.888335 0.577418 0.336381
O O17 0.000000 0.586439 0.000000
O O18 0.500000 0.260068 0.500000
O O19 0.280672 0.500000 0.355291
O O20 0.000000 0.432809 0.500000
O O21 0.851511 0.000000 0.853528
#
# Coordination Sequence:
#
# PCOD8065593 Si02
#       8
#     4   4   4   4   4   4   4   4
#     4  10  21  37  62  88 118 157 202 252 305 373
#     4  12  25  38  57  85 121 159 203 257 310 367
#     4  10  21  40  64  87 119 165 212 251 300 366
#     4  10  20  39  63  85 114 152 200 253 307 370
#     4   9  18  35  59  90 124 161 209 256 298 358
#     4  11  23  38  60  91 130 166 201 252 313 370
#     4   8  15  31  58  88 115 149 197 249 297 347
#     4  10  22  39  62  90 115 151 204 258 311 372
#
# _framework density 22.385517
#
# number of rings (size 3 to 8) (size 9 to 14) (size 15 to 20)
#    0.000    2.000    1.250    2.250    3.500    3.750 
#    2.250    0.000    0.000    2.625    0.000    0.000 
#    0.000    0.000    0.000    0.000    0.000    0.000 
#
# Total GULP energy -396512.038109 kJ/mol
# GULP energy per Si atom -12391.001191 kJ/mol
# Density = 2.233457 g / cm^3
# Si number density = 22.385517 Si / 1000 Ang^3
#
#
#
# Elastic Constant Matrix: (Units=GPa)
#
#
# Indices 1 2 3 4 5 6 
#
# 1 46.1480 10.6488 6.6833 0.0000 17.9197 0.0000
# 2 10.6488 162.3871 44.7063 0.0000 7.9190 0.0000
# 3 6.6833 44.7063 91.0972 0.0000 10.9545 0.0000
# 4 0.0000 0.0000 0.0000 35.1948 0.0000 9.1724
# 5 17.9197 7.9190 10.9545 0.0000 20.6774 0.0000
# 6 0.0000 0.0000 0.0000 9.1724 0.0000 10.6181
#
#
#
# Elastic Compliance Matrix: (Units=1/GPa)
#
#
# Indices 1 2 3 4 5 6 
#
# 1 0.032961 -0.001205 0.001658 0.000000 -0.028983 0.000000
# 2 -0.001205 0.007181 -0.003450 0.000000 0.000122 0.000000
# 3 0.001658 -0.003450 0.013418 0.000000 -0.007224 0.000000
# 4 0.000000 0.000000 0.000000 0.036669 0.000000 -0.031676
# 5 -0.028983 0.000122 -0.007224 0.000000 0.077260 0.000000
# 6 0.000000 0.000000 0.000000 -0.031676 0.000000 0.121542
#
#
# Mechanical properties :
#
#
# Convention : Reuss Voigt Hill
#
# Bulk Modulus (GPa) = 21.02327 47.07881 34.05104
# Shear Modulus (GPa) = 16.08339 29.13765 22.61052
#
# Velocity S-wave (km/s) = 2.68334 3.61172 3.18158
# Velocity P-wave (km/s) = 4.36031 6.20236 5.36104
#
# Compressibility (1/GPa) = 0.04756633
#
# Stress axis : x y z
#
# Youngs Moduli (GPa) = 30.33848 139.25427 74.52886
#
# Poissons Ratio (x) = 0.16775 -0.12358
# Poissons Ratio (y) = 0.03655 0.25716
# Poissons Ratio (z) = -0.05031 0.48049
#
# Static dielectric constant tensor:
#      x y z
#    x 3.882880 0.000000 0.324810 
#    y 0.000000 4.651400 0.000000 
#    z 0.324810 0.000000 3.890290 
# 
# 
# High freq. dielectric constant tensor:
#      x y z
#    x 1.868690 0.000000 0.023570 
#    y 0.000000 1.904780 0.000000 
#    z 0.023570 0.000000 1.862610 
# 
# From -- ./inp_files/26066.got.cif
#   From: 2010.06.25/outbox.cif.g09.slc.cpg/sg10_14_cif.got.tgz:26066.got - 2010.06.27 22:07:45.
