data_PCOD8065648
_publ_section_title
;
Structure prediction by ZEFSAII (Michael W. Deem and Ramdas Pophale) SiO2 
 PCOD8065648
Probable space group: P 2/M
;
_chemical_formula_sum "Si O2"
_cell_formula_units_Z 32
_cell_length_a 29.448747
_cell_length_b 8.955945
_cell_length_c 23.219424
_cell_angle_alpha 90.000000
_cell_angle_beta 164.293783
_cell_angle_gamma 90.000000
_cell_volume 1657.775829
_symmetry_space_group_name_H-M "P 2/M"
_symmetry_group_IT_number 10
_symmetry_cell_setting 'monoclinic'
loop_
_space_group_symop_operation_xyz
x,y,z
-x,y,-z
-x,-y,-z
x,-y,z
loop_
_atom_site_type_symbol
_atom_site_label
_atom_site_fract_x
_atom_site_fract_y
_atom_site_fract_z
Si Si1 0.748284 0.677470 0.662301
Si Si2 0.395769 0.677989 0.185306
Si Si3 0.806475 0.329654 0.275741
Si Si4 0.418256 0.175443 0.092309
Si Si5 0.910549 0.677360 0.975208
Si Si6 0.304080 0.832497 0.750775
Si Si7 0.109075 0.677035 0.921355
Si Si8 0.770433 0.174326 0.469630
O O1 0.739286 0.500000 0.650612
O O2 0.572778 0.742414 0.424827
O O3 0.781539 0.734026 0.768485
O O4 0.900623 0.735173 0.808018
O O5 0.395861 0.500000 0.182039
O O6 0.358554 0.741726 0.076904
O O7 0.251159 0.737824 0.051630
O O8 0.748364 0.500000 0.196077
O O9 0.784169 0.282748 0.314556
O O10 0.000000 0.307920 0.500000
O O11 0.698284 0.224507 0.102564
O O12 0.610584 0.217182 0.313483
O O13 0.395671 0.000000 0.073047
O O14 0.914913 0.500000 0.979153
O O15 0.851411 0.735323 0.965550
O O16 0.266900 0.777911 0.641118
O O17 0.234361 0.000000 0.676029
O O18 0.500000 0.829878 0.000000
O O19 0.107113 0.500000 0.917643
O O20 0.927001 0.732191 0.681835
O O21 0.810866 0.000000 0.523744
#
# Coordination Sequence:
#
# PCOD8065648 Si02
#       8
#     4   4   4   4   4   4   4   4
#     4   8  14  27  50  77 109 145 184 227 270 321
#     4  10  21  35  52  81 117 148 181 228 278 327
#     4  11  25  41  59  87 118 144 177 226 279 332
#     4  11  23  41  61  80 106 147 191 228 272 330
#     4   8  14  27  49  78 107 144 188 225 268 324
#     4  10  20  40  63  84 110 142 187 232 272 328
#     4  10  21  34  52  81 116 148 182 225 277 331
#     4  10  22  39  59  81 107 142 187 233 273 322
#
# _framework density 19.302972
#
# number of rings (size 3 to 8) (size 9 to 14) (size 15 to 20)
#    0.000    2.250    1.250    2.250    1.750    4.750 
#    0.000    2.500    0.000    0.750    0.000    5.250 
#    0.000    0.000    0.000    0.000    0.000    0.000 
#
# Total GULP energy -396787.329338 kJ/mol
# GULP energy per Si atom -12399.604042 kJ/mol
# Density = 1.925904 g / cm^3
# Si number density = 19.302972 Si / 1000 Ang^3
#
#
#
# Elastic Constant Matrix: (Units=GPa)
#
#
# Indices 1 2 3 4 5 6 
#
# 1 152.2019 28.2770 30.9995 0.0000 2.5892 0.0000
# 2 28.2770 27.4943 22.1677 0.0000 7.3415 0.0000
# 3 30.9995 22.1677 54.7884 0.0000 2.5888 0.0000
# 4 0.0000 0.0000 0.0000 20.0395 0.0000 3.9041
# 5 2.5892 7.3415 2.5888 0.0000 29.4870 0.0000
# 6 0.0000 0.0000 0.0000 3.9041 0.0000 16.7175
#
#
#
# Elastic Compliance Matrix: (Units=1/GPa)
#
#
# Indices 1 2 3 4 5 6 
#
# 1 0.008289 -0.007477 -0.001725 0.000000 0.001285 0.000000
# 2 -0.007477 0.064965 -0.021410 0.000000 -0.013638 0.000000
# 3 -0.001725 -0.021410 0.027747 0.000000 0.003046 0.000000
# 4 0.000000 0.000000 0.000000 0.052280 0.000000 -0.012209
# 5 0.001285 -0.013638 0.003046 0.000000 0.036928 0.000000
# 6 0.000000 0.000000 0.000000 -0.012209 0.000000 0.062669
#
#
# Mechanical properties :
#
#
# Convention : Reuss Voigt Hill
#
# Bulk Modulus (GPa) = 25.14099 44.15254 34.64677
# Shear Modulus (GPa) = 15.27360 23.45151 19.36255
#
# Velocity S-wave (km/s) = 2.81598 3.48935 3.17059
# Velocity P-wave (km/s) = 4.86063 6.25757 5.60280
#
# Compressibility (1/GPa) = 0.03977569
#
# Stress axis : x y z
#
# Youngs Moduli (GPa) = 120.64361 15.39291 36.03973
#
# Poissons Ratio (x) = 0.11509 0.06218
# Poissons Ratio (y) = 0.90203 0.77162
# Poissons Ratio (z) = 0.20816 0.32957
#
# Static dielectric constant tensor:
#      x y z
#    x 4.056870 0.000000 -0.080820 
#    y 0.000000 3.202310 0.000000 
#    z -0.080820 0.000000 3.611330 
# 
# 
# High freq. dielectric constant tensor:
#      x y z
#    x 1.767040 0.000000 -0.005080 
#    y 0.000000 1.715990 0.000000 
#    z -0.005080 0.000000 1.755120 
# 
# From -- ./inp_files/86988.got.cif
#   From: 2010.06.25/outbox.cif.g09.slc.cpg/sg10_44_cif.got.tgz:86988.got - 2010.06.27 22:07:45.
