data_PCOD8065763
_publ_section_title
;
Structure prediction by ZEFSAII (Michael W. Deem and Ramdas Pophale) SiO2 
 PCOD8065763
Probable space group: P 2/M
;
_chemical_formula_sum "Si O2"
_cell_formula_units_Z 32
_cell_length_a 27.296046
_cell_length_b 13.502682
_cell_length_c 9.533606
_cell_angle_alpha 90.000000
_cell_angle_beta 152.896222
_cell_angle_gamma 90.000000
_cell_volume 1600.899737
_symmetry_space_group_name_H-M "P 2/M"
_symmetry_group_IT_number 10
_symmetry_cell_setting 'monoclinic'
loop_
_space_group_symop_operation_xyz
x,y,z
-x,y,-z
-x,-y,-z
x,-y,z
loop_
_atom_site_type_symbol
_atom_site_label
_atom_site_fract_x
_atom_site_fract_y
_atom_site_fract_z
Si Si1 0.505354 0.884767 0.679927
Si Si2 0.976636 0.615714 0.283527
Si Si3 0.301148 0.769399 0.265779
Si Si4 0.272833 0.383819 0.410008
Si Si5 0.826957 0.272286 0.330103
Si Si6 0.812071 0.111853 0.788167
Si Si7 0.702341 0.753265 0.283822
Si Si8 0.034418 0.890355 0.234282
O O1 0.500000 0.877447 0.500000
O O2 0.397442 0.841788 0.471900
O O3 0.521086 0.000000 0.766248
O O4 0.598020 0.813266 0.971113
O O5 0.997466 0.500000 0.330393
O O6 0.000000 0.655698 0.500000
O O7 0.063604 0.663456 0.399782
O O8 0.855275 0.641533 0.926652
O O9 0.335856 0.673910 0.446603
O O10 0.219328 0.835395 0.147678
O O11 0.247223 0.718459 0.994106
O O12 0.295708 0.500000 0.455445
O O13 0.322106 0.341477 0.679867
O O14 0.760677 0.298340 0.300532
O O15 0.861081 0.158265 0.431515
O O16 0.772685 0.168180 0.549032
O O17 0.766398 0.000000 0.669141
O O18 0.940847 0.111958 0.111435
O O19 0.072550 0.000000 0.292989
O O20 0.000000 0.837557 0.000000
#
# Coordination Sequence:
#
# PCOD8065763 Si02
#       8
#     4   4   4   4   4   4   4   4
#     4  11  24  43  66  94 125 161 211 266 319 376
#     4  10  21  38  63  93 125 164 204 247 306 375
#     4  11  23  40  63  90 121 160 209 265 316 367
#     4  10  23  43  66  94 129 164 204 256 316 380
#     4  12  22  35  61  89 122 161 205 253 310 363
#     4  10  21  37  55  84 122 159 202 250 304 374
#     4  11  23  40  63  89 122 163 209 260 315 371
#     4  10  21  34  52  81 121 165 203 240 298 378
#
# _framework density 19.988759000000002
#
# number of rings (size 3 to 8) (size 9 to 14) (size 15 to 20)
#    0.000    1.375    3.750    2.250    0.000    4.000 
#    0.000    6.875    0.000    0.750    0.000    0.000 
#    0.000    0.000    0.000    0.000    0.000    0.000 
#
# Total GULP energy -396693.074826 kJ/mol
# GULP energy per Si atom -12396.658588 kJ/mol
# Density = 1.994326 g / cm^3
# Si number density = 19.988759 Si / 1000 Ang^3
#
#
#
# Elastic Constant Matrix: (Units=GPa)
#
#
# Indices 1 2 3 4 5 6 
#
# 1 127.9190 53.3978 27.8884 0.0000 -9.4993 0.0000
# 2 53.3978 109.9898 25.0662 0.0000 -3.0078 0.0000
# 3 27.8884 25.0662 60.7781 0.0000 -5.9698 0.0000
# 4 0.0000 0.0000 0.0000 28.1902 0.0000 -1.5208
# 5 -9.4993 -3.0078 -5.9698 0.0000 29.6433 0.0000
# 6 0.0000 0.0000 0.0000 -1.5208 0.0000 25.9786
#
#
#
# Elastic Compliance Matrix: (Units=1/GPa)
#
#
# Indices 1 2 3 4 5 6 
#
# 1 0.010412 -0.004365 -0.002748 0.000000 0.002340 0.000000
# 2 -0.004365 0.011866 -0.002969 0.000000 -0.000793 0.000000
# 3 -0.002748 -0.002969 0.019202 0.000000 0.002685 0.000000
# 4 0.000000 0.000000 0.000000 0.035586 0.000000 0.002083
# 5 0.002340 -0.000793 0.002685 0.000000 0.034945 0.000000
# 6 0.000000 0.000000 0.000000 0.002083 0.000000 0.038615
#
#
# Mechanical properties :
#
#
# Convention : Reuss Voigt Hill
#
# Bulk Modulus (GPa) = 46.90921 56.82128 51.86525
# Shear Modulus (GPa) = 28.10657 29.58470 28.84564
#
# Velocity S-wave (km/s) = 3.75389 3.85134 3.80293
# Velocity P-wave (km/s) = 6.50444 6.94733 6.72953
#
# Compressibility (1/GPa) = 0.02131778
#
# Stress axis : x y z
#
# Youngs Moduli (GPa) = 96.04025 84.27700 52.07725
#
# Poissons Ratio (x) = 0.36785 0.14310
# Poissons Ratio (y) = 0.41919 0.15460
# Poissons Ratio (z) = 0.26389 0.25019
#
# Static dielectric constant tensor:
#      x y z
#    x 3.846230 0.000000 -0.127000 
#    y 0.000000 3.736090 0.000000 
#    z -0.127000 0.000000 3.525310 
# 
# 
# High freq. dielectric constant tensor:
#      x y z
#    x 1.788640 0.000000 -0.005330 
#    y 0.000000 1.781860 0.000000 
#    z -0.005330 0.000000 1.762460 
# 
# From -- ./inp_files/36389.got.cif
#   From: 2010.06.25/outbox.cif.g09.slc.cpg/sg10_19_cif.got.tgz:36389.got - 2010.06.27 22:07:45.
