data_PCOD8065444
_publ_section_title
;
Structure prediction by ZEFSAII (Michael W. Deem and Ramdas Pophale) SiO2 
 PCOD8065444
Probable space group: P 2/M
;
_chemical_formula_sum "Si O2"
_cell_formula_units_Z 32
_cell_length_a 19.219275
_cell_length_b 12.292484
_cell_length_c 8.774455
_cell_angle_alpha 90.000000
_cell_angle_beta 48.534612
_cell_angle_gamma 90.000000
_cell_volume 1553.405779
_symmetry_space_group_name_H-M "P 2/M"
_symmetry_group_IT_number 10
_symmetry_cell_setting 'monoclinic'
loop_
_space_group_symop_operation_xyz
x,y,z
-x,y,-z
-x,-y,-z
x,-y,z
loop_
_atom_site_type_symbol
_atom_site_label
_atom_site_fract_x
_atom_site_fract_y
_atom_site_fract_z
Si Si1 0.766304 0.878847 0.934484
Si Si2 0.562056 0.825670 0.285028
Si Si3 0.435582 0.743573 0.228760
Si Si4 0.256479 0.124633 0.374559
Si Si5 0.090365 0.220048 0.781085
Si Si6 0.996675 0.379229 0.334479
Si Si7 0.617821 0.378214 0.393749
Si Si8 0.822332 0.315254 0.060204
O O1 0.774219 0.836610 0.749545
O O2 0.809283 0.000000 0.890229
O O3 0.657969 0.887362 0.132328
O O4 0.818345 0.799221 0.974259
O O5 0.500000 0.889006 0.500000
O O6 0.505874 0.828707 0.207856
O O7 0.574364 0.700667 0.328297
O O8 0.342182 0.801825 0.305732
O O9 0.404450 0.655714 0.399576
O O10 0.500000 0.692234 0.000000
O O11 0.164398 0.131543 0.613947
O O12 0.290100 0.000000 0.324003
O O13 0.059737 0.294968 0.685395
O O14 0.146265 0.296042 0.813667
O O15 0.000000 0.168401 0.000000
O O16 0.950994 0.500000 0.394683
O O17 0.000000 0.332554 0.500000
O O18 0.102657 0.391824 0.127403
O O19 0.580513 0.500000 0.421112
O O20 0.727061 0.378811 0.204974
#
# Coordination Sequence:
#
# PCOD8065444 Si02
#       8
#     4   4   4   4   4   4   4   4
#     4  10  21  37  59  85 118 158 201 246 301 358
#     4   9  20  36  55  82 117 154 194 251 293 348
#     4  11  21  38  60  85 120 154 200 255 292 351
#     4  11  23  40  61  87 121 162 201 245 306 361
#     4  10  22  40  62  91 123 154 195 250 297 352
#     4  10  21  38  64  93 122 156 197 245 301 359
#     4  10  21  38  60  84 117 162 201 240 302 360
#     4  10  20  38  61  89 121 157 197 253 296 349
#
# _framework density 20.599896000000001
#
# number of rings (size 3 to 8) (size 9 to 14) (size 15 to 20)
#    0.000    1.875    2.500    1.125    0.000    7.000 
#    0.000    1.875    0.000    6.750    0.000    0.000 
#    0.000    0.000    0.000    0.000    0.000    0.000 
#
# Total GULP energy -396561.506053 kJ/mol
# GULP energy per Si atom -12392.547064 kJ/mol
# Density = 2.055301 g / cm^3
# Si number density = 20.599896 Si / 1000 Ang^3
#
#
#
# Elastic Constant Matrix: (Units=GPa)
#
#
# Indices 1 2 3 4 5 6 
#
# 1 102.3208 27.1546 32.9494 0.0000 9.7965 0.0000
# 2 27.1546 78.6858 18.1743 0.0000 8.2413 0.0000
# 3 32.9494 18.1743 116.0014 0.0000 9.0290 0.0000
# 4 0.0000 0.0000 0.0000 45.7927 0.0000 -3.3826
# 5 9.7965 8.2413 9.0290 0.0000 39.2445 0.0000
# 6 0.0000 0.0000 0.0000 -3.3826 0.0000 5.6013
#
#
#
# Elastic Compliance Matrix: (Units=1/GPa)
#
#
# Indices 1 2 3 4 5 6 
#
# 1 0.011647 -0.003232 -0.002676 0.000000 -0.001613 0.000000
# 2 -0.003232 0.014297 -0.001172 0.000000 -0.001926 0.000000
# 3 -0.002676 -0.001172 0.009666 0.000000 -0.001310 0.000000
# 4 0.000000 0.000000 0.000000 0.022857 0.000000 0.013803
# 5 -0.001613 -0.001926 -0.001310 0.000000 0.026590 0.000000
# 6 0.000000 0.000000 0.000000 0.013803 0.000000 0.186866
#
#
# Mechanical properties :
#
#
# Convention : Reuss Voigt Hill
#
# Bulk Modulus (GPa) = 46.62215 50.39604 48.50910
# Shear Modulus (GPa) = 17.05124 32.70968 24.88046
#
# Velocity S-wave (km/s) = 2.88016 3.98911 3.47911
# Velocity P-wave (km/s) = 5.80877 6.76274 6.30383
#
# Compressibility (1/GPa) = 0.02144903
#
# Stress axis : x y z
#
# Youngs Moduli (GPa) = 85.85688 69.94648 103.45190
#
# Poissons Ratio (x) = 0.22609 0.27687
# Poissons Ratio (y) = 0.27752 0.12123
# Poissons Ratio (z) = 0.22978 0.08197
#
# Static dielectric constant tensor:
#      x y z
#    x 3.817440 0.000000 -0.141170 
#    y 0.000000 3.274180 0.000000 
#    z -0.141170 0.000000 4.350600 
# 
# 
# High freq. dielectric constant tensor:
#      x y z
#    x 1.813770 0.000000 -0.001630 
#    y 0.000000 1.775380 0.000000 
#    z -0.001630 0.000000 1.826820 
# 
# From -- ./inp_files/34823.got.cif
#   From: 2010.06.25/outbox.cif.g09.slc.cpg/sg10_18_cif.got.tgz:34823.got - 2010.06.27 22:07:45.
