data_PCOD8065624
_publ_section_title
;
Structure prediction by ZEFSAII (Michael W. Deem and Ramdas Pophale) SiO2 
 PCOD8065624
Probable space group: P 2/M
;
_chemical_formula_sum "Si O2"
_cell_formula_units_Z 32
_cell_length_a 31.631647
_cell_length_b 8.541044
_cell_length_c 12.137852
_cell_angle_alpha 90.000000
_cell_angle_beta 28.503109
_cell_angle_gamma 90.000000
_cell_volume 1564.879509
_symmetry_space_group_name_H-M "P 2/M"
_symmetry_group_IT_number 10
_symmetry_cell_setting 'monoclinic'
loop_
_space_group_symop_operation_xyz
x,y,z
-x,y,-z
-x,-y,-z
x,-y,z
loop_
_atom_site_type_symbol
_atom_site_label
_atom_site_fract_x
_atom_site_fract_y
_atom_site_fract_z
Si Si1 0.627814 0.318567 0.739149
Si Si2 0.763827 0.816859 0.931387
Si Si3 0.905681 0.318380 0.762047
Si Si4 0.807788 0.820305 0.391301
Si Si5 0.852648 0.318283 0.517892
Si Si6 0.944819 0.320121 0.921108
Si Si7 0.525229 0.184156 0.776980
Si Si8 0.566662 0.185780 0.438917
O O1 0.608134 0.500000 0.802619
O O2 0.731339 0.285692 0.513972
O O3 0.597598 0.270315 0.686420
O O4 0.573734 0.221975 0.955016
O O5 0.828196 0.783738 0.886423
O O6 0.792047 0.718619 0.760826
O O7 0.765451 0.000000 0.899400
O O8 0.666079 0.757874 0.186966
O O9 0.892126 0.500000 0.761457
O O10 0.900711 0.290495 0.903817
O O11 0.000000 0.260253 0.500000
O O12 0.819636 0.784400 0.492176
O O13 0.781390 0.000000 0.437580
O O14 0.898408 0.785667 0.119171
O O15 0.844284 0.500000 0.506000
O O16 0.952701 0.271959 0.319540
O O17 0.934919 0.500000 0.979855
O O18 0.536368 0.248021 0.627684
O O19 0.542461 0.000000 0.745205
O O20 0.500000 0.256034 0.500000
O O21 0.561612 0.000000 0.449152
#
# Coordination Sequence:
#
# PCOD8065624 Si02
#       8
#     4   4   4   4   4   4   4   4
#     4  11  23  41  63  90 123 161 206 255 311 373
#     4  11  23  38  62  96 127 164 213 260 308 366
#     4  10  20  40  64  89 124 170 212 251 310 376
#     4  12  26  41  62  92 124 158 206 261 313 368
#     4  11  23  43  65  88 124 166 207 252 309 376
#     4  10  22  41  64  89 123 167 208 250 308 373
#     4  10  20  39  66  92 123 161 205 256 313 367
#     4   9  21  40  62  91 128 165 202 250 311 372
#
# _framework density 20.448858000000001
#
# number of rings (size 3 to 8) (size 9 to 14) (size 15 to 20)
#    0.000    1.500    1.250    4.500    3.500    3.250 
#    0.000    1.875    0.000    3.000    0.000    0.000 
#    0.000    0.000    0.000    0.000    0.000    0.000 
#
# Total GULP energy -397006.148196 kJ/mol
# GULP energy per Si atom -12406.442131 kJ/mol
# Density = 2.040232 g / cm^3
# Si number density = 20.448858 Si / 1000 Ang^3
#
#
#
# Elastic Constant Matrix: (Units=GPa)
#
#
# Indices 1 2 3 4 5 6 
#
# 1 127.0035 27.3854 63.8935 0.0000 6.4862 0.0000
# 2 27.3854 57.7796 18.5962 0.0000 -2.4526 0.0000
# 3 63.8935 18.5962 118.5271 0.0000 0.3300 0.0000
# 4 0.0000 0.0000 0.0000 26.1626 0.0000 -3.6268
# 5 6.4862 -2.4526 0.3300 0.0000 36.3541 0.0000
# 6 0.0000 0.0000 0.0000 -3.6268 0.0000 27.8753
#
#
#
# Elastic Compliance Matrix: (Units=1/GPa)
#
#
# Indices 1 2 3 4 5 6 
#
# 1 0.011672 -0.003798 -0.005690 0.000000 -0.002287 0.000000
# 2 -0.003798 0.019521 -0.001021 0.000000 0.002004 0.000000
# 3 -0.005690 -0.001021 0.011662 0.000000 0.000840 0.000000
# 4 0.000000 0.000000 0.000000 0.038925 0.000000 0.005064
# 5 -0.002287 0.002004 0.000840 0.000000 0.028043 0.000000
# 6 0.000000 0.000000 0.000000 0.005064 0.000000 0.036533
#
#
# Mechanical properties :
#
#
# Convention : Reuss Voigt Hill
#
# Bulk Modulus (GPa) = 45.79281 58.11784 51.95533
# Shear Modulus (GPa) = 28.62847 30.97406 29.80127
#
# Velocity S-wave (km/s) = 3.74572 3.89615 3.82167
# Velocity P-wave (km/s) = 6.41480 6.98017 6.70345
#
# Compressibility (1/GPa) = 0.02183749
#
# Stress axis : x y z
#
# Youngs Moduli (GPa) = 85.67581 51.22725 85.75000
#
# Poissons Ratio (x) = 0.19456 0.48789
# Poissons Ratio (y) = 0.32539 0.08755
# Poissons Ratio (z) = 0.48747 0.05230
#
# Static dielectric constant tensor:
#      x y z
#    x 3.822510 0.000000 -0.006010 
#    y 0.000000 3.526160 0.000000 
#    z -0.006010 0.000000 3.720960 
# 
# 
# High freq. dielectric constant tensor:
#      x y z
#    x 1.810220 0.000000 0.001810 
#    y 0.000000 1.787890 0.000000 
#    z 0.001810 0.000000 1.805450 
# 
# From -- ./inp_files/58182.got.cif
#   From: 2010.06.25/outbox.cif.g09.slc.cpg/sg10_30_cif.got.tgz:58182.got - 2010.06.27 22:07:45.
