data_PCOD8065050
_publ_section_title
;
Structure prediction by ZEFSAII (Michael W. Deem and Ramdas Pophale) SiO2 
 PCOD8065050
Probable space group: P 2/M
;
_chemical_formula_sum "Si O2"
_cell_formula_units_Z 32
_cell_length_a 28.832047
_cell_length_b 8.981036
_cell_length_c 14.667029
_cell_angle_alpha 90.000000
_cell_angle_beta 151.779242
_cell_angle_gamma 90.000000
_cell_volume 1795.915304
_symmetry_space_group_name_H-M "P 2/M"
_symmetry_group_IT_number 10
_symmetry_cell_setting 'monoclinic'
loop_
_space_group_symop_operation_xyz
x,y,z
-x,y,-z
-x,-y,-z
x,-y,z
loop_
_atom_site_type_symbol
_atom_site_label
_atom_site_fract_x
_atom_site_fract_y
_atom_site_fract_z
Si Si1 0.378400 0.326348 0.015027
Si Si2 0.781403 0.671509 0.116731
Si Si3 0.584051 0.832068 0.379907
Si Si4 0.139540 0.174729 0.914860
Si Si5 0.244523 0.832152 0.443849
Si Si6 0.765345 0.323615 0.750416
Si Si7 0.224995 0.671080 0.598141
Si Si8 0.060140 0.330418 0.456352
O O1 0.402891 0.500000 0.051909
O O2 0.318548 0.289952 0.003211
O O3 0.314626 0.277204 0.817361
O O4 0.477520 0.235409 0.186413
O O5 0.781109 0.500000 0.085076
O O6 0.786720 0.775626 0.037577
O O7 0.874041 0.702951 0.341693
O O8 0.637903 0.829886 0.373837
O O9 0.653409 0.737731 0.569551
O O10 0.575553 0.000000 0.402753
O O11 0.029127 0.216299 0.696127
O O12 0.149252 0.000000 0.947568
O O13 0.165226 0.260235 0.051464
O O14 0.192064 0.733854 0.273603
O O15 0.222248 0.769931 0.504081
O O16 0.203449 0.000000 0.367531
O O17 0.765680 0.500000 0.754294
O O18 0.239186 0.500000 0.594611
O O19 0.123078 0.694047 0.474130
O O20 0.020712 0.500000 0.391764
#
# Coordination Sequence:
#
# PCOD8065050 Si02
#       8
#     4   4   4   4   4   4   4   4
#     4   9  18  33  54  80 108 140 178 216 254 303
#     4   9  19  36  56  79 108 140 176 216 256 304
#     4   9  19  34  52  77 110 140 170 214 266 310
#     4  12  23  35  54  80 107 136 173 216 267 319
#     4   9  19  34  52  77 110 140 170 214 266 310
#     4  10  20  37  58  75  98 137 181 221 257 304
#     4   9  18  33  54  80 108 140 178 216 254 303
#     4   9  19  36  56  79 108 140 176 216 256 304
#
# _framework density 17.818211000000002
#
# number of rings (size 3 to 8) (size 9 to 14) (size 15 to 20)
#    0.750    1.750    0.000    4.500    0.000    4.000 
#    0.000    6.250    0.000    7.500    0.000    0.000 
#    0.000    0.000    0.000    0.000    0.000    0.000 
#
# Total GULP energy -396659.779343 kJ/mol
# GULP energy per Si atom -12395.618104 kJ/mol
# Density = 1.777766 g / cm^3
# Si number density = 17.818211 Si / 1000 Ang^3
#
#
#
# Elastic Constant Matrix: (Units=GPa)
#
#
# Indices 1 2 3 4 5 6 
#
# 1 44.9007 34.7455 26.7702 0.0000 11.1613 0.0000
# 2 34.7455 110.2016 23.0587 0.0000 -9.7697 0.0000
# 3 26.7702 23.0587 26.9755 0.0000 -16.0870 0.0000
# 4 0.0000 0.0000 0.0000 20.5685 0.0000 6.0906
# 5 11.1613 -9.7697 -16.0870 0.0000 -1.0061 0.0000
# 6 0.0000 0.0000 0.0000 6.0906 0.0000 19.1981
#
#
#
# Elastic Compliance Matrix: (Units=1/GPa)
#
#
# Indices 1 2 3 4 5 6 
#
# 1 0.012126 -0.002907 0.008306 0.000000 0.029940 0.000000
# 2 -0.002907 0.011568 -0.008849 0.000000 -0.003094 0.000000
# 3 0.008306 -0.008849 0.013534 0.000000 -0.038329 0.000000
# 4 0.000000 0.000000 0.000000 0.053659 0.000000 -0.017023
# 5 0.029940 -0.003094 -0.038329 0.000000 -0.018884 0.000000
# 6 0.000000 0.000000 0.000000 -0.017023 0.000000 0.057489
#
#
# Mechanical properties :
#
#
# Convention : Reuss Voigt Hill
#
# Bulk Modulus (GPa) = 32.97176 39.02519 35.99847
# Shear Modulus (GPa) = 34.12943 14.25232 24.19087
#
# Velocity S-wave (km/s) = 4.38130 2.83127 3.68863
# Velocity P-wave (km/s) = 6.64373 5.71293 6.19583
#
# Compressibility (1/GPa) = 0.03032899
#
# Stress axis : x y z
#
# Youngs Moduli (GPa) = 82.46628 86.44516 73.88947
#
# Poissons Ratio (x) = 0.25129 -0.61373
# Poissons Ratio (y) = 0.23972 0.65382
# Poissons Ratio (z) = -0.68498 0.76492
#
# Static dielectric constant tensor:
#      x y z
#    x 3.235510 0.000000 -0.010040 
#    y 0.000000 3.258690 0.000000 
#    z -0.010040 0.000000 3.101060 
# 
# 
# High freq. dielectric constant tensor:
#      x y z
#    x 1.684850 0.000000 -0.001720 
#    y 0.000000 1.693290 0.000000 
#    z -0.001720 0.000000 1.673100 
# 
# From -- ./inp_files/72564.got.cif
#   From: 2010.06.25/outbox.cif.g09.slc.cpg/sg10_37_cif.got.tgz:72564.got - 2010.06.27 22:07:45.
