data_PCOD8065955
_publ_section_title
;
Structure prediction by ZEFSAII (Michael W. Deem and Ramdas Pophale) SiO2 
 PCOD8065955
Probable space group: P 2/M
;
_chemical_formula_sum "Si O2"
_cell_formula_units_Z 32
_cell_length_a 32.384372
_cell_length_b 8.866309
_cell_length_c 12.214120
_cell_angle_alpha 90.000000
_cell_angle_beta 149.985208
_cell_angle_gamma 90.000000
_cell_volume 1754.303264
_symmetry_space_group_name_H-M "P 2/M"
_symmetry_group_IT_number 10
_symmetry_cell_setting 'monoclinic'
loop_
_space_group_symop_operation_xyz
x,y,z
-x,y,-z
-x,-y,-z
x,-y,z
loop_
_atom_site_type_symbol
_atom_site_label
_atom_site_fract_x
_atom_site_fract_y
_atom_site_fract_z
Si Si1 0.316694 0.322787 0.460703
Si Si2 0.335273 0.176484 0.721706
Si Si3 0.012656 0.165727 0.657407
Si Si4 0.497006 0.328496 0.158971
Si Si5 0.188994 0.178998 0.007351
Si Si6 0.150017 0.322783 0.687475
Si Si7 0.722290 0.176768 0.170869
Si Si8 0.439359 0.327248 0.267455
O O1 0.301401 0.500000 0.417677
O O2 0.288987 0.261658 0.516188
O O3 0.411855 0.277118 0.664202
O O4 0.266930 0.243176 0.249933
O O5 0.289541 0.222254 0.729224
O O6 0.330069 0.000000 0.688302
O O7 0.431141 0.224400 0.946028
O O8 0.946106 0.281063 0.554266
O O9 0.000000 0.150305 0.500000
O O10 0.000341 0.000000 0.683237
O O11 0.106813 0.223720 0.888740
O O12 0.479582 0.500000 0.081692
O O13 0.489736 0.311135 0.271757
O O14 0.195589 0.000000 0.010359
O O15 0.186777 0.246669 0.880506
O O16 0.158563 0.500000 0.719530
O O17 0.199198 0.265969 0.694289
O O18 0.736616 0.000000 0.189310
O O19 0.641711 0.224414 0.917491
O O20 0.500000 0.266389 0.500000
O O21 0.412481 0.500000 0.227796
#
# Coordination Sequence:
#
# PCOD8065955 Si02
#       8
#     4   4   4   4   4   4   4   4
#     4  11  22  34  53  79 108 140 176 222 268 315
#     4  10  21  37  55  74 100 138 184 227 266 310
#     4   8  16  33  54  76 107 142 172 206 255 312
#     4   9  19  34  50  73 103 137 177 218 265 314
#     4  10  21  36  54  80 112 143 173 211 261 313
#     4  11  21  33  55  83 110 139 174 214 260 316
#     4  10  21  36  53  75 102 137 180 221 262 313
#     4   9  18  32  50  71 102 140 173 214 264 313
#
# _framework density 18.240859
#
# number of rings (size 3 to 8) (size 9 to 14) (size 15 to 20)
#    0.000    2.250    0.000    3.750    1.750    7.000 
#    0.000    0.000    0.000    0.750    0.000    5.250 
#    0.000    0.000    0.000    0.000    0.000    0.000 
#
# Total GULP energy -396814.230464 kJ/mol
# GULP energy per Si atom -12400.444702 kJ/mol
# Density = 1.819934 g / cm^3
# Si number density = 18.240859 Si / 1000 Ang^3
#
#
#
# Elastic Constant Matrix: (Units=GPa)
#
#
# Indices 1 2 3 4 5 6 
#
# 1 84.0728 44.7786 41.0896 0.0000 15.0020 0.0000
# 2 44.7786 93.8774 34.0279 0.0000 10.2756 0.0000
# 3 41.0896 34.0279 44.6877 0.0000 5.8560 0.0000
# 4 0.0000 0.0000 0.0000 28.0057 0.0000 2.2226
# 5 15.0020 10.2756 5.8560 0.0000 24.9494 0.0000
# 6 0.0000 0.0000 0.0000 2.2226 0.0000 24.4975
#
#
#
# Elastic Compliance Matrix: (Units=1/GPa)
#
#
# Indices 1 2 3 4 5 6 
#
# 1 0.024637 -0.004137 -0.018349 0.000000 -0.008803 0.000000
# 2 -0.004137 0.015717 -0.007884 0.000000 -0.002135 0.000000
# 3 -0.018349 -0.007884 0.044758 0.000000 0.003775 0.000000
# 4 0.000000 0.000000 0.000000 0.035966 0.000000 -0.003263
# 5 -0.008803 -0.002135 0.003775 0.000000 0.045368 0.000000
# 6 0.000000 0.000000 0.000000 -0.003263 0.000000 0.041117
#
#
# Mechanical properties :
#
#
# Convention : Reuss Voigt Hill
#
# Bulk Modulus (GPa) = 41.03242 51.38113 46.20678
# Shear Modulus (GPa) = 18.08794 22.33997 20.21396
#
# Velocity S-wave (km/s) = 3.15241 3.50340 3.33253
# Velocity P-wave (km/s) = 5.98280 6.67790 6.33988
#
# Compressibility (1/GPa) = 0.02437097
#
# Stress axis : x y z
#
# Youngs Moduli (GPa) = 40.58991 63.62556 22.34215
#
# Poissons Ratio (x) = 0.26320 0.40997
# Poissons Ratio (y) = 0.16791 0.17615
# Poissons Ratio (z) = 0.74480 0.50165
#
# Static dielectric constant tensor:
#      x y z
#    x 3.424490 0.000000 0.147490 
#    y 0.000000 3.371830 0.000000 
#    z 0.147490 0.000000 3.426350 
# 
# 
# High freq. dielectric constant tensor:
#      x y z
#    x 1.702040 0.000000 0.006630 
#    y 0.000000 1.711670 0.000000 
#    z 0.006630 0.000000 1.691530 
# 
# From -- ./inp_files/58285.got.cif
#   From: 2010.06.25/outbox.cif.g09.slc.cpg/sg10_30_cif.got.tgz:58285.got - 2010.06.27 22:07:45.
