data_PCOD8065857
_publ_section_title
;
Structure prediction by ZEFSAII (Michael W. Deem and Ramdas Pophale) SiO2 
 PCOD8065857
Probable space group: P 2/M
;
_chemical_formula_sum "Si O2"
_cell_formula_units_Z 32
_cell_length_a 14.521404
_cell_length_b 9.075553
_cell_length_c 12.351442
_cell_angle_alpha 90.000000
_cell_angle_beta 88.487341
_cell_angle_gamma 90.000000
_cell_volume 1627.226462
_symmetry_space_group_name_H-M "P 2/M"
_symmetry_group_IT_number 10
_symmetry_cell_setting 'monoclinic'
loop_
_space_group_symop_operation_xyz
x,y,z
-x,y,-z
-x,-y,-z
x,-y,z
loop_
_atom_site_type_symbol
_atom_site_label
_atom_site_fract_x
_atom_site_fract_y
_atom_site_fract_z
Si Si1 0.267426 0.168666 0.951753
Si Si2 0.789884 0.170203 0.812513
Si Si3 0.296261 0.169851 0.623791
Si Si4 0.442704 0.666413 0.901021
Si Si5 0.669942 0.830811 0.617509
Si Si6 0.970344 0.668422 0.882844
Si Si7 0.513207 0.332446 0.335621
Si Si8 0.837842 0.331832 0.212570
O O1 0.358898 0.221849 0.888138
O O2 0.186458 0.267530 0.905056
O O3 0.248897 0.000000 0.922314
O O4 0.274368 0.192950 0.080131
O O5 0.734440 0.235743 0.711020
O O6 0.886698 0.247320 0.829640
O O7 0.811865 0.000000 0.790664
O O8 0.274413 0.182785 0.496552
O O9 0.391819 0.250940 0.643459
O O10 0.210278 0.240654 0.689961
O O11 0.305752 0.000000 0.658954
O O12 0.406354 0.500000 0.923670
O O13 0.505284 0.671622 0.792483
O O14 0.500000 0.725772 0.000000
O O15 0.573867 0.744213 0.605545
O O16 0.644965 0.000000 0.645173
O O17 0.940166 0.500000 0.902075
O O18 0.051608 0.679668 0.790408
O O19 0.000000 0.734291 0.000000
O O20 0.520364 0.500000 0.377750
O O21 0.803864 0.500000 0.223530
#
# Coordination Sequence:
#
# PCOD8065857 Si02
#       8
#     4   4   4   4   4   4   4   4
#     4  11  21  33  55  85 115 150 189 234 288 342
#     4  10  22  39  60  88 120 153 194 242 289 345
#     4  11  23  40  62  85 115 157 201 244 290 342
#     4  10  21  35  51  77 116 158 193 232 286 344
#     4  10  23  42  60  83 118 158 198 243 293 341
#     4  10  21  38  61  89 119 153 190 233 292 354
#     4  11  22  36  58  87 117 154 200 245 287 341
#     4  11  22  38  60  86 117 149 187 238 291 346
#
# _framework density 19.665362999999999
#
# number of rings (size 3 to 8) (size 9 to 14) (size 15 to 20)
#    0.000    1.500    2.500    2.625    0.000    5.500 
#    0.000    0.625    0.000    3.750    0.000    0.000 
#    0.000    0.000    0.000    0.000    0.000    0.000 
#
# Total GULP energy -396786.752879 kJ/mol
# GULP energy per Si atom -12399.586027 kJ/mol
# Density = 1.962060 g / cm^3
# Si number density = 19.665363 Si / 1000 Ang^3
#
#
#
# Elastic Constant Matrix: (Units=GPa)
#
#
# Indices 1 2 3 4 5 6 
#
# 1 86.4751 41.1241 26.9795 0.0000 -9.5596 0.0000
# 2 41.1241 101.5089 31.8061 0.0000 -7.7774 0.0000
# 3 26.9795 31.8061 98.7368 0.0000 -7.3386 0.0000
# 4 0.0000 0.0000 0.0000 22.5609 0.0000 -1.1688
# 5 -9.5596 -7.7774 -7.3386 0.0000 24.0816 0.0000
# 6 0.0000 0.0000 0.0000 -1.1688 0.0000 29.3815
#
#
#
# Elastic Compliance Matrix: (Units=1/GPa)
#
#
# Indices 1 2 3 4 5 6 
#
# 1 0.015103 -0.005150 -0.002196 0.000000 0.003663 0.000000
# 2 -0.005150 0.012865 -0.002640 0.000000 0.001306 0.000000
# 3 -0.002196 -0.002640 0.011715 0.000000 0.001846 0.000000
# 4 0.000000 0.000000 0.000000 0.044416 0.000000 0.001767
# 5 0.003663 0.001306 0.001846 0.000000 0.043964 0.000000
# 6 0.000000 0.000000 0.000000 0.001767 0.000000 0.034105
#
#
# Mechanical properties :
#
#
# Convention : Reuss Voigt Hill
#
# Bulk Modulus (GPa) = 50.72941 54.06001 52.39471
# Shear Modulus (GPa) = 26.49556 27.65889 27.07723
#
# Velocity S-wave (km/s) = 3.67457 3.75437 3.71469
# Velocity P-wave (km/s) = 6.62236 6.80760 6.71562
#
# Compressibility (1/GPa) = 0.01971243
#
# Stress axis : x y z
#
# Youngs Moduli (GPa) = 66.21133 77.73012 85.35713
#
# Poissons Ratio (x) = 0.40032 0.18741
# Poissons Ratio (y) = 0.34099 0.22533
# Poissons Ratio (z) = 0.14538 0.20520
#
# Static dielectric constant tensor:
#      x y z
#    x 3.450830 0.000000 -0.018460 
#    y 0.000000 3.625300 0.000000 
#    z -0.018460 0.000000 3.785240 
# 
# 
# High freq. dielectric constant tensor:
#      x y z
#    x 1.752600 0.000000 -0.007790 
#    y 0.000000 1.769250 0.000000 
#    z -0.007790 0.000000 1.771560 
# 
# From -- ./inp_files/49811.got.cif
#   From: 2010.06.25/outbox.cif.g09.slc.cpg/sg10_25_cif.got.tgz:49811.got - 2010.06.27 22:07:45.
