data_PCOD8065116
_publ_section_title
;
Structure prediction by ZEFSAII (Michael W. Deem and Ramdas Pophale) SiO2 
 PCOD8065116
Probable space group: P 2/M
;
_chemical_formula_sum "Si O2"
_cell_formula_units_Z 32
_cell_length_a 27.308066
_cell_length_b 9.151007
_cell_length_c 16.557030
_cell_angle_alpha 90.000000
_cell_angle_beta 23.891872
_cell_angle_gamma 90.000000
_cell_volume 1675.753118
_symmetry_space_group_name_H-M "P 2/M"
_symmetry_group_IT_number 10
_symmetry_cell_setting 'monoclinic'
loop_
_space_group_symop_operation_xyz
x,y,z
-x,y,-z
-x,-y,-z
x,-y,z
loop_
_atom_site_type_symbol
_atom_site_label
_atom_site_fract_x
_atom_site_fract_y
_atom_site_fract_z
Si Si1 0.637694 0.328008 0.803315
Si Si2 0.965816 0.173310 0.906553
Si Si3 0.964336 0.826736 0.725156
Si Si4 0.267488 0.827105 0.020171
Si Si5 0.260130 0.667376 0.680968
Si Si6 0.781013 0.827445 0.723814
Si Si7 0.203316 0.332306 0.587483
Si Si8 0.494180 0.671009 0.602026
O O1 0.649381 0.500000 0.798952
O O2 0.684865 0.247882 0.811131
O O3 0.712286 0.275849 0.612356
O O4 0.500000 0.279618 0.000000
O O5 0.965314 0.230033 0.815294
O O6 0.082373 0.237060 0.775836
O O7 0.970916 0.000000 0.904363
O O8 0.846114 0.228220 0.130211
O O9 0.846546 0.763909 0.857767
O O10 0.084513 0.769523 0.499309
O O11 0.960642 0.000000 0.727447
O O12 0.250353 0.780699 0.138410
O O13 0.277125 0.000000 0.996095
O O14 0.388245 0.757201 0.804715
O O15 0.228223 0.500000 0.751317
O O16 0.277762 0.685679 0.558252
O O17 0.381917 0.717502 0.541569
O O18 0.772972 0.000000 0.722974
O O19 0.165242 0.500000 0.631222
O O20 0.500000 0.717919 0.500000
O O21 0.468753 0.500000 0.649882
#
# Coordination Sequence:
#
# PCOD8065116 Si02
#       8
#     4   4   4   4   4   4   4   4
#     4  10  22  38  59  84 113 151 192 230 275 333
#     4  11  21  35  58  86 113 144 184 235 284 323
#     4   9  18  35  57  82 114 149 183 224 278 336
#     4  10  21  36  59  86 112 149 190 229 277 338
#     4  10  22  38  57  79 111 151 187 226 278 339
#     4  10  20  37  59  85 115 148 187 231 282 332
#     4  10  21  38  57  80 110 150 190 225 275 338
#     4  10  22  40  60  84 114 149 187 232 284 331
#
# _framework density 19.095893
#
# number of rings (size 3 to 8) (size 9 to 14) (size 15 to 20)
#    0.000    2.000    1.250    1.875    1.750    5.000 
#    0.000    1.250    0.000    1.500    0.000    0.000 
#    0.000    0.000    0.000    0.000    0.000    0.000 
#
# Total GULP energy -396934.783214 kJ/mol
# GULP energy per Si atom -12404.211975 kJ/mol
# Density = 1.905243 g / cm^3
# Si number density = 19.095893 Si / 1000 Ang^3
#
#
#
# Elastic Constant Matrix: (Units=GPa)
#
#
# Indices 1 2 3 4 5 6 
#
# 1 147.9373 35.3124 59.2695 0.0000 -12.3603 0.0000
# 2 35.3124 37.6263 33.1032 0.0000 -3.3295 0.0000
# 3 59.2695 33.1032 120.3337 0.0000 -9.5323 0.0000
# 4 0.0000 0.0000 0.0000 27.9958 0.0000 0.7414
# 5 -12.3603 -3.3295 -9.5323 0.0000 36.6645 0.0000
# 6 0.0000 0.0000 0.0000 0.7414 0.0000 26.8972
#
#
#
# Elastic Compliance Matrix: (Units=1/GPa)
#
#
# Indices 1 2 3 4 5 6 
#
# 1 0.009557 -0.006322 -0.002816 0.000000 0.001916 0.000000
# 2 -0.006322 0.039263 -0.007733 0.000000 -0.000576 0.000000
# 3 -0.002816 -0.007733 0.011940 0.000000 0.001452 0.000000
# 4 0.000000 0.000000 0.000000 0.035746 0.000000 -0.000985
# 5 0.001916 -0.000576 0.001452 0.000000 0.028245 0.000000
# 6 0.000000 0.000000 0.000000 -0.000985 0.000000 0.037206
#
#
# Mechanical properties :
#
#
# Convention : Reuss Voigt Hill
#
# Bulk Modulus (GPa) = 37.01359 62.36306 49.68833
# Shear Modulus (GPa) = 24.42551 30.19232 27.30891
#
# Velocity S-wave (km/s) = 3.58033 3.98061 3.78576
# Velocity P-wave (km/s) = 6.04291 7.33864 6.72207
#
# Compressibility (1/GPa) = 0.02701710
#
# Stress axis : x y z
#
# Youngs Moduli (GPa) = 104.63454 25.46958 83.75418
#
# Poissons Ratio (x) = 0.16102 0.23588
# Poissons Ratio (y) = 0.66150 0.64765
# Poissons Ratio (z) = 0.29469 0.19695
#
# Static dielectric constant tensor:
#      x y z
#    x 3.774690 0.000000 0.009020 
#    y 0.000000 3.269840 0.000000 
#    z 0.009020 0.000000 3.546790 
# 
# 
# High freq. dielectric constant tensor:
#      x y z
#    x 1.760440 0.000000 0.001410 
#    y 0.000000 1.721490 0.000000 
#    z 0.001410 0.000000 1.751950 
# 
# From -- ./inp_files/71545.got.cif
#   From: 2010.06.25/outbox.cif.g09.slc.cpg/sg10_36_cif.got.tgz:71545.got - 2010.06.27 22:07:45.
