data_PCOD8065338
_publ_section_title
;
Structure prediction by ZEFSAII (Michael W. Deem and Ramdas Pophale) SiO2 
 PCOD8065338
Probable space group: P 2/M
;
_chemical_formula_sum "Si O2"
_cell_formula_units_Z 28
_cell_length_a 9.919404
_cell_length_b 8.843187
_cell_length_c 25.955490
_cell_angle_alpha 90.000000
_cell_angle_beta 141.562063
_cell_angle_gamma 90.000000
_cell_volume 1415.406279
_symmetry_space_group_name_H-M "P 2/M"
_symmetry_group_IT_number 10
_symmetry_cell_setting 'monoclinic'
loop_
_space_group_symop_operation_xyz
x,y,z
-x,y,-z
-x,-y,-z
x,-y,z
loop_
_atom_site_type_symbol
_atom_site_label
_atom_site_fract_x
_atom_site_fract_y
_atom_site_fract_z
Si Si1 0.534274 0.678719 0.068355
Si Si2 0.967311 0.175862 0.240234
Si Si3 0.506082 0.326763 0.768786
Si Si4 0.754908 0.177574 0.934590
Si Si5 0.798611 0.826732 0.475116
Si Si6 0.371897 0.326229 0.310206
Si Si7 0.932529 0.827523 0.347470
O O1 0.530340 0.500000 0.070247
O O2 0.335743 0.741736 0.042039
O O3 0.762159 0.733956 0.158245
O O4 0.500000 0.736459 0.000000
O O5 0.180565 0.222725 0.273713
O O6 0.004196 0.214098 0.311249
O O7 0.922642 0.000000 0.217959
O O8 0.524661 0.500000 0.792535
O O9 0.616509 0.219267 0.843324
O O10 0.621402 0.301540 0.748898
O O11 0.255240 0.282632 0.688861
O O12 0.739699 0.000000 0.939038
O O13 0.000000 0.232871 0.000000
O O14 0.596969 0.719801 0.403644
O O15 0.000000 0.776873 0.500000
O O16 0.860699 0.805626 0.553618
O O17 0.734431 0.000000 0.443607
O O18 0.325131 0.500000 0.310000
O O19 0.847339 0.000000 0.325256
#
# Coordination Sequence:
#
# PCOD8065338 Si02
#       7
#     4   4   4   4   4   4   4
#     4  11  25  44  66  94 129 166 204 253 312 371
#     4  11  24  42  65  91 124 167 211 257 308 368
#     4  11  23  39  63  91 123 165 207 256 314 370
#     4  11  25  43  65  96 127 161 209 258 305 366
#     4  10  20  37  63  92 123 162 207 259 316 368
#     4  11  25  41  60  92 129 165 210 259 312 372
#     4  10  21  39  64  92 122 160 208 259 310 371
#
# _framework density 19.782305999999998
#
# number of rings (size 3 to 8) (size 9 to 14) (size 15 to 20)
#    0.000    1.286    2.857    2.143    2.000    6.000 
#    0.000    2.857    0.000    0.000    0.000    0.000 
#    0.000    0.000    0.000    0.000    0.000    0.000 
#
# Total GULP energy -347375.342246 kJ/mol
# GULP energy per Si atom -12406.262223 kJ/mol
# Density = 1.973728 g / cm^3
# Si number density = 19.782306 Si / 1000 Ang^3
#
#
#
# Elastic Constant Matrix: (Units=GPa)
#
#
# Indices 1 2 3 4 5 6 
#
# 1 127.3229 42.2336 50.7258 0.0000 -5.1269 0.0000
# 2 42.2336 56.1436 29.4798 0.0000 -5.1791 0.0000
# 3 50.7258 29.4798 91.4641 0.0000 -10.2160 0.0000
# 4 0.0000 0.0000 0.0000 25.3264 0.0000 2.7376
# 5 -5.1269 -5.1791 -10.2160 0.0000 38.3050 0.0000
# 6 0.0000 0.0000 0.0000 2.7376 0.0000 35.0795
#
#
#
# Elastic Compliance Matrix: (Units=1/GPa)
#
#
# Indices 1 2 3 4 5 6 
#
# 1 0.011798 -0.006568 -0.004483 0.000000 -0.000504 0.000000
# 2 -0.006568 0.025140 -0.004307 0.000000 0.001371 0.000000
# 3 -0.004483 -0.004307 0.015126 0.000000 0.002852 0.000000
# 4 0.000000 0.000000 0.000000 0.039820 0.000000 -0.003108
# 5 -0.000504 0.001371 0.002852 0.000000 0.026985 0.000000
# 6 0.000000 0.000000 0.000000 -0.003108 0.000000 0.028749
#
#
# Mechanical properties :
#
#
# Convention : Reuss Voigt Hill
#
# Bulk Modulus (GPa) = 46.84075 57.75656 52.29866
# Shear Modulus (GPa) = 26.96127 29.90827 28.43477
#
# Velocity S-wave (km/s) = 3.69575 3.89250 3.79540
# Velocity P-wave (km/s) = 6.47618 7.03289 6.76027
#
# Compressibility (1/GPa) = 0.02134893
#
# Stress axis : x y z
#
# Youngs Moduli (GPa) = 84.75804 39.77679 66.11054
#
# Poissons Ratio (x) = 0.26125 0.29636
# Poissons Ratio (y) = 0.55668 0.28475
# Poissons Ratio (z) = 0.37995 0.17133
#
# Static dielectric constant tensor:
#      x y z
#    x 3.923480 0.000000 0.051240 
#    y 0.000000 3.645860 0.000000 
#    z 0.051240 0.000000 3.786460 
# 
# 
# High freq. dielectric constant tensor:
#      x y z
#    x 1.780570 0.000000 -0.007760 
#    y 0.000000 1.777710 0.000000 
#    z -0.007760 0.000000 1.777330 
# 
# From -- ./inp_files/92110.got.cif
#   From: 2010.06.25/outbox.cif.g09.slc.cpg/sg10_47_cif.got.tgz:92110.got - 2010.06.27 22:07:45.
