data_PCOD8065634
_publ_section_title
;
Structure prediction by ZEFSAII (Michael W. Deem and Ramdas Pophale) SiO2 
 PCOD8065634
Probable space group: P 2/M
;
_chemical_formula_sum "Si O2"
_cell_formula_units_Z 32
_cell_length_a 15.176520
_cell_length_b 21.652508
_cell_length_c 9.778846
_cell_angle_alpha 90.000000
_cell_angle_beta 151.720163
_cell_angle_gamma 90.000000
_cell_volume 1522.450587
_symmetry_space_group_name_H-M "P 2/M"
_symmetry_group_IT_number 10
_symmetry_cell_setting 'monoclinic'
loop_
_space_group_symop_operation_xyz
x,y,z
-x,y,-z
-x,-y,-z
x,-y,z
loop_
_atom_site_type_symbol
_atom_site_label
_atom_site_fract_x
_atom_site_fract_y
_atom_site_fract_z
Si Si1 0.658442 0.927282 0.816245
Si Si2 0.446137 0.126118 0.774887
Si Si3 0.186961 0.645619 0.820584
Si Si4 0.718736 0.569474 0.795747
Si Si5 0.714476 0.570670 0.288137
Si Si6 0.819135 0.356018 0.682137
Si Si7 0.954301 0.931118 0.780148
Si Si8 0.505966 0.269282 0.168596
O O1 0.500000 0.898787 0.500000
O O2 0.587209 0.912165 0.871122
O O3 0.668553 0.000000 0.808735
O O4 0.867453 0.902713 0.061755
O O5 0.226475 0.112294 0.469573
O O6 0.483983 0.197008 0.790820
O O7 0.500000 0.107975 0.000000
O O8 0.231789 0.584473 0.793747
O O9 0.000000 0.673796 0.500000
O O10 0.184138 0.619673 0.971223
O O11 0.327594 0.702418 0.999513
O O12 0.500000 0.573028 0.500000
O O13 0.790581 0.500000 0.925637
O O14 0.761375 0.587033 0.698713
O O15 0.748615 0.500000 0.371762
O O16 0.839474 0.612599 0.560424
O O17 0.500000 0.589919 0.000000
O O18 0.680514 0.299155 0.482842
O O19 0.000000 0.326355 0.000000
O O20 0.906822 0.000000 0.658491
O O21 0.000000 0.937047 0.000000
O O22 0.500000 0.285260 0.000000
#
# Coordination Sequence:
#
# PCOD8065634 Si02
#       8
#     4   4   4   4   4   4   4   4
#     4  10  20  40  70 103 140 178 218 268 329 394
#     4  11  25  43  66  96 137 180 226 285 327 375
#     4  12  23  41  65  87 118 161 207 259 318 386
#     4  11  23  39  60  92 128 150 187 264 338 384
#     4  11  21  39  67  87 114 163 206 247 313 398
#     4  12  23  40  63  87 120 159 203 260 319 377
#     4  10  20  39  70 104 139 179 220 264 328 397
#     4  11  24  49  63  84 125 173 220 259 308 380
#
# _framework density 21.018743000000001
#
# number of rings (size 3 to 8) (size 9 to 14) (size 15 to 20)
#    0.000    1.000    5.000    1.875    0.000    7.000 
#    6.750    1.250    0.000    0.000    0.000    0.000 
#    0.000    0.000    0.000    0.000    0.000    0.000 
#
# Total GULP energy -396570.656685 kJ/mol
# GULP energy per Si atom -12392.833021 kJ/mol
# Density = 2.097090 g / cm^3
# Si number density = 21.018743 Si / 1000 Ang^3
#
#
#
# Elastic Constant Matrix: (Units=GPa)
#
#
# Indices 1 2 3 4 5 6 
#
# 1 98.6455 19.8862 30.9909 0.0000 13.1592 0.0000
# 2 19.8862 52.8821 33.8721 0.0000 2.5887 0.0000
# 3 30.9909 33.8721 118.8656 0.0000 11.8852 0.0000
# 4 0.0000 0.0000 0.0000 17.1304 0.0000 -17.9783
# 5 13.1592 2.5887 11.8852 0.0000 41.4520 0.0000
# 6 0.0000 0.0000 0.0000 -17.9783 0.0000 12.4164
#
#
#
# Elastic Compliance Matrix: (Units=1/GPa)
#
#
# Indices 1 2 3 4 5 6 
#
# 1 0.011748 -0.003060 -0.001892 0.000000 -0.002996 0.000000
# 2 -0.003060 0.023937 -0.006147 0.000000 0.001239 0.000000
# 3 -0.001892 -0.006147 0.010871 0.000000 -0.002133 0.000000
# 4 0.000000 0.000000 0.000000 -0.112343 0.000000 -0.162667
# 5 -0.002996 0.001239 -0.002133 0.000000 0.025609 0.000000
# 6 0.000000 0.000000 0.000000 -0.162667 0.000000 -0.154996
#
#
# Mechanical properties :
#
#
# Convention : Reuss Voigt Hill
#
# Bulk Modulus (GPa) = 41.05191 48.87684 44.96437
# Shear Modulus (GPa) = -30.32949 26.57602 -1.87673
#
# Velocity S-wave (km/s) = -3.80277 3.55969 -0.94595
# Velocity P-wave (km/s) = 0.54045 6.34032 4.49954
#
# Compressibility (1/GPa) = 0.02435940
#
# Stress axis : x y z
#
# Youngs Moduli (GPa) = 85.12065 41.77560 91.98755
#
# Poissons Ratio (x) = 0.12782 0.17400
# Poissons Ratio (y) = 0.26043 0.56549
# Poissons Ratio (z) = 0.16101 0.25681
#
# Static dielectric constant tensor:
#      x y z
#    x 3.670810 0.000000 -0.197290 
#    y 0.000000 3.553040 0.000000 
#    z -0.197290 0.000000 3.511310 
# 
# 
# High freq. dielectric constant tensor:
#      x y z
#    x 1.833590 0.000000 0.005500 
#    y 0.000000 1.798470 0.000000 
#    z 0.005500 0.000000 1.837450 
# 
# From -- ./inp_files/30630.got.cif
#   From: 2010.06.25/outbox.cif.g09.slc.cpg/sg10_16_cif.got.tgz:30630.got - 2010.06.27 22:07:45.
