data_PCOD8065644
_publ_section_title
;
Structure prediction by ZEFSAII (Michael W. Deem and Ramdas Pophale) SiO2 
 PCOD8065644
Probable space group: P 2/M
;
_chemical_formula_sum "Si O2"
_cell_formula_units_Z 28
_cell_length_a 22.679892
_cell_length_b 7.762457
_cell_length_c 9.783134
_cell_angle_alpha 90.000000
_cell_angle_beta 130.318471
_cell_angle_gamma 90.000000
_cell_volume 1313.212869
_symmetry_space_group_name_H-M "P 2/M"
_symmetry_group_IT_number 10
_symmetry_cell_setting 'monoclinic'
loop_
_space_group_symop_operation_xyz
x,y,z
-x,y,-z
-x,-y,-z
x,-y,z
loop_
_atom_site_type_symbol
_atom_site_label
_atom_site_fract_x
_atom_site_fract_y
_atom_site_fract_z
Si Si1 0.591422 0.000000 0.795774
Si Si2 0.659018 0.300618 0.082677
Si Si3 0.832505 0.301166 0.728152
Si Si4 0.939330 0.694551 0.658995
Si Si5 0.340982 0.699382 0.605623
Si Si6 0.894053 0.186817 0.091079
Si Si7 0.408578 0.000000 0.521509
Si Si8 0.832505 0.698834 0.269362
O O1 0.500000 0.000000 0.660458
O O2 0.620986 0.000000 0.681479
O O3 0.618698 0.827335 0.915062
O O4 0.640178 0.500000 0.014725
O O5 0.631046 0.263496 0.196570
O O6 0.750522 0.267005 0.216379
O O7 0.846474 0.500000 0.781227
O O8 0.901244 0.221907 0.737003
O O9 0.750522 0.267005 0.535186
O O10 0.837086 0.205426 0.878442
O O11 0.907585 0.500000 0.611377
O O12 0.901244 0.778093 0.466728
O O13 0.031953 0.688328 0.797929
O O14 0.359822 0.500000 0.594190
O O15 0.381302 0.827335 0.558968
O O16 0.837085 0.205427 0.132814
O O17 0.932883 0.000000 0.149325
O O18 0.846473 0.500000 0.258193
#
# Coordination Sequence:
#
# PCOD8065644 Si02
#       8
#     2   4   4   4   4   4   2   4
#     4  11  27  47  69 103 142 175 208 256 326 398
#     4  10  22  43  71 102 132 173 226 274 322 385
#     4  10  21  39  62  87 116 161 215 265 318 374
#     4  10  20  40  62  80 114 163 215 266 319 372
#     4  10  22  43  71 102 132 173 226 274 322 385
#     4  12  26  36  50  86 128 165 210 263 322 376
#     4  11  27  47  69 103 142 175 208 256 326 398
#     4  10  21  39  62  87 116 161 215 265 318 374
#
# _framework density 21.321753999999999
#
# number of rings (size 3 to 8) (size 9 to 14) (size 15 to 20)
#    0.000    1.571    1.429    2.571    4.000    6.857 
#    0.000    2.857    0.000    0.000    0.000    0.000 
#    0.000    0.000    0.000    0.000    0.000    0.000 
#
# Total GULP energy -347099.273502 kJ/mol
# GULP energy per Si atom -12396.402625 kJ/mol
# Density = 2.127322 g / cm^3
# Si number density = 21.321754 Si / 1000 Ang^3
#
#
#
# Elastic Constant Matrix: (Units=GPa)
#
#
# Indices 1 2 3 4 5 6 
#
# 1 104.6429 46.8210 40.8450 0.0000 -25.7886 0.0000
# 2 46.8210 102.0169 52.1781 0.0000 -15.1989 0.0000
# 3 40.8450 52.1781 123.7129 0.0000 -28.3162 0.0000
# 4 0.0000 0.0000 0.0000 66.8354 0.0000 -37.0475
# 5 -25.7886 -15.1989 -28.3162 0.0000 43.6154 0.0000
# 6 0.0000 0.0000 0.0000 -37.0475 0.0000 53.7798
#
#
#
# Elastic Compliance Matrix: (Units=1/GPa)
#
#
# Indices 1 2 3 4 5 6 
#
# 1 0.013525 -0.004776 -0.001176 0.000000 0.005569 0.000000
# 2 -0.004776 0.014230 -0.004623 0.000000 -0.000867 0.000000
# 3 -0.001176 -0.004623 0.011620 0.000000 0.005238 0.000000
# 4 0.000000 0.000000 0.000000 0.024205 0.000000 0.016674
# 5 0.005569 -0.000867 0.005238 0.000000 0.029319 0.000000
# 6 0.000000 0.000000 0.000000 0.016674 0.000000 0.030081
#
#
# Mechanical properties :
#
#
# Convention : Reuss Voigt Hill
#
# Bulk Modulus (GPa) = 54.87303 67.78455 61.32879
# Shear Modulus (GPa) = 33.28795 45.54801 39.41798
#
# Velocity S-wave (km/s) = 3.95551 4.62694 4.30434
# Velocity P-wave (km/s) = 6.83030 7.77207 7.31636
#
# Compressibility (1/GPa) = 0.01822389
#
# Stress axis : x y z
#
# Youngs Moduli (GPa) = 73.93832 70.27564 86.05595
#
# Poissons Ratio (x) = 0.33563 0.10124
# Poissons Ratio (y) = 0.35312 0.39785
# Poissons Ratio (z) = 0.08698 0.32490
#
# Static dielectric constant tensor:
#      x y z
#    x 3.777930 0.000000 -0.270780 
#    y 0.000000 3.879550 0.000000 
#    z -0.270780 0.000000 3.873370 
# 
# 
# High freq. dielectric constant tensor:
#      x y z
#    x 1.833900 0.000000 -0.015030 
#    y 0.000000 1.831670 0.000000 
#    z -0.015030 0.000000 1.839200 
# 
# From -- ./inp_files/34334.got.cif
#   From: 2010.06.25/outbox.cif.g09.slc.cpg/sg10_18_cif.got.tgz:34334.got - 2010.06.27 22:07:45.
