data_PCOD8065863
_publ_section_title
;
Structure prediction by ZEFSAII (Michael W. Deem and Ramdas Pophale) SiO2 
 PCOD8065863
Probable space group: P 2/M
;
_chemical_formula_sum "Si O2"
_cell_formula_units_Z 32
_cell_length_a 27.805053
_cell_length_b 9.089688
_cell_length_c 22.241715
_cell_angle_alpha 90.000000
_cell_angle_beta 161.564897
_cell_angle_gamma 90.000000
_cell_volume 1777.642730
_symmetry_space_group_name_H-M "P 2/M"
_symmetry_group_IT_number 10
_symmetry_cell_setting 'monoclinic'
loop_
_space_group_symop_operation_xyz
x,y,z
-x,y,-z
-x,-y,-z
x,-y,z
loop_
_atom_site_type_symbol
_atom_site_label
_atom_site_fract_x
_atom_site_fract_y
_atom_site_fract_z
Si Si1 0.297343 0.833214 0.499150
Si Si2 0.650390 0.171264 0.210935
Si Si3 0.546740 0.329522 0.487442
Si Si4 0.216708 0.671269 0.522356
Si Si5 0.102625 0.327461 0.798836
Si Si6 0.031274 0.170933 0.469260
Si Si7 0.608163 0.828098 0.802687
Si Si8 0.167639 0.169759 0.218002
O O1 0.247611 0.722773 0.491760
O O2 0.470232 0.800176 0.685082
O O3 0.186096 0.804923 0.311045
O O4 0.281194 0.000000 0.503441
O O5 0.666895 0.250868 0.294274
O O6 0.793118 0.204408 0.337166
O O7 0.633155 0.000000 0.204630
O O8 0.500000 0.232648 0.000000
O O9 0.500000 0.302301 0.500000
O O10 0.540182 0.500000 0.461552
O O11 0.430327 0.240756 0.307489
O O12 0.717658 0.271346 0.682827
O O13 0.248249 0.500000 0.564293
O O14 0.043937 0.710518 0.334647
O O15 0.134374 0.500000 0.832618
O O16 0.078789 0.265706 0.703563
O O17 0.243742 0.248133 0.996033
O O18 0.000000 0.220860 0.500000
O O19 0.991937 0.000000 0.412758
O O20 0.638941 0.000000 0.829956
O O21 0.202165 0.000000 0.242855
O O22 0.000000 0.217673 0.000000
#
# Coordination Sequence:
#
# PCOD8065863 Si02
#       8
#     4   4   4   4   4   4   4   4
#     4   9  19  35  54  77 104 134 172 217 259 303
#     4   9  18  33  52  73  99 132 169 211 256 300
#     4  10  21  36  54  79 110 140 172 213 262 314
#     4  10  21  35  52  76 106 139 173 210 254 308
#     4  10  21  36  53  77 109 140 173 214 260 312
#     4   9  18  33  52  74 101 134 174 216 256 303
#     4  10  21  37  57  79 103 136 178 219 260 308
#     4   9  19  36  56  79 106 137 177 220 259 305
#
# _framework density 18.001367999999999
#
# number of rings (size 3 to 8) (size 9 to 14) (size 15 to 20)
#    0.000    2.500    0.000    2.250    0.000    7.750 
#    0.000    5.000    0.000    0.000    0.000    0.000 
#    0.000    0.000    0.000    0.000    0.000    0.000 
#
# Total GULP energy -396916.873673 kJ/mol
# GULP energy per Si atom -12403.652302 kJ/mol
# Density = 1.796040 g / cm^3
# Si number density = 18.001368 Si / 1000 Ang^3
#
#
#
# Elastic Constant Matrix: (Units=GPa)
#
#
# Indices 1 2 3 4 5 6 
#
# 1 111.2632 58.9041 59.1121 0.0000 -11.6402 0.0000
# 2 58.9041 92.3137 70.5604 0.0000 -9.0390 0.0000
# 3 59.1121 70.5604 163.5236 0.0000 -14.6064 0.0000
# 4 0.0000 0.0000 0.0000 0.0079 0.0000 -1.8887
# 5 -11.6402 -9.0390 -14.6064 0.0000 13.4391 0.0000
# 6 0.0000 0.0000 0.0000 -1.8887 0.0000 30.6581
#
#
#
# Elastic Compliance Matrix: (Units=1/GPa)
#
#
# Indices 1 2 3 4 5 6 
#
# 1 0.014310 -0.007468 -0.001431 0.000000 0.005816 0.000000
# 2 -0.007468 0.020224 -0.005969 0.000000 0.000646 0.000000
# 3 -0.001431 -0.005969 0.009679 0.000000 0.005265 0.000000
# 4 0.000000 0.000000 0.000000 -9.220755 0.000000 -0.568049
# 5 0.005816 0.000646 0.005265 0.000000 0.085605 0.000000
# 6 0.000000 0.000000 0.000000 -0.568049 0.000000 -0.002377
#
#
# Mechanical properties :
#
#
# Convention : Reuss Voigt Hill
#
# Bulk Modulus (GPa) = 69.07862 82.69485 75.88673
# Shear Modulus (GPa) = -0.55195 20.72263 10.08534
#
# Velocity S-wave (km/s) = -0.55433 3.39657 2.36954
# Velocity P-wave (km/s) = 6.16828 7.83710 7.05223
#
# Compressibility (1/GPa) = 0.01447626
#
# Stress axis : x y z
#
# Youngs Moduli (GPa) = 69.88146 49.44740 103.32009
#
# Poissons Ratio (x) = 0.36925 0.14786
# Poissons Ratio (y) = 0.52185 0.61674
# Poissons Ratio (z) = 0.10001 0.29516
#
# Static dielectric constant tensor:
#      x y z
#    x 3.240150 0.000000 -0.021800 
#    y 0.000000 3.371970 0.000000 
#    z -0.021800 0.000000 3.420280 
# 
# 
# High freq. dielectric constant tensor:
#      x y z
#    x 1.694880 0.000000 -0.004800 
#    y 0.000000 1.702270 0.000000 
#    z -0.004800 0.000000 1.701850 
# 
# From -- ./inp_files/87072.got.cif
#   From: 2010.06.25/outbox.cif.g09.slc.cpg/sg10_44_cif.got.tgz:87072.got - 2010.06.27 22:07:45.
