data_PCOD8065396
_publ_section_title
;
Structure prediction by ZEFSAII (Michael W. Deem and Ramdas Pophale) SiO2 
 PCOD8065396
Probable space group: P 2/M
;
_chemical_formula_sum "Si O2"
_cell_formula_units_Z 24
_cell_length_a 9.743394
_cell_length_b 13.872759
_cell_length_c 14.014756
_cell_angle_alpha 90.000000
_cell_angle_beta 137.732172
_cell_angle_gamma 90.000000
_cell_volume 1274.129694
_symmetry_space_group_name_H-M "P 2/M"
_symmetry_group_IT_number 10
_symmetry_cell_setting 'monoclinic'
loop_
_space_group_symop_operation_xyz
x,y,z
-x,y,-z
-x,-y,-z
x,-y,z
loop_
_atom_site_type_symbol
_atom_site_label
_atom_site_fract_x
_atom_site_fract_y
_atom_site_fract_z
Si Si1 0.238124 0.395175 0.139299
Si Si2 0.183647 0.777019 0.663931
Si Si3 0.066963 0.113074 0.315542
Si Si4 0.421603 0.891040 0.639588
Si Si5 0.449116 0.609715 0.866209
Si Si6 0.159122 0.802175 0.168963
O O1 0.314800 0.500000 0.219959
O O2 0.354348 0.372270 0.100068
O O3 0.265800 0.304551 0.225191
O O4 0.000000 0.404316 0.000000
O O5 0.368677 0.825560 0.702496
O O6 0.257879 0.675010 0.740655
O O7 0.000000 0.752922 0.500000
O O8 0.114949 0.851017 0.710383
O O9 0.286504 0.135022 0.476960
O O10 0.043106 0.176146 0.207443
O O11 0.037618 0.000000 0.278961
O O12 0.661031 0.880612 0.742671
O O13 0.371731 0.000000 0.642767
O O14 0.374066 0.500000 0.819927
O O15 0.500000 0.637649 0.000000
O O16 0.000000 0.812556 0.000000
#
# Coordination Sequence:
#
# PCOD8065396 Si02
#       6
#     4   4   4   4   4   4
#     4   9  19  36  57  81 111 145 181 224 275 329
#     4  10  21  37  58  84 111 146 187 234 278 321
#     4  10  22  38  57  80 112 151 189 227 271 333
#     4  10  20  38  59  79 108 149 191 227 277 336
#     4  10  21  37  60  86 112 146 187 226 277 340
#     4  11  22  35  56  86 111 145 183 233 279 325
#
# _framework density 18.836386999999998
#
# number of rings (size 3 to 8) (size 9 to 14) (size 15 to 20)
#    0.000    2.000    1.667    1.500    4.667    5.000 
#    0.000    0.000    0.000    6.000    0.000    0.000 
#    0.000    0.000    0.000    0.000    0.000    0.000 
#
# Total GULP energy -297515.802379 kJ/mol
# GULP energy per Si atom -12396.491766 kJ/mol
# Density = 1.879351 g / cm^3
# Si number density = 18.836387 Si / 1000 Ang^3
#
#
#
# Elastic Constant Matrix: (Units=GPa)
#
#
# Indices 1 2 3 4 5 6 
#
# 1 98.0791 50.5417 36.9569 0.0000 -14.2676 0.0000
# 2 50.5417 114.0992 39.7369 0.0000 -20.4872 0.0000
# 3 36.9569 39.7369 60.4002 0.0000 -8.4749 0.0000
# 4 0.0000 0.0000 0.0000 25.3974 0.0000 -5.7763
# 5 -14.2676 -20.4872 -8.4749 0.0000 30.5628 0.0000
# 6 0.0000 0.0000 0.0000 -5.7763 0.0000 29.1027
#
#
#
# Elastic Compliance Matrix: (Units=1/GPa)
#
#
# Indices 1 2 3 4 5 6 
#
# 1 0.014960 -0.004023 -0.006144 0.000000 0.002583 0.000000
# 2 -0.004023 0.013522 -0.005646 0.000000 0.005620 0.000000
# 3 -0.006144 -0.005646 0.024032 0.000000 0.000011 0.000000
# 4 0.000000 0.000000 0.000000 0.041236 0.000000 0.008184
# 5 0.002583 0.005620 0.000011 0.000000 0.037696 0.000000
# 6 0.000000 0.000000 0.000000 0.008184 0.000000 0.035986
#
#
# Mechanical properties :
#
#
# Convention : Reuss Voigt Hill
#
# Bulk Modulus (GPa) = 47.87625 58.56104 53.21865
# Shear Modulus (GPa) = 24.26960 26.70210 25.48585
#
# Velocity S-wave (km/s) = 3.59338 3.76916 3.68232
# Velocity P-wave (km/s) = 6.53365 7.07806 6.81130
#
# Compressibility (1/GPa) = 0.02088718
#
# Stress axis : x y z
#
# Youngs Moduli (GPa) = 66.84497 73.95498 41.61191
#
# Poissons Ratio (x) = 0.29752 0.25568
# Poissons Ratio (y) = 0.26892 0.23493
# Poissons Ratio (z) = 0.41072 0.41753
#
# Static dielectric constant tensor:
#      x y z
#    x 3.550190 0.000000 0.003760 
#    y 0.000000 3.865210 0.000000 
#    z 0.003760 0.000000 3.197500 
# 
# 
# High freq. dielectric constant tensor:
#      x y z
#    x 1.743350 0.000000 0.007890 
#    y 0.000000 1.745800 0.000000 
#    z 0.007890 0.000000 1.702750 
# 
# From -- ./inp_files/29264.got.cif
#   From: 2010.06.25/outbox.cif.g09.slc.cpg/sg10_15_cif.got.tgz:29264.got - 2010.06.27 22:07:45.
