data_PCOD8065789
_publ_section_title
;
Structure prediction by ZEFSAII (Michael W. Deem and Ramdas Pophale) SiO2 
 PCOD8065789
Probable space group: P 2/M
;
_chemical_formula_sum "Si O2"
_cell_formula_units_Z 32
_cell_length_a 12.092596
_cell_length_b 22.395168
_cell_length_c 17.824861
_cell_angle_alpha 90.000000
_cell_angle_beta 19.933669
_cell_angle_gamma 90.000000
_cell_volume 1645.765047
_symmetry_space_group_name_H-M "P 2/M"
_symmetry_group_IT_number 10
_symmetry_cell_setting 'monoclinic'
loop_
_space_group_symop_operation_xyz
x,y,z
-x,y,-z
-x,-y,-z
x,-y,z
loop_
_atom_site_type_symbol
_atom_site_label
_atom_site_fract_x
_atom_site_fract_y
_atom_site_fract_z
Si Si1 0.152302 0.067235 0.821479
Si Si2 0.369554 0.433815 0.465667
Si Si3 0.328723 0.347862 0.838035
Si Si4 0.851845 0.068396 0.673956
Si Si5 0.337826 0.225811 0.329802
Si Si6 0.244343 0.139804 0.528778
Si Si7 0.255748 0.859844 0.028481
Si Si8 0.980222 0.566341 0.854198
O O1 0.429897 0.117520 0.638798
O O2 0.880675 0.087076 0.936126
O O3 0.271582 0.000000 0.725151
O O4 0.000000 0.067702 0.000000
O O5 0.302586 0.500000 0.474741
O O6 0.405852 0.385473 0.377458
O O7 0.700454 0.436442 0.299959
O O8 0.074641 0.415081 0.708969
O O9 0.512841 0.288847 0.744424
O O10 0.000000 0.334627 0.000000
O O11 0.257957 0.384601 0.959139
O O12 0.000000 0.089566 0.500000
O O13 0.112719 0.079812 0.572480
O O14 0.748217 0.000000 0.737873
O O15 0.547657 0.109668 0.887839
O O16 0.289066 0.191225 0.439025
O O17 0.000000 0.231663 0.500000
O O18 0.613838 0.194721 0.103819
O O19 0.006121 0.164711 0.745152
O O20 0.820007 0.500000 0.956992
#
# Coordination Sequence:
#
# PCOD8065789 Si02
#       8
#     4   4   4   4   4   4   4   4
#     4  11  23  41  65  92 123 147 174 233 308 370
#     4   8  14  28  53  88 124 150 181 232 290 342
#     4  10  21  34  58  85 115 152 198 240 283 341
#     4  11  21  39  65  90 115 145 186 241 298 356
#     4  12  26  45  58  80 117 160 209 250 289 337
#     4  12  24  41  63  85 114 152 194 240 293 353
#     4  12  24  41  63  85 114 152 194 240 293 353
#     4   8  14  28  53  88 124 150 181 232 290 342
#
# _framework density 19.443845
#
# number of rings (size 3 to 8) (size 9 to 14) (size 15 to 20)
#    0.000    1.500    3.750    2.625    1.750    7.500 
#    0.000    0.000    0.000    1.500    0.000    1.750 
#    0.000    0.000    0.000    0.000    0.000    0.000 
#
# Total GULP energy -396741.582491 kJ/mol
# GULP energy per Si atom -12398.174453 kJ/mol
# Density = 1.939959 g / cm^3
# Si number density = 19.443845 Si / 1000 Ang^3
#
#
#
# Elastic Constant Matrix: (Units=GPa)
#
#
# Indices 1 2 3 4 5 6 
#
# 1 64.5506 52.2919 40.7845 0.0000 16.9136 0.0000
# 2 52.2919 143.8240 73.6349 0.0000 17.7900 0.0000
# 3 40.7845 73.6349 107.4249 0.0000 28.0025 0.0000
# 4 0.0000 0.0000 0.0000 22.3165 0.0000 -9.3956
# 5 16.9136 17.7900 28.0025 0.0000 37.2147 0.0000
# 6 0.0000 0.0000 0.0000 -9.3956 0.0000 17.8466
#
#
#
# Elastic Compliance Matrix: (Units=1/GPa)
#
#
# Indices 1 2 3 4 5 6 
#
# 1 0.024246 -0.006402 -0.003411 0.000000 -0.005392 0.000000
# 2 -0.006402 0.012410 -0.006578 0.000000 0.001927 0.000000
# 3 -0.003411 -0.006578 0.017278 0.000000 -0.008306 0.000000
# 4 0.000000 0.000000 0.000000 0.057570 0.000000 0.030309
# 5 -0.005392 0.001927 -0.008306 0.000000 0.034651 0.000000
# 6 0.000000 0.000000 0.000000 0.030309 0.000000 0.071989
#
#
# Mechanical properties :
#
#
# Convention : Reuss Voigt Hill
#
# Bulk Modulus (GPa) = 47.27848 72.13578 59.70713
# Shear Modulus (GPa) = 19.38141 25.41476 22.39809
#
# Velocity S-wave (km/s) = 3.16062 3.61929 3.39770
# Velocity P-wave (km/s) = 6.13902 7.39227 6.79460
#
# Compressibility (1/GPa) = 0.02115127
#
# Stress axis : x y z
#
# Youngs Moduli (GPa) = 41.24366 80.57859 57.87595
#
# Poissons Ratio (x) = 0.51586 0.19743
# Poissons Ratio (y) = 0.26404 0.38073
# Poissons Ratio (z) = 0.14070 0.53008
#
# Static dielectric constant tensor:
#      x y z
#    x 3.551770 0.000000 0.238800 
#    y 0.000000 3.516730 0.000000 
#    z 0.238800 0.000000 3.707820 
# 
# 
# High freq. dielectric constant tensor:
#      x y z
#    x 1.747660 0.000000 0.019950 
#    y 0.000000 1.746560 0.000000 
#    z 0.019950 0.000000 1.756650 
# 
# From -- ./inp_files/77239.got.cif
#   From: 2010.06.25/outbox.cif.g09.slc.cpg/sg10_39_cif.got.tgz:77239.got - 2010.06.27 22:07:45.
