data_PCOD8065665
_publ_section_title
;
Structure prediction by ZEFSAII (Michael W. Deem and Ramdas Pophale) SiO2 
 PCOD8065665
Probable space group: P 2/M
;
_chemical_formula_sum "Si O2"
_cell_formula_units_Z 28
_cell_length_a 15.329995
_cell_length_b 9.128217
_cell_length_c 11.751002
_cell_angle_alpha 90.000000
_cell_angle_beta 120.291752
_cell_angle_gamma 90.000000
_cell_volume 1419.872024
_symmetry_space_group_name_H-M "P 2/M"
_symmetry_group_IT_number 10
_symmetry_cell_setting 'monoclinic'
loop_
_space_group_symop_operation_xyz
x,y,z
-x,y,-z
-x,-y,-z
x,-y,z
loop_
_atom_site_type_symbol
_atom_site_label
_atom_site_fract_x
_atom_site_fract_y
_atom_site_fract_z
Si Si1 0.284336 0.169233 0.124313
Si Si2 0.382441 0.829466 0.427017
Si Si3 0.014558 0.166541 0.693527
Si Si4 0.164911 0.833500 0.591030
Si Si5 0.351300 0.673100 0.633206
Si Si6 0.480208 0.830092 0.116735
Si Si7 0.074623 0.672407 0.950916
O O1 0.332496 0.218856 0.275648
O O2 0.363614 0.196949 0.073885
O O3 0.253599 0.000000 0.108755
O O4 0.185104 0.260792 0.035366
O O5 0.500000 0.791894 0.500000
O O6 0.332392 0.736402 0.494772
O O7 0.364237 0.000000 0.440573
O O8 0.104773 0.198988 0.666159
O O9 0.022502 0.280302 0.800093
O O10 0.907071 0.192314 0.564096
O O11 0.022803 0.000000 0.744021
O O12 0.257785 0.721986 0.649784
O O13 0.205744 0.000000 0.617700
O O14 0.358064 0.500000 0.632267
O O15 0.453567 0.734639 0.754280
O O16 0.509286 0.000000 0.153519
O O17 0.500000 0.780803 0.000000
O O18 0.086900 0.500000 0.962101
O O19 0.000000 0.729037 0.000000
#
# Coordination Sequence:
#
# PCOD8065665 Si02
#       7
#     4   4   4   4   4   4   4
#     4  10  22  41  66  92 116 157 211 259 303 349
#     4  10  20  40  65  87 116 153 202 252 294 347
#     4   9  20  41  67  90 113 151 208 260 300 350
#     4   9  20  40  65  91 118 152 200 257 304 349
#     4  12  25  37  58  93 129 161 195 239 302 372
#     4  10  22  42  66  91 122 161 208 256 299 354
#     4  11  26  43  59  86 129 168 198 244 309 373
#
# _framework density 19.720086999999999
#
# number of rings (size 3 to 8) (size 9 to 14) (size 15 to 20)
#    0.000    1.857    1.429    2.571    4.000    4.000 
#    0.000    1.429    0.000    0.000    0.000    0.000 
#    0.000    0.000    0.000    0.000    0.000    0.000 
#
# Total GULP energy -347315.056834 kJ/mol
# GULP energy per Si atom -12404.109173 kJ/mol
# Density = 1.967520 g / cm^3
# Si number density = 19.720087 Si / 1000 Ang^3
#
#
#
# Elastic Constant Matrix: (Units=GPa)
#
#
# Indices 1 2 3 4 5 6 
#
# 1 113.8368 49.3789 42.8653 0.0000 -4.6684 0.0000
# 2 49.3789 74.8121 36.9273 0.0000 -4.9224 0.0000
# 3 42.8653 36.9273 92.7832 0.0000 -17.4030 0.0000
# 4 0.0000 0.0000 0.0000 10.2702 0.0000 -2.0784
# 5 -4.6684 -4.9224 -17.4030 0.0000 29.7395 0.0000
# 6 0.0000 0.0000 0.0000 -2.0784 0.0000 17.0894
#
#
#
# Elastic Compliance Matrix: (Units=1/GPa)
#
#
# Indices 1 2 3 4 5 6 
#
# 1 0.013079 -0.006994 -0.003472 0.000000 -0.001136 0.000000
# 2 -0.006994 0.020416 -0.005017 0.000000 -0.000655 0.000000
# 3 -0.003472 -0.005017 0.015862 0.000000 0.007907 0.000000
# 4 0.000000 0.000000 0.000000 0.099827 0.000000 0.012141
# 5 -0.001136 -0.000655 0.007907 0.000000 0.037965 0.000000
# 6 0.000000 0.000000 0.000000 0.012141 0.000000 0.059992
#
#
# Mechanical properties :
#
#
# Convention : Reuss Voigt Hill
#
# Bulk Modulus (GPa) = 54.37465 59.97502 57.17484
# Shear Modulus (GPa) = 17.59090 21.57052 19.58071
#
# Velocity S-wave (km/s) = 2.98993 3.31091 3.15450
# Velocity P-wave (km/s) = 6.28909 6.71530 6.50569
#
# Compressibility (1/GPa) = 0.01839092
#
# Stress axis : x y z
#
# Youngs Moduli (GPa) = 76.45898 48.98031 63.04439
#
# Poissons Ratio (x) = 0.34254 0.21890
# Poissons Ratio (y) = 0.53472 0.31632
# Poissons Ratio (z) = 0.26547 0.24576
#
# Static dielectric constant tensor:
#      x y z
#    x 3.682910 0.000000 -0.102870 
#    y 0.000000 3.405420 0.000000 
#    z -0.102870 0.000000 3.625200 
# 
# 
# High freq. dielectric constant tensor:
#      x y z
#    x 1.781160 0.000000 -0.003150 
#    y 0.000000 1.752530 0.000000 
#    z -0.003150 0.000000 1.773780 
# 
# From -- ./inp_files/50063.got.cif
#   From: 2010.06.25/outbox.cif.g09.slc.cpg/sg10_26_cif.got.tgz:50063.got - 2010.06.27 22:07:45.
