data_PCOD8065600
_publ_section_title
;
Structure prediction by ZEFSAII (Michael W. Deem and Ramdas Pophale) SiO2 
 PCOD8065600
Probable space group: P 2/M
;
_chemical_formula_sum "Si O2"
_cell_formula_units_Z 28
_cell_length_a 9.174197
_cell_length_b 31.289006
_cell_length_c 4.968601
_cell_angle_alpha 90.000000
_cell_angle_beta 118.053677
_cell_angle_gamma 90.000000
_cell_volume 1258.671212
_symmetry_space_group_name_H-M "P 2/M"
_symmetry_group_IT_number 10
_symmetry_cell_setting 'monoclinic'
loop_
_space_group_symop_operation_xyz
x,y,z
-x,y,-z
-x,-y,-z
x,-y,z
loop_
_atom_site_type_symbol
_atom_site_label
_atom_site_fract_x
_atom_site_fract_y
_atom_site_fract_z
Si Si1 0.686233 0.408312 0.576584
Si Si2 0.887300 0.672412 0.661265
Si Si3 0.695612 0.243391 0.667293
Si Si4 0.818065 0.049253 0.725835
Si Si5 0.174196 0.450633 0.778106
Si Si6 0.692087 0.904583 0.107575
Si Si7 0.304957 0.809565 0.830530
O O1 0.500000 0.400278 0.500000
O O2 0.755259 0.365116 0.499017
O O3 0.690458 0.443268 0.339786
O O4 0.791887 0.423466 0.925133
O O5 0.790061 0.714131 0.670617
O O6 0.000000 0.681551 0.500000
O O7 0.000000 0.656345 0.000000
O O8 0.500000 0.252737 0.500000
O O9 0.750121 0.206256 0.509352
O O10 0.755870 0.225816 0.007587
O O11 0.799415 0.067272 0.408296
O O12 0.764750 0.000000 0.675001
O O13 0.699131 0.075718 0.816925
O O14 0.000000 0.055261 0.000000
O O15 0.171158 0.500000 0.860303
O O16 0.000000 0.435377 0.500000
O O17 0.767591 0.856596 0.174190
O O18 0.500000 0.904479 0.000000
O O19 0.500000 0.812846 0.000000
#
# Coordination Sequence:
#
# PCOD8065600 Si02
#       7
#     4   4   4   4   4   4   4
#     4  12  25  42  66  95 127 167 215 261 307 365
#     4  12  25  42  63  89 125 162 203 255 310 361
#     4  10  20  39  63  87 117 156 199 241 299 369
#     4  11  24  41  59  84 123 165 201 246 309 367
#     4  11  24  43  67  95 130 170 208 254 317 375
#     4  11  22  39  64  92 119 155 206 254 299 357
#     4   9  19  36  61  89 119 153 192 247 306 360
#
# _framework density 22.24568
#
# number of rings (size 3 to 8) (size 9 to 14) (size 15 to 20)
#    0.000    1.143    0.000    6.857    0.000    8.000 
#    0.000   11.429    0.000    0.000    0.000    0.000 
#    0.000    0.000    0.000    0.000    0.000    0.000 
#
# Total GULP energy -347265.962158 kJ/mol
# GULP energy per Si atom -12402.355791 kJ/mol
# Density = 2.219505 g / cm^3
# Si number density = 22.245680 Si / 1000 Ang^3
#
#
#
# Elastic Constant Matrix: (Units=GPa)
#
#
# Indices 1 2 3 4 5 6 
#
# 1 106.4491 53.6418 19.6395 0.0000 -17.5974 0.0000
# 2 53.6418 134.4969 26.2840 0.0000 -0.8440 0.0000
# 3 19.6395 26.2840 77.5526 0.0000 -16.4038 0.0000
# 4 0.0000 0.0000 0.0000 35.4159 0.0000 -16.4011
# 5 -17.5974 -0.8440 -16.4038 0.0000 37.2537 0.0000
# 6 0.0000 0.0000 0.0000 -16.4011 0.0000 35.2901
#
#
#
# Elastic Compliance Matrix: (Units=1/GPa)
#
#
# Indices 1 2 3 4 5 6 
#
# 1 0.012984 -0.005078 -0.000324 0.000000 0.005876 0.000000
# 2 -0.005078 0.009991 -0.002822 0.000000 -0.003415 0.000000
# 3 -0.000324 -0.002822 0.015313 0.000000 0.006526 0.000000
# 4 0.000000 0.000000 0.000000 0.035980 0.000000 0.016722
# 5 0.005876 -0.003415 0.006526 0.000000 0.032415 0.000000
# 6 0.000000 0.000000 0.000000 0.016722 0.000000 0.036108
#
#
# Mechanical properties :
#
#
# Convention : Reuss Voigt Hill
#
# Bulk Modulus (GPa) = 45.79053 57.51435 51.65244
# Shear Modulus (GPa) = 30.02641 36.18748 33.10695
#
# Velocity S-wave (km/s) = 3.67790 4.03764 3.86196
# Velocity P-wave (km/s) = 6.21809 6.90268 6.56931
#
# Compressibility (1/GPa) = 0.02183858
#
# Stress axis : x y z
#
# Youngs Moduli (GPa) = 77.01564 100.09340 65.30206
#
# Poissons Ratio (x) = 0.50831 0.02117
# Poissons Ratio (y) = 0.39111 0.18431
# Poissons Ratio (z) = 0.02497 0.28250
#
# Static dielectric constant tensor:
#      x y z
#    x 4.121490 0.000000 -0.291780 
#    y 0.000000 4.107990 0.000000 
#    z -0.291780 0.000000 4.208230 
# 
# 
# High freq. dielectric constant tensor:
#      x y z
#    x 1.878700 0.000000 -0.015740 
#    y 0.000000 1.887560 0.000000 
#    z -0.015740 0.000000 1.877520 
# 
# From -- ./inp_files/5547.got.cif
#   From: 2010.06.25/outbox.cif.g09.slc.cpg/sg10_3_cif.got.tgz:5547.got - 2010.06.27 22:07:45.
