data_PCOD8065678
_publ_section_title
;
Structure prediction by ZEFSAII (Michael W. Deem and Ramdas Pophale) SiO2 
 PCOD8065678
Probable space group: P 2/M
;
_chemical_formula_sum "Si O2"
_cell_formula_units_Z 32
_cell_length_a 18.582915
_cell_length_b 13.838915
_cell_length_c 12.202237
_cell_angle_alpha 90.000000
_cell_angle_beta 150.395348
_cell_angle_gamma 90.000000
_cell_volume 1550.219667
_symmetry_space_group_name_H-M "P 2/M"
_symmetry_group_IT_number 10
_symmetry_cell_setting 'monoclinic'
loop_
_space_group_symop_operation_xyz
x,y,z
-x,y,-z
-x,-y,-z
x,-y,z
loop_
_atom_site_type_symbol
_atom_site_label
_atom_site_fract_x
_atom_site_fract_y
_atom_site_fract_z
Si Si1 0.866955 0.201073 0.504693
Si Si2 0.198637 0.794768 0.992319
Si Si3 0.310800 0.114012 0.925861
Si Si4 0.637126 0.886202 0.364259
Si Si5 0.384867 0.386626 0.251266
Si Si6 0.732958 0.610383 0.323400
Si Si7 0.364534 0.114105 0.390181
Si Si8 0.511699 0.610008 0.844386
O O1 0.809179 0.157010 0.314565
O O2 0.766796 0.162265 0.469336
O O3 0.869148 0.318207 0.503673
O O4 0.034630 0.178630 0.743416
O O5 0.298486 0.839041 0.029084
O O6 0.241361 0.681520 0.070480
O O7 0.221276 0.851727 0.136042
O O8 0.287112 0.000000 0.904718
O O9 0.475411 0.137987 0.101895
O O10 0.642349 0.846311 0.495436
O O11 0.664365 0.000000 0.395090
O O12 0.500000 0.368902 0.500000
O O13 0.336572 0.500000 0.182012
O O14 0.467958 0.352204 0.251178
O O15 0.782012 0.500000 0.409908
O O16 0.623937 0.656824 0.270726
O O17 0.660714 0.621868 0.108495
O O18 0.500000 0.158616 0.500000
O O19 0.377458 0.000000 0.410826
O O20 0.464160 0.500000 0.779947
#
# Coordination Sequence:
#
# PCOD8065678 Si02
#       8
#     4   4   4   4   4   4   4   4
#     4  12  26  37  58  94 130 165 198 245 315 372
#     4  12  25  39  60  93 126 164 203 249 310 370
#     4  11  24  43  65  89 123 166 209 254 306 367
#     4  10  23  42  65  90 118 159 209 259 304 358
#     4  10  22  39  62  90 119 158 210 260 302 353
#     4   9  19  35  57  85 118 156 196 244 299 354
#     4  10  20  40  67  90 112 152 208 255 301 360
#     4   8  16  33  57  84 107 141 200 252 289 335
#
# _framework density 20.642237000000002
#
# number of rings (size 3 to 8) (size 9 to 14) (size 15 to 20)
#    0.000    1.750    1.250    3.375    5.250    4.500 
#    0.000    1.250    0.000    3.750    0.000    5.250 
#    0.000    0.000    0.000    0.000    0.000    0.000 
#
# Total GULP energy -396603.299681 kJ/mol
# GULP energy per Si atom -12393.853115 kJ/mol
# Density = 2.059525 g / cm^3
# Si number density = 20.642237 Si / 1000 Ang^3
#
#
#
# Elastic Constant Matrix: (Units=GPa)
#
#
# Indices 1 2 3 4 5 6 
#
# 1 73.0246 25.7764 36.5969 0.0000 -11.5478 0.0000
# 2 25.7764 60.9735 29.4956 0.0000 6.7650 0.0000
# 3 36.5969 29.4956 96.1544 0.0000 -7.3062 0.0000
# 4 0.0000 0.0000 0.0000 24.5094 0.0000 2.3033
# 5 -11.5478 6.7650 -7.3062 0.0000 30.1863 0.0000
# 6 0.0000 0.0000 0.0000 2.3033 0.0000 8.7504
#
#
#
# Elastic Compliance Matrix: (Units=1/GPa)
#
#
# Indices 1 2 3 4 5 6 
#
# 1 0.019811 -0.006933 -0.004808 0.000000 0.007969 0.000000
# 2 -0.006933 0.022757 -0.005023 0.000000 -0.008968 0.000000
# 3 -0.004808 -0.005023 0.013973 0.000000 0.002669 0.000000
# 4 0.000000 0.000000 0.000000 0.041836 0.000000 -0.011012
# 5 0.007969 -0.008968 0.002669 0.000000 0.038832 0.000000
# 6 0.000000 0.000000 0.000000 -0.011012 0.000000 0.117179
#
#
# Mechanical properties :
#
#
# Convention : Reuss Voigt Hill
#
# Bulk Modulus (GPa) = 43.45518 45.98780 44.72149
# Shear Modulus (GPa) = 16.91547 21.90813 19.41180
#
# Velocity S-wave (km/s) = 2.86572 3.26133 3.06991
# Velocity P-wave (km/s) = 5.66102 6.04223 5.85473
#
# Compressibility (1/GPa) = 0.02301222
#
# Stress axis : x y z
#
# Youngs Moduli (GPa) = 50.47679 43.94324 71.56419
#
# Poissons Ratio (x) = 0.30468 0.34407
# Poissons Ratio (y) = 0.34998 0.35948
# Poissons Ratio (z) = 0.24268 0.22073
#
# Static dielectric constant tensor:
#      x y z
#    x 3.743740 0.000000 -0.256400 
#    y 0.000000 3.871390 0.000000 
#    z -0.256400 0.000000 3.521620 
# 
# 
# High freq. dielectric constant tensor:
#      x y z
#    x 1.803660 0.000000 -0.020270 
#    y 0.000000 1.823410 0.000000 
#    z -0.020270 0.000000 1.787220 
# 
# From -- ./inp_files/54035.got.cif
#   From: 2010.06.25/outbox.cif.g09.slc.cpg/sg10_28_cif.got.tgz:54035.got - 2010.06.27 22:07:45.
