data_PCOD8065940
_publ_section_title
;
Structure prediction by ZEFSAII (Michael W. Deem and Ramdas Pophale) SiO2 
 PCOD8065940
Probable space group: P 2/M
;
_chemical_formula_sum "Si O2"
_cell_formula_units_Z 32
_cell_length_a 10.077329
_cell_length_b 14.050986
_cell_length_c 25.040344
_cell_angle_alpha 90.000000
_cell_angle_beta 151.001453
_cell_angle_gamma 90.000000
_cell_volume 1718.873392
_symmetry_space_group_name_H-M "P 2/M"
_symmetry_group_IT_number 10
_symmetry_cell_setting 'monoclinic'
loop_
_space_group_symop_operation_xyz
x,y,z
-x,y,-z
-x,-y,-z
x,-y,z
loop_
_atom_site_type_symbol
_atom_site_label
_atom_site_fract_x
_atom_site_fract_y
_atom_site_fract_z
Si Si1 0.292564 0.390049 0.077050
Si Si2 0.074009 0.890307 0.342841
Si Si3 0.695249 0.764760 0.377698
Si Si4 0.304471 0.390235 0.478055
Si Si5 0.757477 0.387371 0.060626
Si Si6 0.647614 0.608099 0.705007
Si Si7 0.524441 0.109111 0.417576
Si Si8 0.768933 0.739695 0.287991
O O1 0.388339 0.500000 0.113116
O O2 0.515111 0.325872 0.184306
O O3 0.256178 0.351953 0.004501
O O4 0.000000 0.376042 0.000000
O O5 0.248580 0.868852 0.457957
O O6 0.235860 0.867521 0.344942
O O7 0.819220 0.817783 0.258725
O O8 0.978124 0.000000 0.308495
O O9 0.515867 0.669302 0.309382
O O10 0.564073 0.834516 0.375966
O O11 0.703750 0.800611 0.319277
O O12 0.000000 0.736264 0.500000
O O13 0.500000 0.352430 0.500000
O O14 0.217911 0.500000 0.438531
O O15 0.497408 0.377213 0.596603
O O16 0.035234 0.327176 0.388972
O O17 0.735712 0.500000 0.055484
O O18 0.039330 0.355360 0.188475
O O19 0.500000 0.340070 0.000000
O O20 0.640206 0.500000 0.722974
O O21 0.537409 0.000000 0.404856
#
# Coordination Sequence:
#
# PCOD8065940 Si02
#       8
#     4   4   4   4   4   4   4   4
#     4  10  22  40  57  77 110 153 196 235 274 322
#     4   9  19  35  56  81 108 145 185 227 283 339
#     4  12  22  33  48  81 112 147 185 219 270 333
#     4  10  22  34  49  79 117 155 185 221 280 338
#     4   9  19  35  56  77  97 135 194 245 277 308
#     4  10  21  36  52  74 114 152 184 229 275 327
#     4   9  19  36  55  76 112 151 182 222 276 339
#     4  12  23  34  57  83 115 147 189 232 278 337
#
# _framework density 18.616845000000001
#
# number of rings (size 3 to 8) (size 9 to 14) (size 15 to 20)
#    0.000    1.875    2.500    1.875    5.250    3.000 
#    0.000    0.000    0.000    0.375    0.000    0.875 
#    0.000    9.000    0.000    0.000    0.000    0.000 
#
# Total GULP energy -396575.003686 kJ/mol
# GULP energy per Si atom -12392.968865 kJ/mol
# Density = 1.857447 g / cm^3
# Si number density = 18.616845 Si / 1000 Ang^3
#
#
#
# Elastic Constant Matrix: (Units=GPa)
#
#
# Indices 1 2 3 4 5 6 
#
# 1 126.7514 48.2145 37.1430 0.0000 11.8018 0.0000
# 2 48.2145 78.5328 40.0746 0.0000 12.3607 0.0000
# 3 37.1430 40.0746 89.9198 0.0000 10.0097 0.0000
# 4 0.0000 0.0000 0.0000 13.8153 0.0000 1.3675
# 5 11.8018 12.3607 10.0097 0.0000 18.7698 0.0000
# 6 0.0000 0.0000 0.0000 1.3675 0.0000 32.1202
#
#
#
# Elastic Compliance Matrix: (Units=1/GPa)
#
#
# Indices 1 2 3 4 5 6 
#
# 1 0.010623 -0.005249 -0.001797 0.000000 -0.002265 0.000000
# 2 -0.005249 0.020095 -0.006040 0.000000 -0.006712 0.000000
# 3 -0.001797 -0.006040 0.014869 0.000000 -0.002822 0.000000
# 4 0.000000 0.000000 0.000000 0.072690 0.000000 -0.003095
# 5 -0.002265 -0.006712 -0.002822 0.000000 0.060626 0.000000
# 6 0.000000 0.000000 0.000000 -0.003095 0.000000 0.031265
#
#
# Mechanical properties :
#
#
# Convention : Reuss Voigt Hill
#
# Bulk Modulus (GPa) = 51.50517 60.67424 56.08971
# Shear Modulus (GPa) = 20.59207 24.25919 22.42563
#
# Velocity S-wave (km/s) = 3.32941 3.61373 3.47448
# Velocity P-wave (km/s) = 6.51966 7.07629 6.80367
#
# Compressibility (1/GPa) = 0.01941553
#
# Stress axis : x y z
#
# Youngs Moduli (GPa) = 94.13132 49.76433 67.25215
#
# Poissons Ratio (x) = 0.26120 0.12084
# Poissons Ratio (y) = 0.49407 0.40623
# Poissons Ratio (z) = 0.16914 0.30060
#
# Static dielectric constant tensor:
#      x y z
#    x 3.763160 0.000000 0.150760 
#    y 0.000000 3.390060 0.000000 
#    z 0.150760 0.000000 3.339770 
# 
# 
# High freq. dielectric constant tensor:
#      x y z
#    x 1.742260 0.000000 0.009920 
#    y 0.000000 1.702690 0.000000 
#    z 0.009920 0.000000 1.696920 
# 
# From -- ./inp_files/88263.got.cif
#   From: 2010.06.25/outbox.cif.g09.slc.cpg/sg10_45_cif.got.tgz:88263.got - 2010.06.27 22:07:45.
