data_PCOD8065389
_publ_section_title
;
Structure prediction by ZEFSAII (Michael W. Deem and Ramdas Pophale) SiO2 
 PCOD8065389
Probable space group: P 2/M
;
_chemical_formula_sum "Si O2"
_cell_formula_units_Z 28
_cell_length_a 30.385014
_cell_length_b 11.018679
_cell_length_c 28.215100
_cell_angle_alpha 90.000000
_cell_angle_beta 171.082935
_cell_angle_gamma 90.000000
_cell_volume 1464.250049
_symmetry_space_group_name_H-M "P 2/M"
_symmetry_group_IT_number 10
_symmetry_cell_setting 'monoclinic'
loop_
_space_group_symop_operation_xyz
x,y,z
-x,y,-z
-x,-y,-z
x,-y,z
loop_
_atom_site_type_symbol
_atom_site_label
_atom_site_fract_x
_atom_site_fract_y
_atom_site_fract_z
Si Si1 0.803598 0.359598 0.411054
Si Si2 0.873802 0.359597 0.766347
Si Si3 0.469772 0.355781 0.690021
Si Si4 0.482496 0.744069 0.425089
Si Si5 0.325557 0.000000 0.361338
Si Si6 0.682437 0.000000 0.146656
Si Si7 0.911235 0.644219 0.631487
Si Si8 0.212104 0.255930 0.769511
O O1 0.892797 0.500000 0.501024
O O2 0.825051 0.310935 0.487571
O O3 0.028948 0.280672 0.621404
O O4 0.478364 0.346904 0.047458
O O5 0.959907 0.500000 0.851679
O O6 0.674993 0.310930 0.512476
O O7 0.702020 0.346903 0.632929
O O8 0.159152 0.280676 0.066694
O O9 0.469843 0.500000 0.690865
O O10 0.309472 0.303157 0.565394
O O11 0.785777 0.303153 0.029852
O O12 0.500000 0.724901 0.500000
O O13 0.582929 0.877570 0.513808
O O14 0.500000 0.000000 0.500000
O O15 0.000000 0.000000 0.000000
O O16 0.640599 0.122429 0.071478
O O17 0.000000 0.000000 0.500000
O O18 0.500000 0.000000 0.000000
O O19 0.914282 0.500000 0.635311
O O20 0.000000 0.275100 0.500000
#
# Coordination Sequence:
#
# PCOD8065389 Si02
#       8
#     4   4   4   4   2   2   4   4
#     4  11  22  34  52  82 113 140 172 210 268 334
#     4  11  22  34  52  82 113 140 172 210 268 334
#     4   9  17  31  50  72 101 136 174 215 254 301
#     4  11  22  36  54  77 107 143 179 218 260 309
#     4  10  20  38  58  74  96 136 192 232 248 282
#     4  10  20  38  58  74  96 136 192 232 248 282
#     4   9  17  31  50  72 101 136 174 215 254 301
#     4  11  22  36  54  77 107 143 179 218 260 309
#
# _framework density 19.122418
#
# number of rings (size 3 to 8) (size 9 to 14) (size 15 to 20)
#    0.000    1.714    0.000    6.857    0.000    8.000 
#    0.000    0.000    0.000    0.000    0.000   20.000 
#    0.000    0.000    0.000    0.000    0.000    0.000 
#
# Total GULP energy -347149.041433 kJ/mol
# GULP energy per Si atom -12398.180051 kJ/mol
# Density = 1.907889 g / cm^3
# Si number density = 19.122418 Si / 1000 Ang^3
#
#
#
# Elastic Constant Matrix: (Units=GPa)
#
#
# Indices 1 2 3 4 5 6 
#
# 1 96.0142 28.7824 18.9479 0.0000 10.2300 0.0000
# 2 28.7824 53.9845 23.9034 0.0000 -7.3115 0.0000
# 3 18.9479 23.9034 108.4948 0.0000 8.4203 0.0000
# 4 0.0000 0.0000 0.0000 21.1984 0.0000 11.0626
# 5 10.2300 -7.3115 8.4203 0.0000 39.2413 0.0000
# 6 0.0000 0.0000 0.0000 11.0626 0.0000 13.8032
#
#
#
# Elastic Compliance Matrix: (Units=1/GPa)
#
#
# Indices 1 2 3 4 5 6 
#
# 1 0.013260 -0.007604 -0.000267 0.000000 -0.004817 0.000000
# 2 -0.007604 0.025847 -0.004977 0.000000 0.007866 0.000000
# 3 -0.000267 -0.004977 0.010603 0.000000 -0.003133 0.000000
# 4 0.000000 0.000000 0.000000 0.081089 0.000000 -0.064989
# 5 -0.004817 0.007866 -0.003133 0.000000 0.028877 0.000000
# 6 0.000000 0.000000 0.000000 -0.064989 0.000000 0.124533
#
#
# Mechanical properties :
#
#
# Convention : Reuss Voigt Hill
#
# Bulk Modulus (GPa) = 41.64060 44.64010 43.14035
# Shear Modulus (GPa) = 15.72771 27.30591 21.51681
#
# Velocity S-wave (km/s) = 2.87099 3.78293 3.35806
# Velocity P-wave (km/s) = 5.72828 6.51734 6.13551
#
# Compressibility (1/GPa) = 0.02401502
#
# Stress axis : x y z
#
# Youngs Moduli (GPa) = 75.41202 38.68885 94.31019
#
# Poissons Ratio (x) = 0.29420 0.02515
# Poissons Ratio (y) = 0.57345 0.46939
# Poissons Ratio (z) = 0.02011 0.19256
#
# Static dielectric constant tensor:
#      x y z
#    x 3.614440 0.000000 0.077810 
#    y 0.000000 -5.918780 0.000000 
#    z 0.077810 0.000000 3.666420 
# 
# 
# High freq. dielectric constant tensor:
#      x y z
#    x 1.749030 0.000000 0.015460 
#    y 0.000000 1.706240 0.000000 
#    z 0.015460 0.000000 1.759360 
# 
# From -- ./inp_files/94241.got.cif
#   From: 2010.06.25/outbox.cif.g09.slc.cpg/sg10_48_cif.got.tgz:94241.got - 2010.06.27 22:07:45.
