data_PCOD8065254
_publ_section_title
;
Structure prediction by ZEFSAII (Michael W. Deem and Ramdas Pophale) SiO2 
 PCOD8065254
Probable space group: P 2/M
;
_chemical_formula_sum "Si O2"
_cell_formula_units_Z 24
_cell_length_a 9.283148
_cell_length_b 12.299431
_cell_length_c 11.139595
_cell_angle_alpha 90.000000
_cell_angle_beta 101.935532
_cell_angle_gamma 90.000000
_cell_volume 1244.393319
_symmetry_space_group_name_H-M "P 2/M"
_symmetry_group_IT_number 10
_symmetry_cell_setting 'monoclinic'
loop_
_space_group_symop_operation_xyz
x,y,z
-x,y,-z
-x,-y,-z
x,-y,z
loop_
_atom_site_type_symbol
_atom_site_label
_atom_site_fract_x
_atom_site_fract_y
_atom_site_fract_z
Si Si1 0.840293 0.871467 0.029778
Si Si2 0.727740 0.195367 0.258101
Si Si3 0.644811 0.000000 0.665369
Si Si4 0.620400 0.376599 0.610779
Si Si5 0.158599 0.623973 0.555519
Si Si6 0.614191 0.203596 0.809507
Si Si7 0.701956 0.000000 0.417394
O O1 0.714390 0.797420 0.945337
O O2 0.801560 0.000000 0.017703
O O3 0.836256 0.828558 0.165756
O O4 0.000000 0.848159 0.000000
O O5 0.757803 0.311744 0.324273
O O6 0.557241 0.185757 0.186898
O O7 0.765349 0.106449 0.365189
O O8 0.686084 0.106996 0.745185
O O9 0.747351 0.000000 0.564708
O O10 0.472965 0.000000 0.611176
O O11 0.500000 0.322909 0.500000
O O12 0.573250 0.500000 0.634231
O O13 0.770150 0.370653 0.563580
O O14 0.632364 0.314418 0.738283
O O15 0.150688 0.500000 0.600682
O O16 0.000000 0.674341 0.500000
#
# Coordination Sequence:
#
# PCOD8065254 Si02
#       7
#     4   4   2   4   4   4   2
#     4  11  25  43  58  82 120 163 200 244 296 349
#     4  11  21  38  61  86 117 156 203 241 289 352
#     4   9  18  29  53  87 120 142 184 235 293 351
#     4  10  20  37  61  91 123 152 192 242 296 352
#     4  10  22  39  61  90 124 160 192 237 300 357
#     4  11  21  36  62  87 116 157 199 242 293 347
#     4   9  18  31  52  88 117 145 181 241 293 345
#
# _framework density 19.286507
#
# number of rings (size 3 to 8) (size 9 to 14) (size 15 to 20)
#    0.000    1.667    3.333    1.500    4.667    0.667 
#    0.000    1.250    0.000    3.000    0.000    0.000 
#    0.000    0.000    0.000    0.000    0.000    0.000 
#
# Total GULP energy -297559.846048 kJ/mol
# GULP energy per Si atom -12398.326919 kJ/mol
# Density = 1.924261 g / cm^3
# Si number density = 19.286507 Si / 1000 Ang^3
#
#
#
# Elastic Constant Matrix: (Units=GPa)
#
#
# Indices 1 2 3 4 5 6 
#
# 1 81.5134 18.4477 26.6810 0.0000 -7.2493 0.0000
# 2 18.4477 88.7870 38.5110 0.0000 -3.0980 0.0000
# 3 26.6810 38.5110 96.0801 0.0000 -19.3132 0.0000
# 4 0.0000 0.0000 0.0000 72.6952 0.0000 15.1635
# 5 -7.2493 -3.0980 -19.3132 0.0000 33.3273 0.0000
# 6 0.0000 0.0000 0.0000 15.1635 0.0000 26.5942
#
#
#
# Elastic Compliance Matrix: (Units=1/GPa)
#
#
# Indices 1 2 3 4 5 6 
#
# 1 0.013682 -0.001517 -0.002967 0.000000 0.001116 0.000000
# 2 -0.001517 0.013939 -0.005627 0.000000 -0.002295 0.000000
# 3 -0.002967 -0.005627 0.015000 0.000000 0.007524 0.000000
# 4 0.000000 0.000000 0.000000 0.015613 0.000000 -0.008902
# 5 0.001116 -0.002295 0.007524 0.000000 0.034395 0.000000
# 6 0.000000 0.000000 0.000000 -0.008902 0.000000 0.042678
#
#
# Mechanical properties :
#
#
# Convention : Reuss Voigt Hill
#
# Bulk Modulus (GPa) = 44.64660 48.18442 46.41551
# Shear Modulus (GPa) = 30.67598 38.70606 34.69102
#
# Velocity S-wave (km/s) = 3.99249 4.48470 4.24573
# Velocity P-wave (km/s) = 6.66728 7.20100 6.93928
#
# Compressibility (1/GPa) = 0.02239812
#
# Stress axis : x y z
#
# Youngs Moduli (GPa) = 73.09090 71.74275 66.66767
#
# Poissons Ratio (x) = 0.10882 0.19781
# Poissons Ratio (y) = 0.11086 0.37514
# Poissons Ratio (z) = 0.21687 0.40370
#
# Static dielectric constant tensor:
#      x y z
#    x 3.462950 0.000000 -0.134280 
#    y 0.000000 3.478670 0.000000 
#    z -0.134280 0.000000 3.501810 
# 
# 
# High freq. dielectric constant tensor:
#      x y z
#    x 1.745350 0.000000 -0.012260 
#    y 0.000000 1.743030 0.000000 
#    z -0.012260 0.000000 1.741720 
# 
# From -- ./inp_files/42021.got.cif
#   From: 2010.06.25/outbox.cif.g09.slc.cpg/sg10_22_cif.got.tgz:42021.got - 2010.06.27 22:07:45.
