data_PCOD8065336
_publ_section_title
;
Structure prediction by ZEFSAII (Michael W. Deem and Ramdas Pophale) SiO2 
 PCOD8065336
Probable space group: P 2/M
;
_chemical_formula_sum "Si O2"
_cell_formula_units_Z 28
_cell_length_a 16.810249
_cell_length_b 8.543104
_cell_length_c 13.919478
_cell_angle_alpha 90.000000
_cell_angle_beta 138.465555
_cell_angle_gamma 90.000000
_cell_volume 1325.477282
_symmetry_space_group_name_H-M "P 2/M"
_symmetry_group_IT_number 10
_symmetry_cell_setting 'monoclinic'
loop_
_space_group_symop_operation_xyz
x,y,z
-x,y,-z
-x,-y,-z
x,-y,z
loop_
_atom_site_type_symbol
_atom_site_label
_atom_site_fract_x
_atom_site_fract_y
_atom_site_fract_z
Si Si1 0.986305 0.316751 0.097795
Si Si2 0.465900 0.817862 0.176703
Si Si3 0.210989 0.181491 0.400236
Si Si4 0.555492 0.318125 0.450310
Si Si5 0.298089 0.680783 0.671328
Si Si6 0.195577 0.816804 0.930800
Si Si7 0.113447 0.681800 0.664535
O O1 0.010575 0.500000 0.128804
O O2 0.855443 0.272978 0.021467
O O3 0.077923 0.222800 0.247418
O O4 0.000000 0.261677 0.000000
O O5 0.494798 0.786280 0.313805
O O6 0.561492 0.727633 0.195523
O O7 0.478564 0.000000 0.165591
O O8 0.331370 0.758043 0.034341
O O9 0.302617 0.283688 0.418893
O O10 0.228568 0.219516 0.528288
O O11 0.236738 0.000000 0.406435
O O12 0.500000 0.264211 0.500000
O O13 0.531231 0.500000 0.407371
O O14 0.286892 0.500000 0.631729
O O15 0.236006 0.713615 0.717047
O O16 0.116795 0.778938 0.765720
O O17 0.192633 0.000000 0.950441
O O18 0.098300 0.500000 0.677381
O O19 0.000000 0.739732 0.500000
#
# Coordination Sequence:
#
# PCOD8065336 Si02
#       7
#     4   4   4   4   4   4   4
#     4  11  25  43  63  86 117 159 203 249 304 363
#     4  10  22  39  58  86 124 162 201 248 308 364
#     4  11  22  37  60  88 120 155 195 247 304 360
#     4  10  21  36  58  86 116 155 205 251 296 355
#     4  10  20  37  63  92 122 160 207 251 298 358
#     4  11  25  42  62  91 124 160 202 252 308 367
#     4  10  22  40  64  92 122 160 204 253 305 361
#
# _framework density 21.124466999999999
#
# number of rings (size 3 to 8) (size 9 to 14) (size 15 to 20)
#    0.000    1.571    0.000    6.000    2.000    7.714 
#    0.000    2.857    0.000    0.000    0.000    0.000 
#    0.000    0.000    0.000    0.000    0.000    0.000 
#
# Total GULP energy -347325.181043 kJ/mol
# GULP energy per Si atom -12404.470752 kJ/mol
# Density = 2.107639 g / cm^3
# Si number density = 21.124467 Si / 1000 Ang^3
#
#
#
# Elastic Constant Matrix: (Units=GPa)
#
#
# Indices 1 2 3 4 5 6 
#
# 1 126.3950 27.7339 36.5384 0.0000 -0.5052 0.0000
# 2 27.7339 61.2439 19.2113 0.0000 -0.6961 0.0000
# 3 36.5384 19.2113 86.3493 0.0000 15.0682 0.0000
# 4 0.0000 0.0000 0.0000 25.5292 0.0000 11.3387
# 5 -0.5052 -0.6961 15.0682 0.0000 27.0736 0.0000
# 6 0.0000 0.0000 0.0000 11.3387 0.0000 22.8955
#
#
#
# Elastic Compliance Matrix: (Units=1/GPa)
#
#
# Indices 1 2 3 4 5 6 
#
# 1 0.009714 -0.003186 -0.003787 0.000000 0.002207 0.000000
# 2 -0.003186 0.018807 -0.003223 0.000000 0.002218 0.000000
# 3 -0.003787 -0.003223 0.015425 0.000000 -0.008739 0.000000
# 4 0.000000 0.000000 0.000000 0.050216 0.000000 -0.024869
# 5 0.002207 0.002218 -0.008739 0.000000 0.041898 0.000000
# 6 0.000000 0.000000 0.000000 -0.024869 0.000000 0.055993
#
#
# Mechanical properties :
#
#
# Convention : Reuss Voigt Hill
#
# Bulk Modulus (GPa) = 42.45451 48.99502 45.72476
# Shear Modulus (GPa) = 22.69655 27.79997 25.24826
#
# Velocity S-wave (km/s) = 3.28139 3.63162 3.46094
# Velocity P-wave (km/s) = 5.87347 6.38973 6.13703
#
# Compressibility (1/GPa) = 0.02355463
#
# Stress axis : x y z
#
# Youngs Moduli (GPa) = 102.94063 53.17098 64.82857
#
# Poissons Ratio (x) = 0.16941 0.24550
# Poissons Ratio (y) = 0.32798 0.20895
# Poissons Ratio (z) = 0.38982 0.17138
#
# Static dielectric constant tensor:
#      x y z
#    x 4.032540 0.000000 0.226170 
#    y 0.000000 3.704900 0.000000 
#    z 0.226170 0.000000 3.723710 
# 
# 
# High freq. dielectric constant tensor:
#      x y z
#    x 1.841070 0.000000 0.010690 
#    y 0.000000 1.828700 0.000000 
#    z 0.010690 0.000000 1.818170 
# 
# From -- ./inp_files/68695.got.cif
#   From: 2010.06.25/outbox.cif.g09.slc.cpg/sg10_35_cif.got.tgz:68695.got - 2010.06.27 22:07:45.
