data_PCOD8065765
_publ_section_title
;
Structure prediction by ZEFSAII (Michael W. Deem and Ramdas Pophale) SiO2 
 PCOD8065765
Probable space group: P 2/M
;
_chemical_formula_sum "Si O2"
_cell_formula_units_Z 32
_cell_length_a 12.226148
_cell_length_b 13.477684
_cell_length_c 18.195317
_cell_angle_alpha 90.000000
_cell_angle_beta 34.770433
_cell_angle_gamma 90.000000
_cell_volume 1709.858243
_symmetry_space_group_name_H-M "P 2/M"
_symmetry_group_IT_number 10
_symmetry_cell_setting 'monoclinic'
loop_
_space_group_symop_operation_xyz
x,y,z
-x,y,-z
-x,-y,-z
x,-y,z
loop_
_atom_site_type_symbol
_atom_site_label
_atom_site_fract_x
_atom_site_fract_y
_atom_site_fract_z
Si Si1 0.690477 0.610371 0.213420
Si Si2 0.521187 0.767312 0.570980
Si Si3 0.850239 0.116874 0.640560
Si Si4 0.769750 0.115265 0.194675
Si Si5 0.094569 0.884435 0.642888
Si Si6 0.903322 0.186177 0.894661
Si Si7 0.113388 0.610036 0.044417
Si Si8 0.433902 0.115175 0.838294
O O1 0.601914 0.500000 0.268209
O O2 0.539072 0.683511 0.336548
O O3 0.894996 0.612656 0.139432
O O4 0.732293 0.635830 0.104775
O O5 0.500000 0.724442 0.500000
O O6 0.374185 0.860054 0.658627
O O7 0.731769 0.810092 0.471429
O O8 0.641098 0.164621 0.740197
O O9 0.000000 0.162919 0.500000
O O10 0.922183 0.141619 0.682569
O O11 0.835148 0.000000 0.637146
O O12 0.668771 0.160838 0.177440
O O13 0.972417 0.168841 0.098867
O O14 0.812917 0.000000 0.164202
O O15 0.014534 0.865060 0.767576
O O16 0.158416 0.000000 0.599874
O O17 0.867804 0.304391 0.903783
O O18 0.698930 0.132862 0.017318
O O19 0.158211 0.500000 0.051902
O O20 0.463041 0.000000 0.807073
#
# Coordination Sequence:
#
# PCOD8065765 Si02
#       8
#     4   4   4   4   4   4   4   4
#     4   9  18  33  52  73 101 141 183 222 267 322
#     4  12  21  32  48  75 108 149 179 216 267 328
#     4   9  19  38  56  72 100 144 195 234 261 302
#     4  11  21  32  48  75 114 149 179 217 264 324
#     4  11  23  36  53  77 112 152 187 224 263 314
#     4  12  21  33  52  82 115 141 176 221 276 335
#     4   9  18  34  54  76 107 141 175 221 274 330
#     4  10  21  34  53  77 104 145 187 227 269 314
#
# _framework density 18.715001999999998
#
# number of rings (size 3 to 8) (size 9 to 14) (size 15 to 20)
#    0.000    1.625    2.500    4.125    1.750    4.250 
#    0.000    2.500    0.000    0.000    0.000    2.625 
#    0.000    5.500    0.000    0.000    0.000    0.000 
#
# Total GULP energy -396583.648675 kJ/mol
# GULP energy per Si atom -12393.239021 kJ/mol
# Density = 1.867241 g / cm^3
# Si number density = 18.715002 Si / 1000 Ang^3
#
#
#
# Elastic Constant Matrix: (Units=GPa)
#
#
# Indices 1 2 3 4 5 6 
#
# 1 76.4613 28.0924 42.5893 0.0000 -15.2866 0.0000
# 2 28.0924 82.3936 32.5374 0.0000 2.8761 0.0000
# 3 42.5893 32.5374 129.7729 0.0000 -18.3676 0.0000
# 4 0.0000 0.0000 0.0000 33.8393 0.0000 5.5102
# 5 -15.2866 2.8761 -18.3676 0.0000 24.4668 0.0000
# 6 0.0000 0.0000 0.0000 5.5102 0.0000 7.4190
#
#
#
# Elastic Compliance Matrix: (Units=1/GPa)
#
#
# Indices 1 2 3 4 5 6 
#
# 1 0.018992 -0.005454 -0.003463 0.000000 0.009907 0.000000
# 2 -0.005454 0.015518 -0.003179 0.000000 -0.007618 0.000000
# 3 -0.003463 -0.003179 0.010502 0.000000 0.006094 0.000000
# 4 0.000000 0.000000 0.000000 0.033617 0.000000 -0.024968
# 5 0.009907 -0.007618 0.006094 0.000000 0.052532 0.000000
# 6 0.000000 0.000000 0.000000 -0.024968 0.000000 0.153333
#
#
# Mechanical properties :
#
#
# Convention : Reuss Voigt Hill
#
# Bulk Modulus (GPa) = 48.03164 55.00733 51.51949
# Shear Modulus (GPa) = 15.84159 25.50560 20.67360
#
# Velocity S-wave (km/s) = 2.91256 3.69567 3.32724
# Velocity P-wave (km/s) = 6.08533 6.90410 6.50760
#
# Compressibility (1/GPa) = 0.02081961
#
# Stress axis : x y z
#
# Youngs Moduli (GPa) = 52.65398 64.44276 95.22038
#
# Poissons Ratio (x) = 0.35144 0.32977
# Poissons Ratio (y) = 0.28715 0.30272
# Poissons Ratio (z) = 0.18235 0.20487
#
# Static dielectric constant tensor:
#      x y z
#    x 3.299950 0.000000 -0.061450 
#    y 0.000000 3.512660 0.000000 
#    z -0.061450 0.000000 3.560810 
# 
# 
# High freq. dielectric constant tensor:
#      x y z
#    x 1.689880 0.000000 0.003400 
#    y 0.000000 1.708100 0.000000 
#    z 0.003400 0.000000 1.737340 
# 
# From -- ./inp_files/77007.got.cif
#   From: 2010.06.25/outbox.cif.g09.slc.cpg/sg10_39_cif.got.tgz:77007.got - 2010.06.27 22:07:45.
