data_PCOD8065108
_publ_section_title
;
Structure prediction by ZEFSAII (Michael W. Deem and Ramdas Pophale) SiO2 
 PCOD8065108
Probable space group: P 2/M
;
_chemical_formula_sum "Si O2"
_cell_formula_units_Z 24
_cell_length_a 14.691335
_cell_length_b 8.664570
_cell_length_c 15.096113
_cell_angle_alpha 90.000000
_cell_angle_beta 39.940528
_cell_angle_gamma 90.000000
_cell_volume 1233.681676
_symmetry_space_group_name_H-M "P 2/M"
_symmetry_group_IT_number 10
_symmetry_cell_setting 'monoclinic'
loop_
_space_group_symop_operation_xyz
x,y,z
-x,y,-z
-x,-y,-z
x,-y,z
loop_
_atom_site_type_symbol
_atom_site_label
_atom_site_fract_x
_atom_site_fract_y
_atom_site_fract_z
Si Si1 0.607268 0.817113 0.075675
Si Si2 0.286278 0.818123 0.318917
Si Si3 0.191449 0.182557 0.924252
Si Si4 0.129562 0.680432 0.597640
Si Si5 0.185878 0.319308 0.218755
Si Si6 0.117884 0.182707 0.789413
O O1 0.447196 0.755707 0.192082
O O2 0.682879 0.749917 0.108143
O O3 0.608607 0.000000 0.077282
O O4 0.689340 0.764597 0.927143
O O5 0.227174 0.776961 0.458967
O O6 0.191601 0.732588 0.316399
O O7 0.277965 0.000000 0.309268
O O8 0.210780 0.230381 0.806718
O O9 0.188313 0.000000 0.931404
O O10 0.041992 0.241487 0.074032
O O11 0.152219 0.500000 0.563571
O O12 0.178553 0.726398 0.659804
O O13 0.966233 0.729792 0.706223
O O14 0.209925 0.500000 0.193185
O O15 0.124576 0.000000 0.766673
#
# Coordination Sequence:
#
# PCOD8065108 Si02
#       6
#     4   4   4   4   4   4
#     4  10  20  37  59  84 112 141 180 227 271 321
#     4  11  24  38  56  81 109 146 186 225 272 322
#     4   8  15  30  56  86 110 135 175 226 271 315
#     4  11  23  38  55  80 113 147 182 224 273 323
#     4  11  23  38  57  81 109 145 185 225 273 324
#     4   9  16  31  58  85 107 139 180 223 271 317
#
# _framework density 19.453963999999999
#
# number of rings (size 3 to 8) (size 9 to 14) (size 15 to 20)
#    0.000    2.000    1.667    3.500    0.000    7.333 
#    0.000    3.333    0.000    5.000    0.000    0.000 
#    0.000    0.000    0.000    0.000    0.000    0.000 
#
# Total GULP energy -297622.993159 kJ/mol
# GULP energy per Si atom -12400.958048 kJ/mol
# Density = 1.940969 g / cm^3
# Si number density = 19.453964 Si / 1000 Ang^3
#
#
#
# Elastic Constant Matrix: (Units=GPa)
#
#
# Indices 1 2 3 4 5 6 
#
# 1 81.2802 13.1807 24.1050 0.0000 25.4570 0.0000
# 2 13.1807 13.9947 6.1195 0.0000 -9.4224 0.0000
# 3 24.1050 6.1195 92.1424 0.0000 12.1898 0.0000
# 4 0.0000 0.0000 0.0000 12.2160 0.0000 -6.9617
# 5 25.4570 -9.4224 12.1898 0.0000 31.7478 0.0000
# 6 0.0000 0.0000 0.0000 -6.9617 0.0000 11.1588
#
#
#
# Elastic Compliance Matrix: (Units=1/GPa)
#
#
# Indices 1 2 3 4 5 6 
#
# 1 0.044849 -0.084875 0.002101 0.000000 -0.061959 0.000000
# 2 -0.084875 0.259493 -0.014983 0.000000 0.150825 0.000000
# 3 0.002101 -0.014983 0.012757 0.000000 -0.011030 0.000000
# 4 0.000000 0.000000 0.000000 0.127020 0.000000 0.079244
# 5 -0.061959 0.150825 -0.011030 0.000000 0.130178 0.000000
# 6 0.000000 0.000000 0.000000 0.079244 0.000000 0.139054
#
#
# Mechanical properties :
#
#
# Convention : Reuss Voigt Hill
#
# Bulk Modulus (GPa) = 8.22471 30.46974 19.34722
# Shear Modulus (GPa) = 5.26651 20.62531 12.94591
#
# Velocity S-wave (km/s) = 1.64713 3.25962 2.58246
# Velocity P-wave (km/s) = 2.80256 5.46473 4.34268
#
# Compressibility (1/GPa) = 0.12158484
#
# Stress axis : x y z
#
# Youngs Moduli (GPa) = 22.29680 3.85367 78.38576
#
# Poissons Ratio (x) = 0.32708 -0.16467
# Poissons Ratio (y) = 1.89245 1.17446
# Poissons Ratio (z) = -0.04684 0.05774
#
# Static dielectric constant tensor:
#      x y z
#    x 3.987150 0.000000 0.012870 
#    y 0.000000 3.247140 0.000000 
#    z 0.012870 0.000000 3.438310 
# 
# 
# High freq. dielectric constant tensor:
#      x y z
#    x 1.767930 0.000000 0.016470 
#    y 0.000000 1.736530 0.000000 
#    z 0.016470 0.000000 1.747530 
# 
# From -- ./inp_files/66301.got.cif
#   From: 2010.06.25/outbox.cif.g09.slc.cpg/sg10_34_cif.got.tgz:66301.got - 2010.06.27 22:07:45.
