data_PCOD8065800
_publ_section_title
;
Structure prediction by ZEFSAII (Michael W. Deem and Ramdas Pophale) SiO2 
 PCOD8065800
Probable space group: P 2/M
;
_chemical_formula_sum "Si O2"
_cell_formula_units_Z 32
_cell_length_a 14.973699
_cell_length_b 8.974678
_cell_length_c 15.094117
_cell_angle_alpha 90.000000
_cell_angle_beta 60.263567
_cell_angle_gamma 90.000000
_cell_volume 1761.301214
_symmetry_space_group_name_H-M "P 2/M"
_symmetry_group_IT_number 10
_symmetry_cell_setting 'monoclinic'
loop_
_space_group_symop_operation_xyz
x,y,z
-x,y,-z
-x,-y,-z
x,-y,z
loop_
_atom_site_type_symbol
_atom_site_label
_atom_site_fract_x
_atom_site_fract_y
_atom_site_fract_z
Si Si1 0.398868 0.322588 1.000000
Si Si2 0.442941 0.322966 0.783640
Si Si3 0.673879 0.678244 0.652241
Si Si4 0.226581 0.677034 0.216360
Si Si5 0.266439 0.323509 0.741862
Si Si6 0.787577 0.675623 0.424846
Si Si7 0.940255 0.827942 0.119490
Si Si8 0.008301 0.676491 0.258137
O O1 0.399881 0.500000 1.000000
O O2 0.298208 0.262369 0.101093
O O3 0.500000 0.262113 0.000000
O O4 0.399301 0.262369 0.898907
O O5 0.446926 0.500000 0.784782
O O6 0.557301 0.260625 0.710206
O O7 0.369765 0.268315 0.739858
O O8 0.674561 0.500000 0.650879
O O9 0.732492 0.739375 0.710207
O O10 0.731114 0.746219 0.537772
O O11 0.231709 0.500000 0.215217
O O12 0.109624 0.731684 0.260141
O O13 0.252052 0.500000 0.757049
O O14 0.270284 0.273993 0.636839
O O15 0.170292 0.248246 0.837208
O O16 0.781569 0.500000 0.436861
O O17 0.907123 0.726006 0.363161
O O18 0.007500 0.751755 0.162792
O O19 0.924691 0.000000 0.150616
O O20 0.000000 0.803045 0.000000
O O21 0.009102 0.500000 0.242949
#
# Coordination Sequence:
#
# PCOD8065800 Si02
#       8
#     4   4   4   4   4   4   4   4
#     4   9  14  22  34  53  89 126 154 187 225 276
#     4   9  16  24  38  63  93 125 157 187 228 276
#     4   9  15  24  39  62  96 130 153 186 235 276
#     4   9  16  24  38  63  93 125 157 187 228 276
#     4   9  18  31  47  70  95 120 154 193 232 273
#     4   8  15  27  40  59  91 124 155 192 231 272
#     4  10  21  35  49  67  92 123 157 190 229 280
#     4   9  18  31  47  70  95 120 154 193 232 273
#
# _framework density 18.168386000000002
#
# number of rings (size 3 to 8) (size 9 to 14) (size 15 to 20)
#    0.000    3.000    1.250    1.125    1.750    2.000 
#    0.000    5.000    0.000    0.000    0.000   14.875 
#    0.000    3.000    0.000    0.000    0.000    0.000 
#
# Total GULP energy -396658.557780 kJ/mol
# GULP energy per Si atom -12395.579931 kJ/mol
# Density = 1.812703 g / cm^3
# Si number density = 18.168386 Si / 1000 Ang^3
#
#
#
# Elastic Constant Matrix: (Units=GPa)
#
#
# Indices 1 2 3 4 5 6 
#
# 1 194.9611 17.2751 97.9425 0.0000 -0.0004 0.0000
# 2 17.2751 17.6514 17.7777 0.0000 0.0000 0.0000
# 3 97.9425 17.7777 167.0959 0.0000 -0.0002 0.0000
# 4 0.0000 0.0000 0.0000 7.1502 0.0000 0.0000
# 5 -0.0004 0.0000 -0.0002 0.0000 19.1117 0.0000
# 6 0.0000 0.0000 0.0000 0.0000 0.0000 2.1580
#
#
#
# Elastic Compliance Matrix: (Units=1/GPa)
#
#
# Indices 1 2 3 4 5 6 
#
# 1 0.007431 -0.003232 -0.004012 0.000000 0.000000 0.000000
# 2 -0.003232 0.064858 -0.005006 0.000000 0.000000 0.000000
# 3 -0.004012 -0.005006 0.008869 0.000000 0.000000 0.000000
# 4 0.000000 0.000000 0.000000 0.139857 0.000000 -0.000001
# 5 0.000000 0.000000 0.000000 0.000000 0.052324 0.000000
# 6 0.000000 0.000000 0.000000 -0.000001 0.000000 0.463385
#
#
# Mechanical properties :
#
#
# Convention : Reuss Voigt Hill
#
# Bulk Modulus (GPa) = 17.64980 71.74434 44.69707
# Shear Modulus (GPa) = 6.40936 22.13151 14.27044
#
# Velocity S-wave (km/s) = 1.88027 3.49396 2.80564
# Velocity P-wave (km/s) = 3.80126 7.47337 5.92878
#
# Compressibility (1/GPa) = 0.05665787
#
# Stress axis : x y z
#
# Youngs Moduli (GPa) = 134.57109 15.41836 112.75650
#
# Poissons Ratio (x) = 0.04983 0.45236
# Poissons Ratio (y) = 0.43494 0.56445
# Poissons Ratio (z) = 0.53987 0.07718
#
# Static dielectric constant tensor:
#      x y z
#    x 3.704790 0.000000 0.000010 
#    y 0.000000 2.670350 0.000000 
#    z 0.000010 0.000000 3.616240 
# 
# 
# High freq. dielectric constant tensor:
#      x y z
#    x 1.714520 0.000000 0.000000 
#    y 0.000000 1.627960 0.000000 
#    z 0.000000 0.000000 1.712420 
# 
# From -- ./inp_files/66532.got.cif
#   From: 2010.06.25/outbox.cif.g09.slc.cpg/sg10_34_cif.got.tgz:66532.got - 2010.06.27 22:07:45.
