data_PCOD8065011
_publ_section_title
;
Structure prediction by ZEFSAII (Michael W. Deem and Ramdas Pophale) SiO2 
 PCOD8065011
Probable space group: P 2/M
;
_chemical_formula_sum "Si O2"
_cell_formula_units_Z 20
_cell_length_a 28.931563
_cell_length_b 7.666473
_cell_length_c 20.279431
_cell_angle_alpha 90.000000
_cell_angle_beta 12.863156
_cell_angle_gamma 90.000000
_cell_volume 1001.368192
_symmetry_space_group_name_H-M "P 2/M"
_symmetry_group_IT_number 10
_symmetry_cell_setting 'monoclinic'
loop_
_space_group_symop_operation_xyz
x,y,z
-x,y,-z
-x,-y,-z
x,-y,z
loop_
_atom_site_type_symbol
_atom_site_label
_atom_site_fract_x
_atom_site_fract_y
_atom_site_fract_z
Si Si1 0.364984 0.695023 0.907246
Si Si2 0.210163 0.802248 0.738831
Si Si3 0.724335 0.703135 0.208442
Si Si4 0.718467 0.000000 0.731271
Si Si5 0.029624 0.701678 0.264234
Si Si6 0.753976 0.000000 0.834790
O O1 0.313517 0.500000 0.004207
O O2 0.596164 0.691793 0.556569
O O3 0.209912 0.751291 0.064801
O O4 0.341427 0.826626 0.000393
O O5 0.193322 0.798432 0.841198
O O6 0.239917 0.000000 0.673261
O O7 0.000000 0.722731 0.000000
O O8 0.500000 0.779341 0.500000
O O9 0.701880 0.500000 0.255698
O O10 0.888298 0.740426 0.922960
O O11 0.834982 0.175631 0.547874
O O12 0.683801 0.000000 0.857332
O O13 0.500000 0.000000 0.000000
O O14 0.962218 0.500000 0.365661
O O15 0.000000 0.000000 0.500000
#
# Coordination Sequence:
#
# PCOD8065011 Si02
#       6
#     4   4   4   2   4   2
#     4  11  22  41  70  97 126 167 214 262 315 373
#     4  11  24  39  59  94 137 171 206 254 308 373
#     4  10  20  36  62  95 126 162 207 250 300 376
#     4  12  28  46  66  91 127 166 206 271 333 365
#     4  10  22  41  67  98 126 161 214 260 309 383
#     4  12  24  44  68  96 125 158 221 275 310 381
#
# _framework density 19.972674999999999
#
# number of rings (size 3 to 8) (size 9 to 14) (size 15 to 20)
#    0.000    1.200    5.000    0.600    1.400    5.200 
#    0.000    2.000    0.000    0.000    0.000    0.000 
#    0.000    0.000    0.000    0.000    0.000    0.000 
#
# Total GULP energy -248109.857144 kJ/mol
# GULP energy per Si atom -12405.492857 kJ/mol
# Density = 1.992722 g / cm^3
# Si number density = 19.972675 Si / 1000 Ang^3
#
#
#
# Elastic Constant Matrix: (Units=GPa)
#
#
# Indices 1 2 3 4 5 6 
#
# 1 153.0844 46.8148 76.6635 0.0000 -4.4233 0.0000
# 2 46.8148 99.9101 55.1158 0.0000 6.5934 0.0000
# 3 76.6635 55.1158 136.4780 0.0000 -13.3953 0.0000
# 4 0.0000 0.0000 0.0000 334.4566 0.0000 484.3564
# 5 -4.4233 6.5934 -13.3953 0.0000 41.5539 0.0000
# 6 0.0000 0.0000 0.0000 484.3564 0.0000 743.2868
#
#
#
# Elastic Compliance Matrix: (Units=1/GPa)
#
#
# Indices 1 2 3 4 5 6 
#
# 1 0.009366 -0.001888 -0.004514 0.000000 -0.000159 0.000000
# 2 -0.001888 0.013881 -0.004937 0.000000 -0.003995 0.000000
# 3 -0.004514 -0.004937 0.012275 0.000000 0.004260 0.000000
# 4 0.000000 0.000000 0.000000 0.053107 0.000000 -0.034607
# 5 -0.000159 -0.003995 0.004260 0.000000 0.026055 0.000000
# 6 0.000000 0.000000 0.000000 -0.034607 0.000000 0.023896
#
#
# Mechanical properties :
#
#
# Convention : Reuss Voigt Hill
#
# Bulk Modulus (GPa) = 77.86420 82.96231 80.41325
# Shear Modulus (GPa) = 30.20417 237.91802 134.06109
#
# Velocity S-wave (km/s) = 3.89302 10.92613 8.20171
# Velocity P-wave (km/s) = 7.69918 14.17046 11.40349
#
# Compressibility (1/GPa) = 0.01284287
#
# Stress axis : x y z
#
# Youngs Moduli (GPa) = 106.77209 72.04121 81.46628
#
# Poissons Ratio (x) = 0.13599 0.36776
# Poissons Ratio (y) = 0.20156 0.40224
# Poissons Ratio (z) = 0.48199 0.35570
#
# Static dielectric constant tensor:
#      x y z
#    x 3.659500 0.000000 -0.015230 
#    y 0.000000 3.648030 0.000000 
#    z -0.015230 0.000000 3.444870 
# 
# 
# High freq. dielectric constant tensor:
#      x y z
#    x 1.780250 0.000000 0.005210 
#    y 0.000000 1.789130 0.000000 
#    z 0.005210 0.000000 1.771620 
# 
# From -- ./inp_files/87241.got.cif
#   From: 2010.06.25/outbox.cif.g09.slc.cpg/sg10_44_cif.got.tgz:87241.got - 2010.06.27 22:07:45.
