data_PCOD8065786
_publ_section_title
;
Structure prediction by ZEFSAII (Michael W. Deem and Ramdas Pophale) SiO2 
 PCOD8065786
Probable space group: P 2/M
;
_chemical_formula_sum "Si O2"
_cell_formula_units_Z 24
_cell_length_a 21.342906
_cell_length_b 7.607573
_cell_length_c 10.167451
_cell_angle_alpha 90.000000
_cell_angle_beta 132.811625
_cell_angle_gamma 90.000000
_cell_volume 1211.061928
_symmetry_space_group_name_H-M "P 2/M"
_symmetry_group_IT_number 10
_symmetry_cell_setting 'monoclinic'
loop_
_space_group_symop_operation_xyz
x,y,z
-x,y,-z
-x,-y,-z
x,-y,z
loop_
_atom_site_type_symbol
_atom_site_label
_atom_site_fract_x
_atom_site_fract_y
_atom_site_fract_z
Si Si1 0.769411 0.298695 0.902980
Si Si2 0.670186 0.209184 0.514276
Si Si3 0.500390 0.800144 0.144515
Si Si4 0.684191 0.706190 0.050481
Si Si5 0.892482 0.000000 0.987303
Si Si6 0.088836 0.000000 0.295512
Si Si7 0.208212 0.299528 0.545834
O O1 0.801675 0.500000 0.957183
O O2 0.692321 0.283206 0.689242
O O3 0.734392 0.232138 0.993015
O O4 0.848408 0.176695 0.976300
O O5 0.575116 0.279055 0.343149
O O6 0.735591 0.291200 0.504327
O O7 0.680289 0.000000 0.529252
O O8 0.527670 0.000000 0.160446
O O9 0.500000 0.705759 0.000000
O O10 0.409577 0.790351 0.085956
O O11 0.670835 0.500000 0.033906
O O12 0.735848 0.770168 0.251885
O O13 0.988338 0.000000 0.177112
O O14 0.887428 0.000000 0.823466
O O15 0.125968 0.824839 0.416124
O O16 0.177021 0.500000 0.523968
#
# Coordination Sequence:
#
# PCOD8065786 Si02
#       7
#     4   4   4   4   2   2   4
#     4  11  23  42  63  88 124 164 201 242 305 366
#     4  11  20  37  60  88 124 162 206 250 292 355
#     4  10  21  34  57  89 122 161 207 253 294 340
#     4  10  24  39  58  89 124 163 206 249 293 356
#     4  11  24  43  65  94 123 154 190 257 307 361
#     4  11  24  41  67  96 122 145 202 253 300 374
#     4  11  21  38  63  91 121 159 199 247 302 353
#
# _framework density 19.817319000000001
#
# number of rings (size 3 to 8) (size 9 to 14) (size 15 to 20)
#    0.000    1.333    5.000    0.500    2.333    3.000 
#    0.000    6.667    0.000    3.000    0.000    0.000 
#    0.000    0.000    0.000    0.000    0.000    0.000 
#
# Total GULP energy -297651.630312 kJ/mol
# GULP energy per Si atom -12402.151263 kJ/mol
# Density = 1.977221 g / cm^3
# Si number density = 19.817319 Si / 1000 Ang^3
#
#
#
# Elastic Constant Matrix: (Units=GPa)
#
#
# Indices 1 2 3 4 5 6 
#
# 1 101.7443 34.0866 49.7696 0.0000 11.9330 0.0000
# 2 34.0866 84.4088 28.6540 0.0000 14.4025 0.0000
# 3 49.7696 28.6540 115.5782 0.0000 15.7809 0.0000
# 4 0.0000 0.0000 0.0000 19.7910 0.0000 -3.6104
# 5 11.9330 14.4025 15.7809 0.0000 40.7011 0.0000
# 6 0.0000 0.0000 0.0000 -3.6104 0.0000 16.3885
#
#
#
# Elastic Compliance Matrix: (Units=1/GPa)
#
#
# Indices 1 2 3 4 5 6 
#
# 1 0.013501 -0.003690 -0.004790 0.000000 -0.000795 0.000000
# 2 -0.003690 0.014441 -0.001522 0.000000 -0.003438 0.000000
# 3 -0.004790 -0.001522 0.011432 0.000000 -0.002490 0.000000
# 4 0.000000 0.000000 0.000000 0.052644 0.000000 0.011597
# 5 -0.000795 -0.003438 -0.002490 0.000000 0.026984 0.000000
# 6 0.000000 0.000000 0.000000 0.011597 0.000000 0.063573
#
#
# Mechanical properties :
#
#
# Convention : Reuss Voigt Hill
#
# Bulk Modulus (GPa) = 51.62776 58.52797 55.07787
# Shear Modulus (GPa) = 23.91925 27.99086 25.95506
#
# Velocity S-wave (km/s) = 3.47794 3.76233 3.62293
# Velocity P-wave (km/s) = 6.49896 6.96214 6.73453
#
# Compressibility (1/GPa) = 0.01936942
#
# Stress axis : x y z
#
# Youngs Moduli (GPa) = 74.06594 69.24963 87.47282
#
# Poissons Ratio (x) = 0.25556 0.41903
# Poissons Ratio (y) = 0.27333 0.13309
# Poissons Ratio (z) = 0.35481 0.10537
#
# Static dielectric constant tensor:
#      x y z
#    x 3.412710 0.000000 -0.069840 
#    y 0.000000 3.596600 0.000000 
#    z -0.069840 0.000000 3.922890 
# 
# 
# High freq. dielectric constant tensor:
#      x y z
#    x 1.753700 0.000000 -0.003930 
#    y 0.000000 1.778090 0.000000 
#    z -0.003930 0.000000 1.781470 
# 
# From -- ./inp_files/33987.got.cif
#   From: 2010.06.25/outbox.cif.g09.slc.cpg/sg10_17_cif.got.tgz:33987.got - 2010.06.27 22:07:45.
