data_PCOD8065661
_publ_section_title
;
Structure prediction by ZEFSAII (Michael W. Deem and Ramdas Pophale) SiO2 
 PCOD8065661
Probable space group: P 2/M
;
_chemical_formula_sum "Si O2"
_cell_formula_units_Z 32
_cell_length_a 15.466560
_cell_length_b 8.806245
_cell_length_c 12.053759
_cell_angle_alpha 90.000000
_cell_angle_beta 90.522091
_cell_angle_gamma 90.000000
_cell_volume 1641.681742
_symmetry_space_group_name_H-M "P 2/M"
_symmetry_group_IT_number 10
_symmetry_cell_setting 'monoclinic'
loop_
_space_group_symop_operation_xyz
x,y,z
-x,y,-z
-x,-y,-z
x,-y,z
loop_
_atom_site_type_symbol
_atom_site_label
_atom_site_fract_x
_atom_site_fract_y
_atom_site_fract_z
Si Si1 0.650824 0.179819 0.767592
Si Si2 0.005131 0.679682 0.127910
Si Si3 0.096408 0.328946 0.485193
Si Si4 0.404850 0.180068 0.995947
Si Si5 0.659316 0.178868 0.237465
Si Si6 0.494422 0.679301 0.628258
Si Si7 0.843922 0.177199 0.727316
Si Si8 0.160515 0.672428 0.732210
O O1 0.643143 0.234291 0.894409
O O2 0.578389 0.256857 0.691203
O O3 0.746173 0.236257 0.738428
O O4 0.638617 0.000000 0.754435
O O5 0.011623 0.500000 0.133391
O O6 0.920114 0.734048 0.195187
O O7 0.091316 0.743401 0.185963
O O8 0.000000 0.736580 0.000000
O O9 0.099181 0.500000 0.435680
O O10 0.136937 0.212267 0.399872
O O11 0.142604 0.321561 0.602433
O O12 0.000000 0.272903 0.500000
O O13 0.408544 0.000000 0.990586
O O14 0.500000 0.250427 0.000000
O O15 0.359296 0.242690 0.885624
O O16 0.595309 0.256907 0.324285
O O17 0.758956 0.217011 0.255468
O O18 0.644537 0.000000 0.247872
O O19 0.500000 0.728101 0.500000
O O20 0.493464 0.500000 0.641943
O O21 0.850487 0.000000 0.751459
O O22 0.182732 0.500000 0.768846
#
# Coordination Sequence:
#
# PCOD8065661 Si02
#       8
#     4   4   4   4   4   4   4   4
#     4  10  22  41  62  88 121 157 197 242 297 357
#     4  10  22  42  64  86 121 166 207 246 296 360
#     4  10  20  40  65  83 113 160 203 246 300 358
#     4   9  17  36  63  85 113 153 193 235 290 352
#     4  11  23  39  64  91 119 157 195 242 300 359
#     4  11  25  43  61  86 121 159 200 246 295 351
#     4  11  24  38  60  93 125 155 198 255 302 353
#     4  10  22  40  61  88 121 158 200 248 297 352
#
# _framework density 19.492207000000001
#
# number of rings (size 3 to 8) (size 9 to 14) (size 15 to 20)
#    0.000    1.750    2.500    1.125    3.500    3.500 
#    0.000    1.875    0.000    0.000    0.000    0.000 
#    0.000    0.000    0.000    0.000    0.000    0.000 
#
# Total GULP energy -396754.764247 kJ/mol
# GULP energy per Si atom -12398.586383 kJ/mol
# Density = 1.944784 g / cm^3
# Si number density = 19.492207 Si / 1000 Ang^3
#
#
#
# Elastic Constant Matrix: (Units=GPa)
#
#
# Indices 1 2 3 4 5 6 
#
# 1 138.1080 32.8794 47.8424 0.0000 -5.7547 0.0000
# 2 32.8794 43.1723 31.5243 0.0000 -1.9612 0.0000
# 3 47.8424 31.5243 126.5479 0.0000 -7.4046 0.0000
# 4 0.0000 0.0000 0.0000 25.9861 0.0000 0.9723
# 5 -5.7547 -1.9612 -7.4046 0.0000 24.4378 0.0000
# 6 0.0000 0.0000 0.0000 0.9723 0.0000 33.6154
#
#
#
# Elastic Compliance Matrix: (Units=1/GPa)
#
#
# Indices 1 2 3 4 5 6 
#
# 1 0.009325 -0.005531 -0.002082 0.000000 0.001121 0.000000
# 2 -0.005531 0.031594 -0.005810 0.000000 -0.000527 0.000000
# 3 -0.002082 -0.005810 0.010263 0.000000 0.002153 0.000000
# 4 0.000000 0.000000 0.000000 0.038524 0.000000 -0.001114
# 5 0.001121 -0.000527 0.002153 0.000000 0.041794 0.000000
# 6 0.000000 0.000000 0.000000 -0.001114 0.000000 0.029780
#
#
# Mechanical properties :
#
#
# Convention : Reuss Voigt Hill
#
# Bulk Modulus (GPa) = 41.09209 59.14671 50.11940
# Shear Modulus (GPa) = 25.47915 29.84667 27.66291
#
# Velocity S-wave (km/s) = 3.61937 3.91731 3.77128
# Velocity P-wave (km/s) = 6.21237 7.13233 6.68818
#
# Compressibility (1/GPa) = 0.02433558
#
# Stress axis : x y z
#
# Youngs Moduli (GPa) = 107.23360 31.65171 97.44039
#
# Poissons Ratio (x) = 0.17506 0.20289
# Poissons Ratio (y) = 0.59309 0.56615
# Poissons Ratio (z) = 0.22328 0.18390
#
# Static dielectric constant tensor:
#      x y z
#    x 3.663260 0.000000 -0.083350 
#    y 0.000000 3.390550 0.000000 
#    z -0.083350 0.000000 3.900390 
# 
# 
# High freq. dielectric constant tensor:
#      x y z
#    x 1.771960 0.000000 -0.001430 
#    y 0.000000 1.741560 0.000000 
#    z -0.001430 0.000000 1.775540 
# 
# From -- ./inp_files/49931.got.cif
#   From: 2010.06.25/outbox.cif.g09.slc.cpg/sg10_25_cif.got.tgz:49931.got - 2010.06.27 22:07:45.
