data_PCOD8065972
_publ_section_title
;
Structure prediction by ZEFSAII (Michael W. Deem and Ramdas Pophale) SiO2 
 PCOD8065972
Probable space group: P 2/M
;
_chemical_formula_sum "Si O2"
_cell_formula_units_Z 32
_cell_length_a 25.459925
_cell_length_b 8.789628
_cell_length_c 24.302640
_cell_angle_alpha 90.000000
_cell_angle_beta 17.681092
_cell_angle_gamma 90.000000
_cell_volume 1651.781292
_symmetry_space_group_name_H-M "P 2/M"
_symmetry_group_IT_number 10
_symmetry_cell_setting 'monoclinic'
loop_
_space_group_symop_operation_xyz
x,y,z
-x,y,-z
-x,-y,-z
x,-y,z
loop_
_atom_site_type_symbol
_atom_site_label
_atom_site_fract_x
_atom_site_fract_y
_atom_site_fract_z
Si Si1 0.298089 0.333449 0.692689
Si Si2 0.691658 0.680626 0.925675
Si Si3 0.312067 0.680590 0.304541
Si Si4 0.996238 0.318694 0.313342
Si Si5 0.965650 0.680544 0.219477
Si Si6 0.341055 0.821383 0.539959
Si Si7 0.715217 0.319797 0.173554
Si Si8 0.804219 0.680802 0.696137
O O1 0.500000 0.352313 0.500000
O O2 0.219178 0.500000 0.756362
O O3 0.262126 0.218205 0.678910
O O4 0.223165 0.273620 0.825892
O O5 0.711418 0.500000 0.903736
O O6 0.716848 0.745998 0.838781
O O7 0.833143 0.746847 0.826713
O O8 0.501876 0.729046 0.136306
O O9 0.292230 0.500000 0.322253
O O10 0.170672 0.747026 0.487835
O O11 0.286863 0.745513 0.267875
O O12 0.996316 0.500000 0.314328
O O13 0.994059 0.260608 0.253091
O O14 0.946709 0.500000 0.234705
O O15 0.787616 0.753194 0.376644
O O16 0.132694 0.736510 0.018388
O O17 0.533531 0.756538 0.338454
O O18 0.349640 0.000000 0.524730
O O19 0.685709 0.500000 0.199464
O O20 0.792070 0.500000 0.708455
O O21 0.000000 0.737040 0.500000
#
# Coordination Sequence:
#
# PCOD8065972 Si02
#       8
#     4   4   4   4   4   4   4   4
#     4   8  15  31  54  78 105 136 170 207 251 308
#     4   9  15  22  33  51  77 112 156 199 242 291
#     4   9  15  22  34  53  78 112 152 197 246 294
#     4   9  17  28  40  58  83 115 161 212 248 282
#     4  10  21  36  54  74 100 137 180 220 258 305
#     4  11  22  35  54  80 109 137 167 211 264 314
#     4   9  19  36  57  79 104 138 176 212 254 307
#     4   9  13  19  31  47  76 114 150 191 239 294
#
# _framework density 19.373024000000001
#
# number of rings (size 3 to 8) (size 9 to 14) (size 15 to 20)
#    0.000    2.750    1.250    2.250    0.000    5.750 
#    0.000    6.250    0.000    0.000    0.000    0.000 
#    0.000    0.000    0.000    2.250    0.000   13.250 
#
# Total GULP energy -396611.596006 kJ/mol
# GULP energy per Si atom -12394.112375 kJ/mol
# Density = 1.932893 g / cm^3
# Si number density = 19.373024 Si / 1000 Ang^3
#
#
#
# Elastic Constant Matrix: (Units=GPa)
#
#
# Indices 1 2 3 4 5 6 
#
# 1 136.8396 17.9716 65.5432 0.0000 2.4394 0.0000
# 2 17.9716 31.3287 16.4726 0.0000 -3.7257 0.0000
# 3 65.5432 16.4726 120.1407 0.0000 -5.9142 0.0000
# 4 0.0000 0.0000 0.0000 4.6432 0.0000 -2.6040
# 5 2.4394 -3.7257 -5.9142 0.0000 27.7212 0.0000
# 6 0.0000 0.0000 0.0000 -2.6040 0.0000 -0.2134
#
#
#
# Elastic Compliance Matrix: (Units=1/GPa)
#
#
# Indices 1 2 3 4 5 6 
#
# 1 0.010340 -0.003447 -0.005291 0.000000 -0.002502 0.000000
# 2 -0.003447 0.035919 -0.002822 0.000000 0.004529 0.000000
# 3 -0.005291 -0.002822 0.011725 0.000000 0.002588 0.000000
# 4 0.000000 0.000000 0.000000 0.027457 0.000000 -0.335070
# 5 -0.002502 0.004529 0.002588 0.000000 0.037454 0.000000
# 6 0.000000 0.000000 0.000000 -0.335070 0.000000 -0.597468
#
#
# Mechanical properties :
#
#
# Convention : Reuss Voigt Hill
#
# Bulk Modulus (GPa) = 28.68304 54.25377 41.46840
# Shear Modulus (GPa) = -11.36793 18.98497 3.80852
#
# Velocity S-wave (km/s) = -2.42501 3.13384 1.40362
# Velocity P-wave (km/s) = 2.64517 6.41562 4.90699
#
# Compressibility (1/GPa) = 0.03486381
#
# Stress axis : x y z
#
# Youngs Moduli (GPa) = 96.71621 27.84051 85.29103
#
# Poissons Ratio (x) = 0.09595 0.45131
# Poissons Ratio (y) = 0.33334 0.24066
# Poissons Ratio (z) = 0.51176 0.07856
#
# Static dielectric constant tensor:
#      x y z
#    x 3.833630 0.000000 0.134650 
#    y 0.000000 2.824620 0.000000 
#    z 0.134650 0.000000 3.681770 
# 
# 
# High freq. dielectric constant tensor:
#      x y z
#    x 1.759880 0.000000 0.000100 
#    y 0.000000 1.678250 0.000000 
#    z 0.000100 0.000000 1.762150 
# 
# From -- ./inp_files/90547.got.cif
#   From: 2010.06.25/outbox.cif.g09.slc.cpg/sg10_46_cif.got.tgz:90547.got - 2010.06.27 22:07:45.
