data_PCOD8065178
_publ_section_title
;
Structure prediction by ZEFSAII (Michael W. Deem and Ramdas Pophale) SiO2 
 PCOD8065178
Probable space group: P 2/M
;
_chemical_formula_sum "Si O2"
_cell_formula_units_Z 28
_cell_length_a 16.060682
_cell_length_b 19.782584
_cell_length_c 9.128962
_cell_angle_alpha 90.000000
_cell_angle_beta 151.600821
_cell_angle_gamma 90.000000
_cell_volume 1379.497264
_symmetry_space_group_name_H-M "P 2/M"
_symmetry_group_IT_number 10
_symmetry_cell_setting 'monoclinic'
loop_
_space_group_symop_operation_xyz
x,y,z
-x,y,-z
-x,-y,-z
x,-y,z
loop_
_atom_site_type_symbol
_atom_site_label
_atom_site_fract_x
_atom_site_fract_y
_atom_site_fract_z
Si Si1 0.072505 0.426689 0.337724
Si Si2 0.484531 0.302038 0.642613
Si Si3 0.023714 0.839114 0.365078
Si Si4 0.158082 0.697962 0.642613
Si Si5 0.658636 0.839114 0.634922
Si Si6 0.734782 0.573311 0.662276
Si Si7 0.816982 0.076320 0.633964
O O1 0.088979 0.500000 0.445628
O O2 0.186729 0.367672 0.587908
O O3 0.147771 0.436757 0.295542
O O4 0.865506 0.407146 1.000000
O O5 0.500000 0.323754 0.500000
O O6 0.364766 0.235430 0.469407
O O7 0.401178 0.367672 0.587908
O O8 0.669512 0.284270 0.000000
O O9 0.104641 0.764570 0.469407
O O10 0.157565 0.888513 0.485791
O O11 0.000000 0.858795 0.500000
O O12 0.833408 0.841782 1.000000
O O13 0.000000 0.676246 0.500000
O O14 0.500000 0.858795 0.500000
O O15 0.671774 0.888513 0.514209
O O16 0.643351 0.500000 0.554372
O O17 0.753810 0.000000 0.507620
O O18 0.000000 0.078556 0.000000
#
# Coordination Sequence:
#
# PCOD8065178 Si02
#       7
#     4   4   4   4   4   4   4
#     4   9  19  36  56  78 107 144 185 229 281 339
#     4  11  22  36  55  80 110 145 187 234 282 335
#     4  10  20  37  60  86 117 154 193 239 288 342
#     4  11  22  36  55  80 110 145 187 234 282 335
#     4  10  20  37  60  86 117 154 193 239 288 342
#     4   9  19  36  56  78 107 144 185 229 281 339
#     4   9  20  38  61  89 118 153 194 229 279 352
#
# _framework density 20.297249000000001
#
# number of rings (size 3 to 8) (size 9 to 14) (size 15 to 20)
#    0.000    2.143    0.000    6.000    2.000    2.286 
#    0.000    3.571    0.000    6.000    0.000    0.000 
#    0.000    0.000    0.000    0.000    0.000    0.000 
#
# Total GULP energy -346940.002169 kJ/mol
# GULP energy per Si atom -12390.714363 kJ/mol
# Density = 2.025105 g / cm^3
# Si number density = 20.297249 Si / 1000 Ang^3
#
#
#
# Elastic Constant Matrix: (Units=GPa)
#
#
# Indices 1 2 3 4 5 6 
#
# 1 101.3967 78.1088 33.7341 0.0000 0.4367 0.0000
# 2 78.1088 158.4515 32.5574 0.0000 1.5685 0.0000
# 3 33.7341 32.5574 83.4529 0.0000 0.1813 0.0000
# 4 0.0000 0.0000 0.0000 -48.9657 0.0000 2.2767
# 5 0.4367 1.5685 0.1813 0.0000 27.4999 0.0000
# 6 0.0000 0.0000 0.0000 2.2767 0.0000 17.1433
#
#
#
# Elastic Compliance Matrix: (Units=1/GPa)
#
#
# Indices 1 2 3 4 5 6 
#
# 1 0.017002 -0.007578 -0.003917 0.000000 0.000188 0.000000
# 2 -0.007578 0.010243 -0.000932 0.000000 -0.000458 0.000000
# 3 -0.003917 -0.000932 0.013929 0.000000 0.000024 0.000000
# 4 0.000000 0.000000 0.000000 -0.020297 0.000000 0.002696
# 5 0.000188 -0.000458 0.000024 0.000000 0.036387 0.000000
# 6 0.000000 0.000000 0.000000 0.002696 0.000000 0.057974
#
#
# Mechanical properties :
#
#
# Convention : Reuss Voigt Hill
#
# Bulk Modulus (GPa) = 61.27009 70.23354 65.75182
# Shear Modulus (GPa) = 34.35673 12.39556 23.37615
#
# Velocity S-wave (km/s) = 4.11868 2.47392 3.39734
# Velocity P-wave (km/s) = 7.27117 6.54507 6.91766
#
# Compressibility (1/GPa) = 0.01632118
#
# Stress axis : x y z
#
# Youngs Moduli (GPa) = 58.81520 97.62928 71.79035
#
# Poissons Ratio (x) = 0.73988 0.28118
# Poissons Ratio (y) = 0.44573 0.06688
# Poissons Ratio (z) = 0.23036 0.09095
#
# Static dielectric constant tensor:
#      x y z
#    x 3.643370 0.000000 0.001860 
#    y 0.000000 3.858930 0.000000 
#    z 0.001860 0.000000 3.589420 
# 
# 
# High freq. dielectric constant tensor:
#      x y z
#    x 1.784710 0.000000 0.000190 
#    y 0.000000 1.799680 0.000000 
#    z 0.000190 0.000000 1.779170 
# 
# From -- ./inp_files/30474.got.cif
#   From: 2010.06.25/outbox.cif.g09.slc.cpg/sg10_16_cif.got.tgz:30474.got - 2010.06.27 22:07:45.
