data_PCOD8065664
_publ_section_title
;
Structure prediction by ZEFSAII (Michael W. Deem and Ramdas Pophale) SiO2 
 PCOD8065664
Probable space group: P 2/M
;
_chemical_formula_sum "Si O2"
_cell_formula_units_Z 32
_cell_length_a 11.999050
_cell_length_b 9.143884
_cell_length_c 28.446390
_cell_angle_alpha 90.000000
_cell_angle_beta 147.643076
_cell_angle_gamma 90.000000
_cell_volume 1670.375966
_symmetry_space_group_name_H-M "P 2/M"
_symmetry_group_IT_number 10
_symmetry_cell_setting 'monoclinic'
loop_
_space_group_symop_operation_xyz
x,y,z
-x,y,-z
-x,-y,-z
x,-y,z
loop_
_atom_site_type_symbol
_atom_site_label
_atom_site_fract_x
_atom_site_fract_y
_atom_site_fract_z
Si Si1 0.585100 0.666359 0.647533
Si Si2 0.445521 0.166628 0.839173
Si Si3 0.956003 0.673221 0.338601
Si Si4 0.712396 0.836631 0.603251
Si Si5 0.351441 0.827629 0.990018
Si Si6 0.114773 0.326795 0.495109
Si Si7 0.076263 0.333769 0.151482
Si Si8 0.181488 0.833449 0.098051
O O1 0.569672 0.500000 0.622511
O O2 0.674552 0.775514 0.641225
O O3 0.356242 0.721553 0.581644
O O4 0.742946 0.675740 0.746326
O O5 0.257964 0.270238 0.758727
O O6 0.604001 0.180398 0.852869
O O7 0.367838 0.000000 0.817279
O O8 0.546299 0.220659 0.924086
O O9 0.953721 0.500000 0.336819
O O10 0.136912 0.727557 0.369548
O O11 0.999049 0.731688 0.406860
O O12 0.500000 0.842394 0.500000
O O13 0.808770 0.000000 0.641403
O O14 0.128611 0.751462 0.904549
O O15 0.312002 0.000000 0.975189
O O16 0.500000 0.778630 0.000000
O O17 0.097787 0.500000 0.490758
O O18 0.000000 0.258773 0.500000
O O19 0.009946 0.500000 0.118031
O O20 0.184015 0.267419 0.144147
O O21 0.135487 0.000000 0.097187
O O22 0.000000 0.775321 0.000000
#
# Coordination Sequence:
#
# PCOD8065664 Si02
#       8
#     4   4   4   4   4   4   4   4
#     4  10  22  40  61  88 122 157 198 244 297 356
#     4  10  22  40  61  88 121 157 200 248 294 350
#     4  11  23  38  63  91 120 158 198 245 300 357
#     4  11  23  40  63  88 119 155 201 254 296 347
#     4  10  22  42  64  84 116 163 204 240 294 364
#     4   9  19  37  60  84 117 160 197 233 286 355
#     4  11  24  38  60  93 124 153 195 255 302 347
#     4  10  20  40  65  85 116 161 204 244 294 361
#
# _framework density 19.157364999999999
#
# number of rings (size 3 to 8) (size 9 to 14) (size 15 to 20)
#    0.000    1.750    2.500    1.125    3.500    3.000 
#    0.000    0.000    0.000    1.875    0.000    0.000 
#    0.000    0.000    0.000    0.000    0.000    0.000 
#
# Total GULP energy -396855.388623 kJ/mol
# GULP energy per Si atom -12401.730894 kJ/mol
# Density = 1.911376 g / cm^3
# Si number density = 19.157365 Si / 1000 Ang^3
#
#
#
# Elastic Constant Matrix: (Units=GPa)
#
#
# Indices 1 2 3 4 5 6 
#
# 1 118.5056 32.6020 28.2837 0.0000 -6.1956 0.0000
# 2 32.6020 66.3246 35.0376 0.0000 -6.0327 0.0000
# 3 28.2837 35.0376 83.1228 0.0000 -3.5237 0.0000
# 4 0.0000 0.0000 0.0000 37.7824 0.0000 -13.5626
# 5 -6.1956 -6.0327 -3.5237 0.0000 26.5080 0.0000
# 6 0.0000 0.0000 0.0000 -13.5626 0.0000 74.4782
#
#
#
# Elastic Compliance Matrix: (Units=1/GPa)
#
#
# Indices 1 2 3 4 5 6 
#
# 1 0.009980 -0.003896 -0.001702 0.000000 0.001220 0.000000
# 2 -0.003896 0.021217 -0.007494 0.000000 0.002922 0.000000
# 3 -0.001702 -0.007494 0.015768 0.000000 -0.000007 0.000000
# 4 0.000000 0.000000 0.000000 0.028318 0.000000 0.005157
# 5 0.001220 0.002922 -0.000007 0.000000 0.038674 0.000000
# 6 0.000000 0.000000 0.000000 0.005157 0.000000 0.014366
#
#
# Mechanical properties :
#
#
# Convention : Reuss Voigt Hill
#
# Bulk Modulus (GPa) = 48.11887 51.08884 49.60385
# Shear Modulus (GPa) = 30.97255 39.22238 35.09746
#
# Velocity S-wave (km/s) = 4.02524 4.52971 4.28490
# Velocity P-wave (km/s) = 6.83927 7.35415 7.10138
#
# Compressibility (1/GPa) = 0.02078187
#
# Stress axis : x y z
#
# Youngs Moduli (GPa) = 100.19882 47.13242 63.41952
#
# Poissons Ratio (x) = 0.18361 0.10795
# Poissons Ratio (y) = 0.39034 0.47525
# Poissons Ratio (z) = 0.17055 0.35320
#
# Static dielectric constant tensor:
#      x y z
#    x 4.226020 0.000000 0.278620 
#    y 0.000000 3.545410 0.000000 
#    z 0.278620 0.000000 3.584450 
# 
# 
# High freq. dielectric constant tensor:
#      x y z
#    x 1.757830 0.000000 0.000800 
#    y 0.000000 1.732910 0.000000 
#    z 0.000800 0.000000 1.754660 
# 
# From -- ./inp_files/49962.got.cif
#   From: 2010.06.25/outbox.cif.g09.slc.cpg/sg10_25_cif.got.tgz:49962.got - 2010.06.27 22:07:45.
