data_PCOD8065142
_publ_section_title
;
Structure prediction by ZEFSAII (Michael W. Deem and Ramdas Pophale) SiO2 
 PCOD8065142
Probable space group: P 2/M
;
_chemical_formula_sum "Si O2"
_cell_formula_units_Z 28
_cell_length_a 29.304169
_cell_length_b 8.887441
_cell_length_c 10.084958
_cell_angle_alpha 90.000000
_cell_angle_beta 34.341167
_cell_angle_gamma 90.000000
_cell_volume 1481.669402
_symmetry_space_group_name_H-M "P 2/M"
_symmetry_group_IT_number 10
_symmetry_cell_setting 'monoclinic'
loop_
_space_group_symop_operation_xyz
x,y,z
-x,y,-z
-x,-y,-z
x,-y,z
loop_
_atom_site_type_symbol
_atom_site_label
_atom_site_fract_x
_atom_site_fract_y
_atom_site_fract_z
Si Si1 0.653177 0.676175 0.450552
Si Si2 0.494293 0.833621 0.855832
Si Si3 0.915520 0.175746 0.483975
Si Si4 0.148195 0.825325 0.650039
Si Si5 0.195058 0.176919 0.005320
Si Si6 0.082932 0.322504 0.059433
Si Si7 0.676806 0.175354 0.673090
O O1 0.662637 0.500000 0.412481
O O2 0.560881 0.721532 0.634955
O O3 0.676934 0.724261 0.541730
O O4 0.714411 0.756945 0.201747
O O5 0.512196 0.000000 0.756154
O O6 0.500000 0.833664 0.000000
O O7 0.401434 0.784568 0.046871
O O8 0.877766 0.222169 0.434334
O O9 0.851079 0.220579 0.750087
O O10 0.996005 0.269410 0.320189
O O11 0.937392 0.000000 0.437692
O O12 0.243277 0.789190 0.434693
O O13 0.129927 0.000000 0.721759
O O14 0.094790 0.728601 0.879357
O O15 0.152327 0.247886 0.980385
O O16 0.199111 0.000000 0.973434
O O17 0.089721 0.500000 0.054761
O O18 0.672328 0.000000 0.640728
#
# Coordination Sequence:
#
# PCOD8065142 Si02
#       7
#     4   4   4   4   4   4   4
#     4  11  20  30  49  79 110 139 176 219 269 322
#     4   8  15  28  47  74 106 139 175 214 263 315
#     4  10  23  40  58  80 105 142 186 224 269 321
#     4  10  20  37  60  82 108 142 181 223 267 319
#     4  11  22  38  58  78 106 143 184 228 269 315
#     4  12  24  37  56  83 110 140 179 223 273 325
#     4   9  17  31  53  78 106 141 176 216 266 317
#
# _framework density 18.897604000000001
#
# number of rings (size 3 to 8) (size 9 to 14) (size 15 to 20)
#    0.000    1.857    1.429    4.714    0.000    7.714 
#    0.000    0.000    0.000    0.857    0.000    6.000 
#    0.000    0.000    0.000    0.000    0.000    0.000 
#
# Total GULP energy -347231.517085 kJ/mol
# GULP energy per Si atom -12401.125610 kJ/mol
# Density = 1.885459 g / cm^3
# Si number density = 18.897604 Si / 1000 Ang^3
#
#
#
# Elastic Constant Matrix: (Units=GPa)
#
#
# Indices 1 2 3 4 5 6 
#
# 1 29.8288 18.1441 33.8472 0.0000 -2.6054 0.0000
# 2 18.1441 97.9148 59.5044 0.0000 -4.8159 0.0000
# 3 33.8472 59.5044 141.9226 0.0000 -17.2050 0.0000
# 4 0.0000 0.0000 0.0000 13.4774 0.0000 -6.4476
# 5 -2.6054 -4.8159 -17.2050 0.0000 32.4494 0.0000
# 6 0.0000 0.0000 0.0000 -6.4476 0.0000 7.7911
#
#
#
# Elastic Compliance Matrix: (Units=1/GPa)
#
#
# Indices 1 2 3 4 5 6 
#
# 1 0.046554 -0.002453 -0.010329 0.000000 -0.002103 0.000000
# 2 -0.002453 0.013870 -0.005348 0.000000 -0.000974 0.000000
# 3 -0.010329 -0.005348 0.012349 0.000000 0.004924 0.000000
# 4 0.000000 0.000000 0.000000 0.122825 0.000000 0.101644
# 5 -0.002103 -0.000974 0.004924 0.000000 0.033115 0.000000
# 6 0.000000 0.000000 0.000000 0.101644 0.000000 0.212468
#
#
# Mechanical properties :
#
#
# Convention : Reuss Voigt Hill
#
# Bulk Modulus (GPa) = 27.38853 54.73974 41.06414
# Shear Modulus (GPa) = 10.21219 21.28827 15.75023
#
# Velocity S-wave (km/s) = 2.32716 3.35999 2.89009
# Velocity P-wave (km/s) = 4.66321 6.63943 5.73705
#
# Compressibility (1/GPa) = 0.03651163
#
# Stress axis : x y z
#
# Youngs Moduli (GPa) = 21.48063 72.09873 80.97892
#
# Poissons Ratio (x) = 0.17685 0.83644
# Poissons Ratio (y) = 0.05269 0.43311
# Poissons Ratio (z) = 0.22188 0.38561
#
# Static dielectric constant tensor:
#      x y z
#    x 3.380570 0.000000 -0.388170 
#    y 0.000000 3.346520 0.000000 
#    z -0.388170 0.000000 3.772700 
# 
# 
# High freq. dielectric constant tensor:
#      x y z
#    x 1.706210 0.000000 -0.029310 
#    y 0.000000 1.726200 0.000000 
#    z -0.029310 0.000000 1.744660 
# 
# From -- ./inp_files/36967.got.cif
#   From: 2010.06.25/outbox.cif.g09.slc.cpg/sg10_19_cif.got.tgz:36967.got - 2010.06.27 22:07:45.
