data_PCOD8065008
_publ_section_title
;
Structure prediction by ZEFSAII (Michael W. Deem and Ramdas Pophale) SiO2 
 PCOD8065008
Probable space group: P 2/M
;
_chemical_formula_sum "Si O2"
_cell_formula_units_Z 22
_cell_length_a 10.114565
_cell_length_b 12.330041
_cell_length_c 20.073055
_cell_angle_alpha 90.000000
_cell_angle_beta 26.051197
_cell_angle_gamma 90.000000
_cell_volume 1099.415662
_symmetry_space_group_name_H-M "P 2/M"
_symmetry_group_IT_number 10
_symmetry_cell_setting 'monoclinic'
loop_
_space_group_symop_operation_xyz
x,y,z
-x,y,-z
-x,-y,-z
x,-y,z
loop_
_atom_site_type_symbol
_atom_site_label
_atom_site_fract_x
_atom_site_fract_y
_atom_site_fract_z
Si Si1 0.414751 0.163084 0.171245
Si Si2 0.666309 0.794065 0.644684
Si Si3 0.037586 0.000000 0.679570
Si Si4 0.423190 0.620674 0.957793
Si Si5 0.884849 0.000000 0.903145
Si Si6 0.160420 0.623485 0.857849
Si Si7 0.451756 0.000000 0.381733
O O1 0.455268 0.153601 0.231779
O O2 0.115029 0.106913 0.281505
O O3 0.384438 0.290256 0.168295
O O4 0.701149 0.107991 0.004814
O O5 0.442531 0.702066 0.718294
O O6 0.000000 0.742160 0.500000
O O7 0.699908 0.892210 0.578113
O O8 0.379391 0.000000 0.494890
O O9 0.988747 0.000000 0.779829
O O10 0.518901 0.500000 0.890354
O O11 0.070549 0.638761 0.099500
O O12 0.500000 0.635328 0.000000
O O13 0.200592 0.000000 0.798139
O O14 0.278642 0.500000 0.807202
O O15 0.000000 0.654318 0.000000
#
# Coordination Sequence:
#
# PCOD8065008 Si02
#       7
#     4   4   2   4   2   4   2
#     4  11  21  38  61  88 116 157 208 251 300 361
#     4  12  24  39  60  87 126 165 201 254 313 362
#     4  11  22  41  57  81 126 162 196 247 306 365
#     4  10  20  36  62  94 123 152 195 256 312 358
#     4  11  24  36  61  88 113 160 208 252 300 366
#     4  10  21  39  63  91 122 157 207 259 299 357
#     4  12  24  38  58  87 124 159 198 250 310 369
#
# _framework density 20.010629999999999
#
# number of rings (size 3 to 8) (size 9 to 14) (size 15 to 20)
#    0.000    1.091    3.636    4.909    0.000    1.091 
#    0.000    0.000    0.000    0.000    0.000    3.818 
#    0.000    0.000    0.000    0.000    0.000    0.000 
#
# Total GULP energy -272725.918844 kJ/mol
# GULP energy per Si atom -12396.632675 kJ/mol
# Density = 1.996509 g / cm^3
# Si number density = 20.010630 Si / 1000 Ang^3
#
#
#
# Elastic Constant Matrix: (Units=GPa)
#
#
# Indices 1 2 3 4 5 6 
#
# 1 105.5240 25.5772 34.3487 0.0000 5.0427 0.0000
# 2 25.5772 124.4132 46.5891 0.0000 -0.5056 0.0000
# 3 34.3487 46.5891 100.3268 0.0000 3.7908 0.0000
# 4 0.0000 0.0000 0.0000 12.2364 0.0000 -1.6152
# 5 5.0427 -0.5056 3.7908 0.0000 37.8748 0.0000
# 6 0.0000 0.0000 0.0000 -1.6152 0.0000 20.9844
#
#
#
# Elastic Compliance Matrix: (Units=1/GPa)
#
#
# Indices 1 2 3 4 5 6 
#
# 1 0.010817 -0.001038 -0.003178 0.000000 -0.001136 0.000000
# 2 -0.001038 0.009842 -0.004241 0.000000 0.000694 0.000000
# 3 -0.003178 -0.004241 0.013061 0.000000 -0.000941 0.000000
# 4 0.000000 0.000000 0.000000 0.082562 0.000000 0.006355
# 5 -0.001136 0.000694 -0.000941 0.000000 0.026657 0.000000
# 6 0.000000 0.000000 0.000000 0.006355 0.000000 0.048144
#
#
# Mechanical properties :
#
#
# Convention : Reuss Voigt Hill
#
# Bulk Modulus (GPa) = 59.50868 60.36599 59.93734
# Shear Modulus (GPa) = 23.40824 29.13573 26.27199
#
# Velocity S-wave (km/s) = 3.42393 3.81991 3.62733
# Velocity P-wave (km/s) = 6.74049 7.04898 6.89646
#
# Compressibility (1/GPa) = 0.01680427
#
# Stress axis : x y z
#
# Youngs Moduli (GPa) = 92.44690 101.60326 76.56586
#
# Poissons Ratio (x) = 0.10549 0.24335
# Poissons Ratio (y) = 0.09598 0.32473
# Poissons Ratio (z) = 0.29383 0.43092
#
# Static dielectric constant tensor:
#      x y z
#    x 3.753160 0.000000 -0.066830 
#    y 0.000000 3.823480 0.000000 
#    z -0.066830 0.000000 3.496750 
# 
# 
# High freq. dielectric constant tensor:
#      x y z
#    x 1.789220 0.000000 -0.004990 
#    y 0.000000 1.788020 0.000000 
#    z -0.004990 0.000000 1.763320 
# 
# From -- ./inp_files/88889.got.cif
#   From: 2010.06.25/outbox.cif.g09.slc.cpg/sg10_45_cif.got.tgz:88889.got - 2010.06.27 22:07:45.
