data_PCOD8065012
_publ_section_title
;
Structure prediction by ZEFSAII (Michael W. Deem and Ramdas Pophale) SiO2 
 PCOD8065012
Probable space group: P 2/M
;
_chemical_formula_sum "Si O2"
_cell_formula_units_Z 20
_cell_length_a 15.265971
_cell_length_b 14.323071
_cell_length_c 10.208694
_cell_angle_alpha 90.000000
_cell_angle_beta 154.322542
_cell_angle_gamma 90.000000
_cell_volume 967.217180
_symmetry_space_group_name_H-M "P 2/M"
_symmetry_group_IT_number 10
_symmetry_cell_setting 'monoclinic'
loop_
_space_group_symop_operation_xyz
x,y,z
-x,y,-z
-x,-y,-z
x,-y,z
loop_
_atom_site_type_symbol
_atom_site_label
_atom_site_fract_x
_atom_site_fract_y
_atom_site_fract_z
Si Si1 0.334427 0.400122 0.163220
Si Si2 0.921339 0.605278 0.755060
Si Si3 0.572212 0.202883 0.745401
Si Si4 0.981473 0.891487 0.326337
Si Si5 0.672202 0.776795 0.341793
O O1 0.500000 0.401057 0.500000
O O2 0.354425 0.500000 0.113134
O O3 0.364347 0.307160 0.116683
O O4 0.107610 0.392485 0.908641
O O5 0.834510 0.500000 0.653782
O O6 0.740453 0.670573 0.460680
O O7 0.000000 0.643946 0.000000
O O8 0.500000 0.211105 0.500000
O O9 0.407083 0.172665 0.631195
O O10 0.752098 0.129168 0.977851
O O11 0.134434 0.835492 0.441514
O O12 0.000000 0.857876 0.500000
O O13 0.029997 0.000000 0.374641
O O14 0.500000 0.779104 0.000000
#
# Coordination Sequence:
#
# PCOD8065012 Si02
#       5
#     4   4   4   4   4
#     4   9  17  32  57  90 128 169 208 251 309 378
#     4  10  20  36  62  96 135 176 218 261 315 384
#     4  11  23  41  68  98 133 169 212 273 330 385
#     4  11  25  47  70  94 128 169 219 272 336 403
#     4  12  25  41  67  98 132 174 220 267 326 391
#
# _framework density 20.677879000000001
#
# number of rings (size 3 to 8) (size 9 to 14) (size 15 to 20)
#    0.000    1.400    4.000    2.400    0.000    4.400 
#    0.000    1.000    0.000    3.600    0.000    0.000 
#    0.000    0.000    0.000    0.000    0.000    0.000 
#
# Total GULP energy -247878.854937 kJ/mol
# GULP energy per Si atom -12393.942747 kJ/mol
# Density = 2.063082 g / cm^3
# Si number density = 20.677879 Si / 1000 Ang^3
#
#
#
# Elastic Constant Matrix: (Units=GPa)
#
#
# Indices 1 2 3 4 5 6 
#
# 1 130.9110 37.2959 40.7456 0.0000 12.8610 0.0000
# 2 37.2959 69.5468 22.1664 0.0000 0.5736 0.0000
# 3 40.7456 22.1664 83.2859 0.0000 14.6025 0.0000
# 4 0.0000 0.0000 0.0000 -10.6280 0.0000 -11.3187
# 5 12.8610 0.5736 14.6025 0.0000 32.2771 0.0000
# 6 0.0000 0.0000 0.0000 -11.3187 0.0000 18.9893
#
#
#
# Elastic Compliance Matrix: (Units=1/GPa)
#
#
# Indices 1 2 3 4 5 6 
#
# 1 0.010175 -0.004356 -0.003390 0.000000 -0.002443 0.000000
# 2 -0.004356 0.017668 -0.003064 0.000000 0.002808 0.000000
# 3 -0.003390 -0.003064 0.015461 0.000000 -0.005589 0.000000
# 4 0.000000 0.000000 0.000000 -0.057555 0.000000 -0.034306
# 5 -0.002443 0.002808 -0.005589 0.000000 0.034434 0.000000
# 6 0.000000 0.000000 0.000000 -0.034306 0.000000 0.032213
#
#
# Mechanical properties :
#
#
# Convention : Reuss Voigt Hill
#
# Bulk Modulus (GPa) = 46.11594 53.79550 49.95572
# Shear Modulus (GPa) = 61.54402 20.36339 40.95371
#
# Velocity S-wave (km/s) = 5.46149 3.14154 4.45517
# Velocity P-wave (km/s) = 7.88168 6.26351 7.11872
#
# Compressibility (1/GPa) = 0.02168447
#
# Stress axis : x y z
#
# Youngs Moduli (GPa) = 98.28077 56.59957 64.67988
#
# Poissons Ratio (x) = 0.24654 0.21928
# Poissons Ratio (y) = 0.42809 0.19815
# Poissons Ratio (z) = 0.33319 0.17340
#
# Static dielectric constant tensor:
#      x y z
#    x 3.722080 0.000000 0.224330 
#    y 0.000000 4.027180 0.000000 
#    z 0.224330 0.000000 3.665050 
# 
# 
# High freq. dielectric constant tensor:
#      x y z
#    x 1.804420 0.000000 0.025050 
#    y 0.000000 1.811050 0.000000 
#    z 0.025050 0.000000 1.802300 
# 
# From -- ./inp_files/53951.got.cif
#   From: 2010.06.25/outbox.cif.g09.slc.cpg/sg10_27_cif.got.tgz:53951.got - 2010.06.27 22:07:45.
