data_PCOD8065685
_publ_section_title
;
Structure prediction by ZEFSAII (Michael W. Deem and Ramdas Pophale) SiO2 
 PCOD8065685
Probable space group: P 2/M
;
_chemical_formula_sum "Si O2"
_cell_formula_units_Z 32
_cell_length_a 11.335780
_cell_length_b 17.266136
_cell_length_c 13.811502
_cell_angle_alpha 90.000000
_cell_angle_beta 146.865001
_cell_angle_gamma 90.000000
_cell_volume 1477.637458
_symmetry_space_group_name_H-M "P 2/M"
_symmetry_group_IT_number 10
_symmetry_cell_setting 'monoclinic'
loop_
_space_group_symop_operation_xyz
x,y,z
-x,y,-z
-x,-y,-z
x,-y,z
loop_
_atom_site_type_symbol
_atom_site_label
_atom_site_fract_x
_atom_site_fract_y
_atom_site_fract_z
Si Si1 0.878264 0.590009 0.641969
Si Si2 0.923431 0.323970 0.056492
Si Si3 0.296532 0.911629 0.293867
Si Si4 0.915670 0.158439 0.146708
Si Si5 0.428026 0.328028 0.703655
Si Si6 0.518078 0.847834 0.759770
Si Si7 0.710413 0.409906 0.204799
Si Si8 0.930072 0.088080 0.557552
O O1 0.822899 0.500000 0.599179
O O2 0.669212 0.637129 0.462140
O O3 0.932027 0.611742 0.790186
O O4 0.082182 0.612094 0.715498
O O5 0.952672 0.246410 0.139725
O O6 0.676789 0.353031 0.885405
O O7 0.000000 0.310849 0.000000
O O8 0.500000 0.892415 0.500000
O O9 0.313608 0.854471 0.213843
O O10 0.075930 0.897677 0.199014
O O11 0.298554 0.000000 0.259504
O O12 0.959880 0.146561 0.290860
O O13 0.664806 0.136186 0.955285
O O14 0.406860 0.235737 0.685763
O O15 0.286549 0.360890 0.694848
O O16 0.330112 0.910474 0.617300
O O17 0.709423 0.500000 0.232888
O O18 0.500000 0.386776 0.000000
O O19 0.000000 0.116505 0.500000
O O20 0.004090 0.000000 0.629547
#
# Coordination Sequence:
#
# PCOD8065685 Si02
#       8
#     4   4   4   4   4   4   4   4
#     4  11  24  41  68 100 129 175 225 271 329 390
#     4  11  25  45  65  92 135 175 214 270 330 390
#     4  11  22  39  68  99 127 164 213 274 332 379
#     4  11  23  43  68  95 126 170 218 269 327 388
#     4  11  23  41  65  98 132 172 215 274 330 391
#     4  11  24  41  64  98 130 170 218 268 328 394
#     4  10  20  40  69  98 131 169 217 276 329 378
#     4  11  25  44  63  90 131 174 213 263 324 390
#
# _framework density 21.656191
#
# number of rings (size 3 to 8) (size 9 to 14) (size 15 to 20)
#    0.000    1.125    2.500    4.125    0.000    7.250 
#    0.000    1.875    0.000    0.000    0.000    0.000 
#    0.000    0.000    0.000    0.000    0.000    0.000 
#
# Total GULP energy -396943.089901 kJ/mol
# GULP energy per Si atom -12404.471559 kJ/mol
# Density = 2.160690 g / cm^3
# Si number density = 21.656191 Si / 1000 Ang^3
#
#
#
# Elastic Constant Matrix: (Units=GPa)
#
#
# Indices 1 2 3 4 5 6 
#
# 1 106.4203 44.0405 41.2086 0.0000 -27.0708 0.0000
# 2 44.0405 82.4515 53.5834 0.0000 -9.9421 0.0000
# 3 41.2086 53.5834 153.0193 0.0000 -13.4710 0.0000
# 4 0.0000 0.0000 0.0000 29.0631 0.0000 -5.1727
# 5 -27.0708 -9.9421 -13.4710 0.0000 27.0006 0.0000
# 6 0.0000 0.0000 0.0000 -5.1727 0.0000 35.4218
#
#
#
# Elastic Compliance Matrix: (Units=1/GPa)
#
#
# Indices 1 2 3 4 5 6 
#
# 1 0.015586 -0.006188 -0.000895 0.000000 0.012901 0.000000
# 2 -0.006188 0.018423 -0.004951 0.000000 -0.001890 0.000000
# 3 -0.000895 -0.004951 0.008650 0.000000 0.001596 0.000000
# 4 0.000000 0.000000 0.000000 0.035326 0.000000 0.005159
# 5 0.012901 -0.001890 0.001596 0.000000 0.050071 0.000000
# 6 0.000000 0.000000 0.000000 0.005159 0.000000 0.028985
#
#
# Mechanical properties :
#
#
# Convention : Reuss Voigt Hill
#
# Bulk Modulus (GPa) = 53.78769 68.83957 61.31363
# Shear Modulus (GPa) = 26.69423 31.83433 29.26428
#
# Velocity S-wave (km/s) = 3.51470 3.83820 3.68001
# Velocity P-wave (km/s) = 6.43132 7.17627 6.81398
#
# Compressibility (1/GPa) = 0.01859161
#
# Stress axis : x y z
#
# Youngs Moduli (GPa) = 64.16130 54.27893 115.60168
#
# Poissons Ratio (x) = 0.33587 0.10343
# Poissons Ratio (y) = 0.39702 0.57239
# Poissons Ratio (z) = 0.05741 0.26876
#
# Static dielectric constant tensor:
#      x y z
#    x 3.830700 0.000000 -0.071030 
#    y 0.000000 3.730160 0.000000 
#    z -0.071030 0.000000 4.131890 
# 
# 
# High freq. dielectric constant tensor:
#      x y z
#    x 1.840160 0.000000 -0.005500 
#    y 0.000000 1.846000 0.000000 
#    z -0.005500 0.000000 1.868980 
# 
# From -- ./inp_files/65418.got.cif
#   From: 2010.06.25/outbox.cif.g09.slc.cpg/sg10_33_cif.got.tgz:65418.got - 2010.06.27 22:07:45.
