data_PCOD8065337
_publ_section_title
;
Structure prediction by ZEFSAII (Michael W. Deem and Ramdas Pophale) SiO2 
 PCOD8065337
Probable space group: P 2/M
;
_chemical_formula_sum "Si O2"
_cell_formula_units_Z 18
_cell_length_a 18.480807
_cell_length_b 7.484636
_cell_length_c 11.645284
_cell_angle_alpha 90.000000
_cell_angle_beta 146.920160
_cell_angle_gamma 90.000000
_cell_volume 879.186348
_symmetry_space_group_name_H-M "P 2/M"
_symmetry_group_IT_number 10
_symmetry_cell_setting 'monoclinic'
loop_
_space_group_symop_operation_xyz
x,y,z
-x,y,-z
-x,-y,-z
x,-y,z
loop_
_atom_site_type_symbol
_atom_site_label
_atom_site_fract_x
_atom_site_fract_y
_atom_site_fract_z
Si Si1 0.658766 0.000000 0.216101
Si Si2 0.118778 0.709311 0.888765
Si Si3 0.736464 0.000000 0.061876
Si Si4 0.748020 0.702090 0.697017
Si Si5 0.459836 0.000000 0.576581
Si Si6 0.176253 0.701974 0.451615
O O1 0.734640 0.000000 0.196160
O O2 0.705232 0.825331 0.346587
O O3 0.500000 0.000000 0.000000
O O4 0.143516 0.500000 0.898467
O O5 0.190742 0.821940 0.885897
O O6 0.963482 0.756682 0.677995
O O7 0.174184 0.767999 0.086846
O O8 0.585166 0.000000 0.824166
O O9 0.697872 0.500000 0.647832
O O10 0.620585 0.821642 0.503599
O O11 0.842128 0.717625 0.710717
O O12 0.500000 0.000000 0.500000
O O13 0.214184 0.500000 0.536000
#
# Coordination Sequence:
#
# PCOD8065337 Si02
#       6
#     2   4   2   4   2   4
#     4  12  27  45  62  81 119 164 208 248 287 342
#     4  10  21  38  63  95 124 150 190 249 308 358
#     4  12  25  40  58  88 122 161 202 246 294 350
#     4  10  20  37  63  92 123 156 194 246 301 354
#     4  12  22  37  57  85 124 160 199 240 293 352
#     4  10  22  41  65  91 119 157 201 243 296 356
#
# _framework density 20.473475000000001
#
# number of rings (size 3 to 8) (size 9 to 14) (size 15 to 20)
#    0.000    1.333    2.222    3.333    0.000    7.111 
#    0.000    5.556    0.000    0.000    0.000    0.000 
#    0.000    0.000    0.000    0.000    0.000    0.000 
#
# Total GULP energy -223249.700381 kJ/mol
# GULP energy per Si atom -12402.761132 kJ/mol
# Density = 2.042688 g / cm^3
# Si number density = 20.473475 Si / 1000 Ang^3
#
#
#
# Elastic Constant Matrix: (Units=GPa)
#
#
# Indices 1 2 3 4 5 6 
#
# 1 111.7825 44.4748 30.5050 0.0000 -3.7294 0.0000
# 2 44.4748 116.9073 51.5043 0.0000 11.8789 0.0000
# 3 30.5050 51.5043 98.8206 0.0000 13.9873 0.0000
# 4 0.0000 0.0000 0.0000 42.9687 0.0000 19.0087
# 5 -3.7294 11.8789 13.9873 0.0000 36.1773 0.0000
# 6 0.0000 0.0000 0.0000 19.0087 0.0000 50.2527
#
#
#
# Elastic Compliance Matrix: (Units=1/GPa)
#
#
# Indices 1 2 3 4 5 6 
#
# 1 0.011033 -0.003658 -0.001936 0.000000 0.003087 0.000000
# 2 -0.003658 0.012392 -0.004972 0.000000 -0.002524 0.000000
# 3 -0.001936 -0.004972 0.013865 0.000000 -0.003927 0.000000
# 4 0.000000 0.000000 0.000000 0.027950 0.000000 -0.010572
# 5 0.003087 -0.002524 -0.003927 0.000000 0.030307 0.000000
# 6 0.000000 0.000000 0.000000 -0.010572 0.000000 0.023899
#
#
# Mechanical properties :
#
#
# Convention : Reuss Voigt Hill
#
# Bulk Modulus (GPa) = 61.89406 64.49762 63.19584
# Shear Modulus (GPa) = 34.25521 39.28151 36.76836
#
# Velocity S-wave (km/s) = 4.09485 4.38500 4.24241
# Velocity P-wave (km/s) = 7.25631 7.56366 7.41158
#
# Compressibility (1/GPa) = 0.01615664
#
# Stress axis : x y z
#
# Youngs Moduli (GPa) = 90.64021 80.69482 72.12657
#
# Poissons Ratio (x) = 0.29516 0.13965
# Poissons Ratio (y) = 0.33154 0.35865
# Poissons Ratio (z) = 0.17550 0.40125
#
# Static dielectric constant tensor:
#      x y z
#    x 3.797140 0.000000 0.003310 
#    y 0.000000 3.779540 0.000000 
#    z 0.003310 0.000000 3.461580 
# 
# 
# High freq. dielectric constant tensor:
#      x y z
#    x 1.806440 0.000000 0.003130 
#    y 0.000000 1.812550 0.000000 
#    z 0.003130 0.000000 1.792000 
# 
# From -- ./inp_files/53142.got.cif
#   From: 2010.06.25/outbox.cif.g09.slc.cpg/sg10_27_cif.got.tgz:53142.got - 2010.06.27 22:07:45.
