data_PCOD8065349
_publ_section_title
;
Structure prediction by ZEFSAII (Michael W. Deem and Ramdas Pophale) SiO2 
 PCOD8065349
Probable space group: P 2/M
;
_chemical_formula_sum "Si O2"
_cell_formula_units_Z 32
_cell_length_a 19.704820
_cell_length_b 9.006009
_cell_length_c 12.956626
_cell_angle_alpha 90.000000
_cell_angle_beta 45.621914
_cell_angle_gamma 90.000000
_cell_volume 1643.406492
_symmetry_space_group_name_H-M "P 2/M"
_symmetry_group_IT_number 10
_symmetry_cell_setting 'monoclinic'
loop_
_space_group_symop_operation_xyz
x,y,z
-x,y,-z
-x,-y,-z
x,-y,z
loop_
_atom_site_type_symbol
_atom_site_label
_atom_site_fract_x
_atom_site_fract_y
_atom_site_fract_z
Si Si1 0.601930 0.326659 0.602230
Si Si2 0.380833 0.325487 0.831148
Si Si3 0.286115 0.171015 0.340566
Si Si4 0.903885 0.670252 0.158835
Si Si5 0.913087 0.826743 0.358195
Si Si6 0.702915 0.671294 0.292125
Si Si7 0.736931 0.826170 0.867174
Si Si8 0.060204 0.324845 0.336435
O O1 0.623158 0.500000 0.584716
O O2 0.491675 0.290266 0.710688
O O3 0.641551 0.261076 0.666035
O O4 0.654479 0.256694 0.445705
O O5 0.359516 0.500000 0.867117
O O6 0.336238 0.259664 0.772633
O O7 0.336595 0.238172 0.973219
O O8 0.176979 0.217043 0.476137
O O9 0.307931 0.204588 0.197792
O O10 0.300645 0.000000 0.353358
O O11 0.907138 0.500000 0.194970
O O12 0.887640 0.781861 0.269468
O O13 0.816359 0.693159 0.173536
O O14 0.000000 0.715338 0.000000
O O15 0.004516 0.733696 0.295775
O O16 0.937011 0.000000 0.339826
O O17 0.672806 0.500000 0.323267
O O18 0.837371 0.747354 0.770926
O O19 0.752384 0.000000 0.869216
O O20 0.072525 0.500000 0.315513
O O21 0.000000 0.275644 0.500000
#
# Coordination Sequence:
#
# PCOD8065349 Si02
#       8
#     4   4   4   4   4   4   4   4
#     4  10  20  37  64  90 113 150 203 255 300 354
#     4  10  22  39  60  89 120 154 200 251 303 354
#     4  10  22  39  60  85 119 158 197 243 296 355
#     4  10  21  36  57  88 121 154 196 246 301 358
#     4  11  22  38  59  85 119 158 198 242 292 354
#     4   9  18  36  60  86 119 155 193 245 304 360
#     4  11  24  42  60  85 123 163 198 238 298 362
#     4  11  23  38  61  89 116 151 195 241 288 345
#
# _framework density 19.47175
#
# number of rings (size 3 to 8) (size 9 to 14) (size 15 to 20)
#    0.000    1.750    2.500    1.500    1.750    4.750 
#    0.000    3.750    0.000    1.500    0.000    0.000 
#    0.000    0.000    0.000    0.000    0.000    0.000 
#
# Total GULP energy -396902.992032 kJ/mol
# GULP energy per Si atom -12403.218501 kJ/mol
# Density = 1.942743 g / cm^3
# Si number density = 19.471750 Si / 1000 Ang^3
#
#
#
# Elastic Constant Matrix: (Units=GPa)
#
#
# Indices 1 2 3 4 5 6 
#
# 1 135.3147 44.9831 59.2707 0.0000 5.7918 0.0000
# 2 44.9831 55.9575 42.8204 0.0000 -0.9860 0.0000
# 3 59.2707 42.8204 124.9752 0.0000 4.4077 0.0000
# 4 0.0000 0.0000 0.0000 26.9334 0.0000 -2.5349
# 5 5.7918 -0.9860 4.4077 0.0000 29.5287 0.0000
# 6 0.0000 0.0000 0.0000 -2.5349 0.0000 16.8565
#
#
#
# Elastic Compliance Matrix: (Units=1/GPa)
#
#
# Indices 1 2 3 4 5 6 
#
# 1 0.010925 -0.006647 -0.002835 0.000000 -0.001942 0.000000
# 2 -0.006647 0.028390 -0.006690 0.000000 0.003250 0.000000
# 3 -0.002835 -0.006690 0.011688 0.000000 -0.001412 0.000000
# 4 0.000000 0.000000 0.000000 0.037662 0.000000 0.005664
# 5 -0.001942 0.003250 -0.001412 0.000000 0.034565 0.000000
# 6 0.000000 0.000000 0.000000 0.005664 0.000000 0.060176
#
#
# Mechanical properties :
#
#
# Convention : Reuss Voigt Hill
#
# Bulk Modulus (GPa) = 53.59154 67.82177 60.70666
# Shear Modulus (GPa) = 22.52554 25.94194 24.23374
#
# Velocity S-wave (km/s) = 3.40491 3.65401 3.53166
# Velocity P-wave (km/s) = 6.56052 7.26009 6.91915
#
# Compressibility (1/GPa) = 0.01865966
#
# Stress axis : x y z
#
# Youngs Moduli (GPa) = 91.53455 35.22312 85.55641
#
# Poissons Ratio (x) = 0.23412 0.24258
# Poissons Ratio (y) = 0.60841 0.57235
# Poissons Ratio (z) = 0.25953 0.23564
#
# Static dielectric constant tensor:
#      x y z
#    x 3.589640 0.000000 0.084540 
#    y 0.000000 3.375120 0.000000 
#    z 0.084540 0.000000 3.758860 
# 
# 
# High freq. dielectric constant tensor:
#      x y z
#    x 1.771210 0.000000 0.001650 
#    y 0.000000 1.740090 0.000000 
#    z 0.001650 0.000000 1.762240 
# 
# From -- ./inp_files/55190.got.cif
#   From: 2010.06.25/outbox.cif.g09.slc.cpg/sg10_28_cif.got.tgz:55190.got - 2010.06.27 22:07:45.
