data_PCOD8065170
_publ_section_title
;
Structure prediction by ZEFSAII (Michael W. Deem and Ramdas Pophale) SiO2 
 PCOD8065170
Probable space group: P 2/M
;
_chemical_formula_sum "Si O2"
_cell_formula_units_Z 32
_cell_length_a 25.082805
_cell_length_b 8.773184
_cell_length_c 23.988508
_cell_angle_alpha 90.000000
_cell_angle_beta 18.092110
_cell_angle_gamma 90.000000
_cell_volume 1639.312935
_symmetry_space_group_name_H-M "P 2/M"
_symmetry_group_IT_number 10
_symmetry_cell_setting 'monoclinic'
loop_
_space_group_symop_operation_xyz
x,y,z
-x,y,-z
-x,-y,-z
x,-y,z
loop_
_atom_site_type_symbol
_atom_site_label
_atom_site_fract_x
_atom_site_fract_y
_atom_site_fract_z
Si Si1 0.193798 0.318660 0.806598
Si Si2 0.687334 0.679755 0.923365
Si Si3 0.331880 0.820885 0.289790
Si Si4 0.983995 0.319259 0.333637
Si Si5 0.010799 0.681672 0.180988
Si Si6 0.304250 0.681154 0.577776
Si Si7 0.681468 0.318809 0.199748
Si Si8 0.802368 0.821787 0.697938
O O1 0.200702 0.500000 0.799878
O O2 0.282333 0.255309 0.662466
O O3 0.286924 0.254758 0.769277
O O4 0.000000 0.259478 0.000000
O O5 0.669004 0.500000 0.946182
O O6 0.702358 0.728930 0.844340
O O7 0.855168 0.738708 0.789602
O O8 0.518501 0.753530 0.118690
O O9 0.192512 0.750896 0.469500
O O10 0.284072 0.777263 0.274199
O O11 0.334474 0.000000 0.296122
O O12 0.967706 0.500000 0.352783
O O13 0.013343 0.260032 0.241744
O O14 0.010662 0.500000 0.179573
O O15 0.841651 0.747126 0.318168
O O16 0.179017 0.746952 0.982297
O O17 0.288334 0.500000 0.595056
O O18 0.491250 0.732063 0.369395
O O19 0.697593 0.500000 0.185067
O O20 0.000000 0.770841 0.500000
O O21 0.784527 0.000000 0.729315
#
# Coordination Sequence:
#
# PCOD8065170 Si02
#       8
#     4   4   4   4   4   4   4   4
#     4   9  13  19  31  49  77 111 154 206 253 298
#     4  11  23  37  57  85 116 146 177 219 271 323
#     4  11  23  39  61  84 109 142 180 222 268 321
#     4  10  22  38  55  77 108 144 183 226 268 315
#     4   9  17  29  42  59  86 124 169 211 252 302
#     4   9  15  22  35  54  78 116 160 206 253 302
#     4   9  15  22  34  53  79 114 159 206 254 304
#     4  10  20  37  60  85 112 143 179 219 267 323
#
# _framework density 19.520372999999999
#
# number of rings (size 3 to 8) (size 9 to 14) (size 15 to 20)
#    0.000    2.250    2.500    1.500    0.000    5.750 
#    0.000    3.750    0.000    0.000    0.000    0.000 
#    0.000    0.000    0.000    2.250    0.000   13.250 
#
# Total GULP energy -396771.554829 kJ/mol
# GULP energy per Si atom -12399.111088 kJ/mol
# Density = 1.947594 g / cm^3
# Si number density = 19.520373 Si / 1000 Ang^3
#
#
#
# Elastic Constant Matrix: (Units=GPa)
#
#
# Indices 1 2 3 4 5 6 
#
# 1 114.4533 17.4360 68.7320 0.0000 20.4180 0.0000
# 2 17.4360 20.1008 20.2019 0.0000 4.4201 0.0000
# 3 68.7320 20.2019 175.7984 0.0000 4.2708 0.0000
# 4 0.0000 0.0000 0.0000 13.0964 0.0000 -7.4268
# 5 20.4180 4.4201 4.2708 0.0000 24.8060 0.0000
# 6 0.0000 0.0000 0.0000 -7.4268 0.0000 0.9615
#
#
#
# Elastic Compliance Matrix: (Units=1/GPa)
#
#
# Indices 1 2 3 4 5 6 
#
# 1 0.014115 -0.005394 -0.004659 0.000000 -0.009855 0.000000
# 2 -0.005394 0.060356 -0.004693 0.000000 -0.005507 0.000000
# 3 -0.004659 -0.004693 0.007969 0.000000 0.003299 0.000000
# 4 0.000000 0.000000 0.000000 -0.022591 0.000000 -0.174485
# 5 -0.009855 -0.005507 0.003299 0.000000 0.048837 0.000000
# 6 0.000000 0.000000 0.000000 -0.174485 0.000000 -0.307688
#
#
# Mechanical properties :
#
#
# Convention : Reuss Voigt Hill
#
# Bulk Modulus (GPa) = 18.88674 58.12135 38.50405
# Shear Modulus (GPa) = -32.92527 21.37164 -5.77682
#
# Velocity S-wave (km/s) = -4.11142 3.31242 -1.72215
# Velocity P-wave (km/s) = 3.58356 6.66850 3.97662
#
# Compressibility (1/GPa) = 0.05294719
#
# Stress axis : x y z
#
# Youngs Moduli (GPa) = 70.84670 16.56841 125.48415
#
# Poissons Ratio (x) = 0.08937 0.58467
# Poissons Ratio (y) = 0.38215 0.58891
# Poissons Ratio (z) = 0.33009 0.07776
#
# Static dielectric constant tensor:
#      x y z
#    x 3.707910 0.000000 -0.054860 
#    y 0.000000 2.922870 0.000000 
#    z -0.054860 0.000000 3.795740 
# 
# 
# High freq. dielectric constant tensor:
#      x y z
#    x 1.761350 0.000000 -0.002900 
#    y 0.000000 1.694790 0.000000 
#    z -0.002900 0.000000 1.780340 
# 
# From -- ./inp_files/90548.got.cif
#   From: 2010.06.25/outbox.cif.g09.slc.cpg/sg10_46_cif.got.tgz:90548.got - 2010.06.27 22:07:45.
