data_PCOD8065117
_publ_section_title
;
Structure prediction by ZEFSAII (Michael W. Deem and Ramdas Pophale) SiO2 
 PCOD8065117
Probable space group: P 2/M
;
_chemical_formula_sum "Si O2"
_cell_formula_units_Z 28
_cell_length_a 9.376019
_cell_length_b 8.896237
_cell_length_c 27.388429
_cell_angle_alpha 90.000000
_cell_angle_beta 38.094783
_cell_angle_gamma 90.000000
_cell_volume 1409.457298
_symmetry_space_group_name_H-M "P 2/M"
_symmetry_group_IT_number 10
_symmetry_cell_setting 'monoclinic'
loop_
_space_group_symop_operation_xyz
x,y,z
-x,y,-z
-x,-y,-z
x,-y,z
loop_
_atom_site_type_symbol
_atom_site_label
_atom_site_fract_x
_atom_site_fract_y
_atom_site_fract_z
Si Si1 0.973006 0.176246 0.223232
Si Si2 0.758147 0.671159 0.040028
Si Si3 0.179764 0.822282 0.353391
Si Si4 0.479972 0.676316 0.356986
Si Si5 0.668568 0.176856 0.793476
Si Si6 0.311605 0.675580 0.510185
Si Si7 0.230153 0.332869 0.069540
O O1 0.736198 0.264079 0.280171
O O2 0.106075 0.229720 0.236445
O O3 0.134640 0.215513 0.134162
O O4 0.919878 0.000000 0.238166
O O5 0.670754 0.500000 0.058642
O O6 0.565037 0.758021 0.121896
O O7 0.812322 0.738455 0.972202
O O8 0.000000 0.685162 0.000000
O O9 0.302721 0.748808 0.366629
O O10 0.307210 0.771341 0.269185
O O11 0.916483 0.771240 0.419452
O O12 0.187512 0.000000 0.357919
O O13 0.475888 0.500000 0.348912
O O14 0.405600 0.718119 0.431637
O O15 0.649557 0.000000 0.802869
O O16 0.500000 0.722210 0.500000
O O17 0.250927 0.500000 0.530522
O O18 0.116462 0.500000 0.106613
O O19 0.500000 0.350115 0.000000
#
# Coordination Sequence:
#
# PCOD8065117 Si02
#       7
#     4   4   4   4   4   4   4
#     4  11  23  39  61  88 120 157 201 248 300 357
#     4  10  22  38  58  85 116 154 201 248 296 352
#     4  11  24  41  62  91 126 161 199 244 297 354
#     4  11  24  41  63  91 123 158 198 245 297 353
#     4  10  23  41  59  85 120 159 200 244 297 356
#     4  10  22  42  67  94 122 157 201 245 294 353
#     4  10  20  37  59  85 117 154 200 249 298 353
#
# _framework density 19.865804000000001
#
# number of rings (size 3 to 8) (size 9 to 14) (size 15 to 20)
#    0.000    1.571    1.429    2.571    2.000    6.000 
#    0.000    0.000    0.000    0.000    0.000    0.000 
#    0.000    0.000    0.000    0.000    0.000    0.000 
#
# Total GULP energy -347222.832781 kJ/mol
# GULP energy per Si atom -12400.815456 kJ/mol
# Density = 1.982059 g / cm^3
# Si number density = 19.865804 Si / 1000 Ang^3
#
#
#
# Elastic Constant Matrix: (Units=GPa)
#
#
# Indices 1 2 3 4 5 6 
#
# 1 71.5405 11.1081 88.3572 0.0000 54.3388 0.0000
# 2 11.1081 37.9681 55.7047 0.0000 21.2502 0.0000
# 3 88.3572 55.7047 91.7481 0.0000 -0.8101 0.0000
# 4 0.0000 0.0000 0.0000 38.5615 0.0000 -3.7690
# 5 54.3388 21.2502 -0.8101 0.0000 23.8917 0.0000
# 6 0.0000 0.0000 0.0000 -3.7690 0.0000 32.4649
#
#
#
# Elastic Compliance Matrix: (Units=1/GPa)
#
#
# Indices 1 2 3 4 5 6 
#
# 1 0.002447 -0.014501 0.006514 0.000000 0.007553 0.000000
# 2 -0.014501 0.022014 0.000718 0.000000 0.013424 0.000000
# 3 0.006514 0.000718 0.004055 0.000000 -0.015317 0.000000
# 4 0.000000 0.000000 0.000000 0.026230 0.000000 0.003045
# 5 0.007553 0.013424 -0.015317 0.000000 0.012217 0.000000
# 6 0.000000 0.000000 0.000000 0.003045 0.000000 0.031156
#
#
# Mechanical properties :
#
#
# Convention : Reuss Voigt Hill
#
# Bulk Modulus (GPa) = 71.54001 56.84407 64.19204
# Shear Modulus (GPa) = 42.61969 22.05608 32.33789
#
# Velocity S-wave (km/s) = 4.63685 3.33566 4.03900
# Velocity P-wave (km/s) = 8.04717 6.59634 7.35760
#
# Compressibility (1/GPa) = 0.01397819
#
# Stress axis : x y z
#
# Youngs Moduli (GPa) = 408.67805 45.42526 246.61090
#
# Poissons Ratio (x) = 0.65870 -1.60650
# Poissons Ratio (y) = 5.92615 -0.17695
# Poissons Ratio (z) = -2.66226 -0.03259
#
# Static dielectric constant tensor:
#      x y z
#    x 3.938720 0.000000 0.186710 
#    y 0.000000 3.639730 0.000000 
#    z 0.186710 0.000000 3.632120 
# 
# 
# High freq. dielectric constant tensor:
#      x y z
#    x 1.795870 0.000000 0.005760 
#    y 0.000000 1.770130 0.000000 
#    z 0.005760 0.000000 1.782990 
# 
# From -- ./inp_files/37124.got.cif
#   From: 2010.06.25/outbox.cif.g09.slc.cpg/sg10_19_cif.got.tgz:37124.got - 2010.06.27 22:07:45.
