data_PCOD8065266
_publ_section_title
;
Structure prediction by ZEFSAII (Michael W. Deem and Ramdas Pophale) SiO2 
 PCOD8065266
Probable space group: P 2/M
;
_chemical_formula_sum "Si O2"
_cell_formula_units_Z 32
_cell_length_a 15.009200
_cell_length_b 8.586098
_cell_length_c 12.337992
_cell_angle_alpha 90.000000
_cell_angle_beta 92.717966
_cell_angle_gamma 90.000000
_cell_volume 1588.214065
_symmetry_space_group_name_H-M "P 2/M"
_symmetry_group_IT_number 10
_symmetry_cell_setting 'monoclinic'
loop_
_space_group_symop_operation_xyz
x,y,z
-x,y,-z
-x,-y,-z
x,-y,z
loop_
_atom_site_type_symbol
_atom_site_label
_atom_site_fract_x
_atom_site_fract_y
_atom_site_fract_z
Si Si1 0.870267 0.818797 0.478750
Si Si2 0.942340 0.182425 0.893796
Si Si3 0.261675 0.816740 0.116675
Si Si4 0.564063 0.820071 0.280760
Si Si5 0.406013 0.182466 0.957181
Si Si6 0.014625 0.682492 0.334627
Si Si7 0.377292 0.681250 0.300150
Si Si8 0.682647 0.320506 0.465687
O O1 0.928997 0.768680 0.379347
O O2 0.768256 0.783756 0.444618
O O3 0.898327 0.729424 0.590398
O O4 0.883966 0.000000 0.500944
O O5 0.840300 0.225025 0.914924
O O6 0.974709 0.272698 0.789602
O O7 0.955121 0.000000 0.872572
O O8 0.000000 0.237895 0.000000
O O9 0.290008 0.727006 0.226988
O O10 0.273754 0.000000 0.136068
O O11 0.322820 0.752411 0.021569
O O12 0.612034 0.781884 0.169752
O O13 0.459726 0.782699 0.261972
O O14 0.606939 0.710137 0.372951
O O15 0.576248 0.000000 0.313645
O O16 0.412884 0.000000 0.978552
O O17 0.500000 0.259822 0.000000
O O18 0.999164 0.500000 0.343811
O O19 0.399434 0.500000 0.288672
O O20 0.359035 0.727157 0.422487
O O21 0.711323 0.500000 0.465511
#
# Coordination Sequence:
#
# PCOD8065266 Si02
#       8
#     4   4   4   4   4   4   4   4
#     4  11  22  39  64  91 117 152 202 251 296 358
#     4  10  22  39  60  89 123 159 204 255 303 358
#     4  10  20  37  62  86 112 152 198 246 297 352
#     4  11  22  37  60  86 115 155 201 245 292 353
#     4   9  17  34  58  84 113 146 192 248 296 341
#     4  11  22  39  63  89 122 159 195 243 307 365
#     4  11  23  38  57  82 117 156 194 242 298 355
#     4  11  24  40  56  83 124 159 192 241 304 360
#
# _framework density 20.148417999999999
#
# number of rings (size 3 to 8) (size 9 to 14) (size 15 to 20)
#    0.000    1.500    1.250    5.250    0.000    7.250 
#    0.000    4.375    0.000    0.000    0.000    0.000 
#    0.000    0.000    0.000    0.000    0.000    0.000 
#
# Total GULP energy -396962.177450 kJ/mol
# GULP energy per Si atom -12405.068045 kJ/mol
# Density = 2.010256 g / cm^3
# Si number density = 20.148418 Si / 1000 Ang^3
#
#
#
# Elastic Constant Matrix: (Units=GPa)
#
#
# Indices 1 2 3 4 5 6 
#
# 1 92.9324 22.8648 54.2613 0.0000 7.8412 0.0000
# 2 22.8648 56.7401 33.1481 0.0000 -6.2526 0.0000
# 3 54.2613 33.1481 135.0402 0.0000 -0.2505 0.0000
# 4 0.0000 0.0000 0.0000 15.2498 0.0000 -6.1883
# 5 7.8412 -6.2526 -0.2505 0.0000 29.4792 0.0000
# 6 0.0000 0.0000 0.0000 -6.1883 0.0000 22.9338
#
#
#
# Elastic Compliance Matrix: (Units=1/GPa)
#
#
# Indices 1 2 3 4 5 6 
#
# 1 0.015076 -0.003574 -0.005189 0.000000 -0.004812 0.000000
# 2 -0.003574 0.021987 -0.003951 0.000000 0.005581 0.000000
# 3 -0.005189 -0.003951 0.010461 0.000000 0.000631 0.000000
# 4 0.000000 0.000000 0.000000 0.073638 0.000000 0.019870
# 5 -0.004812 0.005581 0.000631 0.000000 0.036391 0.000000
# 6 0.000000 0.000000 0.000000 0.019870 0.000000 0.048965
#
#
# Mechanical properties :
#
#
# Convention : Reuss Voigt Hill
#
# Bulk Modulus (GPa) = 45.25586 56.14012 50.69799
# Shear Modulus (GPa) = 20.89319 25.16180 23.02749
#
# Velocity S-wave (km/s) = 3.22369 3.53770 3.38434
# Velocity P-wave (km/s) = 6.03044 6.67914 6.36306
#
# Compressibility (1/GPa) = 0.02209659
#
# Stress axis : x y z
#
# Youngs Moduli (GPa) = 66.33163 45.48045 95.58978
#
# Poissons Ratio (x) = 0.16254 0.49605
# Poissons Ratio (y) = 0.23705 0.37767
# Poissons Ratio (z) = 0.34422 0.17969
#
# Static dielectric constant tensor:
#      x y z
#    x 3.727420 0.000000 -0.101900 
#    y 0.000000 3.472630 0.000000 
#    z -0.101900 0.000000 3.680510 
# 
# 
# High freq. dielectric constant tensor:
#      x y z
#    x 1.790470 0.000000 -0.005690 
#    y 0.000000 1.776310 0.000000 
#    z -0.005690 0.000000 1.793510 
# 
# From -- ./inp_files/49866.got.cif
#   From: 2010.06.25/outbox.cif.g09.slc.cpg/sg10_25_cif.got.tgz:49866.got - 2010.06.27 22:07:45.
