data_PCOD8065511
_publ_section_title
;
Structure prediction by ZEFSAII (Michael W. Deem and Ramdas Pophale) SiO2 
 PCOD8065511
Probable space group: P 2/M
;
_chemical_formula_sum "Si O2"
_cell_formula_units_Z 20
_cell_length_a 7.877937
_cell_length_b 15.588081
_cell_length_c 8.782449
_cell_angle_alpha 90.000000
_cell_angle_beta 51.498077
_cell_angle_gamma 90.000000
_cell_volume 844.021616
_symmetry_space_group_name_H-M "P 2/M"
_symmetry_group_IT_number 10
_symmetry_cell_setting 'monoclinic'
loop_
_space_group_symop_operation_xyz
x,y,z
-x,y,-z
-x,-y,-z
x,-y,z
loop_
_atom_site_type_symbol
_atom_site_label
_atom_site_fract_x
_atom_site_fract_y
_atom_site_fract_z
Si Si1 0.786440 0.865309 0.713107
Si Si2 0.708080 0.251220 0.293055
Si Si3 0.761179 0.406155 0.065489
Si Si4 0.912894 0.317044 0.702306
Si Si5 0.689255 0.906044 0.104235
O O1 0.765350 0.762056 0.729713
O O2 0.571473 0.898404 0.750487
O O3 0.000000 0.894711 0.500000
O O4 0.794309 0.902249 0.878449
O O5 0.500000 0.220060 0.500000
O O6 0.635126 0.331598 0.226506
O O7 0.791634 0.170292 0.147936
O O8 0.896237 0.278071 0.301671
O O9 0.649045 0.500000 0.147065
O O10 0.771997 0.383931 0.879216
O O11 0.000000 0.410074 0.000000
O O12 0.000000 0.363912 0.500000
O O13 0.747477 0.000000 0.140327
#
# Coordination Sequence:
#
# PCOD8065511 Si02
#       5
#     4   4   4   4   4
#     4  10  20  39  65  90 126 165 205 251 310 366
#     4  11  22  40  62  88 125 161 205 253 305 365
#     4   9  19  37  63  90 121 157 197 248 307 369
#     4  10  20  38  64  88 120 164 202 245 308 365
#     4  11  24  40  61  91 126 166 210 257 306 362
#
# _framework density 23.696072999999998
#
# number of rings (size 3 to 8) (size 9 to 14) (size 15 to 20)
#    0.000    1.800    2.000    3.600    0.000    2.800 
#    0.000    3.000    0.000    9.000    0.000    0.000 
#    0.000    0.000    0.000    0.000    0.000    0.000 
#
# Total GULP energy -247934.954375 kJ/mol
# GULP energy per Si atom -12396.747719 kJ/mol
# Density = 2.364214 g / cm^3
# Si number density = 23.696073 Si / 1000 Ang^3
#
#
#
# Elastic Constant Matrix: (Units=GPa)
#
#
# Indices 1 2 3 4 5 6 
#
# 1 53.4972 14.8464 37.6092 0.0000 10.0612 0.0000
# 2 14.8464 163.6474 45.6540 0.0000 23.9800 0.0000
# 3 37.6092 45.6540 137.7927 0.0000 10.9360 0.0000
# 4 0.0000 0.0000 0.0000 133.3284 0.0000 66.6031
# 5 10.0612 23.9800 10.9360 0.0000 39.0666 0.0000
# 6 0.0000 0.0000 0.0000 66.6031 0.0000 52.0445
#
#
#
# Elastic Compliance Matrix: (Units=1/GPa)
#
#
# Indices 1 2 3 4 5 6 
#
# 1 0.023862 0.000240 -0.006232 0.000000 -0.004548 0.000000
# 2 0.000240 0.007266 -0.002162 0.000000 -0.003917 0.000000
# 3 -0.006232 -0.002162 0.009656 0.000000 0.000229 0.000000
# 4 0.000000 0.000000 0.000000 0.020793 0.000000 -0.026609
# 5 -0.004548 -0.003917 0.000229 0.000000 0.029109 0.000000
# 6 0.000000 0.000000 0.000000 -0.026609 0.000000 0.053267
#
#
# Mechanical properties :
#
#
# Convention : Reuss Voigt Hill
#
# Bulk Modulus (GPa) = 40.85378 61.23961 51.04669
# Shear Modulus (GPa) = 29.68791 62.00974 45.84883
#
# Velocity S-wave (km/s) = 3.54342 5.12109 4.40349
# Velocity P-wave (km/s) = 5.83260 7.80175 6.88791
#
# Compressibility (1/GPa) = 0.02447754
#
# Stress axis : x y z
#
# Youngs Moduli (GPa) = 41.90729 137.62709 103.55939
#
# Poissons Ratio (x) = -0.03305 0.64533
# Poissons Ratio (y) = -0.01006 0.22391
# Poissons Ratio (z) = 0.26115 0.29756
#
# Static dielectric constant tensor:
#      x y z
#    x 4.016510 0.000000 0.242240 
#    y 0.000000 4.635720 0.000000 
#    z 0.242240 0.000000 4.510120 
# 
# 
# High freq. dielectric constant tensor:
#      x y z
#    x 1.921010 0.000000 0.010890 
#    y 0.000000 1.931500 0.000000 
#    z 0.010890 0.000000 1.942760 
# 
# From -- ./inp_files/19530.got.cif
#   From: 2010.06.25/outbox.cif.g09.slc.cpg/sg10_10_cif.got.tgz:19530.got - 2010.06.27 22:07:45.
