data_PCOD8065521
_publ_section_title
;
Structure prediction by ZEFSAII (Michael W. Deem and Ramdas Pophale) SiO2 
 PCOD8065521
Probable space group: P 2/M
;
_chemical_formula_sum "Si O2"
_cell_formula_units_Z 18
_cell_length_a 20.835514
_cell_length_b 8.875517
_cell_length_c 5.050394
_cell_angle_alpha 90.000000
_cell_angle_beta 96.749414
_cell_angle_gamma 90.000000
_cell_volume 927.476368
_symmetry_space_group_name_H-M "P 2/M"
_symmetry_group_IT_number 10
_symmetry_cell_setting 'monoclinic'
loop_
_space_group_symop_operation_xyz
x,y,z
-x,y,-z
-x,-y,-z
x,-y,z
loop_
_atom_site_type_symbol
_atom_site_label
_atom_site_fract_x
_atom_site_fract_y
_atom_site_fract_z
Si Si1 0.925785 0.324458 0.023454
Si Si2 0.545222 0.500000 0.772125
Si Si3 0.281151 0.827055 0.591815
Si Si4 0.331340 0.666122 0.114249
Si Si5 0.131091 0.174322 0.503385
O O1 0.909460 0.500000 0.992416
O O2 0.881274 0.233460 0.798106
O O3 0.911688 0.269016 0.312848
O O4 0.000000 0.290572 0.000000
O O5 0.500000 0.500000 0.500000
O O6 0.591468 0.648472 0.796803
O O7 0.500000 0.500000 0.000000
O O8 0.298357 0.778303 0.303494
O O9 0.205762 0.802460 0.609709
O O10 0.300712 0.000000 0.635393
O O11 0.322130 0.728459 0.815090
O O12 0.298353 0.500000 0.117530
O O13 0.111181 0.000000 0.509650
#
# Coordination Sequence:
#
# PCOD8065521 Si02
#       5
#     4   2   4   4   4
#     4  11  24  41  59  84 115 153 197 250 303 347
#     4  10  20  38  64  90 120 154 197 242 275 330
#     4  11  22  39  58  87 126 153 189 244 304 346
#     4  10  22  36  62  91 112 158 199 235 280 349
#     4  11  24  39  60  86 115 157 195 241 299 358
#
# _framework density 19.407503999999999
#
# number of rings (size 3 to 8) (size 9 to 14) (size 15 to 20)
#    0.667    0.667    0.000    6.000    0.000   13.333 
#    0.000    0.000    0.000   13.333    0.000    0.000 
#    0.000    0.000    0.000    0.000    0.000    0.000 
#
# Total GULP energy -223269.203822 kJ/mol
# GULP energy per Si atom -12403.844657 kJ/mol
# Density = 1.936333 g / cm^3
# Si number density = 19.407504 Si / 1000 Ang^3
#
#
#
# Elastic Constant Matrix: (Units=GPa)
#
#
# Indices 1 2 3 4 5 6 
#
# 1 63.1760 54.2558 16.2904 0.0000 -4.9801 0.0000
# 2 54.2558 95.4709 25.9505 0.0000 8.8720 0.0000
# 3 16.2904 25.9505 95.7850 0.0000 2.7633 0.0000
# 4 0.0000 0.0000 0.0000 39.4110 0.0000 -2.5689
# 5 -4.9801 8.8720 2.7633 0.0000 42.0641 0.0000
# 6 0.0000 0.0000 0.0000 -2.5689 0.0000 12.2629
#
#
#
# Elastic Compliance Matrix: (Units=1/GPa)
#
#
# Indices 1 2 3 4 5 6 
#
# 1 0.033470 -0.019611 -0.000614 0.000000 0.008139 0.000000
# 2 -0.019611 0.023002 -0.002695 0.000000 -0.006996 0.000000
# 3 -0.000614 -0.002695 0.011282 0.000000 -0.000246 0.000000
# 4 0.000000 0.000000 0.000000 0.025725 0.000000 0.005389
# 5 0.008139 -0.006996 -0.000246 0.000000 0.026229 0.000000
# 6 0.000000 0.000000 0.000000 0.005389 0.000000 0.082676
#
#
# Mechanical properties :
#
#
# Convention : Reuss Voigt Hill
#
# Bulk Modulus (GPa) = 45.63125 49.71393 47.67259
# Shear Modulus (GPa) = 19.56744 29.27661 24.42202
#
# Velocity S-wave (km/s) = 3.17873 3.88818 3.55121
# Velocity P-wave (km/s) = 6.08569 6.76969 6.43678
#
# Compressibility (1/GPa) = 0.02191481
#
# Stress axis : x y z
#
# Youngs Moduli (GPa) = 29.87712 43.47519 88.63959
#
# Poissons Ratio (x) = 0.85257 0.05444
# Poissons Ratio (y) = 0.58591 0.23885
# Poissons Ratio (z) = 0.01835 0.11715
#
# Static dielectric constant tensor:
#      x y z
#    x 3.466730 0.000000 0.017460 
#    y 0.000000 3.550370 0.000000 
#    z 0.017460 0.000000 3.446230 
# 
# 
# High freq. dielectric constant tensor:
#      x y z
#    x 1.751840 0.000000 -0.000530 
#    y 0.000000 1.757950 0.000000 
#    z -0.000530 0.000000 1.772620 
# 
# From -- ./inp_files/10596.got.cif
#   From: 2010.06.25/outbox.cif.g09.slc.cpg/sg10_6_cif.got.tgz:10596.got - 2010.06.27 22:07:45.
