data_PCOD8065130
_publ_section_title
;
Structure prediction by ZEFSAII (Michael W. Deem and Ramdas Pophale) SiO2 
 PCOD8065130
Probable space group: P 2/M
;
_chemical_formula_sum "Si O2"
_cell_formula_units_Z 28
_cell_length_a 14.855038
_cell_length_b 8.809348
_cell_length_c 12.488153
_cell_angle_alpha 90.000000
_cell_angle_beta 121.852111
_cell_angle_gamma 90.000000
_cell_volume 1388.144524
_symmetry_space_group_name_H-M "P 2/M"
_symmetry_group_IT_number 10
_symmetry_cell_setting 'monoclinic'
loop_
_space_group_symop_operation_xyz
x,y,z
-x,y,-z
-x,-y,-z
x,-y,z
loop_
_atom_site_type_symbol
_atom_site_label
_atom_site_fract_x
_atom_site_fract_y
_atom_site_fract_z
Si Si1 0.405208 0.831565 0.020880
Si Si2 0.816993 0.679517 0.666813
Si Si3 0.786669 0.820638 0.859319
Si Si4 0.829249 0.828184 0.129053
Si Si5 0.569583 0.675077 0.756199
Si Si6 0.996935 0.320904 0.619403
Si Si7 0.406474 0.822946 0.524191
O O1 0.288937 0.817840 0.894820
O O2 0.410149 0.000000 0.079643
O O3 0.500000 0.813225 0.000000
O O4 0.415186 0.692625 0.108037
O O5 0.820750 0.500000 0.679949
O O6 0.856288 0.749770 0.805979
O O7 0.893941 0.737399 0.619859
O O8 0.699687 0.733298 0.566256
O O9 0.667573 0.760983 0.760828
O O10 0.786010 0.000000 0.847390
O O11 0.828489 0.772190 0.003477
O O12 0.900366 0.723582 0.248070
O O13 0.872558 0.000000 0.160675
O O14 0.569439 0.500000 0.721378
O O15 0.456621 0.755819 0.664084
O O16 0.994644 0.500000 0.608974
O O17 0.000000 0.251742 0.500000
O O18 0.500000 0.784698 0.500000
O O19 0.380392 0.000000 0.516549
#
# Coordination Sequence:
#
# PCOD8065130 Si02
#       7
#     4   4   4   4   4   4   4
#     4   9  19  37  59  85 119 156 198 245 293 349
#     4  11  23  38  60  89 118 155 203 250 299 355
#     4  10  20  37  59  87 121 152 190 240 299 359
#     4   9  20  38  62  88 115 153 197 244 295 348
#     4  11  21  33  54  84 120 157 193 239 291 350
#     4  10  24  45  63  83 118 159 198 246 300 354
#     4  11  22  36  57  84 119 160 194 234 295 357
#
# _framework density 20.170808999999998
#
# number of rings (size 3 to 8) (size 9 to 14) (size 15 to 20)
#    0.000    1.857    1.429    3.429    0.000    6.857 
#    0.000    5.714    0.000    0.000    0.000    0.000 
#    0.000    0.000    0.000    0.000    0.000    0.000 
#
# Total GULP energy -347029.180315 kJ/mol
# GULP energy per Si atom -12393.899297 kJ/mol
# Density = 2.012490 g / cm^3
# Si number density = 20.170809 Si / 1000 Ang^3
#
#
#
# Elastic Constant Matrix: (Units=GPa)
#
#
# Indices 1 2 3 4 5 6 
#
# 1 126.2075 42.0441 67.1308 0.0000 -14.4525 0.0000
# 2 42.0441 47.2124 17.8442 0.0000 -8.0994 0.0000
# 3 67.1308 17.8442 109.9293 0.0000 -3.9334 0.0000
# 4 0.0000 0.0000 0.0000 34.8274 0.0000 1.4148
# 5 -14.4525 -8.0994 -3.9334 0.0000 25.7620 0.0000
# 6 0.0000 0.0000 0.0000 1.4148 0.0000 23.7320
#
#
#
# Elastic Compliance Matrix: (Units=1/GPa)
#
#
# Indices 1 2 3 4 5 6 
#
# 1 0.016282 -0.010678 -0.008047 0.000000 0.004548 0.000000
# 2 -0.010678 0.030731 0.001673 0.000000 0.003927 0.000000
# 3 -0.008047 0.001673 0.013671 0.000000 -0.001901 0.000000
# 4 0.000000 0.000000 0.000000 0.028783 0.000000 -0.001716
# 5 0.004548 0.003927 -0.001901 0.000000 0.042313 0.000000
# 6 0.000000 0.000000 0.000000 -0.001716 0.000000 0.042240
#
#
# Mechanical properties :
#
#
# Convention : Reuss Voigt Hill
#
# Bulk Modulus (GPa) = 37.62166 59.70971 48.66568
# Shear Modulus (GPa) = 23.04335 27.28629 25.16482
#
# Velocity S-wave (km/s) = 3.38362 3.68198 3.53595
# Velocity P-wave (km/s) = 5.82728 6.90958 6.39138
#
# Compressibility (1/GPa) = 0.02658044
#
# Stress axis : x y z
#
# Youngs Moduli (GPa) = 61.41940 32.54026 73.14687
#
# Poissons Ratio (x) = 0.34745 0.58859
# Poissons Ratio (y) = 0.65581 -0.12235
# Poissons Ratio (z) = 0.49422 -0.05443
#
# Static dielectric constant tensor:
#      x y z
#    x 3.902170 0.000000 -0.155040 
#    y 0.000000 3.602210 0.000000 
#    z -0.155040 0.000000 3.767500 
# 
# 
# High freq. dielectric constant tensor:
#      x y z
#    x 1.781850 0.000000 0.000480 
#    y 0.000000 1.783540 0.000000 
#    z 0.000480 0.000000 1.786070 
# 
# From -- ./inp_files/50029.got.cif
#   From: 2010.06.25/outbox.cif.g09.slc.cpg/sg10_26_cif.got.tgz:50029.got - 2010.06.27 22:07:45.
