data_PCOD8065423
_publ_section_title
;
Structure prediction by ZEFSAII (Michael W. Deem and Ramdas Pophale) SiO2 
 PCOD8065423
Probable space group: P 2/M
;
_chemical_formula_sum "Si O2"
_cell_formula_units_Z 32
_cell_length_a 27.679573
_cell_length_b 9.247995
_cell_length_c 21.505718
_cell_angle_alpha 90.000000
_cell_angle_beta 161.262826
_cell_angle_gamma 90.000000
_cell_volume 1768.371926
_symmetry_space_group_name_H-M "P 2/M"
_symmetry_group_IT_number 10
_symmetry_cell_setting 'monoclinic'
loop_
_space_group_symop_operation_xyz
x,y,z
-x,y,-z
-x,-y,-z
x,-y,z
loop_
_atom_site_type_symbol
_atom_site_label
_atom_site_fract_x
_atom_site_fract_y
_atom_site_fract_z
Si Si1 0.168154 0.328471 0.586157
Si Si2 0.139572 0.833612 0.790990
Si Si3 0.337171 0.833616 0.685808
Si Si4 0.841147 0.329649 0.780197
Si Si5 0.687968 0.164841 0.125663
Si Si6 0.536919 0.329668 0.475973
Si Si7 0.601166 0.833547 0.800326
Si Si8 0.297224 0.833539 0.496405
O O1 0.169346 0.500000 0.588600
O O2 0.256680 0.273684 0.634292
O O3 0.247072 0.272244 0.744317
O O4 0.998863 0.273695 0.376182
O O5 0.231862 0.803839 0.841311
O O6 0.084923 0.000000 0.726775
O O7 0.242217 0.796712 0.975523
O O8 0.275777 0.796606 0.542517
O O9 0.301547 0.000000 0.659727
O O10 0.513459 0.804133 0.903941
O O11 0.844217 0.500000 0.774755
O O12 0.706148 0.283042 0.662308
O O13 0.818515 0.260561 0.684826
O O14 0.000000 0.272779 0.000000
O O15 0.716038 0.000000 0.181725
O O16 0.500000 0.272735 0.500000
O O17 0.516830 0.500000 0.447368
O O18 0.414073 0.260523 0.280404
O O19 0.468046 0.796154 0.686057
O O20 0.594480 0.000000 0.772313
O O21 0.261236 0.000000 0.439134
#
# Coordination Sequence:
#
# PCOD8065423 Si02
#       8
#     4   4   4   4   4   4   4   4
#     4  12  26  38  50  80 119 148 177 224 277 322
#     4  10  20  38  61  82 107 142 184 227 274 328
#     4  10  20  38  61  82 107 142 184 227 274 328
#     4   9  18  33  52  75 106 144 179 211 254 313
#     4  10  20  38  64  84 101 140 189 226 271 330
#     4   9  18  33  52  75 106 144 179 211 254 313
#     4   9  17  33  58  84 106 132 176 229 269 311
#     4   9  17  33  58  84 106 132 176 229 269 311
#
# _framework density 18.095741
#
# number of rings (size 3 to 8) (size 9 to 14) (size 15 to 20)
#    0.000    2.250    1.250    1.875    0.000    5.500 
#    2.250    0.000    0.000    0.000    0.000    0.000 
#    0.000    0.000    0.000    0.000    0.000    0.000 
#
# Total GULP energy -396860.433837 kJ/mol
# GULP energy per Si atom -12401.888557 kJ/mol
# Density = 1.805455 g / cm^3
# Si number density = 18.095741 Si / 1000 Ang^3
#
#
#
# Elastic Constant Matrix: (Units=GPa)
#
#
# Indices 1 2 3 4 5 6 
#
# 1 122.8260 64.1738 70.3955 0.0000 -11.9367 0.0000
# 2 64.1738 87.6422 64.9364 0.0000 -5.3653 0.0000
# 3 70.3955 64.9364 126.2877 0.0000 -12.3888 0.0000
# 4 0.0000 0.0000 0.0000 13.6321 0.0000 7.6417
# 5 -11.9367 -5.3653 -12.3888 0.0000 29.4932 0.0000
# 6 0.0000 0.0000 0.0000 7.6417 0.0000 14.6711
#
#
#
# Elastic Compliance Matrix: (Units=1/GPa)
#
#
# Indices 1 2 3 4 5 6 
#
# 1 0.014691 -0.007629 -0.003983 0.000000 0.002885 0.000000
# 2 -0.007629 0.022407 -0.007480 0.000000 -0.002154 0.000000
# 3 -0.003983 -0.007480 0.014282 0.000000 0.003026 0.000000
# 4 0.000000 0.000000 0.000000 0.103608 0.000000 -0.053966
# 5 0.002885 -0.002154 0.003026 0.000000 0.035953 0.000000
# 6 0.000000 0.000000 0.000000 -0.053966 0.000000 0.096270
#
#
# Mechanical properties :
#
#
# Convention : Reuss Voigt Hill
#
# Bulk Modulus (GPa) = 75.78822 81.75193 78.77007
# Shear Modulus (GPa) = 15.16100 20.70928 17.93514
#
# Velocity S-wave (km/s) = 2.89766 3.38661 3.15163
# Velocity P-wave (km/s) = 7.29163 7.78252 7.54107
#
# Compressibility (1/GPa) = 0.01319466
#
# Stress axis : x y z
#
# Youngs Moduli (GPa) = 68.06923 44.62972 70.01971
#
# Poissons Ratio (x) = 0.34049 0.27890
# Poissons Ratio (y) = 0.51932 0.52374
# Poissons Ratio (z) = 0.27113 0.33383
#
# Static dielectric constant tensor:
#      x y z
#    x 3.409070 0.000000 -0.083660 
#    y 0.000000 3.235230 0.000000 
#    z -0.083660 0.000000 3.421700 
# 
# 
# High freq. dielectric constant tensor:
#      x y z
#    x 1.703480 0.000000 -0.007450 
#    y 0.000000 1.690210 0.000000 
#    z -0.007450 0.000000 1.704600 
# 
# From -- ./inp_files/86927.got.cif
#   From: 2010.06.25/outbox.cif.g09.slc.cpg/sg10_44_cif.got.tgz:86927.got - 2010.06.27 22:07:45.
