data_PCOD8065257
_publ_section_title
;
Structure prediction by ZEFSAII (Michael W. Deem and Ramdas Pophale) SiO2 
 PCOD8065257
Probable space group: P 2/M
;
_chemical_formula_sum "Si O2"
_cell_formula_units_Z 26
_cell_length_a 8.887803
_cell_length_b 19.936674
_cell_length_c 9.540034
_cell_angle_alpha 90.000000
_cell_angle_beta 132.569131
_cell_angle_gamma 90.000000
_cell_volume 1244.936474
_symmetry_space_group_name_H-M "P 2/M"
_symmetry_group_IT_number 10
_symmetry_cell_setting 'monoclinic'
loop_
_space_group_symop_operation_xyz
x,y,z
-x,y,-z
-x,-y,-z
x,-y,z
loop_
_atom_site_type_symbol
_atom_site_label
_atom_site_fract_x
_atom_site_fract_y
_atom_site_fract_z
Si Si1 0.132307 0.302347 0.286678
Si Si2 0.856695 0.826048 0.536352
Si Si3 0.500000 0.636833 0.000000
Si Si4 0.070476 0.924184 0.889879
Si Si5 0.531329 0.855487 0.860696
Si Si6 0.305940 0.720038 0.108828
Si Si7 0.058500 0.573924 0.696200
O O1 0.222524 0.244264 0.445810
O O2 0.282410 0.312289 0.248434
O O3 0.103713 0.375301 0.336684
O O4 0.908643 0.277590 0.105018
O O5 0.676772 0.871080 0.354003
O O6 0.000000 0.803136 0.500000
O O7 0.969881 0.873027 0.718296
O O8 0.478525 0.681527 0.127474
O O9 0.703857 0.592912 0.138526
O O10 0.007941 0.000000 0.810982
O O11 0.317522 0.919210 0.041543
O O12 0.000000 0.904609 0.000000
O O13 0.635054 0.796948 0.836240
O O14 0.500000 0.830505 0.000000
O O15 0.030357 0.500000 0.746987
O O16 0.000000 0.570858 0.500000
#
# Coordination Sequence:
#
# PCOD8065257 Si02
#       7
#     4   4   2   4   4   4   4
#     4  10  21  38  63  92 127 163 208 263 319 372
#     4  12  24  41  68  99 127 168 220 268 317 379
#     4  10  21  38  62  88 123 158 208 256 313 376
#     4  11  26  47  67  94 136 171 207 263 321 382
#     4  12  23  41  66  97 128 165 215 264 318 375
#     4  10  20  37  61  95 125 161 204 266 316 374
#     4  10  22  40  61  86 122 166 208 255 316 379
#
# _framework density 20.884599000000001
#
# number of rings (size 3 to 8) (size 9 to 14) (size 15 to 20)
#    0.000    1.231    3.846    1.615    4.308    3.692 
#    0.000    8.462    0.000    1.846    0.000    0.000 
#    0.000    0.000    0.000    0.000    0.000    0.000 
#
# Total GULP energy -322337.830735 kJ/mol
# GULP energy per Si atom -12397.608874 kJ/mol
# Density = 2.083706 g / cm^3
# Si number density = 20.884599 Si / 1000 Ang^3
#
#
#
# Elastic Constant Matrix: (Units=GPa)
#
#
# Indices 1 2 3 4 5 6 
#
# 1 117.7281 48.2914 31.0214 0.0000 -25.3679 0.0000
# 2 48.2914 113.9165 36.2274 0.0000 -18.6206 0.0000
# 3 31.0214 36.2274 92.2405 0.0000 -8.1630 0.0000
# 4 0.0000 0.0000 0.0000 7.7469 0.0000 14.9467
# 5 -25.3679 -18.6206 -8.1630 0.0000 30.7938 0.0000
# 6 0.0000 0.0000 0.0000 14.9467 0.0000 8.1497
#
#
#
# Elastic Compliance Matrix: (Units=1/GPa)
#
#
# Indices 1 2 3 4 5 6 
#
# 1 0.011943 -0.003189 -0.002114 0.000000 0.007350 0.000000
# 2 -0.003189 0.011747 -0.003220 0.000000 0.003622 0.000000
# 3 -0.002114 -0.003220 0.012790 0.000000 -0.000298 0.000000
# 4 0.000000 0.000000 0.000000 -0.050850 0.000000 0.093260
# 5 0.007350 0.003622 -0.000298 0.000000 0.040640 0.000000
# 6 0.000000 0.000000 0.000000 0.093260 0.000000 -0.048337
#
#
# Mechanical properties :
#
#
# Convention : Reuss Voigt Hill
#
# Bulk Modulus (GPa) = 51.45709 61.66283 56.55996
# Shear Modulus (GPa) = 3431.73889 23.22774 1727.48332
#
# Velocity S-wave (km/s) = 40.58027 3.33858 28.79153
# Velocity P-wave (km/s) = 47.12080 6.66716 33.65131
#
# Compressibility (1/GPa) = 0.01943367
#
# Stress axis : x y z
#
# Youngs Moduli (GPa) = 83.73067 85.13150 78.18343
#
# Poissons Ratio (x) = 0.27152 0.16524
# Poissons Ratio (y) = 0.26705 0.25177
# Poissons Ratio (z) = 0.17697 0.27415
#
# Static dielectric constant tensor:
#      x y z
#    x 3.914960 0.000000 -0.052810 
#    y 0.000000 3.830450 0.000000 
#    z -0.052810 0.000000 3.829680 
# 
# 
# High freq. dielectric constant tensor:
#      x y z
#    x 1.823140 0.000000 -0.003090 
#    y 0.000000 1.804560 0.000000 
#    z -0.003090 0.000000 1.822300 
# 
# From -- ./inp_files/20423.got.cif
#   From: 2010.06.25/outbox.cif.g09.slc.cpg/sg10_11_cif.got.tgz:20423.got - 2010.06.27 22:07:45.
