data_PCOD8065441
_publ_section_title
;
Structure prediction by ZEFSAII (Michael W. Deem and Ramdas Pophale) SiO2 
 PCOD8065441
Probable space group: P 2/M
;
_chemical_formula_sum "Si O2"
_cell_formula_units_Z 32
_cell_length_a 11.921441
_cell_length_b 8.762136
_cell_length_c 15.340206
_cell_angle_alpha 90.000000
_cell_angle_beta 88.740850
_cell_angle_gamma 90.000000
_cell_volume 1602.009377
_symmetry_space_group_name_H-M "P 2/M"
_symmetry_group_IT_number 10
_symmetry_cell_setting 'monoclinic'
loop_
_space_group_symop_operation_xyz
x,y,z
-x,y,-z
-x,-y,-z
x,-y,z
loop_
_atom_site_type_symbol
_atom_site_label
_atom_site_fract_x
_atom_site_fract_y
_atom_site_fract_z
Si Si1 0.000437 0.822082 0.165874
Si Si2 0.751859 0.680472 0.413626
Si Si3 0.647047 0.320855 0.748889
Si Si4 0.224344 0.323429 0.892113
Si Si5 0.394920 0.319050 0.744562
Si Si6 0.790648 0.674221 0.911588
Si Si7 0.001691 0.320443 0.648412
Si Si8 0.215897 0.820245 0.409743
O O1 0.885206 0.776279 0.122579
O O2 0.102040 0.783634 0.099023
O O3 0.022381 0.726713 0.252551
O O4 0.999794 0.000000 0.188464
O O5 0.745739 0.500000 0.425452
O O6 0.663099 0.738847 0.343392
O O7 0.720752 0.758914 0.505493
O O8 0.874658 0.733631 0.380445
O O9 0.650607 0.500000 0.727869
O O10 0.520854 0.254558 0.747524
O O11 0.694757 0.283802 0.843742
O O12 0.720756 0.235123 0.676862
O O13 0.196782 0.500000 0.870236
O O14 0.324180 0.261231 0.829115
O O15 0.262129 0.303063 0.991565
O O16 0.398175 0.500000 0.746201
O O17 0.831264 0.500000 0.898188
O O18 0.987019 0.500000 0.638927
O O19 0.911265 0.242255 0.586716
O O20 0.213888 0.000000 0.411033
#
# Coordination Sequence:
#
# PCOD8065441 Si02
#       8
#     4   4   4   4   4   4   4   4
#     4  12  23  35  57  88 123 158 193 236 293 354
#     4  10  21  39  63  88 116 153 193 241 294 348
#     4  10  21  39  62  86 115 156 202 246 290 341
#     4  10  20  38  61  88 120 154 197 246 292 345
#     4   9  19  38  63  88 114 150 202 252 290 336
#     4  10  21  36  60  89 119 157 197 241 293 345
#     4  11  21  38  64  89 117 152 193 238 293 353
#     4  12  25  39  58  88 123 156 192 239 292 350
#
# _framework density 19.974914999999999
#
# number of rings (size 3 to 8) (size 9 to 14) (size 15 to 20)
#    0.000    1.500    2.500    3.375    0.000    5.500 
#    0.000    6.250    0.000    0.000    0.000    2.625 
#    0.000    0.000    0.000    0.000    0.000    0.000 
#
# Total GULP energy -396944.301994 kJ/mol
# GULP energy per Si atom -12404.509437 kJ/mol
# Density = 1.992945 g / cm^3
# Si number density = 19.974915 Si / 1000 Ang^3
#
#
#
# Elastic Constant Matrix: (Units=GPa)
#
#
# Indices 1 2 3 4 5 6 
#
# 1 127.1346 33.6176 38.7138 0.0000 17.8063 0.0000
# 2 33.6176 58.4090 33.1054 0.0000 4.7364 0.0000
# 3 38.7138 33.1054 117.7993 0.0000 14.7363 0.0000
# 4 0.0000 0.0000 0.0000 4.3237 0.0000 3.6039
# 5 17.8063 4.7364 14.7363 0.0000 16.7148 0.0000
# 6 0.0000 0.0000 0.0000 3.6039 0.0000 4.9268
#
#
#
# Elastic Compliance Matrix: (Units=1/GPa)
#
#
# Indices 1 2 3 4 5 6 
#
# 1 0.010747 -0.004865 -0.001017 0.000000 -0.009173 0.000000
# 2 -0.004865 0.022577 -0.005163 0.000000 0.003337 0.000000
# 3 -0.001017 -0.005163 0.011190 0.000000 -0.007319 0.000000
# 4 0.000000 0.000000 0.000000 0.592617 0.000000 -0.433495
# 5 -0.009173 0.003337 -0.007319 0.000000 0.075106 0.000000
# 6 0.000000 0.000000 0.000000 -0.433495 0.000000 0.520071
#
#
# Mechanical properties :
#
#
# Convention : Reuss Voigt Hill
#
# Bulk Modulus (GPa) = 44.59856 57.13517 50.86687
# Shear Modulus (GPa) = 3.96237 18.38679 11.17458
#
# Velocity S-wave (km/s) = 1.40996 3.03726 2.36779
# Velocity P-wave (km/s) = 5.00264 6.40043 5.74421
#
# Compressibility (1/GPa) = 0.02242225
#
# Stress axis : x y z
#
# Youngs Moduli (GPa) = 93.05303 44.29359 89.36627
#
# Poissons Ratio (x) = 0.21549 0.09089
# Poissons Ratio (y) = 0.45270 0.46144
# Poissons Ratio (z) = 0.09464 0.22871
#
# Static dielectric constant tensor:
#      x y z
#    x 3.771130 0.000000 0.062950 
#    y 0.000000 3.358900 0.000000 
#    z 0.062950 0.000000 3.804560 
# 
# 
# High freq. dielectric constant tensor:
#      x y z
#    x 1.774920 0.000000 0.003860 
#    y 0.000000 1.753720 0.000000 
#    z 0.003860 0.000000 1.795140 
# 
# From -- ./inp_files/49835.got.cif
#   From: 2010.06.25/outbox.cif.g09.slc.cpg/sg10_25_cif.got.tgz:49835.got - 2010.06.27 22:07:45.
