data_PCOD8065647
_publ_section_title
;
Structure prediction by ZEFSAII (Michael W. Deem and Ramdas Pophale) SiO2 
 PCOD8065647
Probable space group: P 2/M
;
_chemical_formula_sum "Si O2"
_cell_formula_units_Z 32
_cell_length_a 12.708443
_cell_length_b 13.589848
_cell_length_c 9.295588
_cell_angle_alpha 90.000000
_cell_angle_beta 92.638309
_cell_angle_gamma 90.000000
_cell_volume 1603.700342
_symmetry_space_group_name_H-M "P 2/M"
_symmetry_group_IT_number 10
_symmetry_cell_setting 'monoclinic'
loop_
_space_group_symop_operation_xyz
x,y,z
-x,y,-z
-x,-y,-z
x,-y,z
loop_
_atom_site_type_symbol
_atom_site_label
_atom_site_fract_x
_atom_site_fract_y
_atom_site_fract_z
Si Si1 0.862720 0.385180 0.575613
Si Si2 0.048422 0.109423 0.345398
Si Si3 0.759604 0.273555 0.057266
Si Si4 0.936523 0.701569 0.288064
Si Si5 0.569388 0.608051 0.143961
Si Si6 0.482542 0.779581 0.330985
Si Si7 0.756275 0.766010 0.730426
Si Si8 0.405907 0.113141 0.887810
O O1 0.848175 0.500000 0.539383
O O2 0.874718 0.320295 0.432131
O O3 0.760731 0.338532 0.645440
O O4 0.960757 0.368954 0.692596
O O5 0.167054 0.153495 0.339884
O O6 0.000000 0.101641 0.500000
O O7 0.970428 0.185338 0.264097
O O8 0.047746 0.000000 0.274960
O O9 0.863451 0.311761 0.146006
O O10 0.681757 0.361514 0.089105
O O11 0.703499 0.171552 0.101547
O O12 0.791251 0.258733 0.894415
O O13 0.577896 0.500000 0.214934
O O14 0.521636 0.678696 0.261844
O O15 0.500000 0.607142 0.000000
O O16 0.500000 0.773038 0.500000
O O17 0.362179 0.804640 0.284717
O O18 0.551690 0.869191 0.271163
O O19 0.380155 0.000000 0.914784
O O20 0.500000 0.151578 0.000000
#
# Coordination Sequence:
#
# PCOD8065647 Si02
#       8
#     4   4   4   4   4   4   4   4
#     4  10  22  40  61  86 119 156 200 249 298 359
#     4  10  21  39  62  87 119 155 194 246 304 359
#     4  11  22  38  63  90 122 157 200 250 298 355
#     4  10  20  40  62  84 115 158 197 244 301 355
#     4  10  21  40  61  87 126 166 200 241 297 359
#     4  11  23  39  62  89 128 161 197 254 303 352
#     4  11  22  40  59  91 121 159 199 245 302 355
#     4  10  21  41  64  87 123 166 202 243 301 364
#
# _framework density 19.953852000000001
#
# number of rings (size 3 to 8) (size 9 to 14) (size 15 to 20)
#    0.000    1.625    5.000    1.500    3.500    6.000 
#    0.000    2.500    0.000    0.000    0.000    0.000 
#    0.000    0.000    0.000    0.000    0.000    0.000 
#
# Total GULP energy -396442.486360 kJ/mol
# GULP energy per Si atom -12388.827699 kJ/mol
# Density = 1.990844 g / cm^3
# Si number density = 19.953852 Si / 1000 Ang^3
#
#
#
# Elastic Constant Matrix: (Units=GPa)
#
#
# Indices 1 2 3 4 5 6 
#
# 1 35.0990 7.1428 18.9945 0.0000 -3.6818 0.0000
# 2 7.1428 105.2669 19.7652 0.0000 -3.0422 0.0000
# 3 18.9945 19.7652 88.4457 0.0000 -6.1122 0.0000
# 4 0.0000 0.0000 0.0000 17.3107 0.0000 5.1951
# 5 -3.6818 -3.0422 -6.1122 0.0000 36.6430 0.0000
# 6 0.0000 0.0000 0.0000 5.1951 0.0000 10.6058
#
#
#
# Elastic Compliance Matrix: (Units=1/GPa)
#
#
# Indices 1 2 3 4 5 6 
#
# 1 0.032481 -0.000899 -0.006631 0.000000 0.002083 0.000000
# 2 -0.000899 0.009948 -0.002002 0.000000 0.000402 0.000000
# 3 -0.006631 -0.002002 0.013273 0.000000 0.001382 0.000000
# 4 0.000000 0.000000 0.000000 0.067723 0.000000 -0.033173
# 5 0.002083 0.000402 0.001382 0.000000 0.027763 0.000000
# 6 0.000000 0.000000 0.000000 -0.033173 0.000000 0.110538
#
#
# Mechanical properties :
#
#
# Convention : Reuss Voigt Hill
#
# Bulk Modulus (GPa) = 27.29373 35.62408 31.45890
# Shear Modulus (GPa) = 17.06466 25.10583 21.08525
#
# Velocity S-wave (km/s) = 2.92756 3.55095 3.25422
# Velocity P-wave (km/s) = 5.01354 5.89104 5.46992
#
# Compressibility (1/GPa) = 0.03663846
#
# Stress axis : x y z
#
# Youngs Moduli (GPa) = 30.78760 100.52041 75.33903
#
# Poissons Ratio (x) = 0.09034 0.49955
# Poissons Ratio (y) = 0.02767 0.15086
# Poissons Ratio (z) = 0.20414 0.20128
#
# Static dielectric constant tensor:
#      x y z
#    x 3.612500 0.000000 -0.148480 
#    y 0.000000 3.966260 0.000000 
#    z -0.148480 0.000000 3.552710 
# 
# 
# High freq. dielectric constant tensor:
#      x y z
#    x 1.778750 0.000000 -0.014370 
#    y 0.000000 1.777220 0.000000 
#    z -0.014370 0.000000 1.768310 
# 
# From -- ./inp_files/25297.got.cif
#   From: 2010.06.25/outbox.cif.g09.slc.cpg/sg10_13_cif.got.tgz:25297.got - 2010.06.27 22:07:45.
