data_PCOD8065847
_publ_section_title
;
Structure prediction by ZEFSAII (Michael W. Deem and Ramdas Pophale) SiO2 
 PCOD8065847
Probable space group: P 2/M
;
_chemical_formula_sum "Si O2"
_cell_formula_units_Z 28
_cell_length_a 25.691373
_cell_length_b 9.410262
_cell_length_c 9.291551
_cell_angle_alpha 90.000000
_cell_angle_beta 43.670549
_cell_angle_gamma 90.000000
_cell_volume 1551.128077
_symmetry_space_group_name_H-M "P 2/M"
_symmetry_group_IT_number 10
_symmetry_cell_setting 'monoclinic'
loop_
_space_group_symop_operation_xyz
x,y,z
-x,y,-z
-x,-y,-z
x,-y,z
loop_
_atom_site_type_symbol
_atom_site_label
_atom_site_fract_x
_atom_site_fract_y
_atom_site_fract_z
Si Si1 0.000000 0.160808 0.328851
Si Si2 0.291874 0.334245 0.249916
Si Si3 0.143372 0.335525 0.381422
Si Si4 0.291875 0.334245 0.582585
Si Si5 0.413038 0.835375 0.510351
Si Si6 0.413037 0.164625 0.837499
Si Si7 0.143373 0.664475 0.045089
O O1 0.926127 0.242703 0.420375
O O2 0.000000 0.162511 0.500000
O O3 0.073874 0.242703 0.124881
O O4 0.000001 0.000000 0.269005
O O5 0.305178 0.500000 0.197573
O O6 0.217253 0.282578 0.316751
O O7 0.281789 0.296280 0.436422
O O8 0.364340 0.254684 0.045023
O O9 0.125222 0.500000 0.449996
O O10 0.157480 0.309667 0.185040
O O11 0.305179 0.500000 0.581714
O O12 0.364341 0.254684 0.497613
O O13 0.217254 0.282579 0.814239
O O14 0.500000 0.805923 0.300418
O O15 0.395089 0.788933 0.709821
O O16 0.393613 0.000000 0.528099
O O17 0.393613 0.000000 0.897448
O O18 0.125223 0.500000 0.049118
#
# Coordination Sequence:
#
# PCOD8065847 Si02
#       7
#     4   4   4   4   4   4   4
#     4   9  17  29  48  75 100 122 158 209 256 295
#     4  10  21  35  51  75 106 137 170 208 251 300
#     4   9  17  31  51  72  96 129 167 205 248 298
#     4  10  21  35  51  75 106 137 170 208 251 300
#     4   9  19  36  56  77 101 131 169 211 254 301
#     4   9  19  36  56  77 101 131 169 211 254 301
#     4   9  17  31  51  72  96 129 167 205 248 298
#
# _framework density 18.051379000000001
#
# number of rings (size 3 to 8) (size 9 to 14) (size 15 to 20)
#    0.000    2.714    0.000    2.143    0.000    6.286 
#    0.000    7.857    0.000    4.286    0.000    0.000 
#    0.000    0.000    0.000    0.000    0.000    0.000 
#
# Total GULP energy -347259.397567 kJ/mol
# GULP energy per Si atom -12402.121342 kJ/mol
# Density = 1.801029 g / cm^3
# Si number density = 18.051379 Si / 1000 Ang^3
#
#
#
# Elastic Constant Matrix: (Units=GPa)
#
#
# Indices 1 2 3 4 5 6 
#
# 1 89.5473 55.3016 79.4968 0.0000 -14.2185 0.0000
# 2 55.3016 74.6444 55.7415 0.0000 -11.3255 0.0000
# 3 79.4968 55.7415 90.6725 0.0000 -14.8058 0.0000
# 4 0.0000 0.0000 0.0000 20.5034 0.0000 2.7341
# 5 -14.2185 -11.3255 -14.8058 0.0000 20.3872 0.0000
# 6 0.0000 0.0000 0.0000 2.7341 0.0000 20.6094
#
#
#
# Elastic Compliance Matrix: (Units=1/GPa)
#
#
# Indices 1 2 3 4 5 6 
#
# 1 0.053245 -0.008335 -0.041128 0.000000 0.002636 0.000000
# 2 -0.008335 0.026241 -0.008388 0.000000 0.002673 0.000000
# 3 -0.041128 -0.008388 0.053096 0.000000 0.005216 0.000000
# 4 0.000000 0.000000 0.000000 0.049651 0.000000 -0.006587
# 5 0.002636 0.002673 0.005216 0.000000 0.056162 0.000000
# 6 0.000000 0.000000 0.000000 -0.006587 0.000000 0.049395
#
#
# Mechanical properties :
#
#
# Convention : Reuss Voigt Hill
#
# Bulk Modulus (GPa) = 59.24020 70.66046 64.95033
# Shear Modulus (GPa) = 12.22135 16.58828 14.40481
#
# Velocity S-wave (km/s) = 2.60481 3.03470 2.82794
# Velocity P-wave (km/s) = 6.47576 7.17693 6.83534
#
# Compressibility (1/GPa) = 0.01688043
#
# Stress axis : x y z
#
# Youngs Moduli (GPa) = 18.78100 38.10800 18.83372
#
# Poissons Ratio (x) = 0.31762 0.77460
# Poissons Ratio (y) = 0.15653 0.15798
# Poissons Ratio (z) = 0.77243 0.31965
#
# Static dielectric constant tensor:
#      x y z
#    x 3.274710 0.000000 -0.119750 
#    y 0.000000 3.296230 0.000000 
#    z -0.119750 0.000000 3.279370 
# 
# 
# High freq. dielectric constant tensor:
#      x y z
#    x 1.694640 0.000000 -0.014500 
#    y 0.000000 1.694700 0.000000 
#    z -0.014500 0.000000 1.695210 
# 
# From -- ./inp_files/37055.got.cif
#   From: 2010.06.25/outbox.cif.g09.slc.cpg/sg10_19_cif.got.tgz:37055.got - 2010.06.27 22:07:45.
