data_PCOD8065245
_publ_section_title
;
Structure prediction by ZEFSAII (Michael W. Deem and Ramdas Pophale) SiO2 
 PCOD8065245
Probable space group: P 2/M
;
_chemical_formula_sum "Si O2"
_cell_formula_units_Z 28
_cell_length_a 19.089342
_cell_length_b 8.668216
_cell_length_c 14.018942
_cell_angle_alpha 90.000000
_cell_angle_beta 144.223640
_cell_angle_gamma 90.000000
_cell_volume 1356.162738
_symmetry_space_group_name_H-M "P 2/M"
_symmetry_group_IT_number 10
_symmetry_cell_setting 'monoclinic'
loop_
_space_group_symop_operation_xyz
x,y,z
-x,y,-z
-x,-y,-z
x,-y,z
loop_
_atom_site_type_symbol
_atom_site_label
_atom_site_fract_x
_atom_site_fract_y
_atom_site_fract_z
Si Si1 0.116572 0.317934 0.569732
Si Si2 0.300617 0.817199 0.913012
Si Si3 0.433228 0.679588 0.332597
Si Si4 0.981995 0.182463 0.874137
Si Si5 0.206930 0.181037 0.484572
Si Si6 0.794990 0.181303 0.992681
Si Si7 0.464244 0.679452 0.756775
O O1 0.115253 0.500000 0.553042
O O2 0.238821 0.267579 0.756683
O O3 0.114965 0.233906 0.465608
O O4 0.000000 0.262119 0.500000
O O5 0.289496 0.000000 0.888304
O O6 0.233217 0.752856 0.933231
O O7 0.440628 0.771468 0.072883
O O8 0.500000 0.738568 0.500000
O O9 0.401943 0.500000 0.303742
O O10 0.310780 0.773950 0.195729
O O11 0.514449 0.717940 0.330685
O O12 0.853471 0.222681 0.684774
O O13 0.999462 0.000000 0.899861
O O14 0.000000 0.254335 0.000000
O O15 0.083347 0.252183 0.915909
O O16 0.330762 0.269905 0.634972
O O17 0.230575 0.000000 0.518902
O O18 0.803844 0.000000 0.010473
O O19 0.479751 0.500000 0.796180
#
# Coordination Sequence:
#
# PCOD8065245 Si02
#       7
#     4   4   4   4   4   4   4
#     4  11  24  41  63  90 120 156 196 239 293 354
#     4  10  20  37  61  89 118 151 198 246 294 349
#     4   9  19  34  53  78 111 152 192 236 287 340
#     4   9  19  35  55  82 116 152 189 236 292 345
#     4  11  23  39  61  88 119 155 197 246 296 348
#     4   9  18  33  55  82 110 144 188 238 286 337
#     4  10  21  38  58  83 121 159 196 243 296 353
#
# _framework density 20.646491000000001
#
# number of rings (size 3 to 8) (size 9 to 14) (size 15 to 20)
#    0.000    2.143    0.000    2.571    2.000    4.286 
#    0.000    4.286    0.000    2.143    0.000    0.000 
#    0.000    0.000    0.000    0.000    0.000    0.000 
#
# Total GULP energy -347229.705588 kJ/mol
# GULP energy per Si atom -12401.060914 kJ/mol
# Density = 2.059950 g / cm^3
# Si number density = 20.646491 Si / 1000 Ang^3
#
#
#
# Elastic Constant Matrix: (Units=GPa)
#
#
# Indices 1 2 3 4 5 6 
#
# 1 71.2569 9.3172 38.2136 0.0000 5.1713 0.0000
# 2 9.3172 35.4422 10.7746 0.0000 -2.4964 0.0000
# 3 38.2136 10.7746 99.8170 0.0000 -7.9231 0.0000
# 4 0.0000 0.0000 0.0000 27.5185 0.0000 0.6618
# 5 5.1713 -2.4964 -7.9231 0.0000 38.2970 0.0000
# 6 0.0000 0.0000 0.0000 0.6618 0.0000 24.9726
#
#
#
# Elastic Compliance Matrix: (Units=1/GPa)
#
#
# Indices 1 2 3 4 5 6 
#
# 1 0.018539 -0.003008 -0.007104 0.000000 -0.004169 0.000000
# 2 -0.003008 0.029721 -0.001902 0.000000 0.001950 0.000000
# 3 -0.007104 -0.001902 0.013227 0.000000 0.003572 0.000000
# 4 0.000000 0.000000 0.000000 0.036362 0.000000 -0.000964
# 5 -0.004169 0.001950 0.003572 0.000000 0.027541 0.000000
# 6 0.000000 0.000000 0.000000 -0.000964 0.000000 0.040070
#
#
# Mechanical properties :
#
#
# Convention : Reuss Voigt Hill
#
# Bulk Modulus (GPa) = 26.69501 35.90300 31.29900
# Shear Modulus (GPa) = 24.75579 28.03834 26.39707
#
# Velocity S-wave (km/s) = 3.46646 3.68913 3.57953
# Velocity P-wave (km/s) = 5.38325 5.96434 5.68123
#
# Compressibility (1/GPa) = 0.03746018
#
# Stress axis : x y z
#
# Youngs Moduli (GPa) = 53.94000 33.64606 75.60469
#
# Poissons Ratio (x) = 0.10120 0.53707
# Poissons Ratio (y) = 0.16224 0.14380
# Poissons Ratio (z) = 0.38317 0.06399
#
# Static dielectric constant tensor:
#      x y z
#    x 3.937440 0.000000 -0.055420 
#    y 0.000000 3.474300 0.000000 
#    z -0.055420 0.000000 3.796590 
# 
# 
# High freq. dielectric constant tensor:
#      x y z
#    x 1.807300 0.000000 -0.001800 
#    y 0.000000 1.789480 0.000000 
#    z -0.001800 0.000000 1.817740 
# 
# From -- ./inp_files/69887.got.cif
#   From: 2010.06.25/outbox.cif.g09.slc.cpg/sg10_35_cif.got.tgz:69887.got - 2010.06.27 22:07:45.
