data_PCOD8065657
_publ_section_title
;
Structure prediction by ZEFSAII (Michael W. Deem and Ramdas Pophale) SiO2 
 PCOD8065657
Probable space group: P 2/M
;
_chemical_formula_sum "Si O2"
_cell_formula_units_Z 32
_cell_length_a 12.120890
_cell_length_b 9.141199
_cell_length_c 27.631073
_cell_angle_alpha 90.000000
_cell_angle_beta 32.595254
_cell_angle_gamma 90.000000
_cell_volume 1649.237516
_symmetry_space_group_name_H-M "P 2/M"
_symmetry_group_IT_number 10
_symmetry_cell_setting 'monoclinic'
loop_
_space_group_symop_operation_xyz
x,y,z
-x,y,-z
-x,-y,-z
x,-y,z
loop_
_atom_site_type_symbol
_atom_site_label
_atom_site_fract_x
_atom_site_fract_y
_atom_site_fract_z
Si Si1 0.614202 0.831837 0.180292
Si Si2 0.245706 0.669135 0.357539
Si Si3 0.466265 0.827601 0.567676
Si Si4 0.097409 0.333187 0.750051
Si Si5 0.064123 0.668411 0.872861
Si Si6 0.367962 0.671091 0.095420
Si Si7 0.774561 0.331164 0.523916
Si Si8 0.336770 0.831702 0.950200
O O1 0.386733 0.770384 0.272172
O O2 0.773268 0.739897 0.152131
O O3 0.679397 0.814232 0.101030
O O4 0.622084 0.000000 0.193831
O O5 0.305027 0.500000 0.328061
O O6 0.278630 0.712462 0.401389
O O7 0.014106 0.697298 0.426215
O O8 0.500000 0.779236 0.500000
O O9 0.245434 0.769487 0.664950
O O10 0.646476 0.764762 0.534193
O O11 0.468704 0.000000 0.572853
O O12 0.129680 0.500000 0.721271
O O13 0.150775 0.317368 0.786786
O O14 0.865743 0.282667 0.826269
O O15 0.031906 0.500000 0.899217
O O16 0.847450 0.747497 0.956152
O O17 0.389978 0.500000 0.098294
O O18 0.450495 0.761598 0.110664
O O19 0.500000 0.715537 0.000000
O O20 0.719100 0.500000 0.535551
O O21 0.326976 0.000000 0.969473
#
# Coordination Sequence:
#
# PCOD8065657 Si02
#       8
#     4   4   4   4   4   4   4   4
#     4  11  24  38  53  83 124 157 191 236 288 350
#     4   9  19  37  61  88 114 146 190 241 292 346
#     4  11  25  41  57  84 122 158 194 239 290 347
#     4  10  22  40  64  90 115 149 194 246 296 344
#     4  11  22  39  62  86 114 150 197 246 291 343
#     4  10  20  40  64  87 116 148 194 249 292 341
#     4   9  19  38  63  87 113 146 192 243 290 345
#     4  11  24  39  56  83 120 158 193 236 291 348
#
# _framework density 19.402906000000002
#
# number of rings (size 3 to 8) (size 9 to 14) (size 15 to 20)
#    0.000    1.750    1.250    3.375    0.000   11.250 
#    0.000    6.250    0.000    0.000    0.000    0.000 
#    0.000    0.000    0.000    0.000    0.000    0.000 
#
# Total GULP energy -396954.378759 kJ/mol
# GULP energy per Si atom -12404.824336 kJ/mol
# Density = 1.935874 g / cm^3
# Si number density = 19.402906 Si / 1000 Ang^3
#
#
#
# Elastic Constant Matrix: (Units=GPa)
#
#
# Indices 1 2 3 4 5 6 
#
# 1 95.6453 57.6225 60.0324 0.0000 -16.7884 0.0000
# 2 57.6225 100.8394 57.5146 0.0000 -2.1416 0.0000
# 3 60.0324 57.5146 93.4704 0.0000 -5.1467 0.0000
# 4 0.0000 0.0000 0.0000 17.9780 0.0000 11.3934
# 5 -16.7884 -2.1416 -5.1467 0.0000 27.5271 0.0000
# 6 0.0000 0.0000 0.0000 11.3934 0.0000 28.3691
#
#
#
# Elastic Compliance Matrix: (Units=1/GPa)
#
#
# Indices 1 2 3 4 5 6 
#
# 1 0.022961 -0.007439 -0.009529 0.000000 0.011644 0.000000
# 2 -0.007439 0.017698 -0.006352 0.000000 -0.004347 0.000000
# 3 -0.009529 -0.006352 0.020592 0.000000 -0.002456 0.000000
# 4 0.000000 0.000000 0.000000 0.074614 0.000000 -0.029966
# 5 0.011644 -0.004347 -0.002456 0.000000 0.042632 0.000000
# 6 0.000000 0.000000 0.000000 -0.029966 0.000000 0.047284
#
#
# Mechanical properties :
#
#
# Convention : Reuss Voigt Hill
#
# Bulk Modulus (GPa) = 68.43482 71.14381 69.78932
# Shear Modulus (GPa) = 18.03160 22.42723 20.22941
#
# Velocity S-wave (km/s) = 3.05179 3.40350 3.23243
# Velocity P-wave (km/s) = 6.91121 7.22435 7.06952
#
# Compressibility (1/GPa) = 0.01461244
#
# Stress axis : x y z
#
# Youngs Moduli (GPa) = 43.55125 56.50399 48.56296
#
# Poissons Ratio (x) = 0.42031 0.46275
# Poissons Ratio (y) = 0.32396 0.30846
# Poissons Ratio (z) = 0.41500 0.35890
#
# Static dielectric constant tensor:
#      x y z
#    x 3.547260 0.000000 -0.065970 
#    y 0.000000 3.551070 0.000000 
#    z -0.065970 0.000000 3.617710 
# 
# 
# High freq. dielectric constant tensor:
#      x y z
#    x 1.761220 0.000000 -0.008640 
#    y 0.000000 1.757120 0.000000 
#    z -0.008640 0.000000 1.761630 
# 
# From -- ./inp_files/94940.got.cif
#   From: 2010.06.25/outbox.cif.g09.slc.cpg/sg10_48_cif.got.tgz:94940.got - 2010.06.27 22:07:45.
