data_PCOD8065443
_publ_section_title
;
Structure prediction by ZEFSAII (Michael W. Deem and Ramdas Pophale) SiO2 
 PCOD8065443
Probable space group: P 2/M
;
_chemical_formula_sum "Si O2"
_cell_formula_units_Z 26
_cell_length_a 14.828718
_cell_length_b 11.840612
_cell_length_c 8.882385
_cell_angle_alpha 90.000000
_cell_angle_beta 122.078858
_cell_angle_gamma 90.000000
_cell_volume 1321.459191
_symmetry_space_group_name_H-M "P 2/M"
_symmetry_group_IT_number 10
_symmetry_cell_setting 'monoclinic'
loop_
_space_group_symop_operation_xyz
x,y,z
-x,y,-z
-x,-y,-z
x,-y,z
loop_
_atom_site_type_symbol
_atom_site_label
_atom_site_fract_x
_atom_site_fract_y
_atom_site_fract_z
Si Si1 0.399380 0.283289 0.713678
Si Si2 0.172074 0.870868 0.818861
Si Si3 0.721926 0.500000 0.893409
Si Si4 0.791780 0.129802 0.496700
Si Si5 0.607738 0.500000 0.500197
Si Si6 0.969613 0.500000 0.144382
Si Si7 0.980439 0.743959 0.804934
Si Si8 0.635666 0.283988 0.976986
O O1 0.327024 0.179208 0.594572
O O2 0.384532 0.389767 0.594200
O O3 0.520559 0.238393 0.822477
O O4 0.364532 0.321778 0.849393
O O5 0.162904 0.859126 0.631380
O O6 0.069302 0.815563 0.800106
O O7 0.176137 0.000000 0.873317
O O8 0.279047 0.814025 0.976991
O O9 0.709788 0.500000 0.701728
O O10 0.662217 0.391464 0.901756
O O11 0.843019 0.500000 0.052401
O O12 0.866243 0.201484 0.673449
O O13 0.789135 0.000000 0.546796
O O14 0.500000 0.500000 0.500000
O O15 0.016592 0.615225 0.258403
O O16 0.000000 0.500000 0.000000
O O17 0.000000 0.743751 0.000000
#
# Coordination Sequence:
#
# PCOD8065443 Si02
#       8
#     4   4   2   4   2   2   4   4
#     4  10  22  38  60  89 124 154 199 241 294 350
#     4  10  21  39  62  87 116 156 202 247 294 348
#     4  12  21  38  62  83 124 154 201 237 302 352
#     4  10  23  41  62  86 120 159 198 246 295 346
#     4  12  23  35  59  90 115 159 193 236 296 356
#     4  10  24  39  57  88 119 156 188 246 298 350
#     4  11  23  40  62  87 119 156 197 244 300 357
#     4  10  20  38  61  89 118 158 197 246 289 351
#
# _framework density 19.675221000000001
#
# number of rings (size 3 to 8) (size 9 to 14) (size 15 to 20)
#    0.000    1.538    3.077    1.385    4.308    4.308 
#    0.000    5.385    0.000    0.462    0.000    0.000 
#    0.000    0.000    0.000    0.000    0.000    0.000 
#
# Total GULP energy -322451.627748 kJ/mol
# GULP energy per Si atom -12401.985683 kJ/mol
# Density = 1.963044 g / cm^3
# Si number density = 19.675221 Si / 1000 Ang^3
#
#
#
# Elastic Constant Matrix: (Units=GPa)
#
#
# Indices 1 2 3 4 5 6 
#
# 1 86.7247 49.4585 29.0187 0.0000 18.5313 0.0000
# 2 49.4585 164.6149 63.9886 0.0000 15.7149 0.0000
# 3 29.0187 63.9886 99.6303 0.0000 22.8711 0.0000
# 4 0.0000 0.0000 0.0000 35.2084 0.0000 9.4042
# 5 18.5313 15.7149 22.8711 0.0000 30.1271 0.0000
# 6 0.0000 0.0000 0.0000 9.4042 0.0000 30.6955
#
#
#
# Elastic Compliance Matrix: (Units=1/GPa)
#
#
# Indices 1 2 3 4 5 6 
#
# 1 0.015347 -0.003770 -0.000403 0.000000 -0.007167 0.000000
# 2 -0.003770 0.009025 -0.005026 0.000000 0.001427 0.000000
# 3 -0.000403 -0.005026 0.015409 0.000000 -0.008828 0.000000
# 4 0.000000 0.000000 0.000000 0.030934 0.000000 -0.009477
# 5 -0.007167 0.001427 -0.008828 0.000000 0.043559 0.000000
# 6 0.000000 0.000000 0.000000 -0.009477 0.000000 0.035482
#
#
# Mechanical properties :
#
#
# Convention : Reuss Voigt Hill
#
# Bulk Modulus (GPa) = 46.76666 70.65573 58.71120
# Shear Modulus (GPa) = 28.52554 33.10648 30.81601
#
# Velocity S-wave (km/s) = 3.81178 4.10646 3.96186
# Velocity P-wave (km/s) = 6.57220 7.64676 7.12976
#
# Compressibility (1/GPa) = 0.02138275
#
# Stress axis : x y z
#
# Youngs Moduli (GPa) = 65.15815 110.80465 64.89692
#
# Poissons Ratio (x) = 0.41774 0.02618
# Poissons Ratio (y) = 0.24565 0.32616
# Poissons Ratio (z) = 0.02629 0.55688
#
# Static dielectric constant tensor:
#      x y z
#    x 3.636730 0.000000 0.030000 
#    y 0.000000 3.861320 0.000000 
#    z 0.030000 0.000000 3.579230 
# 
# 
# High freq. dielectric constant tensor:
#      x y z
#    x 1.775140 0.000000 0.009290 
#    y 0.000000 1.772430 0.000000 
#    z 0.009290 0.000000 1.761490 
# 
# From -- ./inp_files/28459.got.cif
#   From: 2010.06.25/outbox.cif.g09.slc.cpg/sg10_15_cif.got.tgz:28459.got - 2010.06.27 22:07:45.
