data_PCOD8065365
_publ_section_title
;
Structure prediction by ZEFSAII (Michael W. Deem and Ramdas Pophale) SiO2 
 PCOD8065365
Probable space group: P 2/M
;
_chemical_formula_sum "Si O2"
_cell_formula_units_Z 32
_cell_length_a 17.984779
_cell_length_b 14.519879
_cell_length_c 12.124618
_cell_angle_alpha 90.000000
_cell_angle_beta 29.281527
_cell_angle_gamma 90.000000
_cell_volume 1548.584641
_symmetry_space_group_name_H-M "P 2/M"
_symmetry_group_IT_number 10
_symmetry_cell_setting 'monoclinic'
loop_
_space_group_symop_operation_xyz
x,y,z
-x,y,-z
-x,-y,-z
x,-y,z
loop_
_atom_site_type_symbol
_atom_site_label
_atom_site_fract_x
_atom_site_fract_y
_atom_site_fract_z
Si Si1 0.331948 0.105307 0.955133
Si Si2 0.582535 0.598839 0.593448
Si Si3 0.117123 0.212797 0.650455
Si Si4 0.164346 0.229926 0.342224
Si Si5 0.629956 0.795198 0.492998
Si Si6 0.830842 0.104430 0.058606
Si Si7 0.379280 0.604320 0.066667
Si Si8 0.925348 0.400528 0.213992
O O1 0.490851 0.139769 0.701947
O O2 0.207147 0.113322 0.020956
O O3 0.350497 0.000000 0.969991
O O4 0.279305 0.165227 0.126646
O O5 0.556199 0.500000 0.563871
O O6 0.576647 0.691252 0.526638
O O7 0.744807 0.592125 0.441762
O O8 0.451990 0.610229 0.852616
O O9 0.156125 0.186673 0.474970
O O10 0.266174 0.211316 0.532835
O O11 0.036767 0.314704 0.755105
O O12 0.002199 0.139450 0.852422
O O13 0.229438 0.333142 0.263894
O O14 0.000000 0.232315 0.500000
O O15 0.714305 0.834959 0.278644
O O16 0.820109 0.000000 0.114793
O O17 0.329896 0.500000 0.160193
O O18 0.500000 0.641412 0.000000
O O19 0.989059 0.500000 0.174950
O O20 0.000000 0.377420 0.000000
#
# Coordination Sequence:
#
# PCOD8065365 Si02
#       8
#     4   4   4   4   4   4   4   4
#     4  11  25  45  66  89 120 169 217 262 324 392
#     4   9  17  31  55  88 125 161 196 242 306 371
#     4  11  23  38  63  96 129 163 207 264 323 375
#     4  12  25  43  64  90 131 176 215 259 317 390
#     4  11  21  39  68  97 125 155 213 275 315 374
#     4  11  24  43  65  90 125 168 210 260 332 394
#     4  10  20  37  65  96 127 168 214 259 310 368
#     4   9  17  32  56  91 131 166 203 250 307 372
#
# _framework density 20.664031999999999
#
# number of rings (size 3 to 8) (size 9 to 14) (size 15 to 20)
#    0.000    1.500    2.500    4.125    0.000    5.000 
#    0.000    0.625    0.000    3.000    0.000    0.000 
#    0.000    0.000    0.000    0.000    0.000    0.000 
#
# Total GULP energy -396720.187936 kJ/mol
# GULP energy per Si atom -12397.505873 kJ/mol
# Density = 2.061700 g / cm^3
# Si number density = 20.664032 Si / 1000 Ang^3
#
#
#
# Elastic Constant Matrix: (Units=GPa)
#
#
# Indices 1 2 3 4 5 6 
#
# 1 40.8253 15.6327 3.0315 0.0000 3.6900 0.0000
# 2 15.6327 114.4910 14.5818 0.0000 4.8730 0.0000
# 3 3.0315 14.5818 84.4575 0.0000 4.1330 0.0000
# 4 0.0000 0.0000 0.0000 30.7804 0.0000 -0.8099
# 5 3.6900 4.8730 4.1330 0.0000 30.3318 0.0000
# 6 0.0000 0.0000 0.0000 -0.8099 0.0000 25.9147
#
#
#
# Elastic Compliance Matrix: (Units=1/GPa)
#
#
# Indices 1 2 3 4 5 6 
#
# 1 0.026054 -0.003419 -0.000218 0.000000 -0.002591 0.000000
# 2 -0.003419 0.009426 -0.001461 0.000000 -0.000899 0.000000
# 3 -0.000218 -0.001461 0.012169 0.000000 -0.001397 0.000000
# 4 0.000000 0.000000 0.000000 0.032515 0.000000 0.001016
# 5 -0.002591 -0.000899 -0.001397 0.000000 0.033619 0.000000
# 6 0.000000 0.000000 0.000000 0.001016 0.000000 0.038620
#
#
# Mechanical properties :
#
#
# Convention : Reuss Voigt Hill
#
# Bulk Modulus (GPa) = 26.70062 34.02953 30.36507
# Shear Modulus (GPa) = 28.55801 31.17391 29.86596
#
# Velocity S-wave (km/s) = 3.72158 3.88829 3.80585
# Velocity P-wave (km/s) = 5.60502 6.05493 5.83431
#
# Compressibility (1/GPa) = 0.03745232
#
# Stress axis : x y z
#
# Youngs Moduli (GPa) = 38.38134 106.09516 82.17849
#
# Poissons Ratio (x) = 0.36279 0.01792
# Poissons Ratio (y) = 0.13124 0.12003
# Poissons Ratio (z) = 0.00837 0.15496
#
# Static dielectric constant tensor:
#      x y z
#    x 3.398930 0.000000 0.009270 
#    y 0.000000 4.320260 0.000000 
#    z 0.009270 0.000000 3.855620 
# 
# 
# High freq. dielectric constant tensor:
#      x y z
#    x 1.770030 0.000000 0.005680 
#    y 0.000000 1.828110 0.000000 
#    z 0.005680 0.000000 1.821660 
# 
# From -- ./inp_files/54007.got.cif
#   From: 2010.06.25/outbox.cif.g09.slc.cpg/sg10_28_cif.got.tgz:54007.got - 2010.06.27 22:07:45.
