data_PCOD8065301
_publ_section_title
;
Structure prediction by ZEFSAII (Michael W. Deem and Ramdas Pophale) SiO2 
 PCOD8065301
Probable space group: P 2/M
;
_chemical_formula_sum "Si O2"
_cell_formula_units_Z 28
_cell_length_a 9.422235
_cell_length_b 8.561056
_cell_length_c 24.972519
_cell_angle_alpha 90.000000
_cell_angle_beta 138.678276
_cell_angle_gamma 90.000000
_cell_volume 1330.074654
_symmetry_space_group_name_H-M "P 2/M"
_symmetry_group_IT_number 10
_symmetry_cell_setting 'monoclinic'
loop_
_space_group_symop_operation_xyz
x,y,z
-x,y,-z
-x,-y,-z
x,-y,z
loop_
_atom_site_type_symbol
_atom_site_label
_atom_site_fract_x
_atom_site_fract_y
_atom_site_fract_z
Si Si1 0.351273 0.684728 0.342373
Si Si2 0.867031 0.818617 0.823352
Si Si3 0.785618 0.682373 0.908932
Si Si4 0.969917 0.315293 0.653842
Si Si5 0.714152 0.681388 0.090020
Si Si6 0.640868 0.819221 0.178013
Si Si7 0.836598 0.685362 0.498832
O O1 0.336483 0.500000 0.328842
O O2 0.269165 0.770939 0.266604
O O3 0.211833 0.733941 0.354678
O O4 0.594886 0.742644 0.419332
O O5 0.740405 0.778018 0.841655
O O6 0.084775 0.717337 0.890929
O O7 0.922095 0.000000 0.836127
O O8 0.802148 0.500000 0.900995
O O9 0.577721 0.718539 0.885921
O O10 0.000000 0.741099 0.000000
O O11 0.004509 0.500000 0.664552
O O12 0.901460 0.254127 0.576000
O O13 0.197258 0.233650 0.729674
O O14 0.704406 0.500000 0.102661
O O15 0.757221 0.783881 0.154900
O O16 0.500000 0.737414 0.000000
O O17 0.585446 0.000000 0.168812
O O18 0.844108 0.500000 0.500178
O O19 0.000000 0.752644 0.500000
#
# Coordination Sequence:
#
# PCOD8065301 Si02
#       7
#     4   4   4   4   4   4   4
#     4  10  20  37  62  90 125 167 211 256 308 371
#     4  12  25  40  62  94 131 167 207 258 319 378
#     4  11  25  45  67  90 121 166 217 265 316 377
#     4  10  20  37  62  90 125 167 211 256 308 371
#     4  11  23  41  65  92 123 164 215 263 308 367
#     4  12  25  40  62  94 131 167 207 258 319 378
#     4   9  19  35  60  95 124 158 211 264 308 361
#
# _framework density 21.051449999999999
#
# number of rings (size 3 to 8) (size 9 to 14) (size 15 to 20)
#    0.000    1.286    1.429    4.714    2.000    7.429 
#    0.000    0.714    0.000    2.571    0.000    0.000 
#    0.000    0.000    0.000    0.000    0.000    0.000 
#
# Total GULP energy -347342.197254 kJ/mol
# GULP energy per Si atom -12405.078473 kJ/mol
# Density = 2.100354 g / cm^3
# Si number density = 21.051450 Si / 1000 Ang^3
#
#
#
# Elastic Constant Matrix: (Units=GPa)
#
#
# Indices 1 2 3 4 5 6 
#
# 1 98.6432 24.5831 39.7604 0.0000 -3.6303 0.0000
# 2 24.5831 63.2565 49.3024 0.0000 -5.0744 0.0000
# 3 39.7604 49.3024 128.9906 0.0000 4.5146 0.0000
# 4 0.0000 0.0000 0.0000 6.1273 0.0000 7.6397
# 5 -3.6303 -5.0744 4.5146 0.0000 45.5717 0.0000
# 6 0.0000 0.0000 0.0000 7.6397 0.0000 20.0755
#
#
#
# Elastic Compliance Matrix: (Units=1/GPa)
#
#
# Indices 1 2 3 4 5 6 
#
# 1 0.011889 -0.002365 -0.002794 0.000000 0.000960 0.000000
# 2 -0.002365 0.023515 -0.008373 0.000000 0.003259 0.000000
# 3 -0.002794 -0.008373 0.011896 0.000000 -0.002333 0.000000
# 4 0.000000 0.000000 0.000000 0.310559 0.000000 -0.118184
# 5 0.000960 0.003259 -0.002333 0.000000 0.022614 0.000000
# 6 0.000000 0.000000 0.000000 -0.118184 0.000000 0.094787
#
#
# Mechanical properties :
#
#
# Convention : Reuss Voigt Hill
#
# Bulk Modulus (GPa) = 49.41998 57.57579 53.49789
# Shear Modulus (GPa) = 9.82183 26.17118 17.99651
#
# Velocity S-wave (km/s) = 2.16235 3.52973 2.92701
# Velocity P-wave (km/s) = 5.45538 6.63486 6.07382
#
# Compressibility (1/GPa) = 0.02023473
#
# Stress axis : x y z
#
# Youngs Moduli (GPa) = 84.11408 42.52555 84.06407
#
# Poissons Ratio (x) = 0.10059 0.23488
# Poissons Ratio (y) = 0.19897 0.70386
# Poissons Ratio (z) = 0.23502 0.35606
#
# Static dielectric constant tensor:
#      x y z
#    x 3.897680 0.000000 0.016070 
#    y 0.000000 3.432940 0.000000 
#    z 0.016070 0.000000 3.885640 
# 
# 
# High freq. dielectric constant tensor:
#      x y z
#    x 1.836480 0.000000 0.000790 
#    y 0.000000 1.800430 0.000000 
#    z 0.000790 0.000000 1.836630 
# 
# From -- ./inp_files/92097.got.cif
#   From: 2010.06.25/outbox.cif.g09.slc.cpg/sg10_47_cif.got.tgz:92097.got - 2010.06.27 22:07:45.
