data_PCOD8065312
_publ_section_title
;
Structure prediction by ZEFSAII (Michael W. Deem and Ramdas Pophale) SiO2 
 PCOD8065312
Probable space group: P 2/M
;
_chemical_formula_sum "Si O2"
_cell_formula_units_Z 28
_cell_length_a 11.493207
_cell_length_b 16.383050
_cell_length_c 9.081013
_cell_angle_alpha 90.000000
_cell_angle_beta 126.994128
_cell_angle_gamma 90.000000
_cell_volume 1365.690963
_symmetry_space_group_name_H-M "P 2/M"
_symmetry_group_IT_number 10
_symmetry_cell_setting 'monoclinic'
loop_
_space_group_symop_operation_xyz
x,y,z
-x,y,-z
-x,-y,-z
x,-y,z
loop_
_atom_site_type_symbol
_atom_site_label
_atom_site_fract_x
_atom_site_fract_y
_atom_site_fract_z
Si Si1 0.962159 0.591474 0.306041
Si Si2 0.328352 0.000000 0.359543
Si Si3 0.660583 0.588464 0.185280
Si Si4 0.080492 0.147052 0.706003
Si Si5 0.078844 0.268117 0.213134
Si Si6 0.650525 0.827469 0.530495
Si Si7 0.358757 0.766362 0.791083
Si Si8 0.883111 0.000000 0.044658
O O1 0.020180 0.500000 0.330743
O O2 0.785524 0.596162 0.153142
O O3 0.000000 0.623375 0.500000
O O4 0.045798 0.640206 0.241120
O O5 0.500000 0.000000 0.500000
O O6 0.270305 0.083627 0.391322
O O7 0.276368 0.000000 0.150567
O O8 0.688748 0.500000 0.290008
O O9 0.674680 0.672473 0.288958
O O10 0.500000 0.584459 0.000000
O O11 0.228979 0.194380 0.785112
O O12 0.000000 0.111378 0.500000
O O13 0.972126 0.212110 0.692088
O O14 0.106769 0.077935 0.845071
O O15 0.249464 0.245500 0.327383
O O16 0.000000 0.249237 0.000000
O O17 0.500000 0.824232 0.500000
O O18 0.613874 0.819333 0.331633
O O19 0.500000 0.767748 0.000000
O O20 0.000000 0.000000 0.000000
#
# Coordination Sequence:
#
# PCOD8065312 Si02
#       8
#     4   2   4   4   4   4   4   2
#     4  10  20  37  62  92 128 168 217 272 328 389
#     4  10  24  44  66  86 127 168 213 258 329 394
#     4   9  18  35  61  94 129 165 209 264 323 380
#     4  12  24  44  66  96 129 168 224 272 327 386
#     4  12  24  39  65  91 130 172 215 269 327 394
#     4  11  25  44  65  91 129 171 218 267 336 394
#     4  11  24  39  68  97 130 166 220 274 321 392
#     4  12  27  44  68  98 133 173 218 271 340 394
#
# _framework density 20.502444000000001
#
# number of rings (size 3 to 8) (size 9 to 14) (size 15 to 20)
#    0.000    1.143    2.857    3.643    6.000    0.857 
#    0.000    0.714    0.000    1.714    0.000    0.000 
#    0.000    0.000    0.000    0.000    0.000    0.000 
#
# Total GULP energy -346952.887611 kJ/mol
# GULP energy per Si atom -12391.174558 kJ/mol
# Density = 2.045578 g / cm^3
# Si number density = 20.502444 Si / 1000 Ang^3
#
#
#
# Elastic Constant Matrix: (Units=GPa)
#
#
# Indices 1 2 3 4 5 6 
#
# 1 93.3505 52.3611 40.2516 0.0000 9.9558 0.0000
# 2 52.3611 139.2437 54.5764 0.0000 -4.9486 0.0000
# 3 40.2516 54.5764 131.0371 0.0000 -0.8775 0.0000
# 4 0.0000 0.0000 0.0000 24.9272 0.0000 -4.4414
# 5 9.9558 -4.9486 -0.8775 0.0000 37.1929 0.0000
# 6 0.0000 0.0000 0.0000 -4.4414 0.0000 16.6496
#
#
#
# Elastic Compliance Matrix: (Units=1/GPa)
#
#
# Indices 1 2 3 4 5 6 
#
# 1 0.015047 -0.004783 -0.002662 0.000000 -0.004727 0.000000
# 2 -0.004783 0.010145 -0.002739 0.000000 0.002566 0.000000
# 3 -0.002662 -0.002739 0.009594 0.000000 0.000574 0.000000
# 4 0.000000 0.000000 0.000000 0.042119 0.000000 0.011236
# 5 -0.004727 0.002566 0.000574 0.000000 0.028507 0.000000
# 6 0.000000 0.000000 0.000000 0.011236 0.000000 0.063059
#
#
# Mechanical properties :
#
#
# Convention : Reuss Voigt Hill
#
# Bulk Modulus (GPa) = 69.35586 73.11216 71.23401
# Shear Modulus (GPa) = 25.82068 30.18341 28.00204
#
# Velocity S-wave (km/s) = 3.55265 3.84107 3.69967
# Velocity P-wave (km/s) = 7.12249 7.44375 7.28489
#
# Compressibility (1/GPa) = 0.01441839
#
# Stress axis : x y z
#
# Youngs Moduli (GPa) = 66.45867 98.57128 104.23604
#
# Poissons Ratio (x) = 0.47147 0.27744
# Poissons Ratio (y) = 0.31787 0.28549
# Poissons Ratio (z) = 0.17689 0.26998
#
# Static dielectric constant tensor:
#      x y z
#    x 4.164600 0.000000 0.217800 
#    y 0.000000 4.584020 0.000000 
#    z 0.217800 0.000000 3.757560 
# 
# 
# High freq. dielectric constant tensor:
#      x y z
#    x 1.797140 0.000000 0.027140 
#    y 0.000000 1.820630 0.000000 
#    z 0.027140 0.000000 1.794100 
# 
# From -- ./inp_files/25446.got.cif
#   From: 2010.06.25/outbox.cif.g09.slc.cpg/sg10_13_cif.got.tgz:25446.got - 2010.06.27 22:07:45.
