data_PCOD8065212
_publ_section_title
;
Structure prediction by ZEFSAII (Michael W. Deem and Ramdas Pophale) SiO2 
 PCOD8065212
Probable space group: P 2/M
;
_chemical_formula_sum "Si O2"
_cell_formula_units_Z 24
_cell_length_a 14.646271
_cell_length_b 9.262313
_cell_length_c 14.560882
_cell_angle_alpha 90.000000
_cell_angle_beta 141.427703
_cell_angle_gamma 90.000000
_cell_volume 1231.606038
_symmetry_space_group_name_H-M "P 2/M"
_symmetry_group_IT_number 10
_symmetry_cell_setting 'monoclinic'
loop_
_space_group_symop_operation_xyz
x,y,z
-x,y,-z
-x,-y,-z
x,-y,z
loop_
_atom_site_type_symbol
_atom_site_label
_atom_site_fract_x
_atom_site_fract_y
_atom_site_fract_z
Si Si1 0.110222 0.165583 0.508578
Si Si2 0.902929 0.837306 0.178444
Si Si3 0.578675 0.167547 0.968917
Si Si4 0.048328 0.670818 0.138451
Si Si5 0.635575 0.328471 0.547352
Si Si6 0.389711 0.671312 0.682371
O O1 0.248313 0.269801 0.624189
O O2 0.000000 0.217105 0.500000
O O3 0.036269 0.185852 0.352247
O O4 0.159311 0.000000 0.564157
O O5 0.926587 0.731266 0.111978
O O6 0.901118 0.000000 0.138720
O O7 0.752248 0.805363 0.113925
O O8 0.529254 0.260038 0.842086
O O9 0.540432 0.000000 0.922090
O O10 0.500000 0.222641 0.000000
O O11 0.044941 0.500000 0.144017
O O12 0.210936 0.730476 0.290604
O O13 0.000000 0.723239 0.000000
O O14 0.500000 0.266199 0.500000
O O15 0.636344 0.500000 0.552439
O O16 0.614075 0.275888 0.426053
O O17 0.396337 0.500000 0.695081
#
# Coordination Sequence:
#
# PCOD8065212 Si02
#       6
#     4   4   4   4   4   4
#     4  10  20  37  61  84 111 154 196 229 281 352
#     4  10  21  37  59  85 115 150 191 243 287 330
#     4  10  22  41  61  82 115 159 200 234 279 345
#     4  10  21  37  60  85 112 151 192 233 287 350
#     4   9  19  36  56  82 115 150 188 229 283 348
#     4  11  22  36  59  89 119 149 186 243 294 333
#
# _framework density 19.486751000000002
#
# number of rings (size 3 to 8) (size 9 to 14) (size 15 to 20)
#    0.000    2.000    1.667    1.500    2.333    4.333 
#    0.000    1.667    0.000    2.500    0.000    0.000 
#    0.000    0.000    0.000    0.000    0.000    0.000 
#
# Total GULP energy -297661.545119 kJ/mol
# GULP energy per Si atom -12402.564380 kJ/mol
# Density = 1.944240 g / cm^3
# Si number density = 19.486751 Si / 1000 Ang^3
#
#
#
# Elastic Constant Matrix: (Units=GPa)
#
#
# Indices 1 2 3 4 5 6 
#
# 1 109.2188 21.1681 18.4481 0.0000 -1.9402 0.0000
# 2 21.1681 36.1182 20.3437 0.0000 -2.0631 0.0000
# 3 18.4481 20.3437 81.1610 0.0000 -0.7133 0.0000
# 4 0.0000 0.0000 0.0000 29.4867 0.0000 1.8300
# 5 -1.9402 -2.0631 -0.7133 0.0000 34.5936 0.0000
# 6 0.0000 0.0000 0.0000 1.8300 0.0000 28.6918
#
#
#
# Elastic Compliance Matrix: (Units=1/GPa)
#
#
# Indices 1 2 3 4 5 6 
#
# 1 0.010397 -0.005531 -0.000975 0.000000 0.000233 0.000000
# 2 -0.005531 0.035288 -0.007574 0.000000 0.001638 0.000000
# 3 -0.000975 -0.007574 0.014439 0.000000 -0.000209 0.000000
# 4 0.000000 0.000000 0.000000 0.034048 0.000000 -0.002172
# 5 0.000233 0.001638 -0.000209 0.000000 0.029014 0.000000
# 6 0.000000 0.000000 0.000000 -0.002172 0.000000 0.034992
#
#
# Mechanical properties :
#
#
# Convention : Reuss Voigt Hill
#
# Bulk Modulus (GPa) = 31.28397 38.49088 34.88742
# Shear Modulus (GPa) = 25.38183 29.65694 27.51938
#
# Velocity S-wave (km/s) = 3.61296 3.90539 3.76202
# Velocity P-wave (km/s) = 5.78735 6.33493 6.06732
#
# Compressibility (1/GPa) = 0.03196525
#
# Stress axis : x y z
#
# Youngs Moduli (GPa) = 96.18444 28.33832 69.25532
#
# Poissons Ratio (x) = 0.15674 0.06751
# Poissons Ratio (y) = 0.53199 0.52451
# Poissons Ratio (z) = 0.09376 0.21462
#
# Static dielectric constant tensor:
#      x y z
#    x 3.599520 0.000000 0.014490 
#    y 0.000000 3.279570 0.000000 
#    z 0.014490 0.000000 3.726100 
# 
# 
# High freq. dielectric constant tensor:
#      x y z
#    x 1.766340 0.000000 0.001390 
#    y 0.000000 1.731070 0.000000 
#    z 0.001390 0.000000 1.769240 
# 
# From -- ./inp_files/66698.got.cif
#   From: 2010.06.25/outbox.cif.g09.slc.cpg/sg10_34_cif.got.tgz:66698.got - 2010.06.27 22:07:45.
