data_PCOD8065825
_publ_section_title
;
Structure prediction by ZEFSAII (Michael W. Deem and Ramdas Pophale) SiO2 
 PCOD8065825
Probable space group: P 2/M
;
_chemical_formula_sum "Si O2"
_cell_formula_units_Z 32
_cell_length_a 22.447029
_cell_length_b 9.169756
_cell_length_c 28.149372
_cell_angle_alpha 90.000000
_cell_angle_beta 161.737368
_cell_angle_gamma 90.000000
_cell_volume 1815.712908
_symmetry_space_group_name_H-M "P 2/M"
_symmetry_group_IT_number 10
_symmetry_cell_setting 'monoclinic'
loop_
_space_group_symop_operation_xyz
x,y,z
-x,y,-z
-x,-y,-z
x,-y,z
loop_
_atom_site_type_symbol
_atom_site_label
_atom_site_fract_x
_atom_site_fract_y
_atom_site_fract_z
Si Si1 0.302118 0.829474 0.479662
Si Si2 0.993668 0.326708 0.420343
Si Si3 0.012339 0.170522 0.834787
Si Si4 0.002125 0.666963 0.079178
Si Si5 0.310352 0.666960 0.233306
Si Si6 0.277843 0.329150 0.967413
Si Si7 0.963849 0.329147 0.653428
Si Si8 0.700367 0.673288 0.273685
O O1 0.174455 0.791295 0.337220
O O2 0.512804 0.774099 0.629382
O O3 0.218109 0.751155 0.462487
O O4 0.307106 0.000000 0.493683
O O5 0.987167 0.500000 0.413883
O O6 0.999668 0.264905 0.371521
O O7 0.181364 0.274210 0.590687
O O8 0.805353 0.269376 0.305349
O O9 0.979181 0.225911 0.862588
O O10 0.195649 0.248848 0.951260
O O11 0.053471 0.000000 0.866880
O O12 0.005379 0.500000 0.099287
O O13 0.179646 0.698355 0.179650
O O14 0.806921 0.699034 0.903453
O O15 0.381029 0.500000 0.287129
O O16 0.282867 0.500000 0.982847
O O17 0.151808 0.294582 0.825901
O O18 0.487083 0.264897 0.115216
O O19 0.917192 0.500000 0.617179
O O20 0.694039 0.500000 0.267313
#
# Coordination Sequence:
#
# PCOD8065825 Si02
#       8
#     4   4   4   4   4   4   4   4
#     4  10  21  35  50  71 101 134 166 201 241 287
#     4   8  14  25  42  66  94 120 149 191 242 290
#     4  10  21  35  50  71 101 134 166 201 241 287
#     4   9  19  36  56  77 100 126 159 200 244 290
#     4   9  19  36  56  77 100 126 159 200 244 290
#     4   9  17  29  46  68  93 122 158 199 240 283
#     4   9  17  29  46  68  93 122 158 199 240 283
#     4   8  14  25  42  66  94 120 149 191 242 290
#
# _framework density 17.623932
#
# number of rings (size 3 to 8) (size 9 to 14) (size 15 to 20)
#    0.000    3.000    0.000    2.250    0.000    4.500 
#    0.000    8.750    0.000    0.750    0.000    5.250 
#    0.000    0.000    0.000    0.000    0.000    0.000 
#
# Total GULP energy -396767.411435 kJ/mol
# GULP energy per Si atom -12398.981607 kJ/mol
# Density = 1.758382 g / cm^3
# Si number density = 17.623932 Si / 1000 Ang^3
#
#
#
# Elastic Constant Matrix: (Units=GPa)
#
#
# Indices 1 2 3 4 5 6 
#
# 1 129.7398 41.8860 56.6199 0.0000 -4.5974 0.0000
# 2 41.8860 46.8269 37.3214 0.0000 3.1639 0.0000
# 3 56.6199 37.3214 108.4236 0.0000 19.3447 0.0000
# 4 0.0000 0.0000 0.0000 17.1295 0.0000 -7.5819
# 5 -4.5974 3.1639 19.3447 0.0000 23.2717 0.0000
# 6 0.0000 0.0000 0.0000 -7.5819 0.0000 6.1563
#
#
#
# Elastic Compliance Matrix: (Units=1/GPa)
#
#
# Indices 1 2 3 4 5 6 
#
# 1 0.012901 -0.007658 -0.005567 0.000000 0.008217 0.000000
# 2 -0.007658 0.034518 -0.007955 0.000000 0.000407 0.000000
# 3 -0.005567 -0.007955 0.017462 0.000000 -0.014533 0.000000
# 4 0.000000 0.000000 0.000000 0.128338 0.000000 0.158056
# 5 0.008217 0.000407 -0.014533 0.000000 0.056620 0.000000
# 6 0.000000 0.000000 0.000000 0.158056 0.000000 0.357093
#
#
# Mechanical properties :
#
#
# Convention : Reuss Voigt Hill
#
# Bulk Modulus (GPa) = 44.40519 61.84945 53.12732
# Shear Modulus (GPa) = 7.61269 19.25569 13.43419
#
# Velocity S-wave (km/s) = 2.08060 3.30902 2.76392
# Velocity P-wave (km/s) = 5.56979 7.05476 6.35579
#
# Compressibility (1/GPa) = 0.02251989
#
# Stress axis : x y z
#
# Youngs Moduli (GPa) = 77.51507 28.97039 57.26810
#
# Poissons Ratio (x) = 0.22185 0.31882
# Poissons Ratio (y) = 0.59359 0.45560
# Poissons Ratio (z) = 0.43153 0.23047
#
# Static dielectric constant tensor:
#      x y z
#    x 3.425360 0.000000 0.050110 
#    y 0.000000 2.965770 0.000000 
#    z 0.050110 0.000000 3.353120 
# 
# 
# High freq. dielectric constant tensor:
#      x y z
#    x 1.687830 0.000000 0.003430 
#    y 0.000000 1.650250 0.000000 
#    z 0.003430 0.000000 1.682880 
# 
# From -- ./inp_files/86830.got.cif
#   From: 2010.06.25/outbox.cif.g09.slc.cpg/sg10_44_cif.got.tgz:86830.got - 2010.06.27 22:07:45.
