data_PCOD8065917
_publ_section_title
;
Structure prediction by ZEFSAII (Michael W. Deem and Ramdas Pophale) SiO2 
 PCOD8065917
Probable space group: P 2/M
;
_chemical_formula_sum "Si O2"
_cell_formula_units_Z 32
_cell_length_a 25.542721
_cell_length_b 9.083556
_cell_length_c 14.516138
_cell_angle_alpha 90.000000
_cell_angle_beta 30.361347
_cell_angle_gamma 90.000000
_cell_volume 1702.369676
_symmetry_space_group_name_H-M "P 2/M"
_symmetry_group_IT_number 10
_symmetry_cell_setting 'monoclinic'
loop_
_space_group_symop_operation_xyz
x,y,z
-x,y,-z
-x,-y,-z
x,-y,z
loop_
_atom_site_type_symbol
_atom_site_label
_atom_site_fract_x
_atom_site_fract_y
_atom_site_fract_z
Si Si1 0.883817 0.169540 0.669497
Si Si2 0.270292 0.167842 0.935408
Si Si3 0.790818 0.326415 0.152220
Si Si4 0.011386 0.673756 0.880104
Si Si5 0.571609 0.828946 0.150720
Si Si6 0.333571 0.173032 0.498624
Si Si7 0.722692 0.328259 0.792487
Si Si8 0.764678 0.327404 0.519134
O O1 0.825931 0.262816 0.680364
O O2 0.000000 0.230257 0.500000
O O3 0.881372 0.000000 0.641860
O O4 0.831481 0.189328 0.848320
O O5 0.263450 0.272540 0.858155
O O6 0.370972 0.215073 0.841535
O O7 0.280517 0.000000 0.885318
O O8 0.776113 0.500000 0.183156
O O9 0.738733 0.252757 0.318920
O O10 0.912281 0.280701 0.968670
O O11 0.016140 0.500000 0.881793
O O12 0.116938 0.730137 0.672252
O O13 0.000000 0.742298 0.000000
O O14 0.451944 0.790462 0.343805
O O15 0.591791 0.000000 0.099449
O O16 0.619114 0.741266 0.992559
O O17 0.310228 0.236194 0.433423
O O18 0.311901 0.000000 0.533618
O O19 0.721465 0.500000 0.814740
O O20 0.724913 0.293134 0.681351
O O21 0.756779 0.500000 0.507352
#
# Coordination Sequence:
#
# PCOD8065917 Si02
#       8
#     4   4   4   4   4   4   4   4
#     4   9  19  36  56  79 114 156 192 230 280 333
#     4   9  19  37  57  79 110 147 188 231 276 332
#     4  11  22  36  58  85 114 149 185 230 282 338
#     4   9  17  34  57  76 108 154 184 212 272 340
#     4   9  21  42  62  78 110 153 188 231 288 341
#     4  11  23  39  60  84 108 145 194 239 280 335
#     4  10  21  35  57  86 115 146 187 238 283 331
#     4  10  21  38  57  83 117 151 185 227 284 341
#
# _framework density 18.797328
#
# number of rings (size 3 to 8) (size 9 to 14) (size 15 to 20)
#    0.000    2.250    1.250    1.875    1.750    5.250 
#    0.000    6.875    0.000    0.000    0.000    0.000 
#    0.000    0.000    0.000    0.000    0.000    0.000 
#
# Total GULP energy -396861.908124 kJ/mol
# GULP energy per Si atom -12401.934629 kJ/mol
# Density = 1.875454 g / cm^3
# Si number density = 18.797328 Si / 1000 Ang^3
#
#
#
# Elastic Constant Matrix: (Units=GPa)
#
#
# Indices 1 2 3 4 5 6 
#
# 1 111.2978 48.4051 33.9846 0.0000 2.7012 0.0000
# 2 48.4051 69.0520 27.5866 0.0000 5.1865 0.0000
# 3 33.9846 27.5866 41.7891 0.0000 -7.0930 0.0000
# 4 0.0000 0.0000 0.0000 0.8609 0.0000 11.5022
# 5 2.7012 5.1865 -7.0930 0.0000 28.9583 0.0000
# 6 0.0000 0.0000 0.0000 11.5022 0.0000 27.3783
#
#
#
# Elastic Compliance Matrix: (Units=1/GPa)
#
#
# Indices 1 2 3 4 5 6 
#
# 1 0.014298 -0.006936 -0.007371 0.000000 -0.001897 0.000000
# 2 -0.006936 0.024492 -0.011646 0.000000 -0.006592 0.000000
# 3 -0.007371 -0.011646 0.039735 0.000000 0.012506 0.000000
# 4 0.000000 0.000000 0.000000 -0.251802 0.000000 0.105787
# 5 -0.001897 -0.006592 0.012506 0.000000 0.038953 0.000000
# 6 0.000000 0.000000 0.000000 0.105787 0.000000 -0.007918
#
#
# Mechanical properties :
#
#
# Convention : Reuss Voigt Hill
#
# Bulk Modulus (GPa) = 37.56818 49.12127 43.34473
# Shear Modulus (GPa) = -61.37836 18.91702 -21.23067
#
# Velocity S-wave (km/s) = -5.72045 3.17577 -3.36438
# Velocity P-wave (km/s) = 4.85821 6.29572 2.83143
#
# Compressibility (1/GPa) = 0.02661827
#
# Stress axis : x y z
#
# Youngs Moduli (GPa) = 69.93898 40.83041 25.16645
#
# Poissons Ratio (x) = 0.28318 0.18551
# Poissons Ratio (y) = 0.48506 0.29310
# Poissons Ratio (z) = 0.51555 0.47553
#
# Static dielectric constant tensor:
#      x y z
#    x 3.524770 0.000000 -0.131640 
#    y 0.000000 3.335720 0.000000 
#    z -0.131640 0.000000 3.539670 
# 
# 
# High freq. dielectric constant tensor:
#      x y z
#    x 1.734810 0.000000 -0.004310 
#    y 0.000000 1.719160 0.000000 
#    z -0.004310 0.000000 1.734360 
# 
# From -- ./inp_files/72205.got.cif
#   From: 2010.06.25/outbox.cif.g09.slc.cpg/sg10_37_cif.got.tgz:72205.got - 2010.06.27 22:07:45.
