data_PCOD8065858
_publ_section_title
;
Structure prediction by ZEFSAII (Michael W. Deem and Ramdas Pophale) SiO2 
 PCOD8065858
Probable space group: P 2/M
;
_chemical_formula_sum "Si O2"
_cell_formula_units_Z 32
_cell_length_a 14.488583
_cell_length_b 9.097788
_cell_length_c 12.279885
_cell_angle_alpha 90.000000
_cell_angle_beta 90.506622
_cell_angle_gamma 90.000000
_cell_volume 1618.598179
_symmetry_space_group_name_H-M "P 2/M"
_symmetry_group_IT_number 10
_symmetry_cell_setting 'monoclinic'
loop_
_space_group_symop_operation_xyz
x,y,z
-x,y,-z
-x,-y,-z
x,-y,z
loop_
_atom_site_type_symbol
_atom_site_label
_atom_site_fract_x
_atom_site_fract_y
_atom_site_fract_z
Si Si1 0.280030 0.165959 0.027534
Si Si2 0.853951 0.833365 0.784768
Si Si3 0.324090 0.168323 0.623091
Si Si4 0.557119 0.333918 0.898464
Si Si5 0.696596 0.831511 0.621010
Si Si6 0.017948 0.672642 0.877746
Si Si7 0.492557 0.332052 0.337173
Si Si8 0.775080 0.326769 0.182149
O O1 0.282213 0.267517 0.921112
O O2 0.301789 0.000000 0.991970
O O3 0.185280 0.175653 0.092867
O O4 0.356573 0.224917 0.112991
O O5 0.781829 0.770565 0.694463
O O6 0.947488 0.739852 0.788600
O O7 0.878778 0.000000 0.753573
O O8 0.274137 0.176578 0.505436
O O9 0.425547 0.239227 0.608127
O O10 0.260727 0.254602 0.707496
O O11 0.335813 0.000000 0.661614
O O12 0.593243 0.500000 0.916483
O O13 0.492171 0.324504 0.792442
O O14 0.500000 0.276565 0.000000
O O15 0.607189 0.731919 0.636670
O O16 0.674237 0.000000 0.655126
O O17 0.002941 0.500000 0.877297
O O18 0.118905 0.717024 0.836524
O O19 0.000000 0.733675 0.000000
O O20 0.497564 0.500000 0.379146
O O21 0.759891 0.500000 0.190447
#
# Coordination Sequence:
#
# PCOD8065858 Si02
#       8
#     4   4   4   4   4   4   4   4
#     4  11  21  34  57  86 116 152 192 236 289 350
#     4  10  21  37  60  89 118 149 191 242 289 342
#     4  11  24  41  62  85 116 159 204 247 295 349
#     4  10  21  35  51  77 116 159 195 235 289 345
#     4  10  22  42  62  85 120 160 201 248 295 342
#     4  10  21  38  61  89 119 154 191 234 295 359
#     4  11  22  36  59  89 120 157 203 248 291 346
#     4  11  23  40  61  86 122 156 191 244 299 356
#
# _framework density 19.770192000000002
#
# number of rings (size 3 to 8) (size 9 to 14) (size 15 to 20)
#    0.000    1.500    2.500    2.625    0.000    6.500 
#    0.000    0.625    0.000    3.750    0.000    0.000 
#    0.000    0.000    0.000    0.000    0.000    0.000 
#
# Total GULP energy -396861.328917 kJ/mol
# GULP energy per Si atom -12401.916529 kJ/mol
# Density = 1.972519 g / cm^3
# Si number density = 19.770192 Si / 1000 Ang^3
#
#
#
# Elastic Constant Matrix: (Units=GPa)
#
#
# Indices 1 2 3 4 5 6 
#
# 1 93.1984 45.2505 29.8504 0.0000 16.5541 0.0000
# 2 45.2505 90.6132 29.8521 0.0000 3.8567 0.0000
# 3 29.8504 29.8521 95.0189 0.0000 12.9678 0.0000
# 4 0.0000 0.0000 0.0000 23.2203 0.0000 2.3213
# 5 16.5541 3.8567 12.9678 0.0000 22.4425 0.0000
# 6 0.0000 0.0000 0.0000 2.3213 0.0000 35.9249
#
#
#
# Elastic Compliance Matrix: (Units=1/GPa)
#
#
# Indices 1 2 3 4 5 6 
#
# 1 0.016576 -0.007347 -0.001523 0.000000 -0.010084 0.000000
# 2 -0.007347 0.015567 -0.003210 0.000000 0.004599 0.000000
# 3 -0.001523 -0.003210 0.012791 0.000000 -0.005716 0.000000
# 4 0.000000 0.000000 0.000000 0.043346 0.000000 -0.002801
# 5 -0.010084 0.004599 -0.005716 0.000000 0.054509 0.000000
# 6 0.000000 0.000000 0.000000 -0.002801 0.000000 0.028017
#
#
# Mechanical properties :
#
#
# Convention : Reuss Voigt Hill
#
# Bulk Modulus (GPa) = 48.13727 54.30406 51.22067
# Shear Modulus (GPa) = 24.76601 27.90939 26.33770
#
# Velocity S-wave (km/s) = 3.54318 3.76132 3.65388
# Velocity P-wave (km/s) = 6.41406 6.81107 6.61554
#
# Compressibility (1/GPa) = 0.02077393
#
# Stress axis : x y z
#
# Youngs Moduli (GPa) = 60.32900 64.24032 78.17807
#
# Poissons Ratio (x) = 0.47195 0.11906
# Poissons Ratio (y) = 0.44322 0.25097
# Poissons Ratio (z) = 0.09188 0.20622
#
# Static dielectric constant tensor:
#      x y z
#    x 3.478610 0.000000 0.094550 
#    y 0.000000 3.595110 0.000000 
#    z 0.094550 0.000000 3.663720 
# 
# 
# High freq. dielectric constant tensor:
#      x y z
#    x 1.760160 0.000000 0.007450 
#    y 0.000000 1.773490 0.000000 
#    z 0.007450 0.000000 1.773200 
# 
# From -- ./inp_files/49864.got.cif
#   From: 2010.06.25/outbox.cif.g09.slc.cpg/sg10_25_cif.got.tgz:49864.got - 2010.06.27 22:07:45.
