data_PCOD8065120
_publ_section_title
;
Structure prediction by ZEFSAII (Michael W. Deem and Ramdas Pophale) SiO2 
 PCOD8065120
Probable space group: P 2/M
;
_chemical_formula_sum "Si O2"
_cell_formula_units_Z 32
_cell_length_a 12.031941
_cell_length_b 8.956483
_cell_length_c 15.289893
_cell_angle_alpha 90.000000
_cell_angle_beta 90.038131
_cell_angle_gamma 90.000000
_cell_volume 1647.697753
_symmetry_space_group_name_H-M "P 2/M"
_symmetry_group_IT_number 10
_symmetry_cell_setting 'monoclinic'
loop_
_space_group_symop_operation_xyz
x,y,z
-x,y,-z
-x,-y,-z
x,-y,z
loop_
_atom_site_type_symbol
_atom_site_label
_atom_site_fract_x
_atom_site_fract_y
_atom_site_fract_z
Si Si1 0.537135 0.668043 0.598776
Si Si2 0.987271 0.822640 0.597718
Si Si3 0.398029 0.176697 0.747049
Si Si4 0.756000 0.668770 0.827570
Si Si5 0.993398 0.675762 0.900533
Si Si6 0.858640 0.176778 0.245367
Si Si7 0.253335 0.174597 0.346203
Si Si8 0.524618 0.329655 0.904421
O O1 0.500000 0.668867 0.500000
O O2 0.545895 0.500000 0.636168
O O3 0.452015 0.757230 0.659638
O O4 0.657706 0.742987 0.593881
O O5 0.868828 0.765601 0.631589
O O6 0.000000 0.755851 0.500000
O O7 0.081027 0.764398 0.665629
O O8 0.992409 0.000000 0.593832
O O9 0.269427 0.226918 0.750794
O O10 0.461516 0.232489 0.832638
O O11 0.408976 0.000000 0.741822
O O12 0.766648 0.500000 0.790318
O O13 0.720639 0.784601 0.753268
O O14 0.657830 0.678016 0.897644
O O15 0.870940 0.721590 0.869350
O O16 0.014790 0.500000 0.895600
O O17 0.085453 0.753973 0.840612
O O18 0.000000 0.733525 0.000000
O O19 0.871284 0.000000 0.238080
O O20 0.264886 0.000000 0.362248
O O21 0.482172 0.500000 0.895476
O O22 0.500000 0.263657 0.000000
#
# Coordination Sequence:
#
# PCOD8065120 Si02
#       8
#     4   4   4   4   4   4   4   4
#     4  11  25  43  62  86 121 160 197 243 299 357
#     4   9  19  36  59  86 117 154 191 232 288 347
#     4  11  24  40  61  89 121 156 199 251 298 350
#     4  10  20  37  59  85 119 154 195 247 296 345
#     4  10  22  38  60  88 118 156 201 245 289 348
#     4  10  22  40  59  85 121 155 193 242 294 348
#     4  11  21  36  64  91 115 152 198 245 293 349
#     4  10  22  39  62  87 117 161 201 240 296 357
#
# _framework density 19.421036999999998
#
# number of rings (size 3 to 8) (size 9 to 14) (size 15 to 20)
#    0.000    1.750    2.500    1.125    3.500    2.500 
#    0.000    0.000    0.000    1.875    0.000    0.000 
#    0.000    0.000    0.000    0.000    0.000    0.000 
#
# Total GULP energy -396835.712231 kJ/mol
# GULP energy per Si atom -12401.116007 kJ/mol
# Density = 1.937683 g / cm^3
# Si number density = 19.421037 Si / 1000 Ang^3
#
#
#
# Elastic Constant Matrix: (Units=GPa)
#
#
# Indices 1 2 3 4 5 6 
#
# 1 137.6921 42.8329 39.1319 0.0000 -0.2183 0.0000
# 2 42.8329 61.6170 30.1607 0.0000 0.5219 0.0000
# 3 39.1319 30.1607 109.7026 0.0000 -7.4849 0.0000
# 4 0.0000 0.0000 0.0000 8.0977 0.0000 -5.3923
# 5 -0.2183 0.5219 -7.4849 0.0000 32.9413 0.0000
# 6 0.0000 0.0000 0.0000 -5.3923 0.0000 23.3357
#
#
#
# Elastic Compliance Matrix: (Units=1/GPa)
#
#
# Indices 1 2 3 4 5 6 
#
# 1 0.009577 -0.005748 -0.001854 0.000000 -0.000267 0.000000
# 2 -0.005748 0.022275 -0.004165 0.000000 -0.001337 0.000000
# 3 -0.001854 -0.004165 0.011098 0.000000 0.002575 0.000000
# 4 0.000000 0.000000 0.000000 0.145950 0.000000 0.033725
# 5 -0.000267 -0.001337 0.002575 0.000000 0.030962 0.000000
# 6 0.000000 0.000000 0.000000 0.033725 0.000000 0.050646
#
#
# Mechanical properties :
#
#
# Convention : Reuss Voigt Hill
#
# Bulk Modulus (GPa) = 51.50429 59.25140 55.37785
# Shear Modulus (GPa) = 16.63826 26.00070 21.31948
#
# Velocity S-wave (km/s) = 2.93014 3.66292 3.31683
# Velocity P-wave (km/s) = 6.16645 6.96164 6.57607
#
# Compressibility (1/GPa) = 0.01941586
#
# Stress axis : x y z
#
# Youngs Moduli (GPa) = 104.41594 44.89383 90.10801
#
# Poissons Ratio (x) = 0.25803 0.16708
# Poissons Ratio (y) = 0.60014 0.37530
# Poissons Ratio (z) = 0.19361 0.18699
#
# Static dielectric constant tensor:
#      x y z
#    x 3.908580 0.000000 0.009300 
#    y 0.000000 3.442470 0.000000 
#    z 0.009300 0.000000 3.638630 
# 
# 
# High freq. dielectric constant tensor:
#      x y z
#    x 1.772360 0.000000 0.000540 
#    y 0.000000 1.740910 0.000000 
#    z 0.000540 0.000000 1.762160 
# 
# From -- ./inp_files/58375.got.cif
#   From: 2010.06.25/outbox.cif.g09.slc.cpg/sg10_30_cif.got.tgz:58375.got - 2010.06.27 22:07:45.
