data_PCOD8065378
_publ_section_title
;
Structure prediction by ZEFSAII (Michael W. Deem and Ramdas Pophale) SiO2 
 PCOD8065378
Probable space group: P 2/M
;
_chemical_formula_sum "Si O2"
_cell_formula_units_Z 26
_cell_length_a 14.143081
_cell_length_b 7.436754
_cell_length_c 17.530369
_cell_angle_alpha 90.000000
_cell_angle_beta 134.292676
_cell_angle_gamma 90.000000
_cell_volume 1319.773117
_symmetry_space_group_name_H-M "P 2/M"
_symmetry_group_IT_number 10
_symmetry_cell_setting 'monoclinic'
loop_
_space_group_symop_operation_xyz
x,y,z
-x,y,-z
-x,-y,-z
x,-y,z
loop_
_atom_site_type_symbol
_atom_site_label
_atom_site_fract_x
_atom_site_fract_y
_atom_site_fract_z
Si Si1 0.439737 0.711799 0.300621
Si Si2 0.958638 0.703068 0.144151
Si Si3 0.684111 0.289703 0.926125
Si Si4 0.383297 0.000000 0.992471
Si Si5 0.260712 0.713442 0.498440
Si Si6 0.751456 0.707133 0.681152
Si Si7 0.928235 0.000000 0.539888
Si Si8 0.105052 0.000000 0.777271
O O1 0.418957 0.500000 0.291229
O O2 0.374157 0.784738 0.185891
O O3 0.592563 0.764168 0.390403
O O4 0.360633 0.796922 0.328375
O O5 0.942479 0.500000 0.163998
O O6 0.107227 0.733468 0.195813
O O7 0.948489 0.822182 0.212890
O O8 0.843535 0.747651 0.017655
O O9 0.652139 0.500000 0.920391
O O10 0.615099 0.178920 0.954833
O O11 0.500000 0.000000 0.000000
O O12 0.261524 0.000000 0.866345
O O13 0.232511 0.500000 0.489964
O O14 0.246609 0.787093 0.403514
O O15 0.159809 0.821372 0.495667
O O16 0.715315 0.500000 0.649662
O O17 0.000000 0.000000 0.500000
O O18 0.056354 0.000000 0.664588
#
# Coordination Sequence:
#
# PCOD8065378 Si02
#       8
#     4   4   4   2   4   4   2   2
#     4   9  18  33  56  86 120 152 182 224 274 332
#     4   9  17  32  56  80 108 147 182 216 263 323
#     4   9  19  35  54  81 115 145 180 227 278 326
#     4  10  22  38  60  81 102 141 187 233 282 334
#     4  10  21  39  58  80 116 152 186 229 277 329
#     4   9  16  30  57  85 112 153 190 217 267 334
#     4  12  26  40  59  85 107 140 192 243 285 329
#     4  10  20  38  56  77 108 136 177 232 278 323
#
# _framework density 19.700355999999999
#
# number of rings (size 3 to 8) (size 9 to 14) (size 15 to 20)
#    0.000    2.462    1.538    0.462    0.000    4.923 
#    0.000    6.923    0.000    2.769    0.000    0.000 
#    0.000    0.000    0.000    0.000    0.000    0.000 
#
# Total GULP energy -322213.958299 kJ/mol
# GULP energy per Si atom -12392.844550 kJ/mol
# Density = 1.965552 g / cm^3
# Si number density = 19.700356 Si / 1000 Ang^3
#
#
#
# Elastic Constant Matrix: (Units=GPa)
#
#
# Indices 1 2 3 4 5 6 
#
# 1 156.5057 46.2711 78.0285 0.0000 -3.9040 0.0000
# 2 46.2711 75.6617 34.3229 0.0000 -0.4939 0.0000
# 3 78.0285 34.3229 157.7823 0.0000 2.4383 0.0000
# 4 0.0000 0.0000 0.0000 16.4181 0.0000 2.7647
# 5 -3.9040 -0.4939 2.4383 0.0000 23.2723 0.0000
# 6 0.0000 0.0000 0.0000 2.7647 0.0000 19.6325
#
#
#
# Elastic Compliance Matrix: (Units=1/GPa)
#
#
# Indices 1 2 3 4 5 6 
#
# 1 0.009579 -0.004086 -0.003878 0.000000 0.001927 0.000000
# 2 -0.004086 0.016417 -0.001548 0.000000 -0.000175 0.000000
# 3 -0.003878 -0.001548 0.008617 0.000000 -0.001586 0.000000
# 4 0.000000 0.000000 0.000000 0.062388 0.000000 -0.008786
# 5 0.001927 -0.000175 -0.001586 0.000000 0.043455 0.000000
# 6 0.000000 0.000000 0.000000 -0.008786 0.000000 0.052173
#
#
# Mechanical properties :
#
#
# Convention : Reuss Voigt Hill
#
# Bulk Modulus (GPa) = 64.14953 78.57719 71.36336
# Shear Modulus (GPa) = 23.05745 27.28638 25.17192
#
# Velocity S-wave (km/s) = 3.42483 3.72569 3.57843
# Velocity P-wave (km/s) = 6.94785 7.64725 7.30593
#
# Compressibility (1/GPa) = 0.01558858
#
# Stress axis : x y z
#
# Youngs Moduli (GPa) = 104.39252 60.91368 116.05155
#
# Poissons Ratio (x) = 0.24892 0.45006
# Poissons Ratio (y) = 0.42659 0.17960
# Poissons Ratio (z) = 0.40484 0.09427
#
# Static dielectric constant tensor:
#      x y z
#    x 3.390110 0.000000 0.228020 
#    y 0.000000 3.483510 0.000000 
#    z 0.228020 0.000000 3.844630 
# 
# 
# High freq. dielectric constant tensor:
#      x y z
#    x 1.743010 0.000000 0.022070 
#    y 0.000000 1.765090 0.000000 
#    z 0.022070 0.000000 1.777230 
# 
# From -- ./inp_files/63599.got.cif
#   From: 2010.06.25/outbox.cif.g09.slc.cpg/sg10_32_cif.got.tgz:63599.got - 2010.06.27 22:07:45.
