data_PCOD8065015
_publ_section_title
;
Structure prediction by ZEFSAII (Michael W. Deem and Ramdas Pophale) SiO2 
 PCOD8065015
Probable space group: P 2/M
;
_chemical_formula_sum "Si O2"
_cell_formula_units_Z 18
_cell_length_a 8.094994
_cell_length_b 21.001760
_cell_length_c 9.267831
_cell_angle_alpha 90.000000
_cell_angle_beta 32.812411
_cell_angle_gamma 90.000000
_cell_volume 853.810881
_symmetry_space_group_name_H-M "P 2/M"
_symmetry_group_IT_number 10
_symmetry_cell_setting 'monoclinic'
loop_
_space_group_symop_operation_xyz
x,y,z
-x,y,-z
-x,-y,-z
x,-y,z
loop_
_atom_site_type_symbol
_atom_site_label
_atom_site_fract_x
_atom_site_fract_y
_atom_site_fract_z
Si Si1 0.774721 0.865458 0.410983
Si Si2 0.396269 0.797957 0.914209
Si Si3 0.852124 0.000000 0.265518
Si Si4 0.651243 0.574311 0.740198
Si Si5 0.354005 0.673682 0.759488
O O1 0.500000 0.859240 0.500000
O O2 0.929030 0.936054 0.299139
O O3 0.043376 0.818335 0.165534
O O4 0.630218 0.849207 0.672548
O O5 0.500000 0.787863 0.000000
O O6 0.428897 0.731722 0.809261
O O7 0.500000 0.000000 0.500000
O O8 0.000000 0.000000 0.000000
O O9 0.605375 0.500000 0.742577
O O10 0.504019 0.610269 0.713563
O O11 0.000000 0.593633 0.500000
O O12 0.500000 0.595789 0.000000
O O13 0.500000 0.690728 0.500000
O O14 0.000000 0.660536 0.000000
#
# Coordination Sequence:
#
# PCOD8065015 Si02
#       5
#     4   4   2   4   4
#     4  11  22  41  65  90 119 157 205 250 298 362
#     4  12  25  41  60  88 125 162 200 250 310 362
#     4  10  20  36  63  92 117 154 199 248 301 360
#     4  10  22  42  66  92 126 165 200 242 302 364
#     4  12  25  40  63  92 122 160 207 255 299 351
#
# _framework density 21.081952000000001
#
# number of rings (size 3 to 8) (size 9 to 14) (size 15 to 20)
#    0.000    0.889    0.000    9.333    0.000    2.667 
#    0.000    3.333    0.000    0.000    0.000    0.000 
#    0.000    0.000    0.000    0.000    0.000    0.000 
#
# Total GULP energy -223273.228812 kJ/mol
# GULP energy per Si atom -12404.068267 kJ/mol
# Density = 2.103397 g / cm^3
# Si number density = 21.081952 Si / 1000 Ang^3
#
#
#
# Elastic Constant Matrix: (Units=GPa)
#
#
# Indices 1 2 3 4 5 6 
#
# 1 110.9367 77.8640 62.3670 0.0000 19.6092 0.0000
# 2 77.8640 115.7717 59.5449 0.0000 8.4698 0.0000
# 3 62.3670 59.5449 182.2081 0.0000 7.8544 0.0000
# 4 0.0000 0.0000 0.0000 39.5683 0.0000 6.5921
# 5 19.6092 8.4698 7.8544 0.0000 35.3518 0.0000
# 6 0.0000 0.0000 0.0000 6.5921 0.0000 25.9553
#
#
#
# Elastic Compliance Matrix: (Units=1/GPa)
#
#
# Indices 1 2 3 4 5 6 
#
# 1 0.019959 -0.011439 -0.002761 0.000000 -0.007717 0.000000
# 2 -0.011439 0.017048 -0.001770 0.000000 0.002654 0.000000
# 3 -0.002761 -0.001770 0.006994 0.000000 0.000401 0.000000
# 4 0.000000 0.000000 0.000000 0.026389 0.000000 -0.006702
# 5 -0.007717 0.002654 0.000401 0.000000 0.031843 0.000000
# 6 0.000000 0.000000 0.000000 -0.006702 0.000000 0.040230
#
#
# Mechanical properties :
#
#
# Convention : Reuss Voigt Hill
#
# Bulk Modulus (GPa) = 82.91212 89.82982 86.37097
# Shear Modulus (GPa) = 28.02311 34.11778 31.07044
#
# Velocity S-wave (km/s) = 3.64984 4.02722 3.84317
# Velocity P-wave (km/s) = 7.56146 8.02041 7.79431
#
# Compressibility (1/GPa) = 0.01206096
#
# Stress axis : x y z
#
# Youngs Moduli (GPa) = 50.10167 58.65910 142.97335
#
# Poissons Ratio (x) = 0.67103 0.39471
# Poissons Ratio (y) = 0.57314 0.25306
# Poissons Ratio (z) = 0.13832 0.10382
#
# Static dielectric constant tensor:
#      x y z
#    x 3.622420 0.000000 0.002370 
#    y 0.000000 5.133040 0.000000 
#    z 0.002370 0.000000 4.204640 
# 
# 
# High freq. dielectric constant tensor:
#      x y z
#    x 1.814090 0.000000 -0.002750 
#    y 0.000000 1.836920 0.000000 
#    z -0.002750 0.000000 1.853190 
# 
# From -- ./inp_files/20042.got.cif
#   From: 2010.06.25/outbox.cif.g09.slc.cpg/sg10_11_cif.got.tgz:20042.got - 2010.06.27 22:07:45.
