data_PCOD8065384
_publ_section_title
;
Structure prediction by ZEFSAII (Michael W. Deem and Ramdas Pophale) SiO2 
 PCOD8065384
Probable space group: P 2/M
;
_chemical_formula_sum "Si O2"
_cell_formula_units_Z 32
_cell_length_a 16.183034
_cell_length_b 13.502465
_cell_length_c 9.189637
_cell_angle_alpha 90.000000
_cell_angle_beta 57.788697
_cell_angle_gamma 90.000000
_cell_volume 1698.974704
_symmetry_space_group_name_H-M "P 2/M"
_symmetry_group_IT_number 10
_symmetry_cell_setting 'monoclinic'
loop_
_space_group_symop_operation_xyz
x,y,z
-x,y,-z
-x,-y,-z
x,-y,z
loop_
_atom_site_type_symbol
_atom_site_label
_atom_site_fract_x
_atom_site_fract_y
_atom_site_fract_z
Si Si1 0.647368 0.889460 0.327209
Si Si2 0.086015 0.300542 0.031337
Si Si3 0.174574 0.110445 0.044853
Si Si4 0.907458 0.386451 0.675459
Si Si5 0.273130 0.244917 0.175809
Si Si6 0.357849 0.255839 0.406462
Si Si7 0.578317 0.718932 0.208309
Si Si8 0.280608 0.615630 0.714146
O O1 0.646437 0.839521 0.485895
O O2 0.580318 0.828340 0.277980
O O3 0.604659 0.000000 0.380614
O O4 0.756467 0.891467 0.160996
O O5 0.191194 0.324020 0.865738
O O6 0.087491 0.187685 0.091455
O O7 0.066048 0.376839 0.179761
O O8 0.000000 0.315128 0.000000
O O9 0.232041 0.146415 0.135708
O O10 0.132598 0.000000 0.113781
O O11 0.887073 0.500000 0.654253
O O12 0.811040 0.325903 0.726918
O O13 0.000000 0.344703 0.500000
O O14 0.313201 0.218893 0.296802
O O15 0.360771 0.289731 0.997357
O O16 0.465585 0.301604 0.280594
O O17 0.295420 0.345507 0.535828
O O18 0.622543 0.640381 0.282490
O O19 0.258061 0.500000 0.734846
#
# Coordination Sequence:
#
# PCOD8065384 Si02
#       8
#     4   4   4   4   4   4   4   4
#     4   9  17  33  57  82 112 149 192 238 286 334
#     4  11  22  38  62  89 114 146 185 237 292 341
#     4   9  18  38  62  84 116 156 188 224 287 350
#     4  10  22  39  60  83 110 149 189 232 289 343
#     4  10  21  38  56  83 119 154 188 240 283 336
#     4  11  22  34  56  86 118 151 197 240 283 335
#     4  10  20  38  57  80 111 162 194 235 286 341
#     4  11  22  39  58  83 116 151 192 242 292 339
#
# _framework density 18.834890000000001
#
# number of rings (size 3 to 8) (size 9 to 14) (size 15 to 20)
#    0.000    1.875    5.000    2.250    1.750    4.250 
#    0.000    0.000    0.000   12.000    0.000    0.000 
#    0.000    0.000    0.000    0.000    0.000    0.000 
#
# Total GULP energy -396745.919114 kJ/mol
# GULP energy per Si atom -12398.309972 kJ/mol
# Density = 1.879202 g / cm^3
# Si number density = 18.834890 Si / 1000 Ang^3
#
#
#
# Elastic Constant Matrix: (Units=GPa)
#
#
# Indices 1 2 3 4 5 6 
#
# 1 95.3086 16.5759 44.3868 0.0000 5.3601 0.0000
# 2 16.5759 106.6837 26.4463 0.0000 -9.1290 0.0000
# 3 44.3868 26.4463 114.8164 0.0000 2.0902 0.0000
# 4 0.0000 0.0000 0.0000 20.7320 0.0000 -0.1848
# 5 5.3601 -9.1290 2.0902 0.0000 26.6697 0.0000
# 6 0.0000 0.0000 0.0000 -0.1848 0.0000 8.9878
#
#
#
# Elastic Compliance Matrix: (Units=1/GPa)
#
#
# Indices 1 2 3 4 5 6 
#
# 1 0.013036 -0.001073 -0.004745 0.000000 -0.002615 0.000000
# 2 -0.001073 0.010384 -0.002049 0.000000 0.003931 0.000000
# 3 -0.004745 -0.002049 0.011027 0.000000 -0.000612 0.000000
# 4 0.000000 0.000000 0.000000 0.048243 0.000000 0.000992
# 5 -0.002615 0.003931 -0.000612 0.000000 0.039415 0.000000
# 6 0.000000 0.000000 0.000000 0.000992 0.000000 0.111283
#
#
# Mechanical properties :
#
#
# Convention : Reuss Voigt Hill
#
# Bulk Modulus (GPa) = 53.43538 54.62519 54.03028
# Shear Modulus (GPa) = 19.58030 26.57119 23.07575
#
# Velocity S-wave (km/s) = 3.22774 3.76006 3.50403
# Velocity P-wave (km/s) = 6.50562 6.92213 6.71710
#
# Compressibility (1/GPa) = 0.01871419
#
# Stress axis : x y z
#
# Youngs Moduli (GPa) = 76.71294 96.29797 90.68809
#
# Poissons Ratio (x) = 0.10333 0.43028
# Poissons Ratio (y) = 0.08231 0.18579
# Poissons Ratio (z) = 0.36398 0.19728
#
# Static dielectric constant tensor:
#      x y z
#    x 3.268270 0.000000 -0.006900 
#    y 0.000000 3.461480 0.000000 
#    z -0.006900 0.000000 3.589900 
# 
# 
# High freq. dielectric constant tensor:
#      x y z
#    x 1.714290 0.000000 -0.003000 
#    y 0.000000 1.724760 0.000000 
#    z -0.003000 0.000000 1.740620 
# 
# From -- ./inp_files/29502.got.cif
#   From: 2010.06.25/outbox.cif.g09.slc.cpg/sg10_15_cif.got.tgz:29502.got - 2010.06.27 22:07:45.
