data_PCOD8065927
_publ_section_title
;
Structure prediction by ZEFSAII (Michael W. Deem and Ramdas Pophale) SiO2 
 PCOD8065927
Probable space group: P 2/M
;
_chemical_formula_sum "Si O2"
_cell_formula_units_Z 26
_cell_length_a 10.388728
_cell_length_b 15.754302
_cell_length_c 8.960277
_cell_angle_alpha 90.000000
_cell_angle_beta 59.868558
_cell_angle_gamma 90.000000
_cell_volume 1268.343427
_symmetry_space_group_name_H-M "P 2/M"
_symmetry_group_IT_number 10
_symmetry_cell_setting 'monoclinic'
loop_
_space_group_symop_operation_xyz
x,y,z
-x,y,-z
-x,-y,-z
x,-y,z
loop_
_atom_site_type_symbol
_atom_site_label
_atom_site_fract_x
_atom_site_fract_y
_atom_site_fract_z
Si Si1 0.630366 0.500000 0.102568
Si Si2 0.233893 0.901226 0.365604
Si Si3 0.303813 0.329359 0.764806
Si Si4 0.020772 0.815898 0.677955
Si Si5 0.218935 0.667180 0.480627
Si Si6 0.000000 0.246200 0.000000
Si Si7 0.723223 0.500000 0.720789
Si Si8 0.461265 0.772198 0.193656
O O1 0.659831 0.417830 0.182445
O O2 0.454509 0.500000 0.181472
O O3 0.739843 0.500000 0.892423
O O4 0.163001 0.878756 0.568650
O O5 0.405448 0.869630 0.252675
O O6 0.126323 0.848761 0.317419
O O7 0.228464 0.000000 0.332580
O O8 0.314643 0.339205 0.579164
O O9 0.408407 0.253715 0.767870
O O10 0.137985 0.308163 0.907697
O O11 0.065245 0.718980 0.600769
O O12 0.984417 0.817884 0.872006
O O13 0.195293 0.577137 0.413377
O O14 0.315813 0.716890 0.304504
O O15 0.500000 0.756212 0.000000
#
# Coordination Sequence:
#
# PCOD8065927 Si02
#       8
#     2   4   4   4   4   2   2   4
#     4  11  23  34  58  85 121 156 197 246 284 328
#     4  10  21  39  63  88 117 150 189 237 292 354
#     4  11  22  38  59  85 115 161 196 242 288 342
#     4   9  19  38  62  88 114 156 190 235 288 349
#     4  10  21  35  60  84 117 157 201 234 288 339
#     4  10  22  39  61  86 118 152 200 236 287 341
#     4  11  21  37  54  92 120 155 200 243 283 331
#     4  11  21  35  59  86 115 150 194 241 289 343
#
# _framework density 20.499179999999999
#
# number of rings (size 3 to 8) (size 9 to 14) (size 15 to 20)
#    0.000    1.692    1.538    3.692    0.000    3.692 
#    0.000    2.308    0.000   32.308    0.000    0.000 
#    0.000    0.000    0.000    0.000    0.000    0.000 
#
# Total GULP energy -322145.809139 kJ/mol
# GULP energy per Si atom -12390.223428 kJ/mol
# Density = 2.045252 g / cm^3
# Si number density = 20.499180 Si / 1000 Ang^3
#
#
#
# Elastic Constant Matrix: (Units=GPa)
#
#
# Indices 1 2 3 4 5 6 
#
# 1 38.2560 47.3054 9.2176 0.0000 -10.7101 0.0000
# 2 47.3054 139.4534 46.8826 0.0000 4.3535 0.0000
# 3 9.2176 46.8826 131.0215 0.0000 11.7931 0.0000
# 4 0.0000 0.0000 0.0000 13.7919 0.0000 -7.5473
# 5 -10.7101 4.3535 11.7931 0.0000 27.2641 0.0000
# 6 0.0000 0.0000 0.0000 -7.5473 0.0000 31.4767
#
#
#
# Elastic Compliance Matrix: (Units=1/GPa)
#
#
# Indices 1 2 3 4 5 6 
#
# 1 0.059892 -0.021513 0.001100 0.000000 0.026486 0.000000
# 2 -0.021513 0.015879 -0.003308 0.000000 -0.009556 0.000000
# 3 0.001100 -0.003308 0.009003 0.000000 -0.002934 0.000000
# 4 0.000000 0.000000 0.000000 0.083457 0.000000 0.020011
# 5 0.026486 -0.009556 -0.002934 0.000000 0.049878 0.000000
# 6 0.000000 0.000000 0.000000 0.020011 0.000000 0.036568
#
#
# Mechanical properties :
#
#
# Convention : Reuss Voigt Hill
#
# Bulk Modulus (GPa) = 26.78716 57.28247 42.03482
# Shear Modulus (GPa) = 15.89512 28.19490 22.04501
#
# Velocity S-wave (km/s) = 2.78763 3.71268 3.28290
# Velocity P-wave (km/s) = 4.84324 6.81052 5.90932
#
# Compressibility (1/GPa) = 0.03733131
#
# Stress axis : x y z
#
# Youngs Moduli (GPa) = 16.69676 62.97567 111.07696
#
# Poissons Ratio (x) = 1.35482 -0.12224
# Poissons Ratio (y) = 0.35920 0.36748
# Poissons Ratio (z) = -0.01837 0.20834
#
# Static dielectric constant tensor:
#      x y z
#    x 3.742590 0.000000 0.048490 
#    y 0.000000 3.819000 0.000000 
#    z 0.048490 0.000000 4.139970 
# 
# 
# High freq. dielectric constant tensor:
#      x y z
#    x 1.792440 0.000000 -0.001090 
#    y 0.000000 1.788100 0.000000 
#    z -0.001090 0.000000 1.817530 
# 
# From -- ./inp_files/24853.got.cif
#   From: 2010.06.25/outbox.cif.g09.slc.cpg/sg10_13_cif.got.tgz:24853.got - 2010.06.27 22:07:45.
