data_PCOD8065766
_publ_section_title
;
Structure prediction by ZEFSAII (Michael W. Deem and Ramdas Pophale) SiO2 
 PCOD8065766
Probable space group: P 2/M
;
_chemical_formula_sum "Si O2"
_cell_formula_units_Z 30
_cell_length_a 10.614905
_cell_length_b 18.909000
_cell_length_c 7.968006
_cell_angle_alpha 90.000000
_cell_angle_beta 98.220730
_cell_angle_gamma 90.000000
_cell_volume 1582.882488
_symmetry_space_group_name_H-M "P 2/M"
_symmetry_group_IT_number 10
_symmetry_cell_setting 'monoclinic'
loop_
_space_group_symop_operation_xyz
x,y,z
-x,y,-z
-x,-y,-z
x,-y,z
loop_
_atom_site_type_symbol
_atom_site_label
_atom_site_fract_x
_atom_site_fract_y
_atom_site_fract_z
Si Si1 0.290897 0.079338 0.881045
Si Si2 0.961539 0.577618 0.757131
Si Si3 0.720458 0.279204 0.449112
Si Si4 0.135437 0.276226 0.176710
Si Si5 0.797271 0.576519 0.393423
Si Si6 0.864724 0.216169 0.169889
Si Si7 0.556638 0.921038 0.757889
Si Si8 0.500000 0.188853 0.500000
O O1 0.176699 0.134012 0.826985
O O2 0.412087 0.094557 0.787121
O O3 0.238361 0.000000 0.839182
O O4 0.339352 0.086905 0.079259
O O5 0.938477 0.500000 0.838626
O O6 0.911830 0.642574 0.860843
O O7 0.889086 0.579794 0.569110
O O8 0.112510 0.587941 0.751686
O O9 0.767117 0.270095 0.650275
O O10 0.693751 0.361358 0.396227
O O11 0.822811 0.252653 0.334533
O O12 0.588553 0.238062 0.401383
O O13 0.016887 0.223932 0.191638
O O14 0.197286 0.251627 0.010741
O O15 0.727713 0.500000 0.368873
O O16 0.590873 0.862029 0.627242
O O17 0.564786 0.000000 0.683271
#
# Coordination Sequence:
#
# PCOD8065766 Si02
#       8
#     4   4   4   4   4   4   4   2
#     4   9  18  35  55  74 102 139 173 210 261 310
#     4   8  13  26  49  75 101 133 174 215 259 303
#     4  11  21  35  52  78 110 137 175 219 260 309
#     4  10  21  34  53  78 106 144 173 210 268 310
#     4   8  14  27  49  72 101 140 172 210 259 302
#     4  11  20  35  54  77 107 138 171 213 262 317
#     4   9  18  33  54  78 103 131 170 223 265 299
#     4  12  21  32  53  84 104 134 176 218 263 316
#
# _framework density 18.952763000000001
#
# number of rings (size 3 to 8) (size 9 to 14) (size 15 to 20)
#    0.000    2.400    2.667    3.000    0.000    0.000 
#    0.000    3.667    0.000    3.200    0.000    0.000 
#    0.000    6.400    0.000    0.000    0.000    0.000 
#
# Total GULP energy -371699.256575 kJ/mol
# GULP energy per Si atom -12389.975219 kJ/mol
# Density = 1.890963 g / cm^3
# Si number density = 18.952763 Si / 1000 Ang^3
#
#
#
# Elastic Constant Matrix: (Units=GPa)
#
#
# Indices 1 2 3 4 5 6 
#
# 1 31.1948 28.4340 -6.4013 0.0000 -0.5102 0.0000
# 2 28.4340 150.9115 12.8493 0.0000 0.7005 0.0000
# 3 -6.4013 12.8493 65.1192 0.0000 -5.7437 0.0000
# 4 0.0000 0.0000 0.0000 -4.7028 0.0000 4.5188
# 5 -0.5102 0.7005 -5.7437 0.0000 16.0090 0.0000
# 6 0.0000 0.0000 0.0000 4.5188 0.0000 23.2463
#
#
#
# Elastic Compliance Matrix: (Units=1/GPa)
#
#
# Indices 1 2 3 4 5 6 
#
# 1 0.040837 -0.008220 0.005972 0.000000 0.003804 0.000000
# 2 -0.008220 0.008404 -0.002604 0.000000 -0.001564 0.000000
# 3 0.005972 -0.002604 0.017023 0.000000 0.006412 0.000000
# 4 0.000000 0.000000 0.000000 -0.179172 0.000000 0.034829
# 5 0.003804 -0.001564 0.006412 0.000000 0.064955 0.000000
# 6 0.000000 0.000000 0.000000 0.034829 0.000000 0.036247
#
#
# Mechanical properties :
#
#
# Convention : Reuss Voigt Hill
#
# Bulk Modulus (GPa) = 17.68075 35.22104 26.45089
# Shear Modulus (GPa) = 296.67357 21.06672 158.87015
#
# Velocity S-wave (km/s) = 12.52489 3.33759 9.16549
# Velocity P-wave (km/s) = 14.78219 5.78590 11.22474
#
# Compressibility (1/GPa) = 0.05655868
#
# Stress axis : x y z
#
# Youngs Moduli (GPa) = 24.48741 118.98710 58.74426
#
# Poissons Ratio (x) = 0.97813 -0.35082
# Poissons Ratio (y) = 0.20130 0.15299
# Poissons Ratio (z) = -0.14624 0.30989
#
# Static dielectric constant tensor:
#      x y z
#    x 2.947160 0.000000 -0.120580 
#    y 0.000000 3.941770 0.000000 
#    z -0.120580 0.000000 3.454600 
# 
# 
# High freq. dielectric constant tensor:
#      x y z
#    x 1.678150 0.000000 -0.009750 
#    y 0.000000 1.756560 0.000000 
#    z -0.009750 0.000000 1.735030 
# 
# From -- ./inp_files/20239.got.cif
#   From: 2010.06.25/outbox.cif.g09.slc.cpg/sg10_11_cif.got.tgz:20239.got - 2010.06.27 22:07:45.
