data_PCOD8065621
_publ_section_title
;
Structure prediction by ZEFSAII (Michael W. Deem and Ramdas Pophale) SiO2 
 PCOD8065621
Probable space group: P 2/M
;
_chemical_formula_sum "Si O2"
_cell_formula_units_Z 28
_cell_length_a 14.672087
_cell_length_b 8.426037
_cell_length_c 21.479115
_cell_angle_alpha 90.000000
_cell_angle_beta 148.878496
_cell_angle_gamma 90.000000
_cell_volume 1372.461205
_symmetry_space_group_name_H-M "P 2/M"
_symmetry_group_IT_number 10
_symmetry_cell_setting 'monoclinic'
loop_
_space_group_symop_operation_xyz
x,y,z
-x,y,-z
-x,-y,-z
x,-y,z
loop_
_atom_site_type_symbol
_atom_site_label
_atom_site_fract_x
_atom_site_fract_y
_atom_site_fract_z
Si Si1 0.258636 0.818294 0.790376
Si Si2 0.448784 0.681541 0.124529
Si Si3 0.543248 0.686230 0.619598
Si Si4 0.053227 0.316236 0.462278
Si Si5 0.762755 0.813634 0.638479
Si Si6 0.164549 0.814855 0.872833
Si Si7 0.565024 0.815964 0.319180
O O1 0.394207 0.708953 0.832647
O O2 0.267246 0.780132 0.868644
O O3 0.059140 0.787640 0.651569
O O4 0.310620 0.000000 0.808108
O O5 0.454404 0.500000 0.149134
O O6 0.470494 0.789345 0.198066
O O7 0.261447 0.719901 0.984032
O O8 0.580570 0.500000 0.640908
O O9 0.690045 0.774258 0.664348
O O10 0.348183 0.720196 0.478494
O O11 0.562077 0.755731 0.700037
O O12 0.010071 0.500000 0.426038
O O13 0.258038 0.285899 0.572085
O O14 0.000000 0.261533 0.500000
O O15 0.963783 0.755029 0.751267
O O16 0.745086 0.000000 0.614774
O O17 0.169716 0.000000 0.892140
O O18 0.609997 0.000000 0.353467
#
# Coordination Sequence:
#
# PCOD8065621 Si02
#       7
#     4   4   4   4   4   4   4
#     4  11  22  38  61  87 118 160 204 243 291 351
#     4  12  25  40  58  84 119 158 200 248 298 350
#     4  11  22  38  63  94 126 155 191 243 302 355
#     4  11  22  36  57  87 122 153 191 243 296 348
#     4  10  20  39  65  93 123 155 198 244 293 354
#     4  10  23  41  61  86 116 155 202 247 290 346
#     4  12  24  40  62  86 118 160 202 243 296 357
#
# _framework density 20.401304
#
# number of rings (size 3 to 8) (size 9 to 14) (size 15 to 20)
#    0.000    1.000    1.429    7.286    0.000    5.714 
#    0.000    0.714    0.000    4.286    0.000    0.000 
#    0.000    0.000    0.000    0.000    0.000    0.000 
#
# Total GULP energy -347409.048555 kJ/mol
# GULP energy per Si atom -12407.466020 kJ/mol
# Density = 2.035487 g / cm^3
# Si number density = 20.401304 Si / 1000 Ang^3
#
#
#
# Elastic Constant Matrix: (Units=GPa)
#
#
# Indices 1 2 3 4 5 6 
#
# 1 90.9707 14.5424 24.8380 0.0000 -7.2784 0.0000
# 2 14.5424 58.6749 13.3005 0.0000 -0.1544 0.0000
# 3 24.8380 13.3005 77.8519 0.0000 -2.5780 0.0000
# 4 0.0000 0.0000 0.0000 31.2784 0.0000 -0.1944
# 5 -7.2784 -0.1544 -2.5780 0.0000 24.0316 0.0000
# 6 0.0000 0.0000 0.0000 -0.1944 0.0000 23.7852
#
#
#
# Elastic Compliance Matrix: (Units=1/GPa)
#
#
# Indices 1 2 3 4 5 6 
#
# 1 0.012595 -0.002317 -0.003509 0.000000 0.003423 0.000000
# 2 -0.002317 0.018157 -0.002391 0.000000 -0.000842 0.000000
# 3 -0.003509 -0.002391 0.014388 0.000000 0.000465 0.000000
# 4 0.000000 0.000000 0.000000 0.031973 0.000000 0.000261
# 5 0.003423 -0.000842 0.000465 0.000000 0.042693 0.000000
# 6 0.000000 0.000000 0.000000 0.000261 0.000000 0.042045
#
#
# Mechanical properties :
#
#
# Convention : Reuss Voigt Hill
#
# Bulk Modulus (GPa) = 34.83523 36.98436 35.90980
# Shear Modulus (GPa) = 26.61644 27.47348 27.04496
#
# Velocity S-wave (km/s) = 3.61590 3.67366 3.64490
# Velocity P-wave (km/s) = 5.87751 6.01350 5.94589
#
# Compressibility (1/GPa) = 0.02870657
#
# Stress axis : x y z
#
# Youngs Moduli (GPa) = 79.39683 55.07503 69.50107
#
# Poissons Ratio (x) = 0.12762 0.24389
# Poissons Ratio (y) = 0.18398 0.16615
# Poissons Ratio (z) = 0.27861 0.13166
#
# Static dielectric constant tensor:
#      x y z
#    x 3.823750 0.000000 -0.091890 
#    y 0.000000 3.665420 0.000000 
#    z -0.091890 0.000000 3.668750 
# 
# 
# High freq. dielectric constant tensor:
#      x y z
#    x 1.799630 0.000000 -0.007970 
#    y 0.000000 1.803910 0.000000 
#    z -0.007970 0.000000 1.789820 
# 
# From -- ./inp_files/84993.got.cif
#   From: 2010.06.25/outbox.cif.g09.slc.cpg/sg10_43_cif.got.tgz:84993.got - 2010.06.27 22:07:45.
