data_PCOD8065197
_publ_section_title
;
Structure prediction by ZEFSAII (Michael W. Deem and Ramdas Pophale) SiO2 
 PCOD8065197
Probable space group: P 2/M
;
_chemical_formula_sum "Si O2"
_cell_formula_units_Z 20
_cell_length_a 21.701021
_cell_length_b 8.620939
_cell_length_c 13.428675
_cell_angle_alpha 90.000000
_cell_angle_beta 158.807362
_cell_angle_gamma 90.000000
_cell_volume 908.200918
_symmetry_space_group_name_H-M "P 2/M"
_symmetry_group_IT_number 10
_symmetry_cell_setting 'monoclinic'
loop_
_space_group_symop_operation_xyz
x,y,z
-x,y,-z
-x,-y,-z
x,-y,z
loop_
_atom_site_type_symbol
_atom_site_label
_atom_site_fract_x
_atom_site_fract_y
_atom_site_fract_z
Si Si1 0.821149 0.182547 0.183262
Si Si2 0.724016 0.824159 0.378047
Si Si3 0.070774 0.177349 0.003477
Si Si4 0.696169 0.318775 0.796507
Si Si5 0.431267 0.680608 0.044555
O O1 0.662352 0.263974 0.997448
O O2 0.000000 0.241723 0.500000
O O3 0.806419 0.000000 0.175628
O O4 0.805573 0.226370 0.043891
O O5 0.687125 0.713927 0.229183
O O6 0.674865 0.000000 0.275702
O O7 0.611134 0.770135 0.302846
O O8 0.921837 0.811928 0.698285
O O9 0.227901 0.276816 0.197787
O O10 0.130270 0.000000 0.110525
O O11 0.000000 0.248474 0.000000
O O12 0.500000 0.265369 0.500000
O O13 0.713108 0.500000 0.843589
O O14 0.469662 0.500000 0.111176
#
# Coordination Sequence:
#
# PCOD8065197 Si02
#       5
#     4   4   4   4   4
#     4  11  24  42  66  93 124 167 217 266 320 382
#     4  10  20  37  60  89 125 162 211 261 308 374
#     4  10  23  42  65  93 123 165 217 262 310 373
#     4  11  26  45  65  97 135 172 214 264 324 390
#     4  11  22  36  59  91 126 162 204 258 320 379
#
# _framework density 22.021560000000001
#
# number of rings (size 3 to 8) (size 9 to 14) (size 15 to 20)
#    0.000    1.400    0.000    6.000    2.800   10.000 
#    0.000    0.000    0.000    0.000    0.000    0.000 
#    0.000    0.000    0.000    0.000    0.000    0.000 
#
# Total GULP energy -248084.027908 kJ/mol
# GULP energy per Si atom -12404.201395 kJ/mol
# Density = 2.197144 g / cm^3
# Si number density = 22.021560 Si / 1000 Ang^3
#
#
#
# Elastic Constant Matrix: (Units=GPa)
#
#
# Indices 1 2 3 4 5 6 
#
# 1 127.2600 19.5053 29.5060 0.0000 21.9050 0.0000
# 2 19.5053 79.3784 27.3482 0.0000 10.0903 0.0000
# 3 29.5060 27.3482 87.9646 0.0000 12.1454 0.0000
# 4 0.0000 0.0000 0.0000 16.3111 0.0000 -1.7504
# 5 21.9050 10.0903 12.1454 0.0000 34.6631 0.0000
# 6 0.0000 0.0000 0.0000 -1.7504 0.0000 27.1898
#
#
#
# Elastic Compliance Matrix: (Units=1/GPa)
#
#
# Indices 1 2 3 4 5 6 
#
# 1 0.009343 -0.000928 -0.002173 0.000000 -0.004873 0.000000
# 2 -0.000928 0.014446 -0.003868 0.000000 -0.002264 0.000000
# 3 -0.002173 -0.003868 0.013613 0.000000 -0.002271 0.000000
# 4 0.000000 0.000000 0.000000 0.061734 0.000000 0.003974
# 5 -0.004873 -0.002264 -0.002271 0.000000 0.033383 0.000000
# 6 0.000000 0.000000 0.000000 0.003974 0.000000 0.037034
#
#
# Mechanical properties :
#
#
# Convention : Reuss Voigt Hill
#
# Bulk Modulus (GPa) = 42.61511 49.70243 46.15877
# Shear Modulus (GPa) = 26.13546 30.18239 28.15892
#
# Velocity S-wave (km/s) = 3.44875 3.70616 3.57977
# Velocity P-wave (km/s) = 5.93735 6.39789 6.17192
#
# Compressibility (1/GPa) = 0.02346585
#
# Stress axis : x y z
#
# Youngs Moduli (GPa) = 107.03698 69.22276 73.45959
#
# Poissons Ratio (x) = 0.06423 0.15959
# Poissons Ratio (y) = 0.09931 0.28411
# Poissons Ratio (z) = 0.23254 0.26772
#
# Static dielectric constant tensor:
#      x y z
#    x 4.041150 0.000000 0.167680 
#    y 0.000000 3.825580 0.000000 
#    z 0.167680 0.000000 3.912750 
# 
# 
# High freq. dielectric constant tensor:
#      x y z
#    x 1.876050 0.000000 0.010570 
#    y 0.000000 1.860640 0.000000 
#    z 0.010570 0.000000 1.866430 
# 
# From -- ./inp_files/57950.got.cif
#   From: 2010.06.25/outbox.cif.g09.slc.cpg/sg10_29_cif.got.tgz:57950.got - 2010.06.27 22:07:45.
