data_PCOD8065456
_publ_section_title
;
Structure prediction by ZEFSAII (Michael W. Deem and Ramdas Pophale) SiO2 
 PCOD8065456
Probable space group: P 2/M
;
_chemical_formula_sum "Si O2"
_cell_formula_units_Z 22
_cell_length_a 5.100004
_cell_length_b 26.775802
_cell_length_c 8.852611
_cell_angle_alpha 90.000000
_cell_angle_beta 64.038408
_cell_angle_gamma 90.000000
_cell_volume 1086.892130
_symmetry_space_group_name_H-M "P 2/M"
_symmetry_group_IT_number 10
_symmetry_cell_setting 'monoclinic'
loop_
_space_group_symop_operation_xyz
x,y,z
-x,y,-z
-x,-y,-z
x,-y,z
loop_
_atom_site_type_symbol
_atom_site_label
_atom_site_fract_x
_atom_site_fract_y
_atom_site_fract_z
Si Si1 0.861380 0.651227 0.697293
Si Si2 0.664376 0.000000 0.613718
Si Si3 0.839506 0.444790 0.888951
Si Si4 0.341265 0.108438 0.381202
Si Si5 0.356816 0.290778 0.700403
Si Si6 0.664771 0.190587 0.110275
O O1 0.893291 0.594315 0.742227
O O2 0.531522 0.671262 0.766870
O O3 0.000000 0.654147 0.500000
O O4 0.031231 0.687545 0.769538
O O5 0.500000 0.000000 0.500000
O O6 0.596217 0.053300 0.710623
O O7 0.000000 0.000000 0.500000
O O8 0.957539 0.500000 0.811729
O O9 0.500000 0.447835 0.000000
O O10 0.000000 0.426625 0.000000
O O11 0.500000 0.114454 0.500000
O O12 0.473393 0.146320 0.228054
O O13 0.000000 0.118586 0.500000
O O14 0.500000 0.286342 0.500000
O O15 0.337173 0.236342 0.774408
O O16 0.500000 0.206903 0.000000
O O17 0.000000 0.173485 0.000000
#
# Coordination Sequence:
#
# PCOD8065456 Si02
#       6
#     4   2   4   4   4   4
#     4  10  21  37  58  82 106 138 184 231 273 321
#     4   8  16  32  58  86 106 140 196 236 266 328
#     4  10  21  36  55  80 110 143 177 215 268 332
#     4  10  20  38  62  84 112 152 193 233 279 334
#     4  10  22  39  57  78 108 147 187 226 275 333
#     4  12  25  38  55  86 119 148 188 235 285 337
#
# _framework density 20.241201
#
# number of rings (size 3 to 8) (size 9 to 14) (size 15 to 20)
#    0.000    1.818    0.000    3.818    0.000    6.909 
#    0.000    0.909    0.000    6.545    0.000    0.000 
#    0.000    0.000    0.000    0.000    0.000    0.000 
#
# Total GULP energy -272667.405002 kJ/mol
# GULP energy per Si atom -12393.972955 kJ/mol
# Density = 2.019513 g / cm^3
# Si number density = 20.241201 Si / 1000 Ang^3
#
#
#
# Elastic Constant Matrix: (Units=GPa)
#
#
# Indices 1 2 3 4 5 6 
#
# 1 156.4787 42.5754 41.0992 0.0000 10.0522 0.0000
# 2 42.5754 160.7400 46.2070 0.0000 7.4238 0.0000
# 3 41.0992 46.2070 35.9677 0.0000 4.1548 0.0000
# 4 0.0000 0.0000 0.0000 13.2696 0.0000 1.3916
# 5 10.0522 7.4238 4.1548 0.0000 27.0064 0.0000
# 6 0.0000 0.0000 0.0000 1.3916 0.0000 32.5262
#
#
#
# Elastic Compliance Matrix: (Units=1/GPa)
#
#
# Indices 1 2 3 4 5 6 
#
# 1 0.009317 0.000979 -0.011680 0.000000 -0.001940 0.000000
# 2 0.000979 0.009983 -0.013831 0.000000 -0.000981 0.000000
# 3 -0.011680 -0.013831 0.059025 0.000000 -0.000931 0.000000
# 4 0.000000 0.000000 0.000000 0.075700 0.000000 -0.003239
# 5 -0.001940 -0.000981 -0.000931 0.000000 0.038163 0.000000
# 6 0.000000 0.000000 0.000000 -0.003239 0.000000 0.030883
#
#
# Mechanical properties :
#
#
# Convention : Reuss Voigt Hill
#
# Bulk Modulus (GPa) = 34.17430 68.10552 51.13991
# Shear Modulus (GPa) = 17.73758 29.44740 23.59249
#
# Velocity S-wave (km/s) = 2.96347 3.81835 3.41775
# Velocity P-wave (km/s) = 5.35067 7.29108 6.39490
#
# Compressibility (1/GPa) = 0.02926175
#
# Stress axis : x y z
#
# Youngs Moduli (GPa) = 107.33634 100.17056 16.94203
#
# Poissons Ratio (x) = -0.09812 0.19788
# Poissons Ratio (y) = -0.10513 0.23432
# Poissons Ratio (z) = 1.25368 1.38544
#
# Static dielectric constant tensor:
#      x y z
#    x 2.744130 0.000000 0.548190 
#    y 0.000000 4.072330 0.000000 
#    z 0.548190 0.000000 3.213450 
# 
# 
# High freq. dielectric constant tensor:
#      x y z
#    x 1.818980 0.000000 0.011430 
#    y 0.000000 1.807770 0.000000 
#    z 0.011430 0.000000 1.757970 
# 
# From -- ./inp_files/15543.got.cif
#   From: 2010.06.25/outbox.cif.g09.slc.cpg/sg10_8_cif.got.tgz:15543.got - 2010.06.27 22:07:45.
