data_PCOD8065557
_publ_section_title
;
Structure prediction by ZEFSAII (Michael W. Deem and Ramdas Pophale) SiO2 
 PCOD8065557
Probable space group: P 2/M
;
_chemical_formula_sum "Si O2"
_cell_formula_units_Z 32
_cell_length_a 12.268549
_cell_length_b 12.678271
_cell_length_c 10.588102
_cell_angle_alpha 90.000000
_cell_angle_beta 111.609075
_cell_angle_gamma 90.000000
_cell_volume 1531.167373
_symmetry_space_group_name_H-M "P 2/M"
_symmetry_group_IT_number 10
_symmetry_cell_setting 'monoclinic'
loop_
_space_group_symop_operation_xyz
x,y,z
-x,y,-z
-x,-y,-z
x,-y,z
loop_
_atom_site_type_symbol
_atom_site_label
_atom_site_fract_x
_atom_site_fract_y
_atom_site_fract_z
Si Si1 0.301880 0.879893 0.761996
Si Si2 0.586232 0.621694 0.644911
Si Si3 0.489296 0.286116 0.132076
Si Si4 0.843537 0.688659 0.686196
Si Si5 0.900147 0.882363 0.860169
Si Si6 0.758010 0.197033 0.007062
Si Si7 0.096603 0.619896 0.820691
Si Si8 0.869449 0.735489 0.424649
O O1 0.407901 0.797662 0.803809
O O2 0.230002 0.873889 0.862630
O O3 0.210757 0.839444 0.618470
O O4 0.342275 0.000000 0.751436
O O5 0.500000 0.671350 0.500000
O O6 0.601945 0.500000 0.622157
O O7 0.522905 0.636177 0.753643
O O8 0.719266 0.667913 0.702497
O O9 0.500000 0.347124 0.000000
O O10 0.375860 0.217106 0.073046
O O11 0.887619 0.807959 0.733166
O O12 0.825916 0.671061 0.529269
O O13 0.954733 0.618438 0.779243
O O14 0.921796 0.000000 0.818734
O O15 0.785776 0.873749 0.897611
O O16 0.000000 0.844023 0.000000
O O17 0.837217 0.304081 0.050868
O O18 0.140931 0.500000 0.860005
O O19 0.136904 0.657413 0.698102
O O20 0.000000 0.777218 0.500000
#
# Coordination Sequence:
#
# PCOD8065557 Si02
#       8
#     4   4   4   4   4   4   4   4
#     4  10  21  38  62  87 116 155 201 248 297 352
#     4  11  24  41  62  87 119 163 205 248 305 359
#     4  10  22  40  61  86 119 154 200 253 299 357
#     4  11  21  40  61  87 121 157 201 249 288 360
#     4  11  22  37  59  86 121 158 194 241 301 355
#     4  10  20  39  58  89 120 150 194 249 293 352
#     4  10  21  38  63  92 121 156 195 243 301 358
#     4   9  21  38  60  89 125 154 192 247 299 355
#
# _framework density 20.899086
#
# number of rings (size 3 to 8) (size 9 to 14) (size 15 to 20)
#    0.000    1.750    2.500    1.500    0.000    7.000 
#    0.000    8.125    0.000    1.500    0.000    0.000 
#    0.000    0.000    0.000    0.000    0.000    0.000 
#
# Total GULP energy -396481.635183 kJ/mol
# GULP energy per Si atom -12390.051099 kJ/mol
# Density = 2.085152 g / cm^3
# Si number density = 20.899086 Si / 1000 Ang^3
#
#
#
# Elastic Constant Matrix: (Units=GPa)
#
#
# Indices 1 2 3 4 5 6 
#
# 1 86.3601 19.5467 21.7714 0.0000 -0.5436 0.0000
# 2 19.5467 93.3921 19.7080 0.0000 8.3722 0.0000
# 3 21.7714 19.7080 64.4194 0.0000 2.4841 0.0000
# 4 0.0000 0.0000 0.0000 19.3835 0.0000 -2.4862
# 5 -0.5436 8.3722 2.4841 0.0000 35.7174 0.0000
# 6 0.0000 0.0000 0.0000 -2.4862 0.0000 23.2436
#
#
#
# Elastic Compliance Matrix: (Units=1/GPa)
#
#
# Indices 1 2 3 4 5 6 
#
# 1 0.013000 -0.001999 -0.003818 0.000000 0.000932 0.000000
# 2 -0.001999 0.011971 -0.002885 0.000000 -0.002636 0.000000
# 3 -0.003818 -0.002885 0.017720 0.000000 -0.000614 0.000000
# 4 0.000000 0.000000 0.000000 0.052308 0.000000 0.005595
# 5 0.000932 -0.002636 -0.000614 0.000000 0.028672 0.000000
# 6 0.000000 0.000000 0.000000 0.005595 0.000000 0.043621
#
#
# Mechanical properties :
#
#
# Convention : Reuss Voigt Hill
#
# Bulk Modulus (GPa) = 39.54562 40.69154 40.11858
# Shear Modulus (GPa) = 25.88990 27.87859 26.88425
#
# Velocity S-wave (km/s) = 3.52348 3.65631 3.59051
# Velocity P-wave (km/s) = 5.95957 6.11044 6.03548
#
# Compressibility (1/GPa) = 0.02528725
#
# Stress axis : x y z
#
# Youngs Moduli (GPa) = 76.92175 83.53513 56.43346
#
# Poissons Ratio (x) = 0.16697 0.21547
# Poissons Ratio (y) = 0.15375 0.16282
# Poissons Ratio (z) = 0.29369 0.24101
#
# Static dielectric constant tensor:
#      x y z
#    x -15.345950 0.000000 13.996010 
#    y 0.000000 3.431870 0.000000 
#    z 13.996010 0.000000 -6.192260 
# 
# 
# High freq. dielectric constant tensor:
#      x y z
#    x 1.831090 0.000000 0.003020 
#    y 0.000000 1.789390 0.000000 
#    z 0.003020 0.000000 1.820910 
# 
# From -- ./inp_files/47023.got.cif
#   From: 2010.06.25/outbox.cif.g09.slc.cpg/sg10_24_cif.got.tgz:47023.got - 2010.06.27 22:07:45.
