data_PCOD8065686
_publ_section_title
;
Structure prediction by ZEFSAII (Michael W. Deem and Ramdas Pophale) SiO2 
 PCOD8065686
Probable space group: P 2/M
;
_chemical_formula_sum "Si O2"
_cell_formula_units_Z 32
_cell_length_a 15.967686
_cell_length_b 15.012237
_cell_length_c 11.286359
_cell_angle_alpha 90.000000
_cell_angle_beta 145.989031
_cell_angle_gamma 90.000000
_cell_volume 1513.303886
_symmetry_space_group_name_H-M "P 2/M"
_symmetry_group_IT_number 10
_symmetry_cell_setting 'monoclinic'
loop_
_space_group_symop_operation_xyz
x,y,z
-x,y,-z
-x,-y,-z
x,-y,z
loop_
_atom_site_type_symbol
_atom_site_label
_atom_site_fract_x
_atom_site_fract_y
_atom_site_fract_z
Si Si1 0.169039 0.809634 0.205453
Si Si2 0.414313 0.335531 0.514189
Si Si3 0.840154 0.100868 0.556784
Si Si4 0.039036 0.601790 0.680853
Si Si5 0.660442 0.762553 0.202107
Si Si6 0.817000 0.902328 0.015985
Si Si7 0.299236 0.272071 0.013027
Si Si8 0.723424 0.597935 0.425285
O O1 0.298845 0.738313 0.329039
O O2 0.204292 0.853416 0.372285
O O3 0.181091 0.886970 0.122545
O O4 0.000000 0.768211 0.000000
O O5 0.500000 0.378439 0.500000
O O6 0.313235 0.401824 0.476031
O O7 0.540681 0.299468 0.750309
O O8 0.772863 0.161162 0.374592
O O9 0.015575 0.100787 0.738455
O O10 0.776799 0.000000 0.478607
O O11 0.096194 0.500000 0.745321
O O12 0.165424 0.661474 0.894429
O O13 0.000000 0.631876 0.500000
O O14 0.898219 0.613744 0.603219
O O15 0.714157 0.721190 0.143065
O O16 0.636365 0.679038 0.262472
O O17 0.500000 0.809782 0.000000
O O18 0.720993 0.829276 0.970493
O O19 0.747009 0.000000 0.957758
O O20 0.676053 0.500000 0.320498
#
# Coordination Sequence:
#
# PCOD8065686 Si02
#       8
#     4   4   4   4   4   4   4   4
#     4  10  20  40  70  92 122 169 228 281 324 382
#     4  12  25  44  66  96 132 173 224 268 338 396
#     4  10  21  38  64  95 128 169 221 275 328 391
#     4  10  22  41  69 103 131 167 223 272 324 392
#     4  12  23  40  62  95 135 176 218 262 335 402
#     4  10  22  39  63  96 128 172 226 272 323 386
#     4  12  24  39  66  98 136 174 213 276 333 391
#     4  11  24  43  68  96 131 170 218 274 325 391
#
# _framework density 21.145786000000001
#
# number of rings (size 3 to 8) (size 9 to 14) (size 15 to 20)
#    0.000    1.125    5.000    1.125    1.750    3.250 
#    0.000    4.375    0.000    1.875    0.000    0.000 
#    0.000    0.000    0.000    0.000    0.000    0.000 
#
# Total GULP energy -396647.076443 kJ/mol
# GULP energy per Si atom -12395.221139 kJ/mol
# Density = 2.109766 g / cm^3
# Si number density = 21.145786 Si / 1000 Ang^3
#
#
#
# Elastic Constant Matrix: (Units=GPa)
#
#
# Indices 1 2 3 4 5 6 
#
# 1 121.9490 22.1868 24.5214 0.0000 0.9245 0.0000
# 2 22.1868 83.3355 43.5744 0.0000 6.9443 0.0000
# 3 24.5214 43.5744 105.9675 0.0000 4.9985 0.0000
# 4 0.0000 0.0000 0.0000 6.6347 0.0000 -2.6999
# 5 0.9245 6.9443 4.9985 0.0000 27.1893 0.0000
# 6 0.0000 0.0000 0.0000 -2.6999 0.0000 23.7120
#
#
#
# Elastic Compliance Matrix: (Units=1/GPa)
#
#
# Indices 1 2 3 4 5 6 
#
# 1 0.008773 -0.001651 -0.001369 0.000000 0.000375 0.000000
# 2 -0.001651 0.015807 -0.005982 0.000000 -0.002881 0.000000
# 3 -0.001369 -0.005982 0.012245 0.000000 -0.000677 0.000000
# 4 0.000000 0.000000 0.000000 0.158047 0.000000 0.017995
# 5 0.000375 -0.002881 -0.000677 0.000000 0.037627 0.000000
# 6 0.000000 0.000000 0.000000 0.017995 0.000000 0.044222
#
#
# Mechanical properties :
#
#
# Convention : Reuss Voigt Hill
#
# Bulk Modulus (GPa) = 53.13061 54.64633 53.88847
# Shear Modulus (GPa) = 16.61137 26.23849 21.42493
#
# Velocity S-wave (km/s) = 2.80583 3.52637 3.18653
# Velocity P-wave (km/s) = 5.97305 6.51761 6.25126
#
# Compressibility (1/GPa) = 0.01882154
#
# Stress axis : x y z
#
# Youngs Moduli (GPa) = 113.98670 63.26205 81.66356
#
# Poissons Ratio (x) = 0.10446 0.11178
# Poissons Ratio (y) = 0.18821 0.48851
# Poissons Ratio (z) = 0.15603 0.37843
#
# Static dielectric constant tensor:
#      x y z
#    x 3.941980 0.000000 0.020720 
#    y 0.000000 3.841360 0.000000 
#    z 0.020720 0.000000 3.760630 
# 
# 
# High freq. dielectric constant tensor:
#      x y z
#    x 1.839080 0.000000 0.002380 
#    y 0.000000 1.817610 0.000000 
#    z 0.002380 0.000000 1.822640 
# 
# From -- ./inp_files/54036.got.cif
#   From: 2010.06.25/outbox.cif.g09.slc.cpg/sg10_28_cif.got.tgz:54036.got - 2010.06.27 22:07:45.
