data_PCOD8065332
_publ_section_title
;
Structure prediction by ZEFSAII (Michael W. Deem and Ramdas Pophale) SiO2 
 PCOD8065332
Probable space group: P 2/M
;
_chemical_formula_sum "Si O2"
_cell_formula_units_Z 28
_cell_length_a 8.919814
_cell_length_b 8.340641
_cell_length_c 28.603617
_cell_angle_alpha 90.000000
_cell_angle_beta 38.851880
_cell_angle_gamma 90.000000
_cell_volume 1334.928044
_symmetry_space_group_name_H-M "P 2/M"
_symmetry_group_IT_number 10
_symmetry_cell_setting 'monoclinic'
loop_
_space_group_symop_operation_xyz
x,y,z
-x,y,-z
-x,-y,-z
x,-y,z
loop_
_atom_site_type_symbol
_atom_site_label
_atom_site_fract_x
_atom_site_fract_y
_atom_site_fract_z
Si Si1 0.945261 0.812247 0.281634
Si Si2 0.203439 0.812952 0.853788
Si Si3 0.909286 0.813315 0.570735
Si Si4 0.765964 0.809053 0.425202
Si Si5 0.600820 0.683058 0.288355
Si Si6 0.662963 0.184717 0.004918
Si Si7 0.529420 0.314078 0.855179
O O1 0.849163 0.746007 0.354468
O O2 0.813245 0.720579 0.272292
O O3 0.224336 0.779509 0.210305
O O4 0.895158 0.000000 0.288163
O O5 0.311424 0.713227 0.785176
O O6 0.339836 0.769117 0.867634
O O7 0.230304 0.000000 0.835763
O O8 0.929472 0.763457 0.926896
O O9 0.627865 0.790639 0.644752
O O10 0.000000 0.734981 0.500000
O O11 0.055541 0.737444 0.578752
O O12 0.968530 0.000000 0.555252
O O13 0.500000 0.745124 0.500000
O O14 0.773795 0.000000 0.423574
O O15 0.522664 0.500000 0.312301
O O16 0.567443 0.297807 0.068944
O O17 0.653580 0.000000 0.023746
O O18 0.500000 0.214915 0.000000
O O19 0.563444 0.500000 0.834416
#
# Coordination Sequence:
#
# PCOD8065332 Si02
#       7
#     4   4   4   4   4   4   4
#     4  11  22  39  63  87 118 161 207 251 300 365
#     4  11  23  41  65  90 120 161 208 251 297 362
#     4  10  20  37  63  91 120 159 207 253 301 364
#     4   9  18  34  59  90 117 147 196 253 299 345
#     4  12  25  40  60  89 125 159 199 255 316 367
#     4  10  22  41  65  91 119 157 207 256 301 357
#     4  12  25  40  61  91 127 161 198 250 310 364
#
# _framework density 20.974913999999998
#
# number of rings (size 3 to 8) (size 9 to 14) (size 15 to 20)
#    0.000    1.286    0.000    6.429    0.000    8.000 
#    0.000    0.714    0.000    3.000    0.000    0.000 
#    0.000    0.000    0.000    0.000    0.000    0.000 
#
# Total GULP energy -347383.072153 kJ/mol
# GULP energy per Si atom -12406.538291 kJ/mol
# Density = 2.092717 g / cm^3
# Si number density = 20.974914 Si / 1000 Ang^3
#
#
#
# Elastic Constant Matrix: (Units=GPa)
#
#
# Indices 1 2 3 4 5 6 
#
# 1 127.8281 8.5166 53.4431 0.0000 -9.0011 0.0000
# 2 8.5166 36.8961 11.2943 0.0000 3.5475 0.0000
# 3 53.4431 11.2943 141.7580 0.0000 1.3161 0.0000
# 4 0.0000 0.0000 0.0000 9.2290 0.0000 4.7203
# 5 -9.0011 3.5475 1.3161 0.0000 37.7122 0.0000
# 6 0.0000 0.0000 0.0000 4.7203 0.0000 4.6608
#
#
#
# Elastic Compliance Matrix: (Units=1/GPa)
#
#
# Indices 1 2 3 4 5 6 
#
# 1 0.009565 -0.001374 -0.003520 0.000000 0.002535 0.000000
# 2 -0.001374 0.028223 -0.001703 0.000000 -0.002923 0.000000
# 3 -0.003520 -0.001703 0.008526 0.000000 -0.000977 0.000000
# 4 0.000000 0.000000 0.000000 0.224794 0.000000 -0.227661
# 5 0.002535 -0.002923 -0.000977 0.000000 0.027431 0.000000
# 6 0.000000 0.000000 0.000000 -0.227661 0.000000 0.445121
#
#
# Mechanical properties :
#
#
# Convention : Reuss Voigt Hill
#
# Bulk Modulus (GPa) = 30.19437 50.33224 40.26330
# Shear Modulus (GPa) = 6.51132 25.86893 16.19013
#
# Velocity S-wave (km/s) = 1.76382 3.51569 2.78129
# Velocity P-wave (km/s) = 4.30985 6.36620 5.43615
#
# Compressibility (1/GPa) = 0.03311876
#
# Stress axis : x y z
#
# Youngs Moduli (GPa) = 104.55097 35.43228 117.28673
#
# Poissons Ratio (x) = 0.04869 0.41285
# Poissons Ratio (y) = 0.14366 0.19979
# Poissons Ratio (z) = 0.36802 0.06036
#
# Static dielectric constant tensor:
#      x y z
#    x 3.895930 0.000000 -0.080660 
#    y 0.000000 3.541780 0.000000 
#    z -0.080660 0.000000 3.653210 
# 
# 
# High freq. dielectric constant tensor:
#      x y z
#    x 1.842130 0.000000 0.001010 
#    y 0.000000 1.799930 0.000000 
#    z 0.001010 0.000000 1.837080 
# 
# From -- ./inp_files/91953.got.cif
#   From: 2010.06.25/outbox.cif.g09.slc.cpg/sg10_46_cif.got.tgz:91953.got - 2010.06.27 22:07:45.
