data_PCOD8065802
_publ_section_title
;
Structure prediction by ZEFSAII (Michael W. Deem and Ramdas Pophale) SiO2 
 PCOD8065802
Probable space group: P 2/M
;
_chemical_formula_sum "Si O2"
_cell_formula_units_Z 24
_cell_length_a 10.123078
_cell_length_b 8.828290
_cell_length_c 21.507778
_cell_angle_alpha 90.000000
_cell_angle_beta 44.877095
_cell_angle_gamma 90.000000
_cell_volume 1356.238649
_symmetry_space_group_name_H-M "P 2/M"
_symmetry_group_IT_number 10
_symmetry_cell_setting 'monoclinic'
loop_
_space_group_symop_operation_xyz
x,y,z
-x,y,-z
-x,-y,-z
x,-y,z
loop_
_atom_site_type_symbol
_atom_site_label
_atom_site_fract_x
_atom_site_fract_y
_atom_site_fract_z
Si Si1 0.483039 0.320132 0.243097
Si Si2 0.795845 0.680524 0.902681
Si Si3 0.502950 0.679970 0.900920
Si Si4 0.783255 0.177881 0.571275
Si Si5 0.485078 0.679509 0.434380
Si Si6 0.210894 0.321490 0.763374
O O1 0.456822 0.500000 0.253140
O O2 0.491382 0.253700 0.170551
O O3 0.307406 0.248233 0.336766
O O4 0.675771 0.272214 0.212875
O O5 0.804135 0.500000 0.900759
O O6 0.686796 0.734989 0.877114
O O7 0.004050 0.752853 0.833058
O O8 0.683522 0.737617 0.001191
O O9 0.498875 0.500000 0.899355
O O10 0.694139 0.245629 0.538265
O O11 0.000000 0.221677 0.500000
O O12 0.749703 0.000000 0.582878
O O13 0.500000 0.736866 0.500000
O O14 0.458253 0.500000 0.439465
O O15 0.674218 0.731361 0.335804
O O16 0.186906 0.500000 0.769850
#
# Coordination Sequence:
#
# PCOD8065802 Si02
#       6
#     4   4   4   4   4   4
#     4   9  17  29  45  66  89 114 149 190 231 271
#     4   8  13  22  36  59  92 120 143 178 224 271
#     4   8  14  23  37  61  91 119 145 178 223 271
#     4  10  21  35  49  67  93 125 159 192 230 279
#     4   9  18  32  50  73  97 121 154 195 237 278
#     4   8  14  24  38  59  88 117 144 178 220 266
#
# _framework density 17.696000000000002
#
# number of rings (size 3 to 8) (size 9 to 14) (size 15 to 20)
#    0.000    3.333    0.000    2.500    0.000    3.667 
#    0.000    6.667    0.000    0.000    0.000   11.667 
#    0.000    0.000    0.000    0.000    0.000    0.000 
#
# Total GULP energy -297470.145382 kJ/mol
# GULP energy per Si atom -12394.589391 kJ/mol
# Density = 1.765572 g / cm^3
# Si number density = 17.696000 Si / 1000 Ang^3
#
#
#
# Elastic Constant Matrix: (Units=GPa)
#
#
# Indices 1 2 3 4 5 6 
#
# 1 160.2970 25.9863 129.2722 0.0000 4.2309 0.0000
# 2 25.9863 20.0241 26.8331 0.0000 -2.4982 0.0000
# 3 129.2722 26.8331 153.6829 0.0000 3.9964 0.0000
# 4 0.0000 0.0000 0.0000 6.5911 0.0000 -3.1372
# 5 4.2309 -2.4982 3.9964 0.0000 45.2137 0.0000
# 6 0.0000 0.0000 0.0000 -3.1372 0.0000 11.3568
#
#
#
# Elastic Compliance Matrix: (Units=1/GPa)
#
#
# Indices 1 2 3 4 5 6 
#
# 1 0.019708 -0.004534 -0.015768 0.000000 -0.000701 0.000000
# 2 -0.004534 0.067213 -0.008048 0.000000 0.004849 0.000000
# 3 -0.015768 -0.008048 0.021197 0.000000 -0.000843 0.000000
# 4 0.000000 0.000000 0.000000 0.174687 0.000000 0.048255
# 5 -0.000701 0.004849 -0.000843 0.000000 0.022525 0.000000
# 6 0.000000 0.000000 0.000000 0.048255 0.000000 0.101382
#
#
# Mechanical properties :
#
#
# Convention : Reuss Voigt Hill
#
# Bulk Modulus (GPa) = 19.44791 77.57635 48.51213
# Shear Modulus (GPa) = 10.40472 22.75983 16.58227
#
# Velocity S-wave (km/s) = 2.42744 3.59019 3.06447
# Velocity P-wave (km/s) = 4.34402 7.81790 6.32416
#
# Compressibility (1/GPa) = 0.05141941
#
# Stress axis : x y z
#
# Youngs Moduli (GPa) = 50.74146 14.87803 47.17649
#
# Poissons Ratio (x) = 0.06746 0.74386
# Poissons Ratio (y) = 0.23006 0.37966
# Poissons Ratio (z) = 0.80007 0.11973
#
# Static dielectric constant tensor:
#      x y z
#    x 3.558540 0.000000 0.005430 
#    y 0.000000 2.733820 0.000000 
#    z 0.005430 0.000000 3.588840 
# 
# 
# High freq. dielectric constant tensor:
#      x y z
#    x 1.690780 0.000000 0.000350 
#    y 0.000000 1.627900 0.000000 
#    z 0.000350 0.000000 1.690980 
# 
# From -- ./inp_files/48875.got.cif
#   From: 2010.06.25/outbox.cif.g09.slc.cpg/sg10_25_cif.got.tgz:48875.got - 2010.06.27 22:07:45.
