data_PCOD8065798
_publ_section_title
;
Structure prediction by ZEFSAII (Michael W. Deem and Ramdas Pophale) SiO2 
 PCOD8065798
Probable space group: P 2/M
;
_chemical_formula_sum "Si O2"
_cell_formula_units_Z 22
_cell_length_a 12.924037
_cell_length_b 19.079188
_cell_length_c 5.044559
_cell_angle_alpha 90.000000
_cell_angle_beta 102.376689
_cell_angle_gamma 90.000000
_cell_volume 1214.979522
_symmetry_space_group_name_H-M "P 2/M"
_symmetry_group_IT_number 10
_symmetry_cell_setting 'monoclinic'
loop_
_space_group_symop_operation_xyz
x,y,z
-x,y,-z
-x,-y,-z
x,-y,z
loop_
_atom_site_type_symbol
_atom_site_label
_atom_site_fract_x
_atom_site_fract_y
_atom_site_fract_z
Si Si1 0.205092 0.207473 0.006770
Si Si2 0.928305 0.921636 0.216354
Si Si3 0.427204 0.000000 0.210694
Si Si4 0.072432 0.575721 0.287916
Si Si5 0.574861 0.151665 0.790349
Si Si6 0.879158 0.279729 0.530645
O O1 0.328963 0.206410 0.151440
O O2 0.138266 0.227872 0.230756
O O3 0.167412 0.132314 0.874682
O O4 0.194255 0.262794 0.761220
O O5 0.000000 0.895535 0.500000
O O6 0.882051 0.000000 0.248279
O O7 0.000000 0.923845 0.000000
O O8 0.500000 0.000000 0.500000
O O9 0.366126 0.074523 0.183573
O O10 0.500000 0.000000 0.000000
O O11 0.130737 0.500000 0.268077
O O12 0.150557 0.641257 0.386418
O O13 0.000000 0.565563 0.500000
O O14 0.000000 0.596641 0.000000
O O15 0.500000 0.165853 0.500000
O O16 0.500000 0.160810 0.000000
O O17 0.000000 0.273773 0.500000
#
# Coordination Sequence:
#
# PCOD8065798 Si02
#       6
#     4   4   2   4   4   4
#     4  12  22  33  55  74 101 138 173 210 261 309
#     4  10  21  35  48  67  97 132 171 207 239 289
#     4   8  16  32  52  68  87 116 155 212 272 310
#     4   9  17  30  49  73 105 142 170 199 242 292
#     4  10  21  37  53  74  98 125 168 224 271 316
#     4  11  21  34  51  79 109 139 171 204 242 304
#
# _framework density 18.107301
#
# number of rings (size 3 to 8) (size 9 to 14) (size 15 to 20)
#    0.000    1.818    0.000    6.545    1.273    0.000 
#    0.000    0.000    0.000    0.000    0.000    0.000 
#    0.000   14.545    0.000    0.000    0.000    0.000 
#
# Total GULP energy -272585.418574 kJ/mol
# GULP energy per Si atom -12390.246299 kJ/mol
# Density = 1.806609 g / cm^3
# Si number density = 18.107301 Si / 1000 Ang^3
#
#
#
# Elastic Constant Matrix: (Units=GPa)
#
#
# Indices 1 2 3 4 5 6 
#
# 1 57.6149 44.8487 42.0970 0.0000 8.5545 0.0000
# 2 44.8487 111.7541 49.1164 0.0000 14.3468 0.0000
# 3 42.0970 49.1164 149.3290 0.0000 -2.6001 0.0000
# 4 0.0000 0.0000 0.0000 31.4878 0.0000 -0.1061
# 5 8.5545 14.3468 -2.6001 0.0000 28.6166 0.0000
# 6 0.0000 0.0000 0.0000 -0.1061 0.0000 9.2211
#
#
#
# Elastic Compliance Matrix: (Units=1/GPa)
#
#
# Indices 1 2 3 4 5 6 
#
# 1 0.028598 -0.008517 -0.005344 0.000000 -0.004765 0.000000
# 2 -0.008517 0.013963 -0.002273 0.000000 -0.004661 0.000000
# 3 -0.005344 -0.002273 0.009013 0.000000 0.003556 0.000000
# 4 0.000000 0.000000 0.000000 0.031760 0.000000 0.000365
# 5 -0.004765 -0.004661 0.003556 0.000000 0.039029 0.000000
# 6 0.000000 0.000000 0.000000 0.000365 0.000000 0.108451
#
#
# Mechanical properties :
#
#
# Convention : Reuss Voigt Hill
#
# Bulk Modulus (GPa) = 51.79369 65.64693 58.72031
# Shear Modulus (GPa) = 18.55173 26.04082 22.29627
#
# Velocity S-wave (km/s) = 3.20432 3.79639 3.51285
# Velocity P-wave (km/s) = 6.50816 7.45318 6.99664
#
# Compressibility (1/GPa) = 0.01930737
#
# Stress axis : x y z
#
# Youngs Moduli (GPa) = 34.96747 71.61551 110.95551
#
# Poissons Ratio (x) = 0.60992 0.59292
# Poissons Ratio (y) = 0.29780 0.25221
# Poissons Ratio (z) = 0.18686 0.16279
#
# Static dielectric constant tensor:
#      x y z
#    x 2.827590 0.000000 -0.122900 
#    y 0.000000 4.051940 0.000000 
#    z -0.122900 0.000000 3.503990 
# 
# 
# High freq. dielectric constant tensor:
#      x y z
#    x 1.643780 0.000000 -0.020180 
#    y 0.000000 1.701760 0.000000 
#    z -0.020180 0.000000 1.731070 
# 
# From -- ./inp_files/7288.got.cif
#   From: 2010.06.25/outbox.cif.g09.slc.cpg/sg10_4_cif.got.tgz:7288.got - 2010.06.27 22:07:45.
