data_PCOD8065058
_publ_section_title
;
Structure prediction by ZEFSAII (Michael W. Deem and Ramdas Pophale) SiO2 
 PCOD8065058
Probable space group: P 2/M
;
_chemical_formula_sum "Si O2"
_cell_formula_units_Z 32
_cell_length_a 22.196804
_cell_length_b 8.795572
_cell_length_c 27.846558
_cell_angle_alpha 90.000000
_cell_angle_beta 161.849291
_cell_angle_gamma 90.000000
_cell_volume 1693.591156
_symmetry_space_group_name_H-M "P 2/M"
_symmetry_group_IT_number 10
_symmetry_cell_setting 'monoclinic'
loop_
_space_group_symop_operation_xyz
x,y,z
-x,y,-z
-x,-y,-z
x,-y,z
loop_
_atom_site_type_symbol
_atom_site_label
_atom_site_fract_x
_atom_site_fract_y
_atom_site_fract_z
Si Si1 0.290675 0.822574 0.459147
Si Si2 0.036409 0.318878 0.456493
Si Si3 0.075241 0.177997 0.878665
Si Si4 0.950338 0.676736 0.039453
Si Si5 0.308152 0.675942 0.245947
Si Si6 0.307302 0.321629 0.973937
Si Si7 0.936118 0.322530 0.631977
Si Si8 0.712379 0.819525 0.273418
O O1 0.132606 0.771780 0.299950
O O2 0.498654 0.769647 0.598427
O O3 0.239535 0.753900 0.472361
O O4 0.293697 0.000000 0.467840
O O5 0.019528 0.500000 0.448962
O O6 0.068835 0.266855 0.426486
O O7 0.217212 0.257629 0.623831
O O8 0.839359 0.242309 0.325546
O O9 0.084881 0.218468 0.941611
O O10 0.243234 0.269757 0.978502
O O11 0.112589 0.000000 0.899775
O O12 0.945983 0.500000 0.050769
O O13 0.156548 0.719444 0.172578
O O14 0.781609 0.714354 0.873881
O O15 0.361038 0.500000 0.288904
O O16 0.353740 0.500000 0.009363
O O17 0.141385 0.277218 0.810383
O O18 0.493191 0.228216 0.097796
O O19 0.900904 0.500000 0.608944
O O20 0.733499 0.000000 0.293120
#
# Coordination Sequence:
#
# PCOD8065058 Si02
#       8
#     4   4   4   4   4   4   4   4
#     4  10  21  35  53  78 109 140 172 212 263 315
#     4  10  20  37  58  80 106 139 178 220 262 308
#     4  10  21  36  53  78 109 139 172 215 262 313
#     4   9  19  36  56  78 103 137 177 219 261 307
#     4   9  19  36  56  77 104 136 177 220 259 307
#     4  10  20  37  58  79 104 138 178 219 260 309
#     4   9  20  37  58  80 103 135 178 221 261 307
#     4  11  22  36  54  80 111 142 175 214 261 314
#
# _framework density 18.894760999999999
#
# number of rings (size 3 to 8) (size 9 to 14) (size 15 to 20)
#    0.000    2.250    0.000    4.125    0.000    6.000 
#    0.000    7.500    0.000    0.000    0.000    0.000 
#    0.000    0.000    0.000    0.000    0.000    0.000 
#
# Total GULP energy -396905.555143 kJ/mol
# GULP energy per Si atom -12403.298598 kJ/mol
# Density = 1.885176 g / cm^3
# Si number density = 18.894761 Si / 1000 Ang^3
#
#
#
# Elastic Constant Matrix: (Units=GPa)
#
#
# Indices 1 2 3 4 5 6 
#
# 1 48.8893 12.6607 -16.9787 0.0000 -10.4666 0.0000
# 2 12.6607 57.6868 10.6458 0.0000 1.2514 0.0000
# 3 -16.9787 10.6458 41.6245 0.0000 14.3150 0.0000
# 4 0.0000 0.0000 0.0000 32.1248 0.0000 1.8368
# 5 -10.4666 1.2514 14.3150 0.0000 22.8265 0.0000
# 6 0.0000 0.0000 0.0000 1.8368 0.0000 11.5005
#
#
#
# Elastic Compliance Matrix: (Units=1/GPa)
#
#
# Indices 1 2 3 4 5 6 
#
# 1 0.027889 -0.008361 0.011422 0.000000 0.006083 0.000000
# 2 -0.008361 0.020808 -0.008952 0.000000 0.000640 0.000000
# 3 0.011422 -0.008952 0.036978 0.000000 -0.017462 0.000000
# 4 0.000000 0.000000 0.000000 0.031415 0.000000 -0.005017
# 5 0.006083 0.000640 -0.017462 0.000000 0.057514 0.000000
# 6 0.000000 0.000000 0.000000 -0.005017 0.000000 0.087754
#
#
# Mechanical properties :
#
#
# Convention : Reuss Voigt Hill
#
# Bulk Modulus (GPa) = 13.53302 17.87293 15.70297
# Shear Modulus (GPa) = 16.73522 22.74853 19.74187
#
# Velocity S-wave (km/s) = 2.97931 3.47358 3.23589
# Velocity P-wave (km/s) = 4.36038 5.05642 4.72124
#
# Compressibility (1/GPa) = 0.07389335
#
# Stress axis : x y z
#
# Youngs Moduli (GPa) = 35.85705 48.05811 27.04292
#
# Poissons Ratio (x) = 0.40180 -0.30889
# Poissons Ratio (y) = 0.29979 0.24209
# Poissons Ratio (z) = -0.40956 0.43023
#
# Static dielectric constant tensor:
#      x y z
#    x 3.472970 0.000000 0.024740 
#    y 0.000000 3.420130 0.000000 
#    z 0.024740 0.000000 3.502550 
# 
# 
# High freq. dielectric constant tensor:
#      x y z
#    x 1.735060 0.000000 0.004430 
#    y 0.000000 1.738150 0.000000 
#    z 0.004430 0.000000 1.733500 
# 
# From -- ./inp_files/93702.got.cif
#   From: 2010.06.25/outbox.cif.g09.slc.cpg/sg10_47_cif.got.tgz:93702.got - 2010.06.27 22:07:45.
