data_PCOD8065804
_publ_section_title
;
Structure prediction by ZEFSAII (Michael W. Deem and Ramdas Pophale) SiO2 
 PCOD8065804
Probable space group: P 2/M
;
_chemical_formula_sum "Si O2"
_cell_formula_units_Z 32
_cell_length_a 25.097545
_cell_length_b 9.205916
_cell_length_c 15.587504
_cell_angle_alpha 90.000000
_cell_angle_beta 30.347063
_cell_angle_gamma 90.000000
_cell_volume 1819.573799
_symmetry_space_group_name_H-M "P 2/M"
_symmetry_group_IT_number 10
_symmetry_cell_setting 'monoclinic'
loop_
_space_group_symop_operation_xyz
x,y,z
-x,y,-z
-x,-y,-z
x,-y,z
loop_
_atom_site_type_symbol
_atom_site_label
_atom_site_fract_x
_atom_site_fract_y
_atom_site_fract_z
Si Si1 0.468784 0.333672 0.277639
Si Si2 0.702079 0.333193 0.888491
Si Si3 0.069578 0.330360 0.823266
Si Si4 0.269329 0.168753 0.491391
Si Si5 0.226666 0.672227 0.026084
Si Si6 0.191767 0.168928 0.410290
Si Si7 0.553317 0.327602 0.341241
Si Si8 0.007421 0.670483 0.257065
O O1 0.430265 0.500000 0.324797
O O2 0.383684 0.229683 0.353704
O O3 0.482835 0.286535 0.357039
O O4 0.577968 0.313644 0.075817
O O5 0.728211 0.500000 0.829192
O O6 0.766745 0.283499 0.883118
O O7 0.734229 0.230055 0.766561
O O8 0.095271 0.500000 0.794766
O O9 0.180268 0.246681 0.672222
O O10 0.005800 0.293824 0.825083
O O11 0.000000 0.276852 0.000000
O O12 0.250204 0.199907 0.418187
O O13 0.265318 0.000000 0.519117
O O14 0.230590 0.500000 0.014010
O O15 0.120470 0.732441 0.130217
O O16 0.328207 0.735860 0.834270
O O17 0.079606 0.249237 0.564906
O O18 0.171606 0.000000 0.422912
O O19 0.500000 0.258868 0.500000
O O20 0.560475 0.500000 0.339142
O O21 0.996929 0.500000 0.289823
#
# Coordination Sequence:
#
# PCOD8065804 Si02
#       8
#     4   4   4   4   4   4   4   4
#     4   9  18  32  51  75 100 126 160 201 239 281
#     4   9  18  33  51  71  96 125 158 197 242 289
#     4   9  18  32  51  76 101 125 160 203 240 278
#     4  10  21  35  50  69  97 132 164 197 240 289
#     4   8  15  28  46  70  97 125 158 192 233 287
#     4  10  21  35  49  68  95 126 162 201 241 287
#     4   8  14  26  47  75 103 127 153 192 239 282
#     4   9  17  31  51  72  97 128 159 195 238 284
#
# _framework density 17.586535999999999
#
# number of rings (size 3 to 8) (size 9 to 14) (size 15 to 20)
#    0.000    3.000    0.000    2.250    0.000    4.250 
#    0.000    9.375    0.000    1.125    0.000    0.000 
#    0.000    0.000    0.000    0.000    0.000    0.000 
#
# Total GULP energy -396777.055252 kJ/mol
# GULP energy per Si atom -12399.282977 kJ/mol
# Density = 1.754651 g / cm^3
# Si number density = 17.586536 Si / 1000 Ang^3
#
#
#
# Elastic Constant Matrix: (Units=GPa)
#
#
# Indices 1 2 3 4 5 6 
#
# 1 90.7750 40.2658 70.2699 0.0000 -10.5469 0.0000
# 2 40.2658 50.5204 46.3769 0.0000 -1.1827 0.0000
# 3 70.2699 46.3769 116.2639 0.0000 6.5029 0.0000
# 4 0.0000 0.0000 0.0000 8.5679 0.0000 2.4551
# 5 -10.5469 -1.1827 6.5029 0.0000 34.5836 0.0000
# 6 0.0000 0.0000 0.0000 2.4551 0.0000 14.8959
#
#
#
# Elastic Compliance Matrix: (Units=1/GPa)
#
#
# Indices 1 2 3 4 5 6 
#
# 1 0.025908 -0.008720 -0.012739 0.000000 0.009998 0.000000
# 2 -0.008720 0.034577 -0.008529 0.000000 0.000127 0.000000
# 3 -0.012739 -0.008529 0.020148 0.000000 -0.007965 0.000000
# 4 0.000000 0.000000 0.000000 0.122500 0.000000 -0.020191
# 5 0.009998 0.000127 -0.007965 0.000000 0.033467 0.000000
# 6 0.000000 0.000000 0.000000 -0.020191 0.000000 0.070461
#
#
# Mechanical properties :
#
#
# Convention : Reuss Voigt Hill
#
# Bulk Modulus (GPa) = 48.41315 63.48718 55.95016
# Shear Modulus (GPa) = 13.37174 18.31925 15.84549
#
# Velocity S-wave (km/s) = 2.76042 3.23098 3.00493
# Velocity P-wave (km/s) = 6.14395 7.07794 6.62742
#
# Compressibility (1/GPa) = 0.02065554
#
# Stress axis : x y z
#
# Youngs Moduli (GPa) = 38.59833 28.92118 49.63162
#
# Poissons Ratio (x) = 0.25221 0.63228
# Poissons Ratio (y) = 0.33660 0.42330
# Poissons Ratio (z) = 0.49172 0.24666
#
# Static dielectric constant tensor:
#      x y z
#    x 3.340970 0.000000 -0.024410 
#    y 0.000000 2.988530 0.000000 
#    z -0.024410 0.000000 3.476830 
# 
# 
# High freq. dielectric constant tensor:
#      x y z
#    x 1.680760 0.000000 -0.000990 
#    y 0.000000 1.649630 0.000000 
#    z -0.000990 0.000000 1.686250 
# 
# From -- ./inp_files/71503.got.cif
#   From: 2010.06.25/outbox.cif.g09.slc.cpg/sg10_36_cif.got.tgz:71503.got - 2010.06.27 22:07:45.
