data_PCOD8065949
_publ_section_title
;
Structure prediction by ZEFSAII (Michael W. Deem and Ramdas Pophale) SiO2 
 PCOD8065949
Probable space group: P 2/M
;
_chemical_formula_sum "Si O2"
_cell_formula_units_Z 24
_cell_length_a 19.519105
_cell_length_b 8.765623
_cell_length_c 10.332600
_cell_angle_alpha 90.000000
_cell_angle_beta 49.034064
_cell_angle_gamma 90.000000
_cell_volume 1334.923825
_symmetry_space_group_name_H-M "P 2/M"
_symmetry_group_IT_number 10
_symmetry_cell_setting 'monoclinic'
loop_
_space_group_symop_operation_xyz
x,y,z
-x,y,-z
-x,-y,-z
x,-y,z
loop_
_atom_site_type_symbol
_atom_site_label
_atom_site_fract_x
_atom_site_fract_y
_atom_site_fract_z
Si Si1 0.763151 0.674937 0.276864
Si Si2 0.760314 0.324668 0.577590
Si Si3 0.431129 0.820556 0.197148
Si Si4 0.048152 0.681942 0.568427
Si Si5 0.054821 0.682663 0.054793
Si Si6 0.564680 0.682130 0.534233
O O1 0.753137 0.500000 0.251147
O O2 0.792359 0.692698 0.389898
O O3 0.664475 0.749976 0.376620
O O4 0.841667 0.745919 0.088420
O O5 0.736705 0.500000 0.638193
O O6 0.670517 0.227721 0.718351
O O7 0.846179 0.265984 0.556241
O O8 0.464784 0.744143 0.289115
O O9 0.433419 0.000000 0.213832
O O10 0.500000 0.767297 0.000000
O O11 0.045524 0.500000 0.575763
O O12 0.000000 0.746813 0.500000
O O13 0.990168 0.748690 0.759768
O O14 0.054740 0.500000 0.054994
O O15 0.000000 0.744881 0.000000
O O16 0.500000 0.741362 0.500000
O O17 0.564765 0.500000 0.544115
#
# Coordination Sequence:
#
# PCOD8065949 Si02
#       6
#     4   4   4   4   4   4
#     4   8  13  23  41  64  90 123 156 184 226 285
#     4   9  16  29  49  70  95 125 159 202 250 293
#     4  10  21  36  53  72  95 131 177 212 244 297
#     4   9  16  25  38  65 100 125 150 192 244 291
#     4   9  13  20  37  59  87 123 154 179 218 281
#     4   9  18  33  52  77 106 127 155 205 259 304
#
# _framework density 17.978553999999999
#
# number of rings (size 3 to 8) (size 9 to 14) (size 15 to 20)
#    0.000    3.000    1.667    1.500    0.000    1.667 
#    3.000    0.000    0.000    0.500    0.000    9.333 
#    0.000    0.000    0.000    0.000    0.000    0.000 
#
# Total GULP energy -297405.203539 kJ/mol
# GULP energy per Si atom -12391.883481 kJ/mol
# Density = 1.793763 g / cm^3
# Si number density = 17.978554 Si / 1000 Ang^3
#
#
#
# Elastic Constant Matrix: (Units=GPa)
#
#
# Indices 1 2 3 4 5 6 
#
# 1 160.1976 18.2371 78.0894 0.0000 4.7702 0.0000
# 2 18.2371 19.5116 20.6143 0.0000 -0.9115 0.0000
# 3 78.0894 20.6143 144.4580 0.0000 -6.3867 0.0000
# 4 0.0000 0.0000 0.0000 13.0647 0.0000 0.2143
# 5 4.7702 -0.9115 -6.3867 0.0000 26.1700 0.0000
# 6 0.0000 0.0000 0.0000 0.2143 0.0000 7.6732
#
#
#
# Elastic Compliance Matrix: (Units=1/GPa)
#
#
# Indices 1 2 3 4 5 6 
#
# 1 0.008902 -0.003811 -0.004393 0.000000 -0.002827 0.000000
# 2 -0.003811 0.061982 -0.006731 0.000000 0.001211 0.000000
# 3 -0.004393 -0.006731 0.010395 0.000000 0.003103 0.000000
# 4 0.000000 0.000000 0.000000 0.076577 0.000000 -0.002138
# 5 -0.002827 0.001211 0.003103 0.000000 0.039527 0.000000
# 6 0.000000 0.000000 0.000000 -0.002138 0.000000 0.130383
#
#
# Mechanical properties :
#
#
# Convention : Reuss Voigt Hill
#
# Bulk Modulus (GPa) = 19.45228 62.00541 40.72885
# Shear Modulus (GPa) = 13.34141 23.19668 18.26904
#
# Velocity S-wave (km/s) = 2.72706 3.59589 3.19118
# Velocity P-wave (km/s) = 4.55620 7.19750 6.02341
#
# Compressibility (1/GPa) = 0.05140786
#
# Stress axis : x y z
#
# Youngs Moduli (GPa) = 112.33641 16.13374 96.19977
#
# Poissons Ratio (x) = 0.06148 0.42263
# Poissons Ratio (y) = 0.42810 0.64755
# Poissons Ratio (z) = 0.49352 0.10860
#
# Static dielectric constant tensor:
#      x y z
#    x 3.570360 0.000000 -0.175690 
#    y 0.000000 2.737310 0.000000 
#    z -0.175690 0.000000 3.482280 
# 
# 
# High freq. dielectric constant tensor:
#      x y z
#    x 1.700400 0.000000 -0.015340 
#    y 0.000000 1.634930 0.000000 
#    z -0.015340 0.000000 1.695250 
# 
# From -- ./inp_files/33777.got.cif
#   From: 2010.06.25/outbox.cif.g09.slc.cpg/sg10_17_cif.got.tgz:33777.got - 2010.06.27 22:07:45.
