data_PCOD8065468
_publ_section_title
;
Structure prediction by ZEFSAII (Michael W. Deem and Ramdas Pophale) SiO2 
 PCOD8065468
Probable space group: P 2/M
;
_chemical_formula_sum "Si O2"
_cell_formula_units_Z 32
_cell_length_a 14.304905
_cell_length_b 8.948874
_cell_length_c 12.446165
_cell_angle_alpha 90.000000
_cell_angle_beta 88.326511
_cell_angle_gamma 90.000000
_cell_volume 1592.588776
_symmetry_space_group_name_H-M "P 2/M"
_symmetry_group_IT_number 10
_symmetry_cell_setting 'monoclinic'
loop_
_space_group_symop_operation_xyz
x,y,z
-x,y,-z
-x,-y,-z
x,-y,z
loop_
_atom_site_type_symbol
_atom_site_label
_atom_site_fract_x
_atom_site_fract_y
_atom_site_fract_z
Si Si1 0.971779 0.173761 0.885773
Si Si2 0.471315 0.331758 0.885931
Si Si3 0.731275 0.668300 0.037794
Si Si4 0.518798 0.828880 0.324407
Si Si5 0.313114 0.172293 0.395652
Si Si6 0.707368 0.676285 0.388959
Si Si7 0.836481 0.172909 0.211604
Si Si8 0.767944 0.177515 0.828748
O O1 0.051674 0.199747 0.792302
O O2 0.874486 0.236272 0.841409
O O3 0.956830 0.000000 0.907780
O O4 0.000000 0.248384 0.000000
O O5 0.511936 0.500000 0.869415
O O6 0.359225 0.334858 0.882921
O O7 0.510687 0.221888 0.794124
O O8 0.500000 0.266218 0.000000
O O9 0.769926 0.500000 0.022359
O O10 0.805658 0.773421 0.094379
O O11 0.707007 0.739913 0.922565
O O12 0.425765 0.808930 0.398649
O O13 0.603275 0.729130 0.363459
O O14 0.552201 0.000000 0.322053
O O15 0.267424 0.267929 0.492497
O O16 0.270164 0.231114 0.285322
O O17 0.285952 0.000000 0.413950
O O18 0.708901 0.500000 0.384247
O O19 0.787359 0.735032 0.307028
O O20 0.810063 0.000000 0.226872
O O21 0.756521 0.000000 0.840526
#
# Coordination Sequence:
#
# PCOD8065468 Si02
#       8
#     4   4   4   4   4   4   4   4
#     4   9  17  33  60  92 118 148 193 237 287 347
#     4  10  21  35  51  77 118 161 196 235 286 346
#     4  11  21  33  53  84 121 156 192 234 287 347
#     4  11  22  37  59  86 115 150 198 248 288 341
#     4  10  23  41  61  87 116 152 199 246 291 340
#     4  12  25  41  61  85 116 155 198 243 295 353
#     4  11  21  37  62  87 115 150 192 243 290 338
#     4  10  20  38  62  87 119 155 194 242 290 347
#
# _framework density 20.093070999999998
#
# number of rings (size 3 to 8) (size 9 to 14) (size 15 to 20)
#    0.000    1.500    2.500    3.375    0.000    3.750 
#    0.000    2.500    0.000    3.750    0.000    0.000 
#    0.000    0.000    0.000    0.000    0.000    0.000 
#
# Total GULP energy -396825.815486 kJ/mol
# GULP energy per Si atom -12400.806734 kJ/mol
# Density = 2.004734 g / cm^3
# Si number density = 20.093071 Si / 1000 Ang^3
#
#
#
# Elastic Constant Matrix: (Units=GPa)
#
#
# Indices 1 2 3 4 5 6 
#
# 1 60.5276 23.2320 19.2200 0.0000 -3.6253 0.0000
# 2 23.2320 103.3581 51.4372 0.0000 -10.2238 0.0000
# 3 19.2200 51.4372 117.6564 0.0000 -8.4720 0.0000
# 4 0.0000 0.0000 0.0000 26.3130 0.0000 3.9556
# 5 -3.6253 -10.2238 -8.4720 0.0000 23.0739 0.0000
# 6 0.0000 0.0000 0.0000 3.9556 0.0000 11.8538
#
#
#
# Elastic Compliance Matrix: (Units=1/GPa)
#
#
# Indices 1 2 3 4 5 6 
#
# 1 0.018309 -0.003287 -0.001491 0.000000 0.000873 0.000000
# 2 -0.003287 0.013252 -0.005003 0.000000 0.003518 0.000000
# 3 -0.001491 -0.005003 0.011046 0.000000 0.001605 0.000000
# 4 0.000000 0.000000 0.000000 0.040011 0.000000 -0.013352
# 5 0.000873 0.003518 0.001605 0.000000 0.045624 0.000000
# 6 0.000000 0.000000 0.000000 -0.013352 0.000000 0.088816
#
#
# Mechanical properties :
#
#
# Convention : Reuss Voigt Hill
#
# Bulk Modulus (GPa) = 43.39521 52.14671 47.77096
# Shear Modulus (GPa) = 20.46653 24.75835 22.61244
#
# Velocity S-wave (km/s) = 3.19499 3.51406 3.35832
# Velocity P-wave (km/s) = 5.93756 6.51719 6.23411
#
# Compressibility (1/GPa) = 0.02304402
#
# Stress axis : x y z
#
# Youngs Moduli (GPa) = 54.61876 75.46146 90.53276
#
# Poissons Ratio (x) = 0.24804 0.13499
# Poissons Ratio (y) = 0.17953 0.45295
# Poissons Ratio (z) = 0.08144 0.37755
#
# Static dielectric constant tensor:
#      x y z
#    x 3.652890 0.000000 0.019010 
#    y 0.000000 3.487900 0.000000 
#    z 0.019010 0.000000 3.688850 
# 
# 
# High freq. dielectric constant tensor:
#      x y z
#    x 1.778590 0.000000 -0.004610 
#    y 0.000000 1.770480 0.000000 
#    z -0.004610 0.000000 1.785410 
# 
# From -- ./inp_files/49812.got.cif
#   From: 2010.06.25/outbox.cif.g09.slc.cpg/sg10_25_cif.got.tgz:49812.got - 2010.06.27 22:07:45.
