data_PCOD8065356
_publ_section_title
;
Structure prediction by ZEFSAII (Michael W. Deem and Ramdas Pophale) SiO2 
 PCOD8065356
Probable space group: P 2/M
;
_chemical_formula_sum "Si O2"
_cell_formula_units_Z 28
_cell_length_a 12.523506
_cell_length_b 8.803565
_cell_length_c 14.367754
_cell_angle_alpha 90.000000
_cell_angle_beta 121.087026
_cell_angle_gamma 90.000000
_cell_volume 1356.569176
_symmetry_space_group_name_H-M "P 2/M"
_symmetry_group_IT_number 10
_symmetry_cell_setting 'monoclinic'
loop_
_space_group_symop_operation_xyz
x,y,z
-x,y,-z
-x,-y,-z
x,-y,z
loop_
_atom_site_type_symbol
_atom_site_label
_atom_site_fract_x
_atom_site_fract_y
_atom_site_fract_z
Si Si1 0.503736 0.677649 0.607996
Si Si2 0.540860 0.328254 0.912991
Si Si3 0.782676 0.325295 0.776535
Si Si4 0.178495 0.324820 0.994639
Si Si5 0.003814 0.177244 0.229243
Si Si6 0.648483 0.822593 0.305706
Si Si7 0.911044 0.320330 0.377196
O O1 0.500000 0.731076 0.500000
O O2 0.474898 0.500000 0.604145
O O3 0.637408 0.720200 0.712417
O O4 0.395435 0.767485 0.612658
O O5 0.527374 0.500000 0.866433
O O6 0.458113 0.213970 0.816715
O O7 0.500000 0.321368 0.000000
O O8 0.683027 0.275149 0.971412
O O9 0.796482 0.500000 0.751983
O O10 0.855402 0.223939 0.734141
O O11 0.841419 0.298705 0.904600
O O12 0.153108 0.500000 0.956537
O O13 0.084621 0.219309 0.896550
O O14 0.963364 0.262871 0.303411
O O15 0.997237 0.000000 0.245959
O O16 0.773082 0.739013 0.331585
O O17 0.674965 0.000000 0.319972
O O18 0.905908 0.500000 0.371316
O O19 0.000000 0.261883 0.500000
#
# Coordination Sequence:
#
# PCOD8065356 Si02
#       7
#     4   4   4   4   4   4   4
#     4  10  22  42  69  97 126 168 222 265 304 371
#     4  10  20  37  64  93 124 168 218 263 305 366
#     4  10  21  40  65  94 128 171 221 263 307 369
#     4  10  20  38  63  92 127 170 220 265 305 369
#     4  12  26  41  62  95 135 168 205 263 330 388
#     4  12  25  41  65  98 136 166 199 259 328 385
#     4  11  26  48  72  92 118 166 223 266 307 373
#
# _framework density 20.640301999999998
#
# number of rings (size 3 to 8) (size 9 to 14) (size 15 to 20)
#    0.000    1.286    1.429    4.286    2.000    6.286 
#    0.000    0.000    0.000    0.000    0.000    0.000 
#    0.000    0.000    0.000    0.000    0.000    0.000 
#
# Total GULP energy -347375.130856 kJ/mol
# GULP energy per Si atom -12406.254673 kJ/mol
# Density = 2.059332 g / cm^3
# Si number density = 20.640302 Si / 1000 Ang^3
#
#
#
# Elastic Constant Matrix: (Units=GPa)
#
#
# Indices 1 2 3 4 5 6 
#
# 1 114.9825 27.5870 6.0084 0.0000 -12.7793 0.0000
# 2 27.5870 70.1744 19.1294 0.0000 -3.2944 0.0000
# 3 6.0084 19.1294 62.5255 0.0000 -14.7399 0.0000
# 4 0.0000 0.0000 0.0000 13.2230 0.0000 -9.4482
# 5 -12.7793 -3.2944 -14.7399 0.0000 28.6332 0.0000
# 6 0.0000 0.0000 0.0000 -9.4482 0.0000 25.4553
#
#
#
# Elastic Compliance Matrix: (Units=1/GPa)
#
#
# Indices 1 2 3 4 5 6 
#
# 1 0.010151 -0.004154 0.001424 0.000000 0.004785 0.000000
# 2 -0.004154 0.017261 -0.005521 0.000000 -0.002710 0.000000
# 3 0.001424 -0.005521 0.019969 0.000000 0.010280 0.000000
# 4 0.000000 0.000000 0.000000 0.102921 0.000000 0.038201
# 5 0.004785 -0.002710 0.010280 0.000000 0.042040 0.000000
# 6 0.000000 0.000000 0.000000 0.038201 0.000000 0.053463
#
#
# Mechanical properties :
#
#
# Convention : Reuss Voigt Hill
#
# Bulk Modulus (GPa) = 32.38439 39.23687 35.81063
# Shear Modulus (GPa) = 18.34182 26.45949 22.40065
#
# Velocity S-wave (km/s) = 2.98424 3.58429 3.29794
# Velocity P-wave (km/s) = 5.25340 6.01504 5.64707
#
# Compressibility (1/GPa) = 0.03087907
#
# Stress axis : x y z
#
# Youngs Moduli (GPa) = 98.51157 57.93434 50.07741
#
# Poissons Ratio (x) = 0.24066 -0.07129
# Poissons Ratio (y) = 0.40922 0.27646
# Poissons Ratio (z) = -0.14024 0.31983
#
# Static dielectric constant tensor:
#      x y z
#    x 3.884350 0.000000 -0.029390 
#    y 0.000000 3.597210 0.000000 
#    z -0.029390 0.000000 3.817660 
# 
# 
# High freq. dielectric constant tensor:
#      x y z
#    x 1.829250 0.000000 -0.003960 
#    y 0.000000 1.791370 0.000000 
#    z -0.003960 0.000000 1.813350 
# 
# From -- ./inp_files/63936.got.cif
#   From: 2010.06.25/outbox.cif.g09.slc.cpg/sg10_32_cif.got.tgz:63936.got - 2010.06.27 22:07:45.
