data_PCOD8065298
_publ_section_title
;
Structure prediction by ZEFSAII (Michael W. Deem and Ramdas Pophale) SiO2 
 PCOD8065298
Probable space group: P 2/M
;
_chemical_formula_sum "Si O2"
_cell_formula_units_Z 28
_cell_length_a 8.543661
_cell_length_b 15.388511
_cell_length_c 12.327263
_cell_angle_alpha 90.000000
_cell_angle_beta 126.894584
_cell_angle_gamma 90.000000
_cell_volume 1296.154743
_symmetry_space_group_name_H-M "P 2/M"
_symmetry_group_IT_number 10
_symmetry_cell_setting 'monoclinic'
loop_
_space_group_symop_operation_xyz
x,y,z
-x,y,-z
-x,-y,-z
x,-y,z
loop_
_atom_site_type_symbol
_atom_site_label
_atom_site_fract_x
_atom_site_fract_y
_atom_site_fract_z
Si Si1 0.534162 0.901115 0.739054
Si Si2 0.708467 0.500000 0.032142
Si Si3 0.867298 0.901732 0.539863
Si Si4 0.589518 0.350119 0.647212
Si Si5 0.554534 0.272437 0.196749
Si Si6 0.198567 0.314420 0.895642
Si Si7 0.849397 0.805175 0.744959
Si Si8 0.201391 0.500000 0.153761
O O1 0.366102 0.896510 0.576758
O O2 0.470458 0.832090 0.803837
O O3 0.750328 0.875054 0.785013
O O4 0.545710 0.000000 0.790218
O O5 0.848270 0.417908 0.122130
O O6 0.500000 0.500000 0.000000
O O7 0.641548 0.500000 0.878402
O O8 0.929248 0.852808 0.673356
O O9 0.000000 0.859473 0.500000
O O10 0.936779 0.000000 0.584574
O O11 0.500000 0.392531 0.500000
O O12 0.441098 0.322242 0.684204
O O13 0.683059 0.262045 0.641708
O O14 0.759717 0.414181 0.759352
O O15 0.748927 0.290017 0.207258
O O16 0.373802 0.306964 0.052852
O O17 0.027354 0.251500 0.869487
O O18 0.000000 0.500000 0.000000
#
# Coordination Sequence:
#
# PCOD8065298 Si02
#       8
#     4   2   4   4   4   4   4   2
#     4  10  21  38  60  86 125 173 213 258 321 390
#     4  12  20  41  68  91 118 161 220 268 315 384
#     4  10  20  37  62  90 120 164 219 266 315 384
#     4  11  23  38  59  89 127 165 204 263 330 382
#     4  10  21  40  63  90 126 161 221 269 324 382
#     4  11  22  39  64  96 120 168 220 275 320 395
#     4  11  22  35  57  88 126 163 215 262 320 379
#     4  12  23  39  62  91 124 160 213 261 318 395
#
# _framework density 21.602360000000001
#
# number of rings (size 3 to 8) (size 9 to 14) (size 15 to 20)
#    0.000    1.286    2.857    4.500    0.000    2.857 
#    0.000    4.286    0.000    0.000    0.000    8.000 
#    0.000    0.000    0.000    0.000    0.000    0.000 
#
# Total GULP energy -346909.914767 kJ/mol
# GULP energy per Si atom -12389.639813 kJ/mol
# Density = 2.155319 g / cm^3
# Si number density = 21.602360 Si / 1000 Ang^3
#
#
#
# Elastic Constant Matrix: (Units=GPa)
#
#
# Indices 1 2 3 4 5 6 
#
# 1 74.3477 24.8794 27.4706 0.0000 -5.8177 0.0000
# 2 24.8794 146.6563 32.5140 0.0000 -10.2241 0.0000
# 3 27.4706 32.5140 84.3698 0.0000 -15.1716 0.0000
# 4 0.0000 0.0000 0.0000 33.6000 0.0000 4.8706
# 5 -5.8177 -10.2241 -15.1716 0.0000 35.2732 0.0000
# 6 0.0000 0.0000 0.0000 4.8706 0.0000 28.0260
#
#
#
# Elastic Compliance Matrix: (Units=1/GPa)
#
#
# Indices 1 2 3 4 5 6 
#
# 1 0.015656 -0.001662 -0.004421 0.000000 0.000199 0.000000
# 2 -0.001662 0.007665 -0.002235 0.000000 0.000986 0.000000
# 3 -0.004421 -0.002235 0.015072 0.000000 0.005105 0.000000
# 4 0.000000 0.000000 0.000000 0.030531 0.000000 -0.005306
# 5 0.000199 0.000986 0.005105 0.000000 0.030865 0.000000
# 6 0.000000 0.000000 0.000000 -0.005306 0.000000 0.036603
#
#
# Mechanical properties :
#
#
# Convention : Reuss Voigt Hill
#
# Bulk Modulus (GPa) = 45.96614 52.78908 49.37761
# Shear Modulus (GPa) = 31.19540 34.08048 32.63794
#
# Velocity S-wave (km/s) = 3.80422 3.97625 3.89118
# Velocity P-wave (km/s) = 6.37343 6.75059 6.56472
#
# Compressibility (1/GPa) = 0.02175514
#
# Stress axis : x y z
#
# Youngs Moduli (GPa) = 63.87500 130.46422 66.34954
#
# Poissons Ratio (x) = 0.21681 0.29335
# Poissons Ratio (y) = 0.10615 0.14832
# Poissons Ratio (z) = 0.28241 0.29165
#
# Static dielectric constant tensor:
#      x y z
#    x 4.246070 0.000000 -0.244090 
#    y 0.000000 4.237180 0.000000 
#    z -0.244090 0.000000 3.636050 
# 
# 
# High freq. dielectric constant tensor:
#      x y z
#    x 1.854110 0.000000 -0.011550 
#    y 0.000000 1.864340 0.000000 
#    z -0.011550 0.000000 1.813120 
# 
# From -- ./inp_files/43073.got.cif
#   From: 2010.06.25/outbox.cif.g09.slc.cpg/sg10_22_cif.got.tgz:43073.got - 2010.06.27 22:07:45.
