data_PCOD8065307
_publ_section_title
;
Structure prediction by ZEFSAII (Michael W. Deem and Ramdas Pophale) SiO2 
 PCOD8065307
Probable space group: P 2/M
;
_chemical_formula_sum "Si O2"
_cell_formula_units_Z 22
_cell_length_a 15.489103
_cell_length_b 11.991761
_cell_length_c 12.529787
_cell_angle_alpha 90.000000
_cell_angle_beta 152.689051
_cell_angle_gamma 90.000000
_cell_volume 1067.811645
_symmetry_space_group_name_H-M "P 2/M"
_symmetry_group_IT_number 10
_symmetry_cell_setting 'monoclinic'
loop_
_space_group_symop_operation_xyz
x,y,z
-x,y,-z
-x,-y,-z
x,-y,z
loop_
_atom_site_type_symbol
_atom_site_label
_atom_site_fract_x
_atom_site_fract_y
_atom_site_fract_z
Si Si1 0.293991 0.500000 0.639129
Si Si2 0.161491 0.270751 0.396949
Si Si3 0.658043 0.127000 0.744105
Si Si4 0.263170 0.500000 0.847851
Si Si5 0.000000 0.212733 0.000000
Si Si6 0.464800 0.132704 0.166549
Si Si7 0.127869 0.262655 0.742013
O O1 0.228770 0.392204 0.503870
O O2 0.203642 0.500000 0.657832
O O3 0.515770 0.500000 0.893350
O O4 0.106977 0.281713 0.210753
O O5 0.325026 0.180576 0.600123
O O6 0.984847 0.229204 0.273836
O O7 0.500000 0.189894 0.500000
O O8 0.644288 0.175333 0.847043
O O9 0.596733 0.000000 0.689793
O O10 0.858898 0.134116 0.909370
O O11 0.177666 0.392303 0.810569
O O12 0.473881 0.000000 0.156658
O O13 0.319087 0.191387 0.924682
O O14 0.000000 0.238965 0.500000
#
# Coordination Sequence:
#
# PCOD8065307 Si02
#       7
#     2   4   4   2   2   4   4
#     4  11  23  43  72  98 129 174 220 277 335 392
#     4  12  25  42  68 100 136 171 223 273 332 393
#     4  10  20  37  62  91 127 174 227 269 307 375
#     4  11  22  43  77  99 121 170 238 278 318 385
#     4  12  23  37  66 100 132 170 219 269 332 394
#     4  11  25  43  64  98 141 179 216 270 333 392
#     4  12  24  43  71  99 128 173 225 279 326 389
#
# _framework density 20.602885000000001
#
# number of rings (size 3 to 8) (size 9 to 14) (size 15 to 20)
#    0.000    0.727    7.273    1.091    0.000    2.909 
#    0.000    0.909    0.000    2.182    0.000    0.000 
#    0.000    0.000    0.000    0.000    0.000    0.000 
#
# Total GULP energy -272647.825829 kJ/mol
# GULP energy per Si atom -12393.082992 kJ/mol
# Density = 2.055599 g / cm^3
# Si number density = 20.602885 Si / 1000 Ang^3
#
#
#
# Elastic Constant Matrix: (Units=GPa)
#
#
# Indices 1 2 3 4 5 6 
#
# 1 91.6015 25.3303 26.1703 0.0000 11.5887 0.0000
# 2 25.3303 119.4320 60.6721 0.0000 5.3792 0.0000
# 3 26.1703 60.6721 124.2492 0.0000 4.9616 0.0000
# 4 0.0000 0.0000 0.0000 31.5451 0.0000 8.7361
# 5 11.5887 5.3792 4.9616 0.0000 37.9117 0.0000
# 6 0.0000 0.0000 0.0000 8.7361 0.0000 23.3814
#
#
#
# Elastic Compliance Matrix: (Units=1/GPa)
#
#
# Indices 1 2 3 4 5 6 
#
# 1 0.012254 -0.001604 -0.001666 0.000000 -0.003300 0.000000
# 2 -0.001604 0.011374 -0.005198 0.000000 -0.000443 0.000000
# 3 -0.001666 -0.005198 0.010945 0.000000 -0.000186 0.000000
# 4 0.000000 0.000000 0.000000 0.035359 0.000000 -0.013212
# 5 -0.003300 -0.000443 -0.000186 0.000000 0.027473 0.000000
# 6 0.000000 0.000000 0.000000 -0.013212 0.000000 0.047705
#
#
# Mechanical properties :
#
#
# Convention : Reuss Voigt Hill
#
# Bulk Modulus (GPa) = 56.70189 62.18090 59.44139
# Shear Modulus (GPa) = 29.77497 33.44165 31.60831
#
# Velocity S-wave (km/s) = 3.80568 4.03321 3.92110
# Velocity P-wave (km/s) = 6.84778 7.20661 7.02948
#
# Compressibility (1/GPa) = 0.01763610
#
# Stress axis : x y z
#
# Youngs Moduli (GPa) = 81.60690 87.92015 91.36485
#
# Poissons Ratio (x) = 0.14102 0.15221
# Poissons Ratio (y) = 0.13089 0.47496
# Poissons Ratio (z) = 0.13596 0.45705
#
# Static dielectric constant tensor:
#      x y z
#    x 3.907580 0.000000 -0.051650 
#    y 0.000000 3.453510 0.000000 
#    z -0.051650 0.000000 4.102160 
# 
# 
# High freq. dielectric constant tensor:
#      x y z
#    x 1.809340 0.000000 0.008680 
#    y 0.000000 1.783440 0.000000 
#    z 0.008680 0.000000 1.834780 
# 
# From -- ./inp_files/51157.got.cif
#   From: 2010.06.25/outbox.cif.g09.slc.cpg/sg10_26_cif.got.tgz:51157.got - 2010.06.27 22:07:45.
