data_PCOD8065838
_publ_section_title
;
Structure prediction by ZEFSAII (Michael W. Deem and Ramdas Pophale) SiO2 
 PCOD8065838
Probable space group: P 2/M
;
_chemical_formula_sum "Si O2"
_cell_formula_units_Z 32
_cell_length_a 24.106415
_cell_length_b 8.831871
_cell_length_c 17.676870
_cell_angle_alpha 90.000000
_cell_angle_beta 152.576381
_cell_angle_gamma 90.000000
_cell_volume 1733.334307
_symmetry_space_group_name_H-M "P 2/M"
_symmetry_group_IT_number 10
_symmetry_cell_setting 'monoclinic'
loop_
_space_group_symop_operation_xyz
x,y,z
-x,y,-z
-x,-y,-z
x,-y,z
loop_
_atom_site_type_symbol
_atom_site_label
_atom_site_fract_x
_atom_site_fract_y
_atom_site_fract_z
Si Si1 0.141869 0.835068 0.664563
Si Si2 0.981707 0.676970 0.060700
Si Si3 0.370100 0.174955 0.514480
Si Si4 0.362741 0.175188 0.203698
Si Si5 0.199242 0.679516 0.423420
Si Si6 0.883529 0.181000 0.528862
Si Si7 0.710090 0.676411 0.737178
Si Si8 0.154949 0.181123 0.842542
O O1 0.166316 0.754939 0.612813
O O2 0.185411 0.751535 0.794757
O O3 0.000000 0.857517 0.500000
O O4 0.204231 0.000000 0.737039
O O5 0.008169 0.500000 0.086012
O O6 0.079840 0.745019 0.237045
O O7 0.847766 0.710385 0.928131
O O8 0.000000 0.751140 0.000000
O O9 0.513433 0.198293 0.691245
O O10 0.316544 0.266007 0.520297
O O11 0.317822 0.235710 0.372868
O O12 0.334649 0.000000 0.478788
O O13 0.372513 0.266102 0.294186
O O14 0.340146 0.000000 0.196164
O O15 0.254836 0.242174 0.021782
O O16 0.200385 0.500000 0.430173
O O17 0.200997 0.748021 0.509469
O O18 0.022428 0.234104 0.709170
O O19 0.875572 0.000000 0.520929
O O20 0.687022 0.500000 0.694558
O O21 0.159145 0.000000 0.842180
#
# Coordination Sequence:
#
# PCOD8065838 Si02
#       8
#     4   4   4   4   4   4   4   4
#     4   7  11  22  45  76 104 128 153 189 236 286
#     4   9  17  32  50  69  94 122 155 196 239 282
#     4  11  23  37  50  67  95 130 168 209 247 277
#     4  10  21  35  51  72  99 128 162 207 245 279
#     4  11  21  34  52  71  97 131 165 199 242 295
#     4   9  16  28  50  80 107 126 154 196 241 291
#     4  11  21  35  55  74  95 126 163 201 245 297
#     4   8  14  28  51  77 103 130 160 193 238 292
#
# _framework density 18.461528000000001
#
# number of rings (size 3 to 8) (size 9 to 14) (size 15 to 20)
#    0.000    2.500    1.250    3.750    0.000    2.500 
#    0.000    2.500    0.000    4.875    0.000    5.250 
#    0.000    0.000    0.000    0.000    0.000    0.000 
#
# Total GULP energy -396599.075296 kJ/mol
# GULP energy per Si atom -12393.721103 kJ/mol
# Density = 1.841951 g / cm^3
# Si number density = 18.461528 Si / 1000 Ang^3
#
#
#
# Elastic Constant Matrix: (Units=GPa)
#
#
# Indices 1 2 3 4 5 6 
#
# 1 142.0012 26.3554 36.3642 0.0000 -19.0744 0.0000
# 2 26.3554 36.6384 15.6209 0.0000 -2.1513 0.0000
# 3 36.3642 15.6209 39.8008 0.0000 -3.0136 0.0000
# 4 0.0000 0.0000 0.0000 13.4529 0.0000 6.6188
# 5 -19.0744 -2.1513 -3.0136 0.0000 25.5883 0.0000
# 6 0.0000 0.0000 0.0000 6.6188 0.0000 11.7962
#
#
#
# Elastic Compliance Matrix: (Units=1/GPa)
#
#
# Indices 1 2 3 4 5 6 
#
# 1 0.010642 -0.004003 -0.007646 0.000000 0.006696 0.000000
# 2 -0.004003 0.034324 -0.009910 0.000000 -0.001265 0.000000
# 3 -0.007646 -0.009910 0.035825 0.000000 -0.002313 0.000000
# 4 0.000000 0.000000 0.000000 0.102679 0.000000 -0.057613
# 5 0.006696 -0.001265 -0.002313 0.000000 0.043693 0.000000
# 6 0.000000 0.000000 0.000000 -0.057613 0.000000 0.117100
#
#
# Mechanical properties :
#
#
# Convention : Reuss Voigt Hill
#
# Bulk Modulus (GPa) = 26.54308 41.68018 34.11163
# Shear Modulus (GPa) = 12.50192 19.50747 16.00469
#
# Velocity S-wave (km/s) = 2.60511 3.25415 2.94755
# Velocity P-wave (km/s) = 4.84329 6.06177 5.48647
#
# Compressibility (1/GPa) = 0.03767460
#
# Stress axis : x y z
#
# Youngs Moduli (GPa) = 93.96299 29.13417 27.91350
#
# Poissons Ratio (x) = 0.11661 0.21342
# Poissons Ratio (y) = 0.37610 0.27663
# Poissons Ratio (z) = 0.71840 0.28872
#
# Static dielectric constant tensor:
#      x y z
#    x 3.578970 0.000000 -0.227730 
#    y 0.000000 3.023040 0.000000 
#    z -0.227730 0.000000 3.451590 
# 
# 
# High freq. dielectric constant tensor:
#      x y z
#    x 1.724520 0.000000 -0.012620 
#    y 0.000000 1.679150 0.000000 
#    z -0.012620 0.000000 1.695440 
# 
# From -- ./inp_files/79997.got.cif
#   From: 2010.06.25/outbox.cif.g09.slc.cpg/sg10_40_cif.got.tgz:79997.got - 2010.06.27 22:07:45.
