data_PCOD8065971
_publ_section_title
;
Structure prediction by ZEFSAII (Michael W. Deem and Ramdas Pophale) SiO2 
 PCOD8065971
Probable space group: P 2/M
;
_chemical_formula_sum "Si O2"
_cell_formula_units_Z 32
_cell_length_a 15.400245
_cell_length_b 9.041271
_cell_length_c 21.300895
_cell_angle_alpha 90.000000
_cell_angle_beta 145.431124
_cell_angle_gamma 90.000000
_cell_volume 1682.835389
_symmetry_space_group_name_H-M "P 2/M"
_symmetry_group_IT_number 10
_symmetry_cell_setting 'monoclinic'
loop_
_space_group_symop_operation_xyz
x,y,z
-x,y,-z
-x,-y,-z
x,-y,z
loop_
_atom_site_type_symbol
_atom_site_label
_atom_site_fract_x
_atom_site_fract_y
_atom_site_fract_z
Si Si1 0.973404 0.827701 0.916573
Si Si2 0.797131 0.672127 0.430225
Si Si3 0.863950 0.671681 0.329474
Si Si4 0.204578 0.325547 0.360755
Si Si5 0.662882 0.825978 0.671593
Si Si6 0.905191 0.829258 0.138770
Si Si7 0.673221 0.827259 0.106259
Si Si8 0.357901 0.826364 0.559577
O O1 0.814653 0.765357 0.795697
O O2 0.108142 0.798995 0.944847
O O3 0.951687 0.000000 0.915749
O O4 0.000000 0.749362 0.000000
O O5 0.771440 0.500000 0.429012
O O6 0.782208 0.702357 0.347265
O O7 0.662925 0.770583 0.381519
O O8 0.960480 0.722870 0.556676
O O9 0.858166 0.500000 0.308354
O O10 0.775846 0.757003 0.222041
O O11 0.219103 0.500000 0.368048
O O12 0.337912 0.254727 0.396308
O O13 0.229940 0.262946 0.445155
O O14 0.034443 0.278433 0.241543
O O15 0.523946 0.779843 0.633285
O O16 0.665001 0.000000 0.659207
O O17 0.748331 0.795918 0.082407
O O18 0.956344 0.000000 0.179491
O O19 0.666910 0.000000 0.117447
O O20 0.500000 0.762356 0.000000
O O21 0.330142 0.000000 0.537736
#
# Coordination Sequence:
#
# PCOD8065971 Si02
#       8
#     4   4   4   4   4   4   4   4
#     4   8  14  29  53  75  94 127 173 211 246 299
#     4   9  19  36  56  78 105 138 180 222 265 321
#     4   9  19  37  58  77 102 141 182 222 267 322
#     4  11  21  32  51  76 102 137 177 217 258 306
#     4   9  19  34  49  72 105 137 171 211 257 312
#     4   9  18  34  54  76 103 137 174 216 265 314
#     4  10  21  36  53  80 112 141 176 227 280 320
#     4  11  21  32  48  76 109 139 170 209 261 316
#
# _framework density 19.015525
#
# number of rings (size 3 to 8) (size 9 to 14) (size 15 to 20)
#    0.000    2.500    0.000    4.125    0.000    6.250 
#    2.250    1.250    0.000    6.000    0.000    0.000 
#    0.000    0.000    0.000    0.000    0.000    0.000 
#
# Total GULP energy -396609.583733 kJ/mol
# GULP energy per Si atom -12394.049492 kJ/mol
# Density = 1.897225 g / cm^3
# Si number density = 19.015525 Si / 1000 Ang^3
#
#
#
# Elastic Constant Matrix: (Units=GPa)
#
#
# Indices 1 2 3 4 5 6 
#
# 1 147.6270 40.6843 37.8393 0.0000 -1.3052 0.0000
# 2 40.6843 59.2006 16.1158 0.0000 0.0536 0.0000
# 3 37.8393 16.1158 57.7649 0.0000 -11.2855 0.0000
# 4 0.0000 0.0000 0.0000 18.4534 0.0000 -2.6015
# 5 -1.3052 0.0536 -11.2855 0.0000 27.8669 0.0000
# 6 0.0000 0.0000 0.0000 -2.6015 0.0000 27.7163
#
#
#
# Elastic Compliance Matrix: (Units=1/GPa)
#
#
# Indices 1 2 3 4 5 6 
#
# 1 0.009477 -0.005125 -0.005093 0.000000 -0.001609 0.000000
# 2 -0.005125 0.021186 -0.002832 0.000000 -0.001428 0.000000
# 3 -0.005093 -0.002832 0.023230 0.000000 0.009175 0.000000
# 4 0.000000 0.000000 0.000000 0.054917 0.000000 0.005155
# 5 -0.001609 -0.001428 0.009175 0.000000 0.039528 0.000000
# 6 0.000000 0.000000 0.000000 0.005155 0.000000 0.036564
#
#
# Mechanical properties :
#
#
# Convention : Reuss Voigt Hill
#
# Bulk Modulus (GPa) = 35.97987 50.43013 43.20500
# Shear Modulus (GPa) = 22.69967 26.13753 24.41860
#
# Velocity S-wave (km/s) = 3.45881 3.71150 3.58738
# Velocity P-wave (km/s) = 5.90877 6.70410 6.31896
#
# Compressibility (1/GPa) = 0.02779332
#
# Stress axis : x y z
#
# Youngs Moduli (GPa) = 105.51391 47.20024 43.04756
#
# Poissons Ratio (x) = 0.24192 0.21922
# Poissons Ratio (y) = 0.54080 0.12192
# Poissons Ratio (z) = 0.53734 0.13369
#
# Static dielectric constant tensor:
#      x y z
#    x 3.912350 0.000000 -0.157590 
#    y 0.000000 3.194020 0.000000 
#    z -0.157590 0.000000 3.450660 
# 
# 
# High freq. dielectric constant tensor:
#      x y z
#    x 1.760760 0.000000 -0.007660 
#    y 0.000000 1.715960 0.000000 
#    z -0.007660 0.000000 1.713500 
# 
# From -- ./inp_files/84758.got.cif
#   From: 2010.06.25/outbox.cif.g09.slc.cpg/sg10_43_cif.got.tgz:84758.got - 2010.06.27 22:07:45.
