data_PCOD8065357
_publ_section_title
;
Structure prediction by ZEFSAII (Michael W. Deem and Ramdas Pophale) SiO2 
 PCOD8065357
Probable space group: P 2/M
;
_chemical_formula_sum "Si O2"
_cell_formula_units_Z 32
_cell_length_a 18.907011
_cell_length_b 13.742819
_cell_length_c 13.201895
_cell_angle_alpha 90.000000
_cell_angle_beta 27.849122
_cell_angle_gamma 90.000000
_cell_volume 1602.457606
_symmetry_space_group_name_H-M "P 2/M"
_symmetry_group_IT_number 10
_symmetry_cell_setting 'monoclinic'
loop_
_space_group_symop_operation_xyz
x,y,z
-x,y,-z
-x,-y,-z
x,-y,z
loop_
_atom_site_type_symbol
_atom_site_label
_atom_site_fract_x
_atom_site_fract_y
_atom_site_fract_z
Si Si1 0.440860 0.888882 0.686002
Si Si2 0.277945 0.709104 0.980082
Si Si3 0.157503 0.734860 0.346663
Si Si4 0.736321 0.892899 0.441980
Si Si5 0.036288 0.385532 0.675364
Si Si6 0.554827 0.612944 0.539961
Si Si7 0.859809 0.305716 0.246288
Si Si8 0.336579 0.890732 0.232449
O O1 0.500000 0.861766 0.500000
O O2 0.309687 0.815311 0.889910
O O3 0.582020 0.872978 0.579420
O O4 0.378385 0.000000 0.769182
O O5 0.416688 0.635504 0.789333
O O6 0.268594 0.709690 0.113727
O O7 0.125045 0.669291 0.121717
O O8 0.208925 0.829330 0.340526
O O9 0.000000 0.767190 0.500000
O O10 0.137778 0.644683 0.449618
O O11 0.860840 0.811272 0.258797
O O12 0.691847 0.886977 0.613885
O O13 0.802669 0.000000 0.330616
O O14 0.006972 0.500000 0.707491
O O15 0.127147 0.358810 0.662144
O O16 0.500000 0.651738 0.500000
O O17 0.592479 0.500000 0.489464
O O18 0.705728 0.666338 0.384968
O O19 0.000000 0.338081 0.000000
O O20 0.328064 0.000000 0.199822
O O21 0.500000 0.845019 0.000000
#
# Coordination Sequence:
#
# PCOD8065357 Si02
#       8
#     4   4   4   4   4   4   4   4
#     4  10  21  38  63  96 132 165 206 261 315 370
#     4  11  22  39  67  93 122 165 215 258 312 375
#     4  10  23  40  62  92 126 163 206 259 317 374
#     4  10  21  39  63  92 127 165 203 249 307 376
#     4  11  25  44  63  91 130 167 209 261 325 378
#     4  11  24  42  64  92 122 160 216 269 312 368
#     4  12  25  41  65  92 127 166 205 259 317 379
#     4  10  20  37  64  93 125 164 206 252 309 370
#
# _framework density 19.969327
#
# number of rings (size 3 to 8) (size 9 to 14) (size 15 to 20)
#    0.000    1.375    2.500    2.625    1.750    6.750 
#    0.000    2.500    0.000    1.875    0.000    0.000 
#    0.000    0.000    0.000    0.000    0.000    0.000 
#
# Total GULP energy -396815.560753 kJ/mol
# GULP energy per Si atom -12400.486274 kJ/mol
# Density = 1.992388 g / cm^3
# Si number density = 19.969327 Si / 1000 Ang^3
#
#
#
# Elastic Constant Matrix: (Units=GPa)
#
#
# Indices 1 2 3 4 5 6 
#
# 1 135.8665 52.1271 48.9566 0.0000 9.1463 0.0000
# 2 52.1271 129.3583 43.4936 0.0000 8.5240 0.0000
# 3 48.9566 43.4936 110.6597 0.0000 15.5913 0.0000
# 4 0.0000 0.0000 0.0000 30.4930 0.0000 -2.5580
# 5 9.1463 8.5240 15.5913 0.0000 20.0654 0.0000
# 6 0.0000 0.0000 0.0000 -2.5580 0.0000 28.6527
#
#
#
# Elastic Compliance Matrix: (Units=1/GPa)
#
#
# Indices 1 2 3 4 5 6 
#
# 1 0.009575 -0.002787 -0.003023 0.000000 -0.000831 0.000000
# 2 -0.002787 0.009744 -0.002462 0.000000 -0.000956 0.000000
# 3 -0.003023 -0.002462 0.012353 0.000000 -0.007174 0.000000
# 4 0.000000 0.000000 0.000000 0.033042 0.000000 0.002950
# 5 -0.000831 -0.000956 -0.007174 0.000000 0.056197 0.000000
# 6 0.000000 0.000000 0.000000 0.002950 0.000000 0.035164
#
#
# Mechanical properties :
#
#
# Convention : Reuss Voigt Hill
#
# Bulk Modulus (GPa) = 66.10833 73.89324 70.00079
# Shear Modulus (GPa) = 28.14325 31.26269 29.70297
#
# Velocity S-wave (km/s) = 3.75817 3.96098 3.86091
# Velocity P-wave (km/s) = 7.21170 7.61596 7.41658
#
# Compressibility (1/GPa) = 0.01512669
#
# Stress axis : x y z
#
# Youngs Moduli (GPa) = 104.44046 102.62300 80.95259
#
# Poissons Ratio (x) = 0.28601 0.24476
# Poissons Ratio (y) = 0.29108 0.19933
# Poissons Ratio (z) = 0.31577 0.25269
#
# Static dielectric constant tensor:
#      x y z
#    x 3.747430 0.000000 0.176970 
#    y 0.000000 3.831110 0.000000 
#    z 0.176970 0.000000 3.666620 
# 
# 
# High freq. dielectric constant tensor:
#      x y z
#    x 1.791560 0.000000 0.011040 
#    y 0.000000 1.787800 0.000000 
#    z 0.011040 0.000000 1.774450 
# 
# From -- ./inp_files/53997.got.cif
#   From: 2010.06.25/outbox.cif.g09.slc.cpg/sg10_27_cif.got.tgz:53997.got - 2010.06.27 22:07:45.
