data_PCOD8065346
_publ_section_title
;
Structure prediction by ZEFSAII (Michael W. Deem and Ramdas Pophale) SiO2 
 PCOD8065346
Probable space group: P 2/M
;
_chemical_formula_sum "Si O2"
_cell_formula_units_Z 28
_cell_length_a 8.831442
_cell_length_b 14.960283
_cell_length_c 11.291716
_cell_angle_alpha 90.000000
_cell_angle_beta 64.805870
_cell_angle_gamma 90.000000
_cell_volume 1349.950636
_symmetry_space_group_name_H-M "P 2/M"
_symmetry_group_IT_number 10
_symmetry_cell_setting 'monoclinic'
loop_
_space_group_symop_operation_xyz
x,y,z
-x,y,-z
-x,-y,-z
x,-y,z
loop_
_atom_site_type_symbol
_atom_site_label
_atom_site_fract_x
_atom_site_fract_y
_atom_site_fract_z
Si Si1 0.857894 0.214057 0.632851
Si Si2 0.880865 0.168220 0.885975
Si Si3 0.807638 0.405555 0.711393
Si Si4 0.321216 0.340660 0.013307
Si Si5 0.552262 0.597126 0.271571
Si Si6 0.228840 0.898723 0.846449
Si Si7 0.499281 0.784608 0.633158
O O1 0.840873 0.156052 0.759334
O O2 0.914277 0.316130 0.648548
O O3 0.684653 0.214658 0.622650
O O4 0.000000 0.172969 0.500000
O O5 0.814342 0.262664 0.956352
O O6 0.079428 0.158310 0.837149
O O7 0.789057 0.097286 0.003735
O O8 0.906111 0.500000 0.655131
O O9 0.749449 0.409372 0.867045
O O10 0.644398 0.404284 0.684935
O O11 0.500000 0.300857 0.000000
O O12 0.342079 0.392063 0.883616
O O13 0.604588 0.500000 0.310968
O O14 0.583578 0.684628 0.342522
O O15 0.398694 0.850587 0.751959
O O16 0.227793 0.000000 0.798814
O O17 0.500000 0.822392 0.500000
#
# Coordination Sequence:
#
# PCOD8065346 Si02
#       7
#     4   4   4   4   4   4   4
#     4  10  21  37  60  89 119 160 202 244 299 353
#     4  10  20  37  64  88 121 150 193 247 296 357
#     4   8  15  26  47  81 118 156 199 245 288 340
#     4   9  15  27  53  86 120 156 196 240 296 350
#     4   9  16  29  51  83 121 159 200 240 286 346
#     4  11  24  43  66  91 118 154 196 244 308 367
#     4  11  23  40  63  88 122 164 203 245 299 354
#
# _framework density 20.741499999999998
#
# number of rings (size 3 to 8) (size 9 to 14) (size 15 to 20)
#    0.000    2.286    1.429    3.000    0.000    2.571 
#    0.000    2.143    0.000   11.571    0.000    0.000 
#    0.000    0.000    0.000    0.000    0.000    0.000 
#
# Total GULP energy -346882.497356 kJ/mol
# GULP energy per Si atom -12388.660620 kJ/mol
# Density = 2.069429 g / cm^3
# Si number density = 20.741500 Si / 1000 Ang^3
#
#
#
# Elastic Constant Matrix: (Units=GPa)
#
#
# Indices 1 2 3 4 5 6 
#
# 1 71.5138 39.7013 40.3113 0.0000 0.4888 0.0000
# 2 39.7013 97.7286 15.6772 0.0000 -8.9094 0.0000
# 3 40.3113 15.6772 121.8431 0.0000 6.0469 0.0000
# 4 0.0000 0.0000 0.0000 4.5159 0.0000 1.5211
# 5 0.4888 -8.9094 6.0469 0.0000 30.5995 0.0000
# 6 0.0000 0.0000 0.0000 1.5211 0.0000 11.7991
#
#
#
# Elastic Compliance Matrix: (Units=1/GPa)
#
#
# Indices 1 2 3 4 5 6 
#
# 1 0.021931 -0.008059 -0.006145 0.000000 -0.001482 0.000000
# 2 -0.008059 0.013759 0.000698 0.000000 0.003997 0.000000
# 3 -0.006145 0.000698 0.010236 0.000000 -0.001722 0.000000
# 4 0.000000 0.000000 0.000000 0.231492 0.000000 -0.029843
# 5 -0.001482 0.003997 -0.001722 0.000000 0.034208 0.000000
# 6 0.000000 0.000000 0.000000 -0.029843 0.000000 0.088600
#
#
# Mechanical properties :
#
#
# Convention : Reuss Voigt Hill
#
# Bulk Modulus (GPa) = 52.87377 53.60723 53.24050
# Shear Modulus (GPa) = 11.53288 22.40929 16.97108
#
# Velocity S-wave (km/s) = 2.36059 3.29052 2.86356
# Velocity P-wave (km/s) = 5.74255 6.35124 6.05455
#
# Compressibility (1/GPa) = 0.01891297
#
# Stress axis : x y z
#
# Youngs Moduli (GPa) = 45.59678 72.68148 97.69281
#
# Poissons Ratio (x) = 0.58572 0.60037
# Poissons Ratio (y) = 0.36745 -0.06814
# Poissons Ratio (z) = 0.28021 -0.05070
#
# Static dielectric constant tensor:
#      x y z
#    x 3.372220 0.000000 0.035400 
#    y 0.000000 3.809260 0.000000 
#    z 0.035400 0.000000 3.897680 
# 
# 
# High freq. dielectric constant tensor:
#      x y z
#    x 1.773950 0.000000 -0.001810 
#    y 0.000000 1.797480 0.000000 
#    z -0.001810 0.000000 1.818390 
# 
# From -- ./inp_files/42863.got.cif
#   From: 2010.06.25/outbox.cif.g09.slc.cpg/sg10_22_cif.got.tgz:42863.got - 2010.06.27 22:07:45.
