data_PCOD8065401
_publ_section_title
;
Structure prediction by ZEFSAII (Michael W. Deem and Ramdas Pophale) SiO2 
 PCOD8065401
Probable space group: P 2/M
;
_chemical_formula_sum "Si O2"
_cell_formula_units_Z 32
_cell_length_a 15.460249
_cell_length_b 13.702293
_cell_length_c 21.717561
_cell_angle_alpha 90.000000
_cell_angle_beta 159.439218
_cell_angle_gamma 90.000000
_cell_volume 1615.758098
_symmetry_space_group_name_H-M "P 2/M"
_symmetry_group_IT_number 10
_symmetry_cell_setting 'monoclinic'
loop_
_space_group_symop_operation_xyz
x,y,z
-x,y,-z
-x,-y,-z
x,-y,z
loop_
_atom_site_type_symbol
_atom_site_label
_atom_site_fract_x
_atom_site_fract_y
_atom_site_fract_z
Si Si1 0.878760 0.113293 0.148190
Si Si2 0.934702 0.782489 0.615623
Si Si3 0.947886 0.389901 0.714283
Si Si4 0.384574 0.609111 0.330760
Si Si5 0.474152 0.310475 0.260195
Si Si6 0.280279 0.610316 0.691364
Si Si7 0.417566 0.234060 0.877740
Si Si8 0.027023 0.727286 0.880103
O O1 0.050257 0.134165 0.322103
O O2 0.001822 0.167479 0.171682
O O3 0.873494 0.000000 0.129683
O O4 0.598808 0.149292 0.974213
O O5 0.002626 0.677240 0.691682
O O6 0.660801 0.776905 0.404727
O O7 0.135951 0.805075 0.696476
O O8 0.028275 0.500000 0.752036
O O9 0.659814 0.383429 0.541022
O O10 0.097633 0.350842 0.873485
O O11 0.277372 0.500000 0.272255
O O12 0.388459 0.624452 0.260123
O O13 0.223093 0.693760 0.253688
O O14 0.607461 0.382854 0.301882
O O15 0.238282 0.261884 0.071631
O O16 0.296300 0.500000 0.726189
O O17 0.431424 0.677258 0.839331
O O18 0.000000 0.646298 0.500000
O O19 0.500000 0.270822 0.000000
#
# Coordination Sequence:
#
# PCOD8065401 Si02
#       8
#     4   4   4   4   4   4   4   4
#     4  10  22  42  65  88 110 145 199 259 316 360
#     4   9  20  36  59  82 118 155 191 240 293 353
#     4   9  19  35  56  84 120 160 200 239 285 344
#     4  10  21  36  57  86 123 164 206 240 280 346
#     4  11  21  37  55  82 126 162 195 234 285 344
#     4  11  22  35  55  84 126 171 196 222 276 350
#     4  10  20  38  59  86 113 152 194 248 291 345
#     4  11  21  35  58  86 114 153 193 254 300 343
#
# _framework density 19.804945
#
# number of rings (size 3 to 8) (size 9 to 14) (size 15 to 20)
#    0.000    1.875    2.500    1.500    0.000    7.000 
#    0.000    0.625    0.000   16.125    0.000    0.000 
#    0.000    0.000    0.000    0.000    0.000    0.000 
#
# Total GULP energy -396751.671461 kJ/mol
# GULP energy per Si atom -12398.489733 kJ/mol
# Density = 1.975987 g / cm^3
# Si number density = 19.804945 Si / 1000 Ang^3
#
#
#
# Elastic Constant Matrix: (Units=GPa)
#
#
# Indices 1 2 3 4 5 6 
#
# 1 93.3416 50.2963 31.8723 0.0000 3.4889 0.0000
# 2 50.2963 130.2442 40.1555 0.0000 1.6821 0.0000
# 3 31.8723 40.1555 88.0874 0.0000 -6.0595 0.0000
# 4 0.0000 0.0000 0.0000 20.3045 0.0000 2.8738
# 5 3.4889 1.6821 -6.0595 0.0000 35.0343 0.0000
# 6 0.0000 0.0000 0.0000 2.8738 0.0000 16.4872
#
#
#
# Elastic Compliance Matrix: (Units=1/GPa)
#
#
# Indices 1 2 3 4 5 6 
#
# 1 0.014316 -0.004504 -0.003248 0.000000 -0.001771 0.000000
# 2 -0.004504 0.010396 -0.003151 0.000000 -0.000596 0.000000
# 3 -0.003248 -0.003151 0.014165 0.000000 0.002925 0.000000
# 4 0.000000 0.000000 0.000000 0.050496 0.000000 -0.008802
# 5 -0.001771 -0.000596 0.002925 0.000000 0.029254 0.000000
# 6 0.000000 0.000000 0.000000 -0.008802 0.000000 0.062187
#
#
# Mechanical properties :
#
#
# Convention : Reuss Voigt Hill
#
# Bulk Modulus (GPa) = 58.57827 61.81349 60.19588
# Shear Modulus (GPa) = 24.00263 26.98847 25.49555
#
# Velocity S-wave (km/s) = 3.48509 3.69550 3.59183
# Velocity P-wave (km/s) = 6.77025 7.03476 6.90377
#
# Compressibility (1/GPa) = 0.01707118
#
# Stress axis : x y z
#
# Youngs Moduli (GPa) = 69.85374 96.18928 70.59579
#
# Poissons Ratio (x) = 0.43322 0.22933
# Poissons Ratio (y) = 0.31461 0.22242
# Poissons Ratio (z) = 0.22692 0.30305
#
# Static dielectric constant tensor:
#      x y z
#    x 3.714610 0.000000 0.017170 
#    y 0.000000 3.146960 0.000000 
#    z 0.017170 0.000000 3.808400 
# 
# 
# High freq. dielectric constant tensor:
#      x y z
#    x 1.781100 0.000000 -0.000450 
#    y 0.000000 1.723240 0.000000 
#    z -0.000450 0.000000 1.779580 
# 
# From -- ./inp_files/85419.got.cif
#   From: 2010.06.25/outbox.cif.g09.slc.cpg/sg10_43_cif.got.tgz:85419.got - 2010.06.27 22:07:45.
