data_PCOD8065785
_publ_section_title
;
Structure prediction by ZEFSAII (Michael W. Deem and Ramdas Pophale) SiO2 
 PCOD8065785
Probable space group: P 2/M
;
_chemical_formula_sum "Si O2"
_cell_formula_units_Z 26
_cell_length_a 29.789965
_cell_length_b 7.929810
_cell_length_c 29.799697
_cell_angle_alpha 90.000000
_cell_angle_beta 10.029310
_cell_angle_gamma 90.000000
_cell_volume 1225.950507
_symmetry_space_group_name_H-M "P 2/M"
_symmetry_group_IT_number 10
_symmetry_cell_setting 'monoclinic'
loop_
_space_group_symop_operation_xyz
x,y,z
-x,y,-z
-x,-y,-z
x,-y,z
loop_
_atom_site_type_symbol
_atom_site_label
_atom_site_fract_x
_atom_site_fract_y
_atom_site_fract_z
Si Si1 0.619107 0.192961 0.124727
Si Si2 0.902940 0.306991 0.495574
Si Si3 0.903306 0.806600 0.396650
Si Si4 0.669703 0.306718 0.173107
Si Si5 0.234557 0.000000 0.735205
Si Si6 0.199239 0.302955 0.701406
Si Si7 0.424396 0.800714 0.025232
O O1 0.357867 0.282736 0.364178
O O2 0.646685 0.198460 0.150987
O O3 0.610304 0.000000 0.117644
O O4 0.857974 0.282677 0.864052
O O5 0.898031 0.500000 0.486331
O O6 0.934172 0.201029 0.419630
O O7 0.142360 0.270861 0.292384
O O8 0.634772 0.261459 0.782902
O O9 0.896483 0.000000 0.388098
O O10 0.662169 0.500000 0.165868
O O11 0.434275 0.261421 0.437188
O O12 0.934352 0.261419 0.937123
O O13 0.500000 0.000000 0.500000
O O14 0.220371 0.174248 0.721597
O O15 0.000000 0.000000 0.000000
O O16 0.207573 0.500000 0.709371
O O17 0.410464 0.000000 0.037770
O O18 0.500000 0.733920 0.000000
#
# Coordination Sequence:
#
# PCOD8065785 Si02
#       7
#     4   4   4   4   2   4   4
#     4  10  21  34  57  87 116 156 204 252 292 345
#     4  12  25  40  63  92 123 161 200 254 317 364
#     4  10  21  38  55  82 120 161 204 240 294 365
#     4  10  21  38  60  88 122 161 199 245 307 356
#     4  12  26  42  66  96 122 164 210 252 312 366
#     4  10  23  41  62  91 125 162 204 253 308 367
#     4  11  24  43  66  90 117 157 204 250 309 379
#
# _framework density 21.208034999999999
#
# number of rings (size 3 to 8) (size 9 to 14) (size 15 to 20)
#    0.000    1.385    0.000    5.077    2.154    6.154 
#    0.000    0.000    0.000    0.000    0.000    0.000 
#    0.000    0.000    0.000    0.000    0.000    0.000 
#
# Total GULP energy -322465.125162 kJ/mol
# GULP energy per Si atom -12402.504814 kJ/mol
# Density = 2.115976 g / cm^3
# Si number density = 21.208035 Si / 1000 Ang^3
#
#
#
# Elastic Constant Matrix: (Units=GPa)
#
#
# Indices 1 2 3 4 5 6 
#
# 1 126.4460 28.3463 55.5112 0.0000 -0.7494 0.0000
# 2 28.3463 57.9705 24.8378 0.0000 -0.1723 0.0000
# 3 55.5112 24.8378 171.3626 0.0000 -2.1253 0.0000
# 4 0.0000 0.0000 0.0000 30.4056 0.0000 -5.6001
# 5 -0.7494 -0.1723 -2.1253 0.0000 45.3586 0.0000
# 6 0.0000 0.0000 0.0000 -5.6001 0.0000 1.0821
#
#
#
# Elastic Compliance Matrix: (Units=1/GPa)
#
#
# Indices 1 2 3 4 5 6 
#
# 1 0.009912 -0.003701 -0.002674 0.000000 0.000024 0.000000
# 2 -0.003701 0.019774 -0.001668 0.000000 -0.000064 0.000000
# 3 -0.002674 -0.001668 0.006947 0.000000 0.000275 0.000000
# 4 0.000000 0.000000 0.000000 0.702210 0.000000 3.634052
# 5 0.000024 -0.000064 0.000275 0.000000 0.022060 0.000000
# 6 0.000000 0.000000 0.000000 3.634052 0.000000 19.730928
#
#
# Mechanical properties :
#
#
# Convention : Reuss Voigt Hill
#
# Bulk Modulus (GPa) = 48.66869 63.68552 56.17711
# Shear Modulus (GPa) = 0.24373 31.84150 16.04261
#
# Velocity S-wave (km/s) = 0.33937 3.87898 2.75333
# Velocity P-wave (km/s) = 4.81161 7.08210 6.05424
#
# Compressibility (1/GPa) = 0.02054709
#
# Stress axis : x y z
#
# Youngs Moduli (GPa) = 100.88384 50.57055 143.94566
#
# Poissons Ratio (x) = 0.18716 0.38495
# Poissons Ratio (y) = 0.37338 0.24011
# Poissons Ratio (z) = 0.26979 0.08435
#
# Static dielectric constant tensor:
#      x y z
#    x 3.695820 0.000000 -0.071470 
#    y 0.000000 3.740430 0.000000 
#    z -0.071470 0.000000 4.314600 
# 
# 
# High freq. dielectric constant tensor:
#      x y z
#    x 1.831910 0.000000 -0.002820 
#    y 0.000000 1.823900 0.000000 
#    z -0.002820 0.000000 1.860410 
# 
# From -- ./inp_files/95947.got.cif
#   From: 2010.06.25/outbox.cif.g09.slc.cpg/sg10_48_cif.got.tgz:95947.got - 2010.06.27 22:07:45.
