data_PCOD8065953
_publ_section_title
;
Structure prediction by ZEFSAII (Michael W. Deem and Ramdas Pophale) SiO2 
 PCOD8065953
Probable space group: P 2/M
;
_chemical_formula_sum "Si O2"
_cell_formula_units_Z 32
_cell_length_a 10.397607
_cell_length_b 9.591870
_cell_length_c 18.679629
_cell_angle_alpha 90.000000
_cell_angle_beta 119.809474
_cell_angle_gamma 90.000000
_cell_volume 1616.464422
_symmetry_space_group_name_H-M "P 2/M"
_symmetry_group_IT_number 10
_symmetry_cell_setting 'monoclinic'
loop_
_space_group_symop_operation_xyz
x,y,z
-x,y,-z
-x,-y,-z
x,-y,z
loop_
_atom_site_type_symbol
_atom_site_label
_atom_site_fract_x
_atom_site_fract_y
_atom_site_fract_z
Si Si1 0.114985 0.846227 0.586305
Si Si2 0.860017 0.660509 0.202068
Si Si3 0.837826 0.333151 0.933615
Si Si4 0.655417 0.663865 0.015918
Si Si5 0.642889 0.335011 0.588126
Si Si6 0.649750 0.337419 0.753473
Si Si7 0.914458 0.844172 0.665888
Si Si8 0.333513 0.341041 0.714189
O O1 0.258166 0.749547 0.630900
O O2 0.000000 0.775568 0.500000
O O3 0.040109 0.859196 0.642033
O O4 0.161964 0.000000 0.571141
O O5 0.912545 0.500000 0.219733
O O6 0.786508 0.698968 0.106996
O O7 0.734740 0.689608 0.227208
O O8 0.007841 0.754808 0.249355
O O9 0.841832 0.500000 0.936987
O O10 0.788590 0.281417 0.839947
O O11 0.713494 0.278476 0.955718
O O12 0.000000 0.273842 0.000000
O O13 0.628573 0.500000 0.002512
O O14 0.500000 0.732789 0.000000
O O15 0.500000 0.299099 0.500000
O O16 0.676492 0.500000 0.592884
O O17 0.632035 0.278518 0.667718
O O18 0.778126 0.243523 0.594528
O O19 0.668775 0.500000 0.748766
O O20 0.505875 0.301728 0.761487
O O21 0.866279 0.000000 0.678321
O O22 0.308929 0.500000 0.684412
#
# Coordination Sequence:
#
# PCOD8065953 Si02
#       8
#     4   4   4   4   4   4   4   4
#     4   9  19  34  51  72  99 130 164 211 262 307
#     4   9  17  30  52  79 107 136 167 211 262 313
#     4   9  17  27  43  71 104 139 172 206 257 315
#     4   9  16  26  45  75 108 136 169 214 263 314
#     4  10  22  37  54  76 103 138 176 217 263 309
#     4   9  18  32  49  72 109 140 167 212 260 309
#     4  10  21  36  53  74 102 135 175 217 258 310
#     4   9  17  30  49  75 102 132 165 204 256 306
#
# _framework density 19.796289999999999
#
# number of rings (size 3 to 8) (size 9 to 14) (size 15 to 20)
#    0.000    2.750    0.000    1.125    3.500    4.000 
#    0.000    0.625    0.000    0.375    0.000    2.625 
#    0.000    0.000    0.000    0.000    0.000    0.000 
#
# Total GULP energy -396500.788022 kJ/mol
# GULP energy per Si atom -12390.649626 kJ/mol
# Density = 1.975123 g / cm^3
# Si number density = 19.796290 Si / 1000 Ang^3
#
#
#
# Elastic Constant Matrix: (Units=GPa)
#
#
# Indices 1 2 3 4 5 6 
#
# 1 51.8526 21.0249 45.7994 0.0000 18.5199 0.0000
# 2 21.0249 50.5099 22.7428 0.0000 10.2789 0.0000
# 3 45.7994 22.7428 126.8174 0.0000 1.4699 0.0000
# 4 0.0000 0.0000 0.0000 8.0556 0.0000 -2.1214
# 5 18.5199 10.2789 1.4699 0.0000 26.1164 0.0000
# 6 0.0000 0.0000 0.0000 -2.1214 0.0000 6.6592
#
#
#
# Elastic Compliance Matrix: (Units=1/GPa)
#
#
# Indices 1 2 3 4 5 6 
#
# 1 0.045262 -0.006279 -0.014886 0.000000 -0.028787 0.000000
# 2 -0.006279 0.024352 -0.002041 0.000000 -0.005017 0.000000
# 3 -0.014886 -0.002041 0.013505 0.000000 0.010600 0.000000
# 4 0.000000 0.000000 0.000000 0.135505 0.000000 0.043168
# 5 -0.028787 -0.005017 0.010600 0.000000 0.060082 0.000000
# 6 0.000000 0.000000 0.000000 0.043168 0.000000 0.163921
#
#
# Mechanical properties :
#
#
# Convention : Reuss Voigt Hill
#
# Bulk Modulus (GPa) = 27.24457 45.36823 36.30640
# Shear Modulus (GPa) = 9.97457 17.47375 13.72416
#
# Velocity S-wave (km/s) = 2.24712 2.97421 2.63586
# Velocity P-wave (km/s) = 4.53046 5.89592 5.25771
#
# Compressibility (1/GPa) = 0.03670456
#
# Stress axis : x y z
#
# Youngs Moduli (GPa) = 22.09368 41.06454 74.04845
#
# Poissons Ratio (x) = 0.25786 1.10231
# Poissons Ratio (y) = 0.13873 0.15115
# Poissons Ratio (z) = 0.32889 0.08382
#
# Static dielectric constant tensor:
#      x y z
#    x 3.600540 0.000000 0.026580 
#    y 0.000000 3.378090 0.000000 
#    z 0.026580 0.000000 3.815030 
# 
# 
# High freq. dielectric constant tensor:
#      x y z
#    x 1.768440 0.000000 0.005380 
#    y 0.000000 1.711480 0.000000 
#    z 0.005380 0.000000 1.784460 
# 
# From -- ./inp_files/83609.got.cif
#   From: 2010.06.25/outbox.cif.g09.slc.cpg/sg10_42_cif.got.tgz:83609.got - 2010.06.27 22:07:45.
