data_PCOD8065992
_publ_section_title
;
Structure prediction by ZEFSAII (Michael W. Deem and Ramdas Pophale) SiO2 
 PCOD8065992
Probable space group: P 2/M
;
_chemical_formula_sum "Si O2"
_cell_formula_units_Z 20
_cell_length_a 23.173235
_cell_length_b 8.709038
_cell_length_c 5.109272
_cell_angle_alpha 90.000000
_cell_angle_beta 70.797169
_cell_angle_gamma 90.000000
_cell_volume 973.763549
_symmetry_space_group_name_H-M "P 2/M"
_symmetry_group_IT_number 10
_symmetry_cell_setting 'monoclinic'
loop_
_space_group_symop_operation_xyz
x,y,z
-x,y,-z
-x,-y,-z
x,-y,z
loop_
_atom_site_type_symbol
_atom_site_label
_atom_site_fract_x
_atom_site_fract_y
_atom_site_fract_z
Si Si1 0.871746 0.820430 0.739908
Si Si2 0.534598 0.818518 0.698456
Si Si3 0.070269 0.320717 0.846012
Si Si4 0.335032 0.322838 0.456958
Si Si5 0.257166 0.322063 0.072361
O O1 0.913982 0.731778 0.470085
O O2 0.801326 0.782907 0.790642
O O3 0.883162 0.000000 0.690330
O O4 0.888444 0.769139 0.007737
O O5 0.500000 0.748009 0.500000
O O6 0.605342 0.777364 0.589034
O O7 0.528835 0.000000 0.707877
O O8 0.500000 0.747371 0.000000
O O9 0.084247 0.500000 0.855347
O O10 0.000000 0.281714 0.000000
O O11 0.353823 0.500000 0.450638
O O12 0.307009 0.282718 0.217740
O O13 0.285413 0.280145 0.750206
O O14 0.237260 0.500000 0.117865
#
# Coordination Sequence:
#
# PCOD8065992 Si02
#       5
#     4   4   4   4   4
#     4  12  25  40  63  95 126 158 201 254 307 355
#     4  10  21  36  54  78 109 145 182 225 284 348
#     4  11  24  43  66  90 121 165 208 245 298 366
#     4  10  21  36  57  83 109 145 192 239 284 336
#     4  10  21  38  58  82 115 153 193 236 289 353
#
# _framework density 20.538867
#
# number of rings (size 3 to 8) (size 9 to 14) (size 15 to 20)
#    0.000    1.400    0.000    5.400    0.000    8.000 
#    0.000    0.000    0.000    0.000    0.000    0.000 
#    0.000    0.000    0.000    0.000    0.000    0.000 
#
# Total GULP energy -248148.373525 kJ/mol
# GULP energy per Si atom -12407.418676 kJ/mol
# Density = 2.049212 g / cm^3
# Si number density = 20.538867 Si / 1000 Ang^3
#
#
#
# Elastic Constant Matrix: (Units=GPa)
#
#
# Indices 1 2 3 4 5 6 
#
# 1 88.8680 34.0770 20.2761 0.0000 0.1945 0.0000
# 2 34.0770 43.5171 20.3467 0.0000 -5.1095 0.0000
# 3 20.2761 20.3467 97.2974 0.0000 7.7060 0.0000
# 4 0.0000 0.0000 0.0000 21.5179 0.0000 -10.7107
# 5 0.1945 -5.1095 7.7060 0.0000 35.6126 0.0000
# 6 0.0000 0.0000 0.0000 -10.7107 0.0000 15.2720
#
#
#
# Elastic Compliance Matrix: (Units=1/GPa)
#
#
# Indices 1 2 3 4 5 6 
#
# 1 0.016243 -0.012647 -0.000600 0.000000 -0.001773 0.000000
# 2 -0.012647 0.036183 -0.005441 0.000000 0.006438 0.000000
# 3 -0.000600 -0.005441 0.011804 0.000000 -0.003332 0.000000
# 4 0.000000 0.000000 0.000000 0.071398 0.000000 0.050073
# 5 -0.001773 0.006438 -0.003332 0.000000 0.029734 0.000000
# 6 0.000000 0.000000 0.000000 0.050073 0.000000 0.100598
#
#
# Mechanical properties :
#
#
# Convention : Reuss Voigt Hill
#
# Bulk Modulus (GPa) = 37.23729 42.12023 39.67876
# Shear Modulus (GPa) = 16.01093 24.81267 20.41180
#
# Velocity S-wave (km/s) = 2.79506 3.47952 3.15590
# Velocity P-wave (km/s) = 5.34659 6.05763 5.71318
#
# Compressibility (1/GPa) = 0.02685480
#
# Stress axis : x y z
#
# Youngs Moduli (GPa) = 61.56492 27.63740 84.71434
#
# Poissons Ratio (x) = 0.34954 0.05080
# Poissons Ratio (y) = 0.77863 0.46091
# Poissons Ratio (z) = 0.03692 0.15037
#
# Static dielectric constant tensor:
#      x y z
#    x 3.673250 0.000000 0.150500 
#    y 0.000000 3.594760 0.000000 
#    z 0.150500 0.000000 4.054530 
# 
# 
# High freq. dielectric constant tensor:
#      x y z
#    x 1.813970 0.000000 0.003710 
#    y 0.000000 1.791550 0.000000 
#    z 0.003710 0.000000 1.822780 
# 
# From -- ./inp_files/11982.got.cif
#   From: 2010.06.25/outbox.cif.g09.slc.cpg/sg10_6_cif.got.tgz:11982.got - 2010.06.27 22:07:45.
