data_PCOD8065854
_publ_section_title
;
Structure prediction by ZEFSAII (Michael W. Deem and Ramdas Pophale) SiO2 
 PCOD8065854
Probable space group: P 2/M
;
_chemical_formula_sum "Si O2"
_cell_formula_units_Z 28
_cell_length_a 9.674557
_cell_length_b 14.152911
_cell_length_c 22.256021
_cell_angle_alpha 90.000000
_cell_angle_beta 150.387346
_cell_angle_gamma 90.000000
_cell_volume 1505.805999
_symmetry_space_group_name_H-M "P 2/M"
_symmetry_group_IT_number 10
_symmetry_cell_setting 'monoclinic'
loop_
_space_group_symop_operation_xyz
x,y,z
-x,y,-z
-x,-y,-z
x,-y,z
loop_
_atom_site_type_symbol
_atom_site_label
_atom_site_fract_x
_atom_site_fract_y
_atom_site_fract_z
Si Si1 0.287020 0.608665 0.643564
Si Si2 0.094723 0.500000 0.797393
Si Si3 0.306313 0.750324 0.262184
Si Si4 0.216803 0.311174 0.358355
Si Si5 0.257338 0.249647 0.737788
Si Si6 0.160713 0.296661 0.000022
Si Si7 0.727666 0.500000 0.999924
Si Si8 0.713257 0.891249 0.356592
O O1 0.365635 0.500000 0.682894
O O2 0.532689 0.656115 0.698241
O O3 0.259671 0.656134 0.698082
O O4 0.000000 0.622146 0.500000
O O5 0.123155 0.500000 0.879409
O O6 0.927632 0.408461 0.713884
O O7 0.394167 0.500000 0.879252
O O8 0.282103 0.751552 0.324614
O O9 0.468200 0.843864 0.302740
O O10 0.998588 0.749482 0.116622
O O11 0.500000 0.335382 0.500000
O O12 0.016327 0.248409 0.324461
O O13 0.532099 0.250463 0.883365
O O14 0.256751 0.156114 0.697130
O O15 0.174914 0.409276 0.000084
O O16 0.000000 0.269823 0.000000
O O17 0.000000 0.876481 0.500000
O O18 0.636460 0.000000 0.318194
#
# Coordination Sequence:
#
# PCOD8065854 Si02
#       8
#     4   2   4   4   4   4   2   4
#     4  10  21  35  51  76 115 157 200 249 296 348
#     4  11  23  38  54  82 119 181 216 244 290 359
#     4  11  23  39  59  90 120 158 206 251 310 366
#     4  12  24  39  59  85 128 169 208 257 307 365
#     4  11  23  39  59  90 120 158 206 251 310 366
#     4  12  22  37  60  83 120 164 212 256 301 348
#     4  11  23  38  54  80 125 173 218 256 282 350
#     4  10  21  43  71  93 118 153 202 264 323 376
#
# _framework density 18.594692999999999
#
# number of rings (size 3 to 8) (size 9 to 14) (size 15 to 20)
#    0.000    1.000    5.714    3.857    4.000    0.571 
#    0.000    2.143    0.000    2.571    0.000    2.000 
#    0.000    0.000    0.000    0.000    0.000    0.000 
#
# Total GULP energy -347364.514606 kJ/mol
# GULP energy per Si atom -12405.875522 kJ/mol
# Density = 1.855237 g / cm^3
# Si number density = 18.594693 Si / 1000 Ang^3
#
#
#
# Elastic Constant Matrix: (Units=GPa)
#
#
# Indices 1 2 3 4 5 6 
#
# 1 126.3629 42.3251 39.8303 0.0000 0.2562 0.0000
# 2 42.3251 129.4711 47.9729 0.0000 -0.0689 0.0000
# 3 39.8303 47.9729 148.5410 0.0000 -0.5381 0.0000
# 4 0.0000 0.0000 0.0000-1894.7342 0.0000 31.0251
# 5 0.2562 -0.0689 -0.5381 0.0000 26.1039 0.0000
# 6 0.0000 0.0000 0.0000 31.0251 0.0000 33.9315
#
#
#
# Elastic Compliance Matrix: (Units=1/GPa)
#
#
# Indices 1 2 3 4 5 6 
#
# 1 0.009254 -0.002392 -0.001709 0.000000 -0.000132 0.000000
# 2 -0.002392 0.009392 -0.002392 0.000000 -0.000001 0.000000
# 3 -0.001709 -0.002392 0.007964 0.000000 0.000175 0.000000
# 4 0.000000 0.000000 0.000000 -0.000520 0.000000 0.000475
# 5 -0.000132 -0.000001 0.000175 0.000000 0.038313 0.000000
# 6 0.000000 0.000000 0.000000 0.000475 0.000000 0.029036
#
#
# Mechanical properties :
#
#
# Convention : Reuss Voigt Hill
#
# Bulk Modulus (GPa) = 73.40399 73.84796 73.62597
# Shear Modulus (GPa) = 45.05860 -348.65665 -151.79902
#
# Velocity S-wave (km/s) = 4.92794 -13.70804 -9.04505
# Velocity P-wave (km/s) = 8.48180 14.51711 8.33083
#
# Compressibility (1/GPa) = 0.01362324
#
# Stress axis : x y z
#
# Youngs Moduli (GPa) = 108.06201 106.47458 125.57104
#
# Poissons Ratio (x) = 0.25467 0.21465
# Poissons Ratio (y) = 0.25847 0.30035
# Poissons Ratio (z) = 0.18472 0.25467
#
# Static dielectric constant tensor:
#      x y z
#    x 3.476060 0.000000 -0.002610 
#    y 0.000000 3.185370 0.000000 
#    z -0.002610 0.000000 3.728530 
# 
# 
# High freq. dielectric constant tensor:
#      x y z
#    x 1.722780 0.000000 -0.000230 
#    y 0.000000 1.690020 0.000000 
#    z -0.000230 0.000000 1.746500 
# 
# From -- ./inp_files/29640.got.cif
#   From: 2010.06.25/outbox.cif.g09.slc.cpg/sg10_15_cif.got.tgz:29640.got - 2010.06.27 22:07:45.
