data_PCOD8065979
_publ_section_title
;
Structure prediction by ZEFSAII (Michael W. Deem and Ramdas Pophale) SiO2 
 PCOD8065979
Probable space group: P 2/M
;
_chemical_formula_sum "Si O2"
_cell_formula_units_Z 24
_cell_length_a 20.942878
_cell_length_b 9.217551
_cell_length_c 9.892061
_cell_angle_alpha 90.000000
_cell_angle_beta 134.626212
_cell_angle_gamma 90.000000
_cell_volume 1359.059780
_symmetry_space_group_name_H-M "P 2/M"
_symmetry_group_IT_number 10
_symmetry_cell_setting 'monoclinic'
loop_
_space_group_symop_operation_xyz
x,y,z
-x,y,-z
-x,-y,-z
x,-y,z
loop_
_atom_site_type_symbol
_atom_site_label
_atom_site_fract_x
_atom_site_fract_y
_atom_site_fract_z
Si Si1 0.076020 0.332086 0.002351
Si Si2 0.394361 0.330103 0.691709
Si Si3 0.401382 0.331502 0.010139
Si Si4 0.256757 0.830601 0.298732
Si Si5 0.933595 0.169729 0.281849
Si Si6 0.269705 0.165316 0.007996
O O1 0.098968 0.500000 0.010494
O O2 0.163959 0.251549 0.188171
O O3 0.040029 0.261177 0.810601
O O4 0.000000 0.312624 0.000000
O O5 0.379147 0.500000 0.638118
O O6 0.496322 0.283094 0.812334
O O7 0.331836 0.231454 0.507940
O O8 0.371602 0.294734 0.813462
O O9 0.393397 0.500000 0.024607
O O10 0.336519 0.257545 0.019034
O O11 0.289259 0.804520 0.194201
O O12 0.241553 0.000000 0.305402
O O13 0.000000 0.215181 0.500000
O O14 0.941136 0.000000 0.256066
O O15 0.832767 0.207992 0.178397
O O16 0.287726 0.000000 0.996879
#
# Coordination Sequence:
#
# PCOD8065979 Si02
#       6
#     4   4   4   4   4   4
#     4  10  21  36  54  78 106 135 171 214 256 301
#     4   9  19  36  54  75 104 135 171 213 254 302
#     4   9  19  35  54  75 102 137 172 209 256 306
#     4  10  21  36  54  77 104 136 172 210 256 306
#     4   9  19  36  55  76 105 139 173 211 256 305
#     4   9  19  34  51  75 105 134 170 214 254 299
#
# _framework density 17.659265999999999
#
# number of rings (size 3 to 8) (size 9 to 14) (size 15 to 20)
#    0.000    2.667    0.000    3.000    0.000    8.333 
#    0.000    8.333    0.000    0.000    0.000    0.000 
#    0.000    0.000    0.000    0.000    0.000    0.000 
#
# Total GULP energy -297619.112573 kJ/mol
# GULP energy per Si atom -12400.796357 kJ/mol
# Density = 1.761907 g / cm^3
# Si number density = 17.659266 Si / 1000 Ang^3
#
#
#
# Elastic Constant Matrix: (Units=GPa)
#
#
# Indices 1 2 3 4 5 6 
#
# 1 113.0183 67.2036 57.7627 0.0000 -1.9435 0.0000
# 2 67.2036 95.5760 74.0328 0.0000 0.1430 0.0000
# 3 57.7627 74.0328 141.0062 0.0000 5.5564 0.0000
# 4 0.0000 0.0000 0.0000 35.6872 0.0000 -2.9852
# 5 -1.9435 0.1430 5.5564 0.0000 12.9816 0.0000
# 6 0.0000 0.0000 0.0000 -2.9852 0.0000 70.3813
#
#
#
# Elastic Compliance Matrix: (Units=1/GPa)
#
#
# Indices 1 2 3 4 5 6 
#
# 1 0.015405 -0.009874 -0.001243 0.000000 0.002947 0.000000
# 2 -0.009874 0.024153 -0.008714 0.000000 0.001986 0.000000
# 3 -0.001243 -0.008714 0.012389 0.000000 -0.005393 0.000000
# 4 0.000000 0.000000 0.000000 0.028121 0.000000 0.001193
# 5 0.002947 0.001986 -0.005393 0.000000 0.079760 0.000000
# 6 0.000000 0.000000 0.000000 0.001193 0.000000 0.014259
#
#
# Mechanical properties :
#
#
# Convention : Reuss Voigt Hill
#
# Bulk Modulus (GPa) = 81.40159 83.06655 82.23407
# Shear Modulus (GPa) = 22.95227 33.85013 28.40120
#
# Velocity S-wave (km/s) = 3.60909 4.38293 4.01470
# Velocity P-wave (km/s) = 7.97265 8.52960 8.25582
#
# Compressibility (1/GPa) = 0.01228477
#
# Stress axis : x y z
#
# Youngs Moduli (GPa) = 64.91320 41.40304 80.71776
#
# Poissons Ratio (x) = 0.40881 0.10031
# Poissons Ratio (y) = 0.64094 0.70341
# Poissons Ratio (z) = 0.08067 0.36081
#
# Static dielectric constant tensor:
#      x y z
#    x 3.286460 0.000000 0.030970 
#    y 0.000000 3.291350 0.000000 
#    z 0.030970 0.000000 3.396940 
# 
# 
# High freq. dielectric constant tensor:
#      x y z
#    x 1.682980 0.000000 0.001680 
#    y 0.000000 1.686710 0.000000 
#    z 0.001680 0.000000 1.688160 
# 
# From -- ./inp_files/33735.got.cif
#   From: 2010.06.25/outbox.cif.g09.slc.cpg/sg10_17_cif.got.tgz:33735.got - 2010.06.27 22:07:45.
