data_PCOD8065057
_publ_section_title
;
Structure prediction by ZEFSAII (Michael W. Deem and Ramdas Pophale) SiO2 
 PCOD8065057
Probable space group: P 2/M
;
_chemical_formula_sum "Si O2"
_cell_formula_units_Z 16
_cell_length_a 26.686183
_cell_length_b 7.740057
_cell_length_c 9.606718
_cell_angle_alpha 90.000000
_cell_angle_beta 153.802659
_cell_angle_gamma 90.000000
_cell_volume 875.994065
_symmetry_space_group_name_H-M "P 2/M"
_symmetry_group_IT_number 10
_symmetry_cell_setting 'monoclinic'
loop_
_space_group_symop_operation_xyz
x,y,z
-x,y,-z
-x,-y,-z
x,-y,z
loop_
_atom_site_type_symbol
_atom_site_label
_atom_site_fract_x
_atom_site_fract_y
_atom_site_fract_z
Si Si1 0.111045 0.500000 0.686026
Si Si2 0.321617 0.691742 0.914475
Si Si3 0.712794 0.198124 0.870399
Si Si4 0.109629 0.500000 0.366722
Si Si5 0.507381 0.198983 0.171435
O O1 0.068057 0.500000 0.421342
O O2 0.000000 0.500000 0.500000
O O3 0.182239 0.326102 0.892938
O O4 0.371368 0.500000 0.069683
O O5 0.188659 0.670328 0.537061
O O6 0.331166 0.801205 0.079681
O O7 0.389092 0.779371 0.957510
O O8 0.611877 0.272497 0.521644
O O9 0.746794 0.000000 0.918296
O O10 0.000000 0.500000 0.000000
O O11 0.532516 0.000000 0.211476
O O12 0.500000 0.288979 0.000000
#
# Coordination Sequence:
#
# PCOD8065057 Si02
#       5
#     2   4   4   2   4
#     4  10  22  37  56  81 105 138 186 226 261 322
#     4   9  19  33  55  81 102 142 182 220 259 321
#     4  10  20  37  58  78 109 146 178 220 267 319
#     4   8  18  35  52  75 105 136 176 228 265 306
#     4  10  21  34  50  80 115 141 175 221 270 323
#
# _framework density 18.264965
#
# number of rings (size 3 to 8) (size 9 to 14) (size 15 to 20)
#    0.750    1.750    1.250    1.500    1.750    6.000 
#    0.000    0.000    0.000   18.750    0.000    0.000 
#    0.000    0.000    0.000    0.000    0.000    0.000 
#
# Total GULP energy -198248.424921 kJ/mol
# GULP energy per Si atom -12390.526558 kJ/mol
# Density = 1.822339 g / cm^3
# Si number density = 18.264965 Si / 1000 Ang^3
#
#
#
# Elastic Constant Matrix: (Units=GPa)
#
#
# Indices 1 2 3 4 5 6 
#
# 1 152.6555 21.4656 90.7209 0.0000 9.0572 0.0000
# 2 21.4656 67.8950 31.1774 0.0000 -0.1257 0.0000
# 3 90.7209 31.1774 160.2623 0.0000 -17.2315 0.0000
# 4 0.0000 0.0000 0.0000 18.5597 0.0000 1.5608
# 5 9.0572 -0.1257 -17.2315 0.0000 27.5809 0.0000
# 6 0.0000 0.0000 0.0000 1.5608 0.0000 16.9572
#
#
#
# Elastic Compliance Matrix: (Units=1/GPa)
#
#
# Indices 1 2 3 4 5 6 
#
# 1 0.011427 -0.000271 -0.007311 0.000000 -0.008321 0.000000
# 2 -0.000271 0.016286 -0.003213 0.000000 -0.001844 0.000000
# 3 -0.007311 -0.003213 0.012071 0.000000 0.009927 0.000000
# 4 0.000000 0.000000 0.000000 0.054300 0.000000 -0.004998
# 5 -0.008321 -0.001844 0.009927 0.000000 0.045183 0.000000
# 6 0.000000 0.000000 0.000000 -0.004998 0.000000 0.059432
#
#
# Mechanical properties :
#
#
# Convention : Reuss Voigt Hill
#
# Bulk Modulus (GPa) = 54.96208 74.17116 64.56662
# Shear Modulus (GPa) = 22.08927 28.44951 25.26939
#
# Velocity S-wave (km/s) = 3.48139 3.95093 3.72356
# Velocity P-wave (km/s) = 6.80565 7.84281 7.34257
#
# Compressibility (1/GPa) = 0.01819436
#
# Stress axis : x y z
#
# Youngs Moduli (GPa) = 87.51138 61.40090 82.84607
#
# Poissons Ratio (x) = 0.01665 0.60565
# Poissons Ratio (y) = 0.02373 0.26620
# Poissons Ratio (z) = 0.63976 0.19729
#
# Static dielectric constant tensor:
#      x y z
#    x 3.389120 0.000000 -0.186580 
#    y 0.000000 3.205410 0.000000 
#    z -0.186580 0.000000 3.299420 
# 
# 
# High freq. dielectric constant tensor:
#      x y z
#    x 1.706790 0.000000 -0.006770 
#    y 0.000000 1.698660 0.000000 
#    z -0.006770 0.000000 1.696140 
# 
# From -- ./inp_files/30905.got.cif
#   From: 2010.06.25/outbox.cif.g09.slc.cpg/sg10_16_cif.got.tgz:30905.got - 2010.06.27 22:07:45.
