data_PCOD8065902
_publ_section_title
;
Structure prediction by ZEFSAII (Michael W. Deem and Ramdas Pophale) SiO2 
 PCOD8065902
Probable space group: P 2/M
;
_chemical_formula_sum "Si O2"
_cell_formula_units_Z 28
_cell_length_a 12.096991
_cell_length_b 13.398565
_cell_length_c 8.821428
_cell_angle_alpha 90.000000
_cell_angle_beta 109.104982
_cell_angle_gamma 90.000000
_cell_volume 1351.044923
_symmetry_space_group_name_H-M "P 2/M"
_symmetry_group_IT_number 10
_symmetry_cell_setting 'monoclinic'
loop_
_space_group_symop_operation_xyz
x,y,z
-x,y,-z
-x,-y,-z
x,-y,z
loop_
_atom_site_type_symbol
_atom_site_label
_atom_site_fract_x
_atom_site_fract_y
_atom_site_fract_z
Si Si1 0.318280 0.296511 0.572742
Si Si2 0.743351 0.611478 0.764707
Si Si3 0.112790 0.262426 0.973791
Si Si4 0.419027 0.111588 0.743412
Si Si5 0.515625 0.611786 0.842927
Si Si6 0.329351 0.886943 0.041549
Si Si7 0.894701 0.382935 0.335963
O O1 0.292525 0.316765 0.387331
O O2 0.335107 0.177545 0.598237
O O3 0.443551 0.339044 0.676252
O O4 0.223018 0.345841 0.638321
O O5 0.760485 0.500000 0.706794
O O6 0.650427 0.614343 0.858826
O O7 0.861455 0.648440 0.895634
O O8 0.084395 0.311566 0.798721
O O9 0.219951 0.185041 0.021676
O O10 0.000000 0.208719 0.000000
O O11 0.554736 0.149914 0.813955
O O12 0.417961 0.000000 0.676256
O O13 0.360287 0.113704 0.880218
O O14 0.467654 0.500000 0.838832
O O15 0.500000 0.666630 0.000000
O O16 0.296537 0.000000 0.076027
O O17 0.883837 0.500000 0.285199
O O18 0.000000 0.366545 0.500000
#
# Coordination Sequence:
#
# PCOD8065902 Si02
#       7
#     4   4   4   4   4   4   4
#     4  12  21  36  62  87 121 158 205 255 312 367
#     4  11  24  39  56  88 129 167 206 252 309 367
#     4  12  24  40  62  88 123 169 211 256 308 370
#     4   9  19  37  66  96 123 154 198 261 319 373
#     4  10  21  35  55  85 120 159 202 249 304 367
#     4   9  19  39  65  95 123 155 203 257 317 374
#     4  11  24  41  61  87 119 162 214 261 305 364
#
# _framework density 20.724699999999999
#
# number of rings (size 3 to 8) (size 9 to 14) (size 15 to 20)
#    0.000    1.429    1.429    5.571    2.000    4.857 
#    0.000    0.714    0.000    6.857    0.000    0.000 
#    0.000    0.000    0.000    0.000    0.000    0.000 
#
# Total GULP energy -347117.958110 kJ/mol
# GULP energy per Si atom -12397.069933 kJ/mol
# Density = 2.067753 g / cm^3
# Si number density = 20.724700 Si / 1000 Ang^3
#
#
#
# Elastic Constant Matrix: (Units=GPa)
#
#
# Indices 1 2 3 4 5 6 
#
# 1 108.2945 45.5506 16.9710 0.0000 0.5708 0.0000
# 2 45.5506 104.8305 38.8413 0.0000 5.7058 0.0000
# 3 16.9710 38.8413 105.8166 0.0000 -0.6149 0.0000
# 4 0.0000 0.0000 0.0000 32.0267 0.0000 4.3643
# 5 0.5708 5.7058 -0.6149 0.0000 29.6042 0.0000
# 6 0.0000 0.0000 0.0000 4.3643 0.0000 25.4819
#
#
#
# Elastic Compliance Matrix: (Units=1/GPa)
#
#
# Indices 1 2 3 4 5 6 
#
# 1 0.011315 -0.004961 0.000010 0.000000 0.000738 0.000000
# 2 -0.004961 0.013362 -0.004124 0.000000 -0.002565 0.000000
# 3 0.000010 -0.004124 0.010968 0.000000 0.001022 0.000000
# 4 0.000000 0.000000 0.000000 0.031970 0.000000 -0.005476
# 5 0.000738 -0.002565 0.001022 0.000000 0.034280 0.000000
# 6 0.000000 0.000000 0.000000 -0.005476 0.000000 0.040181
#
#
# Mechanical properties :
#
#
# Convention : Reuss Voigt Hill
#
# Bulk Modulus (GPa) = 57.15212 57.96303 57.55758
# Shear Modulus (GPa) = 30.10980 31.92780 31.01880
#
# Velocity S-wave (km/s) = 3.81576 3.92926 3.87293
# Velocity P-wave (km/s) = 6.85930 6.97240 6.91608
#
# Compressibility (1/GPa) = 0.01749716
#
# Stress axis : x y z
#
# Youngs Moduli (GPa) = 88.37763 74.83699 91.17099
#
# Poissons Ratio (x) = 0.37124 -0.00095
# Poissons Ratio (y) = 0.43841 0.37600
# Poissons Ratio (z) = -0.00092 0.30864
#
# Static dielectric constant tensor:
#      x y z
#    x 3.757440 0.000000 0.080110 
#    y 0.000000 4.105690 0.000000 
#    z 0.080110 0.000000 3.635260 
# 
# 
# High freq. dielectric constant tensor:
#      x y z
#    x 1.810800 0.000000 0.001200 
#    y 0.000000 1.812990 0.000000 
#    z 0.001200 0.000000 1.805340 
# 
# From -- ./inp_files/25036.got.cif
#   From: 2010.06.25/outbox.cif.g09.slc.cpg/sg10_13_cif.got.tgz:25036.got - 2010.06.27 22:07:45.
