data_PCOD8065158
_publ_section_title
;
Structure prediction by ZEFSAII (Michael W. Deem and Ramdas Pophale) SiO2 
 PCOD8065158
Probable space group: P 2/M
;
_chemical_formula_sum "Si O2"
_cell_formula_units_Z 28
_cell_length_a 14.637444
_cell_length_b 8.595156
_cell_length_c 21.611574
_cell_angle_alpha 90.000000
_cell_angle_beta 31.007529
_cell_angle_gamma 90.000000
_cell_volume 1400.682519
_symmetry_space_group_name_H-M "P 2/M"
_symmetry_group_IT_number 10
_symmetry_cell_setting 'monoclinic'
loop_
_space_group_symop_operation_xyz
x,y,z
-x,y,-z
-x,-y,-z
x,-y,z
loop_
_atom_site_type_symbol
_atom_site_label
_atom_site_fract_x
_atom_site_fract_y
_atom_site_fract_z
Si Si1 0.570625 0.183659 0.023052
Si Si2 0.949141 0.819351 0.118564
Si Si3 0.965979 0.182377 0.794789
Si Si4 0.923253 0.319172 0.396985
Si Si5 0.356715 0.179328 0.355072
Si Si6 0.262613 0.319478 0.864357
Si Si7 0.237640 0.820081 0.291326
O O1 0.435599 0.231067 0.155805
O O2 0.582223 0.000000 0.010797
O O3 0.500000 0.256130 0.000000
O O4 0.767196 0.247994 0.921477
O O5 0.926627 0.784331 0.204543
O O6 0.800984 0.721697 0.168220
O O7 0.918505 0.000000 0.122492
O O8 0.147013 0.776239 0.981023
O O9 0.055056 0.274074 0.687044
O O10 0.963994 0.000000 0.779487
O O11 0.881980 0.500000 0.426324
O O12 0.753781 0.226190 0.520584
O O13 0.096584 0.282177 0.336679
O O14 0.531875 0.281420 0.247427
O O15 0.228843 0.207988 0.369979
O O16 0.413871 0.000000 0.326154
O O17 0.230817 0.500000 0.895153
O O18 0.200129 0.000000 0.296091
#
# Coordination Sequence:
#
# PCOD8065158 Si02
#       7
#     4   4   4   4   4   4   4
#     4   9  15  28  55  83 110 140 180 232 278 325
#     4  10  20  37  64  92 118 151 195 238 279 340
#     4  10  20  37  60  85 114 154 199 240 282 334
#     4  12  25  38  54  81 120 157 191 238 294 350
#     4  11  23  40  62  83 109 151 204 247 282 338
#     4  11  22  38  61  90 124 152 182 235 299 349
#     4  10  20  37  60  84 110 150 198 241 285 338
#
# _framework density 19.990254
#
# number of rings (size 3 to 8) (size 9 to 14) (size 15 to 20)
#    0.000    1.571    1.429    5.571    0.000    6.286 
#    0.000    2.143    0.000    4.286    0.000    0.000 
#    0.000    0.000    0.000    0.000    0.000    0.000 
#
# Total GULP energy -347262.463637 kJ/mol
# GULP energy per Si atom -12402.230844 kJ/mol
# Density = 1.994476 g / cm^3
# Si number density = 19.990254 Si / 1000 Ang^3
#
#
#
# Elastic Constant Matrix: (Units=GPa)
#
#
# Indices 1 2 3 4 5 6 
#
# 1 84.5719 25.2437 25.7298 0.0000 13.0328 0.0000
# 2 25.2437 60.1204 13.8798 0.0000 8.3556 0.0000
# 3 25.7298 13.8798 69.5886 0.0000 14.5626 0.0000
# 4 0.0000 0.0000 0.0000 20.5697 0.0000 -4.8750
# 5 13.0328 8.3556 14.5626 0.0000 27.0507 0.0000
# 6 0.0000 0.0000 0.0000 -4.8750 0.0000 19.8588
#
#
#
# Elastic Compliance Matrix: (Units=1/GPa)
#
#
# Indices 1 2 3 4 5 6 
#
# 1 0.015014 -0.004916 -0.003803 0.000000 -0.003668 0.000000
# 2 -0.004916 0.019431 -0.001462 0.000000 -0.002846 0.000000
# 3 -0.003803 -0.001462 0.017569 0.000000 -0.007174 0.000000
# 4 0.000000 0.000000 0.000000 0.051618 0.000000 0.012672
# 5 -0.003668 -0.002846 -0.007174 0.000000 0.043476 0.000000
# 6 0.000000 0.000000 0.000000 0.012672 0.000000 0.053466
#
#
# Mechanical properties :
#
#
# Convention : Reuss Voigt Hill
#
# Bulk Modulus (GPa) = 31.59501 38.22083 34.90792
# Shear Modulus (GPa) = 21.59935 23.45768 22.52852
#
# Velocity S-wave (km/s) = 3.29065 3.42929 3.36069
# Velocity P-wave (km/s) = 5.50249 5.90265 5.70608
#
# Compressibility (1/GPa) = 0.03165057
#
# Stress axis : x y z
#
# Youngs Moduli (GPa) = 66.60457 51.46489 56.91726
#
# Poissons Ratio (x) = 0.25302 0.21647
# Poissons Ratio (y) = 0.32745 0.08322
# Poissons Ratio (z) = 0.25331 0.07525
#
# Static dielectric constant tensor:
#      x y z
#    x 3.628200 0.000000 0.098580 
#    y 0.000000 3.435180 0.000000 
#    z 0.098580 0.000000 3.614320 
# 
# 
# High freq. dielectric constant tensor:
#      x y z
#    x 1.780840 0.000000 0.008840 
#    y 0.000000 1.762880 0.000000 
#    z 0.008840 0.000000 1.776540 
# 
# From -- ./inp_files/84914.got.cif
#   From: 2010.06.25/outbox.cif.g09.slc.cpg/sg10_43_cif.got.tgz:84914.got - 2010.06.27 22:07:45.
