data_PCOD8065306
_publ_section_title
;
Structure prediction by ZEFSAII (Michael W. Deem and Ramdas Pophale) SiO2 
 PCOD8065306
Probable space group: P 2/M
;
_chemical_formula_sum "Si O2"
_cell_formula_units_Z 28
_cell_length_a 10.140572
_cell_length_b 8.846613
_cell_length_c 25.636744
_cell_angle_alpha 90.000000
_cell_angle_beta 34.695607
_cell_angle_gamma 90.000000
_cell_volume 1309.121088
_symmetry_space_group_name_H-M "P 2/M"
_symmetry_group_IT_number 10
_symmetry_cell_setting 'monoclinic'
loop_
_space_group_symop_operation_xyz
x,y,z
-x,y,-z
-x,-y,-z
x,-y,z
loop_
_atom_site_type_symbol
_atom_site_label
_atom_site_fract_x
_atom_site_fract_y
_atom_site_fract_z
Si Si1 0.341910 0.677445 0.598792
Si Si2 0.418450 0.677964 0.924177
Si Si3 0.964119 0.174992 0.886113
Si Si4 0.192466 0.822542 0.368440
Si Si5 0.630343 0.821988 0.166883
Si Si6 0.695844 0.821513 0.552987
Si Si7 0.912535 0.175976 0.783218
O O1 0.500000 0.738923 0.500000
O O2 0.300664 0.500000 0.608278
O O3 0.480073 0.722642 0.605548
O O4 0.093043 0.758159 0.682282
O O5 0.441119 0.500000 0.914455
O O6 0.303673 0.738013 0.907846
O O7 0.667990 0.747356 0.853246
O O8 0.251656 0.724694 0.025603
O O9 0.005220 0.207568 0.811615
O O10 0.192590 0.220428 0.844380
O O11 0.901164 0.000000 0.915756
O O12 0.373480 0.761475 0.266670
O O13 0.257368 0.761829 0.404300
O O14 0.924330 0.782791 0.443242
O O15 0.223872 0.000000 0.361706
O O16 0.633824 0.000000 0.154710
O O17 0.636670 0.000000 0.569517
O O18 0.883017 0.000000 0.781464
#
# Coordination Sequence:
#
# PCOD8065306 Si02
#       7
#     4   4   4   4   4   4   4
#     4  11  25  41  57  85 128 164 196 244 302 363
#     4  12  26  41  60  92 132 168 203 249 311 376
#     4  10  22  42  68  95 122 157 210 266 308 360
#     4   8  16  32  58  89 117 149 198 258 301 343
#     4  10  20  37  62  91 124 162 206 256 308 358
#     4   9  17  34  59  86 115 152 205 254 296 351
#     4  11  24  44  70  94 118 158 213 262 308 363
#
# _framework density 21.388394000000002
#
# number of rings (size 3 to 8) (size 9 to 14) (size 15 to 20)
#    0.000    1.857    0.000    4.714    2.000    8.571 
#    0.000    3.571    0.000    0.000    0.000    0.000 
#    0.000    0.000    0.000    0.000    0.000    0.000 
#
# Total GULP energy -347191.818876 kJ/mol
# GULP energy per Si atom -12399.707817 kJ/mol
# Density = 2.133971 g / cm^3
# Si number density = 21.388394 Si / 1000 Ang^3
#
#
#
# Elastic Constant Matrix: (Units=GPa)
#
#
# Indices 1 2 3 4 5 6 
#
# 1 63.3299 30.2654 9.7219 0.0000 -3.2193 0.0000
# 2 30.2654 89.9999 48.0944 0.0000 -1.3468 0.0000
# 3 9.7219 48.0944 122.6539 0.0000 -2.2064 0.0000
# 4 0.0000 0.0000 0.0000 26.7195 0.0000 -5.0133
# 5 -3.2193 -1.3468 -2.2064 0.0000 34.4528 0.0000
# 6 0.0000 0.0000 0.0000 -5.0133 0.0000 -3.5745
#
#
#
# Elastic Compliance Matrix: (Units=1/GPa)
#
#
# Indices 1 2 3 4 5 6 
#
# 1 0.019053 -0.007074 0.001292 0.000000 0.001587 0.000000
# 2 -0.007074 0.016684 -0.005989 0.000000 -0.000392 0.000000
# 3 0.001292 -0.005989 0.010409 0.000000 0.000553 0.000000
# 4 0.000000 0.000000 0.000000 0.029629 0.000000 -0.041555
# 5 0.001587 -0.000392 0.000553 0.000000 0.029194 0.000000
# 6 0.000000 0.000000 0.000000 -0.041555 0.000000 -0.221475
#
#
# Mechanical properties :
#
#
# Convention : Reuss Voigt Hill
#
# Bulk Modulus (GPa) = 44.23694 50.23857 47.23775
# Shear Modulus (GPa) = -58.52742 24.04636 -17.24053
#
# Velocity S-wave (km/s) = -5.23675 3.35665 -2.84222
# Velocity P-wave (km/s) = 3.97958 6.20987 3.37086
#
# Compressibility (1/GPa) = 0.02260554
#
# Stress axis : x y z
#
# Youngs Moduli (GPa) = 52.48428 59.93656 96.07308
#
# Poissons Ratio (x) = 0.42400 -0.12414
# Poissons Ratio (y) = 0.37128 0.57534
# Poissons Ratio (z) = -0.06782 0.35893
#
# Static dielectric constant tensor:
#      x y z
#    x 3.884970 0.000000 0.047460 
#    y 0.000000 3.508010 0.000000 
#    z 0.047460 0.000000 4.287490 
# 
# 
# High freq. dielectric constant tensor:
#      x y z
#    x 1.842900 0.000000 -0.003220 
#    y 0.000000 1.806770 0.000000 
#    z -0.003220 0.000000 1.857120 
# 
# From -- ./inp_files/91945.got.cif
#   From: 2010.06.25/outbox.cif.g09.slc.cpg/sg10_46_cif.got.tgz:91945.got - 2010.06.27 22:07:45.
