data_PCOD8065433
_publ_section_title
;
Structure prediction by ZEFSAII (Michael W. Deem and Ramdas Pophale) SiO2 
 PCOD8065433
Probable space group: P 2/M
;
_chemical_formula_sum "Si O2"
_cell_formula_units_Z 32
_cell_length_a 30.208257
_cell_length_b 12.080882
_cell_length_c 9.110578
_cell_angle_alpha 90.000000
_cell_angle_beta 29.529467
_cell_angle_gamma 90.000000
_cell_volume 1638.715675
_symmetry_space_group_name_H-M "P 2/M"
_symmetry_group_IT_number 10
_symmetry_cell_setting 'monoclinic'
loop_
_space_group_symop_operation_xyz
x,y,z
-x,y,-z
-x,-y,-z
x,-y,z
loop_
_atom_site_type_symbol
_atom_site_label
_atom_site_fract_x
_atom_site_fract_y
_atom_site_fract_z
Si Si1 0.542169 0.198062 0.236102
Si Si2 0.784549 0.239959 0.875777
Si Si3 0.106164 0.873787 0.691388
Si Si4 0.320098 0.374188 0.064258
Si Si5 0.327638 0.119793 0.369000
Si Si6 0.807088 0.710981 0.330851
Si Si7 0.614104 0.125601 0.488618
Si Si8 0.101939 0.372353 0.210336
O O1 0.500000 0.136918 0.500000
O O2 0.458351 0.212678 0.366798
O O3 0.587081 0.313168 0.159175
O O4 0.619170 0.124873 0.938769
O O5 0.854522 0.171549 0.574904
O O6 0.726072 0.323759 0.946592
O O7 0.840023 0.303905 0.840398
O O8 0.715592 0.155095 0.149689
O O9 0.135960 0.797190 0.739065
O O10 0.140024 0.000000 0.616708
O O11 0.000000 0.869050 0.000000
O O12 0.345577 0.500000 0.957329
O O13 0.249660 0.369867 0.401477
O O14 0.256750 0.216841 0.588833
O O15 0.396041 0.132935 0.306584
O O16 0.279683 0.000000 0.513838
O O17 0.865196 0.638026 0.052574
O O18 0.592822 0.000000 0.496989
O O19 0.106439 0.500000 0.245961
O O20 0.000000 0.328520 0.500000
#
# Coordination Sequence:
#
# PCOD8065433 Si02
#       8
#     4   4   4   4   4   4   4   4
#     4  11  22  38  56  89 115 151 192 243 284 337
#     4  11  21  40  60  87 118 156 196 244 294 351
#     4  10  21  37  58  87 122 157 193 239 297 360
#     4  10  22  40  61  83 114 158 200 242 292 346
#     4  10  21  37  59  82 116 155 190 232 285 349
#     4  10  20  38  61  84 118 152 198 243 293 349
#     4  11  22  38  58  84 119 154 189 232 290 351
#     4  11  23  39  62  90 118 152 198 252 304 351
#
# _framework density 19.527487000000001
#
# number of rings (size 3 to 8) (size 9 to 14) (size 15 to 20)
#    0.000    1.500    2.500    3.000    0.000    2.250 
#    0.000    0.000    0.000   10.500    0.000    0.000 
#    0.000    0.000    0.000    0.000    0.000    0.000 
#
# Total GULP energy -396678.380784 kJ/mol
# GULP energy per Si atom -12396.199400 kJ/mol
# Density = 1.948304 g / cm^3
# Si number density = 19.527487 Si / 1000 Ang^3
#
#
#
# Elastic Constant Matrix: (Units=GPa)
#
#
# Indices 1 2 3 4 5 6 
#
# 1 99.5581 44.2032 29.2600 0.0000 -2.7143 0.0000
# 2 44.2032 87.8422 20.5629 0.0000 -7.3561 0.0000
# 3 29.2600 20.5629 87.9471 0.0000 0.6368 0.0000
# 4 0.0000 0.0000 0.0000 67.9830 0.0000 -21.8814
# 5 -2.7143 -7.3561 0.6368 0.0000 34.8915 0.0000
# 6 0.0000 0.0000 0.0000 -21.8814 0.0000 30.2283
#
#
#
# Elastic Compliance Matrix: (Units=1/GPa)
#
#
# Indices 1 2 3 4 5 6 
#
# 1 0.013697 -0.006180 -0.003111 0.000000 -0.000180 0.000000
# 2 -0.006180 0.015070 -0.001487 0.000000 0.002724 0.000000
# 3 -0.003111 -0.001487 0.012759 0.000000 -0.000788 0.000000
# 4 0.000000 0.000000 0.000000 0.019178 0.000000 0.013882
# 5 -0.000180 0.002724 -0.000788 0.000000 0.029235 0.000000
# 6 0.000000 0.000000 0.000000 0.013882 0.000000 0.043130
#
#
# Mechanical properties :
#
#
# Convention : Reuss Voigt Hill
#
# Bulk Modulus (GPa) = 50.07350 51.48883 50.78116
# Shear Modulus (GPa) = 31.00162 38.70868 34.85515
#
# Velocity S-wave (km/s) = 3.98878 4.45709 4.22942
# Velocity P-wave (km/s) = 6.84924 7.27408 7.06485
#
# Compressibility (1/GPa) = 0.01997064
#
# Stress axis : x y z
#
# Youngs Moduli (GPa) = 73.00614 66.35742 78.37639
#
# Poissons Ratio (x) = 0.41006 0.24383
# Poissons Ratio (y) = 0.45115 0.11657
# Poissons Ratio (z) = 0.22712 0.09869
#
# Static dielectric constant tensor:
#      x y z
#    x 3.648470 0.000000 0.024660 
#    y 0.000000 3.409420 0.000000 
#    z 0.024660 0.000000 3.682040 
# 
# 
# High freq. dielectric constant tensor:
#      x y z
#    x 1.770690 0.000000 0.004840 
#    y 0.000000 1.747760 0.000000 
#    z 0.004840 0.000000 1.771540 
# 
# From -- ./inp_files/38212.got.cif
#   From: 2010.06.25/outbox.cif.g09.slc.cpg/sg10_20_cif.got.tgz:38212.got - 2010.06.27 22:07:45.
