data_PCOD8065993
_publ_section_title
;
Structure prediction by ZEFSAII (Michael W. Deem and Ramdas Pophale) SiO2 
 PCOD8065993
Probable space group: P 2/M
;
_chemical_formula_sum "Si O2"
_cell_formula_units_Z 28
_cell_length_a 13.959805
_cell_length_b 9.651100
_cell_length_c 16.817247
_cell_angle_alpha 90.000000
_cell_angle_beta 143.162084
_cell_angle_gamma 90.000000
_cell_volume 1358.435149
_symmetry_space_group_name_H-M "P 2/M"
_symmetry_group_IT_number 10
_symmetry_cell_setting 'monoclinic'
loop_
_space_group_symop_operation_xyz
x,y,z
-x,y,-z
-x,-y,-z
x,-y,z
loop_
_atom_site_type_symbol
_atom_site_label
_atom_site_fract_x
_atom_site_fract_y
_atom_site_fract_z
Si Si1 0.845771 0.842509 0.450690
Si Si2 0.739269 0.658126 0.941322
Si Si3 0.338994 0.341687 0.928613
Si Si4 0.919623 0.146856 0.266425
Si Si5 0.406348 0.664982 0.645446
Si Si6 0.983824 0.848052 0.846169
Si Si7 0.658031 0.839630 0.553872
O O1 0.696820 0.735303 0.350493
O O2 0.000000 0.799000 0.500000
O O3 0.904640 0.829045 0.581358
O O4 0.790436 0.000000 0.393767
O O5 0.793143 0.500000 0.967193
O O6 0.672314 0.684139 0.985167
O O7 0.593972 0.695023 0.785661
O O8 0.899328 0.746777 0.025571
O O9 0.323473 0.500000 0.894708
O O10 0.500000 0.277781 0.000000
O O11 0.199460 0.267185 0.786369
O O12 0.927023 0.138864 0.177670
O O13 0.853321 0.000000 0.256205
O O14 0.372086 0.500000 0.620963
O O15 0.359714 0.735380 0.531462
O O16 0.805093 0.791413 0.709304
O O17 0.976282 0.000000 0.882667
O O18 0.500000 0.828041 0.500000
O O19 0.686526 0.000000 0.544832
#
# Coordination Sequence:
#
# PCOD8065993 Si02
#       7
#     4   4   4   4   4   4   4
#     4  10  21  36  54  78 113 154 194 239 289 338
#     4   9  20  36  52  77 112 151 189 229 284 339
#     4   9  18  31  48  69 100 142 187 232 274 324
#     4   9  17  31  49  72 102 136 181 232 274 325
#     4  11  23  38  58  85 120 154 191 241 290 347
#     4   9  17  34  58  82 107 140 185 232 279 335
#     4  10  21  40  66  91 116 147 187 238 291 348
#
# _framework density 20.611953
#
# number of rings (size 3 to 8) (size 9 to 14) (size 15 to 20)
#    0.000    2.429    1.429    0.429    2.000    3.143 
#    0.000    0.714    0.000    4.286    0.000    0.000 
#    0.000    0.000    0.000    0.000    0.000    0.000 
#
# Total GULP energy -346872.571276 kJ/mol
# GULP energy per Si atom -12388.306117 kJ/mol
# Density = 2.056504 g / cm^3
# Si number density = 20.611953 Si / 1000 Ang^3
#
#
#
# Elastic Constant Matrix: (Units=GPa)
#
#
# Indices 1 2 3 4 5 6 
#
# 1 36.1268 35.4092 29.2450 0.0000 16.0762 0.0000
# 2 35.4092 97.7717 67.8968 0.0000 18.3249 0.0000
# 3 29.2450 67.8968 131.3954 0.0000 29.8861 0.0000
# 4 0.0000 0.0000 0.0000 43.8955 0.0000 8.1304
# 5 16.0762 18.3249 29.8861 0.0000 25.8549 0.0000
# 6 0.0000 0.0000 0.0000 8.1304 0.0000 17.9196
#
#
#
# Elastic Compliance Matrix: (Units=1/GPa)
#
#
# Indices 1 2 3 4 5 6 
#
# 1 0.051987 -0.015760 0.001879 0.000000 -0.023326 0.000000
# 2 -0.015760 0.020842 -0.008318 0.000000 0.004643 0.000000
# 3 0.001879 -0.008318 0.014131 0.000000 -0.011607 0.000000
# 4 0.000000 0.000000 0.000000 0.024872 0.000000 -0.011285
# 5 -0.023326 0.004643 -0.011607 0.000000 0.063307 0.000000
# 6 0.000000 0.000000 0.000000 -0.011285 0.000000 0.060925
#
#
# Mechanical properties :
#
#
# Convention : Reuss Voigt Hill
#
# Bulk Modulus (GPa) = 23.49624 58.93288 41.21456
# Shear Modulus (GPa) = 16.96938 26.38352 21.67645
#
# Velocity S-wave (km/s) = 2.87240 3.58160 3.24643
# Velocity P-wave (km/s) = 4.73550 6.76443 5.83877
#
# Compressibility (1/GPa) = 0.04256000
#
# Stress axis : x y z
#
# Youngs Moduli (GPa) = 19.23568 47.98020 70.76857
#
# Poissons Ratio (x) = 0.75619 -0.13296
# Poissons Ratio (y) = 0.30316 0.58865
# Poissons Ratio (z) = -0.03614 0.39909
#
# Static dielectric constant tensor:
#      x y z
#    x 3.477530 0.000000 0.135490 
#    y 0.000000 3.956200 0.000000 
#    z 0.135490 0.000000 3.964890 
# 
# 
# High freq. dielectric constant tensor:
#      x y z
#    x 1.785470 0.000000 0.011140 
#    y 0.000000 1.799720 0.000000 
#    z 0.011140 0.000000 1.810050 
# 
# From -- ./inp_files/84965.got.cif
#   From: 2010.06.25/outbox.cif.g09.slc.cpg/sg10_43_cif.got.tgz:84965.got - 2010.06.27 22:07:45.
