data_PCOD8065502
_publ_section_title
;
Structure prediction by ZEFSAII (Michael W. Deem and Ramdas Pophale) SiO2 
 PCOD8065502
Probable space group: P 2/M
;
_chemical_formula_sum "Si O2"
_cell_formula_units_Z 18
_cell_length_a 9.201546
_cell_length_b 21.684076
_cell_length_c 7.978197
_cell_angle_alpha 90.000000
_cell_angle_beta 146.716021
_cell_angle_gamma 90.000000
_cell_volume 873.598634
_symmetry_space_group_name_H-M "P 2/M"
_symmetry_group_IT_number 10
_symmetry_cell_setting 'monoclinic'
loop_
_space_group_symop_operation_xyz
x,y,z
-x,y,-z
-x,-y,-z
x,-y,z
loop_
_atom_site_type_symbol
_atom_site_label
_atom_site_fract_x
_atom_site_fract_y
_atom_site_fract_z
Si Si1 0.921742 0.360652 0.612391
Si Si2 0.236804 0.761825 0.348913
Si Si3 0.260770 0.866500 0.641742
Si Si4 0.740158 0.000000 0.355632
Si Si5 0.574601 0.429149 0.764198
O O1 0.000000 0.344071 0.500000
O O2 0.842745 0.298242 0.626140
O O3 0.672011 0.406671 0.362079
O O4 0.162014 0.390914 0.945215
O O5 0.500000 0.746150 0.500000
O O6 0.295094 0.817327 0.529835
O O7 0.000000 0.782467 0.000000
O O8 0.000000 0.855433 0.500000
O O9 0.264616 0.934253 0.551341
O O10 0.500000 0.859216 0.000000
O O11 0.000000 0.000000 0.500000
O O12 0.500000 0.000000 0.000000
O O13 0.500000 0.419276 0.500000
O O14 0.632969 0.500000 0.863550
#
# Coordination Sequence:
#
# PCOD8065502 Si02
#       5
#     4   4   4   2   4
#     4  12  25  41  63  89 119 156 200 248 293 347
#     4  12  25  41  60  86 122 160 199 246 302 353
#     4  10  20  38  63  90 120 157 203 245 291 351
#     4   8  16  32  58  88 118 154 194 242 292 346
#     4  11  24  43  66  91 121 156 192 237 299 362
#
# _framework density 20.604427000000001
#
# number of rings (size 3 to 8) (size 9 to 14) (size 15 to 20)
#    0.000    1.111    0.000    7.333    0.000    6.222 
#    0.000    1.111    0.000    0.000    0.000    0.000 
#    0.000    0.000    0.000    0.000    0.000    0.000 
#
# Total GULP energy -223193.064815 kJ/mol
# GULP energy per Si atom -12399.614712 kJ/mol
# Density = 2.055753 g / cm^3
# Si number density = 20.604427 Si / 1000 Ang^3
#
#
#
# Elastic Constant Matrix: (Units=GPa)
#
#
# Indices 1 2 3 4 5 6 
#
# 1 118.0656 87.3717 47.2582 0.0000 11.6017 0.0000
# 2 87.3717 192.4560 77.0793 0.0000 -6.8224 0.0000
# 3 47.2582 77.0793 138.3552 0.0000 18.7609 0.0000
# 4 0.0000 0.0000 0.0000 36.7904 0.0000 0.3703
# 5 11.6017 -6.8224 18.7609 0.0000 36.4705 0.0000
# 6 0.0000 0.0000 0.0000 0.3703 0.0000 -4.3493
#
#
#
# Elastic Compliance Matrix: (Units=1/GPa)
#
#
# Indices 1 2 3 4 5 6 
#
# 1 0.013831 -0.006260 -0.000518 0.000000 -0.005304 0.000000
# 2 -0.006260 0.009939 -0.004215 0.000000 0.006019 0.000000
# 3 -0.000518 -0.004215 0.010575 0.000000 -0.006064 0.000000
# 4 0.000000 0.000000 0.000000 0.027158 0.000000 0.002312
# 5 -0.005304 0.006019 -0.006064 0.000000 0.033352 0.000000
# 6 0.000000 0.000000 0.000000 0.002312 0.000000 -0.229723
#
#
# Mechanical properties :
#
#
# Convention : Reuss Voigt Hill
#
# Bulk Modulus (GPa) = 80.90569 96.92167 88.91368
# Shear Modulus (GPa) = -45.97176 29.59350 -8.18913
#
# Velocity S-wave (km/s) = -4.72864 3.79393 -1.99577
# Velocity P-wave (km/s) = 3.08837 8.14452 6.15919
#
# Compressibility (1/GPa) = 0.01236007
#
# Stress axis : x y z
#
# Youngs Moduli (GPa) = 72.30392 100.60973 94.55985
#
# Poissons Ratio (x) = 0.62977 0.04894
# Poissons Ratio (y) = 0.45259 0.39861
# Poissons Ratio (z) = 0.03742 0.42412
#
# Static dielectric constant tensor:
#      x y z
#    x 3.675850 0.000000 0.171300 
#    y 0.000000 4.148330 0.000000 
#    z 0.171300 0.000000 3.933490 
# 
# 
# High freq. dielectric constant tensor:
#      x y z
#    x 1.793920 0.000000 0.017590 
#    y 0.000000 1.829380 0.000000 
#    z 0.017590 0.000000 1.826620 
# 
# From -- ./inp_files/3971.got.cif
#   From: 2010.06.25/outbox.cif.g09.slc.cpg/sg10_2_cif.got.tgz:3971.got - 2010.06.27 22:07:45.
