data_PCOD8065161
_publ_section_title
;
Structure prediction by ZEFSAII (Michael W. Deem and Ramdas Pophale) SiO2 
 PCOD8065161
Probable space group: P 2/M
;
_chemical_formula_sum "Si O2"
_cell_formula_units_Z 28
_cell_length_a 28.866099
_cell_length_b 8.552832
_cell_length_c 9.026108
_cell_angle_alpha 90.000000
_cell_angle_beta 38.651672
_cell_angle_gamma 90.000000
_cell_volume 1391.840681
_symmetry_space_group_name_H-M "P 2/M"
_symmetry_group_IT_number 10
_symmetry_cell_setting 'monoclinic'
loop_
_space_group_symop_operation_xyz
x,y,z
-x,y,-z
-x,-y,-z
x,-y,z
loop_
_atom_site_type_symbol
_atom_site_label
_atom_site_fract_x
_atom_site_fract_y
_atom_site_fract_z
Si Si1 0.659217 0.816561 0.435297
Si Si2 0.347227 0.320089 0.228941
Si Si3 0.077516 0.818513 0.226938
Si Si4 0.790281 0.319736 0.924260
Si Si5 0.071578 0.185475 0.904649
Si Si6 0.495762 0.828251 0.835462
Si Si7 0.217464 0.817313 0.372985
O O1 0.668767 0.782100 0.585675
O O2 0.577030 0.768926 0.580790
O O3 0.674238 0.000000 0.374524
O O4 0.716054 0.715257 0.200054
O O5 0.341401 0.500000 0.287641
O O6 0.288643 0.278082 0.249023
O O7 0.429244 0.287210 0.955904
O O8 0.139319 0.714776 0.149949
O O9 0.000000 0.790005 0.500000
O O10 0.101242 0.000000 0.174346
O O11 0.070698 0.758222 0.076066
O O12 0.790560 0.500000 0.875854
O O13 0.794775 0.211073 0.769487
O O14 0.145898 0.246312 0.639912
O O15 0.067937 0.000000 0.904493
O O16 0.000000 0.257404 0.000000
O O17 0.479211 0.000000 0.809117
O O18 0.500000 0.842111 0.000000
O O19 0.230213 0.000000 0.370192
#
# Coordination Sequence:
#
# PCOD8065161 Si02
#       7
#     4   4   4   4   4   4   4
#     4  10  20  37  60  84 112 150 196 238 282 344
#     4  11  21  34  56  87 120 150 186 236 291 342
#     4  10  20  37  63  90 116 150 192 234 281 344
#     4  12  25  39  56  82 117 151 190 244 300 345
#     4   9  18  34  59  89 113 139 184 236 278 323
#     4   8  16  32  55  82 111 146 190 236 281 338
#     4  11  22  38  59  80 111 155 198 238 283 343
#
# _framework density 20.117243999999999
#
# number of rings (size 3 to 8) (size 9 to 14) (size 15 to 20)
#    0.000    1.857    0.000    6.000    0.000    6.857 
#    0.000    1.429    0.000    7.286    0.000    0.000 
#    0.000    0.000    0.000    0.000    0.000    0.000 
#
# Total GULP energy -347257.773356 kJ/mol
# GULP energy per Si atom -12402.063334 kJ/mol
# Density = 2.007146 g / cm^3
# Si number density = 20.117244 Si / 1000 Ang^3
#
#
#
# Elastic Constant Matrix: (Units=GPa)
#
#
# Indices 1 2 3 4 5 6 
#
# 1 119.9211 19.9290 55.2870 0.0000 -12.3450 0.0000
# 2 19.9290 64.9852 22.7813 0.0000 -14.2571 0.0000
# 3 55.2870 22.7813 113.7199 0.0000 -13.4608 0.0000
# 4 0.0000 0.0000 0.0000 13.6615 0.0000 9.9916
# 5 -12.3450 -14.2571 -13.4608 0.0000 35.2807 0.0000
# 6 0.0000 0.0000 0.0000 9.9916 0.0000 1.7805
#
#
#
# Elastic Compliance Matrix: (Units=1/GPa)
#
#
# Indices 1 2 3 4 5 6 
#
# 1 0.010964 -0.001333 -0.004894 0.000000 0.001431 0.000000
# 2 -0.001333 0.017875 -0.002234 0.000000 0.005905 0.000000
# 3 -0.004894 -0.002234 0.011846 0.000000 0.001904 0.000000
# 4 0.000000 0.000000 0.000000 -0.023580 0.000000 0.132325
# 5 0.001431 0.005905 0.001904 0.000000 0.031957 0.000000
# 6 0.000000 0.000000 0.000000 0.132325 0.000000 -0.180927
#
#
# Mechanical properties :
#
#
# Convention : Reuss Voigt Hill
#
# Bulk Modulus (GPa) = 42.08137 54.95787 48.51962
# Shear Modulus (GPa) = -46.71923 23.51980 -11.59971
#
# Velocity S-wave (km/s) = -4.82430 3.42297 -2.40387
# Velocity P-wave (km/s) = 3.17307 6.55747 4.05783
#
# Compressibility (1/GPa) = 0.02376348
#
# Stress axis : x y z
#
# Youngs Moduli (GPa) = 91.20920 55.94256 84.41838
#
# Poissons Ratio (x) = 0.07456 0.41314
# Poissons Ratio (y) = 0.12156 0.18859
# Poissons Ratio (z) = 0.44637 0.12498
#
# Static dielectric constant tensor:
#      x y z
#    x 3.622690 0.000000 -0.256220 
#    y 0.000000 3.396920 0.000000 
#    z -0.256220 0.000000 3.888720 
# 
# 
# High freq. dielectric constant tensor:
#      x y z
#    x 1.781960 0.000000 -0.017300 
#    y 0.000000 1.766930 0.000000 
#    z -0.017300 0.000000 1.793260 
# 
# From -- ./inp_files/37030.got.cif
#   From: 2010.06.25/outbox.cif.g09.slc.cpg/sg10_19_cif.got.tgz:37030.got - 2010.06.27 22:07:45.
