data_PCOD8065759
_publ_section_title
;
Structure prediction by ZEFSAII (Michael W. Deem and Ramdas Pophale) SiO2 
 PCOD8065759
Probable space group: P 2/M
;
_chemical_formula_sum "Si O2"
_cell_formula_units_Z 32
_cell_length_a 10.829229
_cell_length_b 9.851320
_cell_length_c 18.847360
_cell_angle_alpha 90.000000
_cell_angle_beta 121.438148
_cell_angle_gamma 90.000000
_cell_volume 1715.517798
_symmetry_space_group_name_H-M "P 2/M"
_symmetry_group_IT_number 10
_symmetry_cell_setting 'monoclinic'
loop_
_space_group_symop_operation_xyz
x,y,z
-x,y,-z
-x,-y,-z
x,-y,z
loop_
_atom_site_type_symbol
_atom_site_label
_atom_site_fract_x
_atom_site_fract_y
_atom_site_fract_z
Si Si1 0.297602 0.847541 0.349174
Si Si2 0.588098 0.153852 0.363368
Si Si3 0.935480 0.345977 0.333949
Si Si4 0.400008 0.657934 0.760236
Si Si5 0.924561 0.655475 0.775054
Si Si6 0.902347 0.339218 0.035250
Si Si7 0.166086 0.842515 0.458739
Si Si8 0.575771 0.338965 0.951216
O O1 0.468908 0.835751 0.389548
O O2 0.218193 0.747318 0.270523
O O3 0.263715 0.807092 0.419752
O O4 0.242630 0.000000 0.317012
O O5 0.539544 0.253975 0.286421
O O6 0.741387 0.196436 0.443997
O O7 0.596648 0.000000 0.336608
O O8 0.964365 0.500000 0.367196
O O9 0.768336 0.308735 0.284571
O O10 0.983138 0.322867 0.267819
O O11 0.020888 0.247523 0.413475
O O12 0.430302 0.500000 0.754015
O O13 0.478295 0.705371 0.855424
O O14 0.875448 0.500000 0.770372
O O15 0.022553 0.704758 0.869336
O O16 0.893202 0.500000 0.024782
O O17 0.738241 0.280227 0.987637
O O18 0.000000 0.279648 0.000000
O O19 0.120773 0.000000 0.446721
O O20 0.583841 0.500000 0.960501
O O21 0.500000 0.280068 0.000000
#
# Coordination Sequence:
#
# PCOD8065759 Si02
#       8
#     4   4   4   4   4   4   4   4
#     4   9  18  33  53  74  99 132 169 208 251 301
#     4  10  21  35  51  73 103 134 167 210 255 299
#     4   9  18  33  50  73 102 131 164 207 255 298
#     4  10  21  34  52  76 103 134 169 208 252 302
#     4   9  17  30  51  75 101 130 163 206 254 302
#     4   9  17  27  44  73 103 128 161 209 254 293
#     4   9  18  34  55  75  95 130 175 210 246 301
#     4   9  17  31  51  73 100 136 174 208 248 304
#
# _framework density 18.65326
#
# number of rings (size 3 to 8) (size 9 to 14) (size 15 to 20)
#    0.000    2.750    0.000    1.125    1.750    6.500 
#    0.000    2.500    0.000    5.250    0.000    0.000 
#    0.000    0.000    0.000    0.000    0.000    0.000 
#
# Total GULP energy -396762.933798 kJ/mol
# GULP energy per Si atom -12398.841681 kJ/mol
# Density = 1.861080 g / cm^3
# Si number density = 18.653260 Si / 1000 Ang^3
#
#
#
# Elastic Constant Matrix: (Units=GPa)
#
#
# Indices 1 2 3 4 5 6 
#
# 1 79.7610 19.3806 35.7091 0.0000 7.8530 0.0000
# 2 19.3806 49.1404 46.6890 0.0000 2.8156 0.0000
# 3 35.7091 46.6890 122.1993 0.0000 5.5758 0.0000
# 4 0.0000 0.0000 0.0000 13.3667 0.0000 -4.5516
# 5 7.8530 2.8156 5.5758 0.0000 25.4864 0.0000
# 6 0.0000 0.0000 0.0000 -4.5516 0.0000 17.8991
#
#
#
# Elastic Compliance Matrix: (Units=1/GPa)
#
#
# Indices 1 2 3 4 5 6 
#
# 1 0.014970 -0.002665 -0.003191 0.000000 -0.003620 0.000000
# 2 -0.002665 0.032440 -0.011606 0.000000 -0.000224 0.000000
# 3 -0.003191 -0.011606 0.013582 0.000000 -0.000706 0.000000
# 4 0.000000 0.000000 0.000000 0.081905 0.000000 0.020828
# 5 -0.003620 -0.000224 -0.000706 0.000000 0.040531 0.000000
# 6 0.000000 0.000000 0.000000 0.020828 0.000000 0.061165
#
#
# Mechanical properties :
#
#
# Convention : Reuss Voigt Hill
#
# Bulk Modulus (GPa) = 38.35883 50.51757 44.43820
# Shear Modulus (GPa) = 17.34865 21.30525 19.32695
#
# Velocity S-wave (km/s) = 3.05300 3.38327 3.22237
# Velocity P-wave (km/s) = 5.74774 6.51178 6.14165
#
# Compressibility (1/GPa) = 0.02606962
#
# Stress axis : x y z
#
# Youngs Moduli (GPa) = 66.79992 30.82580 73.62483
#
# Poissons Ratio (x) = 0.08214 0.23496
# Poissons Ratio (y) = 0.17799 0.85447
# Poissons Ratio (z) = 0.21318 0.35776
#
# Static dielectric constant tensor:
#      x y z
#    x 3.476990 0.000000 0.065600 
#    y 0.000000 3.167500 0.000000 
#    z 0.065600 0.000000 3.485710 
# 
# 
# High freq. dielectric constant tensor:
#      x y z
#    x 1.730050 0.000000 0.003430 
#    y 0.000000 1.686330 0.000000 
#    z 0.003430 0.000000 1.727950 
# 
# From -- ./inp_files/83619.got.cif
#   From: 2010.06.25/outbox.cif.g09.slc.cpg/sg10_42_cif.got.tgz:83619.got - 2010.06.27 22:07:45.
