data_PCOD8065535
_publ_section_title
;
Structure prediction by ZEFSAII (Michael W. Deem and Ramdas Pophale) SiO2 
 PCOD8065535
Probable space group: P 2/M
;
_chemical_formula_sum "Si O2"
_cell_formula_units_Z 28
_cell_length_a 15.821678
_cell_length_b 8.809629
_cell_length_c 19.975435
_cell_angle_alpha 90.000000
_cell_angle_beta 149.854040
_cell_angle_gamma 90.000000
_cell_volume 1398.257180
_symmetry_space_group_name_H-M "P 2/M"
_symmetry_group_IT_number 10
_symmetry_cell_setting 'monoclinic'
loop_
_space_group_symop_operation_xyz
x,y,z
-x,y,-z
-x,-y,-z
x,-y,z
loop_
_atom_site_type_symbol
_atom_site_label
_atom_site_fract_x
_atom_site_fract_y
_atom_site_fract_z
Si Si1 0.832768 0.824715 0.070529
Si Si2 0.000355 0.322444 0.312365
Si Si3 0.955312 0.321324 0.895073
Si Si4 0.384067 0.677051 0.599655
Si Si5 0.869795 0.824779 0.353188
Si Si6 0.600572 0.179202 0.633663
Si Si7 0.546823 0.173133 0.214772
O O1 0.924218 0.771816 0.199810
O O2 0.892457 0.727576 0.048123
O O3 0.876324 0.000000 0.087564
O O4 0.633914 0.798203 0.942294
O O5 0.981207 0.500000 0.284527
O O6 0.900298 0.281777 0.310850
O O7 0.194465 0.274141 0.452553
O O8 0.929606 0.500000 0.874417
O O9 0.786665 0.243479 0.753985
O O10 0.000000 0.265836 0.000000
O O11 0.412676 0.500000 0.607969
O O12 0.513125 0.765047 0.641169
O O13 0.423955 0.715987 0.703343
O O14 0.681742 0.791979 0.249549
O O15 0.000000 0.778429 0.500000
O O16 0.895350 0.000000 0.349819
O O17 0.500000 0.237915 0.500000
O O18 0.610316 0.000000 0.642443
O O19 0.566400 0.000000 0.253783
#
# Coordination Sequence:
#
# PCOD8065535 Si02
#       7
#     4   4   4   4   4   4   4
#     4  11  24  41  62  89 123 161 204 251 301 359
#     4  11  24  40  61  90 126 164 202 249 305 362
#     4  11  24  42  64  90 123 161 202 248 303 364
#     4  11  23  38  60  89 120 157 199 249 303 358
#     4  10  20  38  65  92 121 159 203 251 302 357
#     4  11  24  40  61  89 119 156 202 250 300 357
#     4  10  22  40  63  91 120 156 202 251 299 356
#
# _framework density 20.024930000000001
#
# number of rings (size 3 to 8) (size 9 to 14) (size 15 to 20)
#    0.000    1.286    1.429    3.857    0.000   11.143 
#    0.000    2.857    0.000    0.000    0.000    0.000 
#    0.000    0.000    0.000    0.000    0.000    0.000 
#
# Total GULP energy -347417.671321 kJ/mol
# GULP energy per Si atom -12407.773976 kJ/mol
# Density = 1.997935 g / cm^3
# Si number density = 20.024930 Si / 1000 Ang^3
#
#
#
# Elastic Constant Matrix: (Units=GPa)
#
#
# Indices 1 2 3 4 5 6 
#
# 1 84.0328 11.9757 26.0721 0.0000 9.2295 0.0000
# 2 11.9757 44.5669 33.4441 0.0000 -0.9381 0.0000
# 3 26.0721 33.4441 101.2888 0.0000 3.8425 0.0000
# 4 0.0000 0.0000 0.0000 34.1083 0.0000 2.7032
# 5 9.2295 -0.9381 3.8425 0.0000 38.6050 0.0000
# 6 0.0000 0.0000 0.0000 2.7032 0.0000 40.1380
#
#
#
# Elastic Compliance Matrix: (Units=1/GPa)
#
#
# Indices 1 2 3 4 5 6 
#
# 1 0.013313 -0.001531 -0.002810 0.000000 -0.002940 0.000000
# 2 -0.001531 0.030118 -0.009629 0.000000 0.002056 0.000000
# 3 -0.002810 -0.009629 0.013811 0.000000 -0.000937 0.000000
# 4 0.000000 0.000000 0.000000 0.029476 0.000000 -0.001985
# 5 -0.002940 0.002056 -0.000937 0.000000 0.026750 0.000000
# 6 0.000000 0.000000 0.000000 -0.001985 0.000000 0.025048
#
#
# Mechanical properties :
#
#
# Convention : Reuss Voigt Hill
#
# Bulk Modulus (GPa) = 34.12530 41.43027 37.77778
# Shear Modulus (GPa) = 28.37338 33.13002 30.75170
#
# Velocity S-wave (km/s) = 3.76826 4.07189 3.92301
# Velocity P-wave (km/s) = 6.00095 6.54533 6.27904
#
# Compressibility (1/GPa) = 0.02930377
#
# Stress axis : x y z
#
# Youngs Moduli (GPa) = 75.11470 33.20232 72.40709
#
# Poissons Ratio (x) = 0.05082 0.20345
# Poissons Ratio (y) = 0.11498 0.69718
# Poissons Ratio (z) = 0.21106 0.31969
#
# Static dielectric constant tensor:
#      x y z
#    x 4.193810 0.000000 0.105040 
#    y 0.000000 3.656260 0.000000 
#    z 0.105040 0.000000 3.770660 
# 
# 
# High freq. dielectric constant tensor:
#      x y z
#    x 1.790660 0.000000 0.005580 
#    y 0.000000 1.786040 0.000000 
#    z 0.005580 0.000000 1.793830 
# 
# From -- ./inp_files/82167.got.cif
#   From: 2010.06.25/outbox.cif.g09.slc.cpg/sg10_42_cif.got.tgz:82167.got - 2010.06.27 22:07:45.
