data_PCOD8065333
_publ_section_title
;
Structure prediction by ZEFSAII (Michael W. Deem and Ramdas Pophale) SiO2 
 PCOD8065333
Probable space group: P 2/M
;
_chemical_formula_sum "Si O2"
_cell_formula_units_Z 32
_cell_length_a 11.753548
_cell_length_b 8.940242
_cell_length_c 15.167815
_cell_angle_alpha 90.000000
_cell_angle_beta 90.742378
_cell_angle_gamma 90.000000
_cell_volume 1593.693593
_symmetry_space_group_name_H-M "P 2/M"
_symmetry_group_IT_number 10
_symmetry_cell_setting 'monoclinic'
loop_
_space_group_symop_operation_xyz
x,y,z
-x,y,-z
-x,-y,-z
x,-y,z
loop_
_atom_site_type_symbol
_atom_site_label
_atom_site_fract_x
_atom_site_fract_y
_atom_site_fract_z
Si Si1 0.257932 0.175576 0.897484
Si Si2 0.730691 0.673472 0.923869
Si Si3 0.485598 0.668285 0.855125
Si Si4 0.114336 0.326903 0.744208
Si Si5 0.744472 0.827330 0.396189
Si Si6 0.488694 0.671046 0.652331
Si Si7 0.847540 0.673026 0.746623
Si Si8 0.291480 0.827469 0.404537
O O1 0.388421 0.215029 0.878218
O O2 0.176195 0.248513 0.825497
O O3 0.241947 0.000000 0.893545
O O4 0.221677 0.234010 0.993275
O O5 0.758927 0.500000 0.939294
O O6 0.595418 0.700912 0.915923
O O7 0.793590 0.731974 0.837059
O O8 0.439632 0.500000 0.872335
O O9 0.524931 0.684105 0.754521
O O10 0.148305 0.500000 0.745620
O O11 0.153994 0.257841 0.651975
O O12 0.981198 0.301425 0.752909
O O13 0.624441 0.763730 0.364099
O O14 0.763772 0.805313 0.500161
O O15 0.747734 0.000000 0.368757
O O16 0.468283 0.500000 0.623859
O O17 0.590421 0.737661 0.595395
O O18 0.814937 0.500000 0.730726
O O19 0.799112 0.768155 0.665945
O O20 0.318704 0.000000 0.385280
#
# Coordination Sequence:
#
# PCOD8065333 Si02
#       8
#     4   4   4   4   4   4   4   4
#     4  12  25  39  60  92 128 161 198 247 303 371
#     4  10  21  41  65  89 121 158 199 250 303 361
#     4  10  20  37  63  91 122 159 200 246 301 360
#     4  11  24  43  66  89 117 159 210 261 306 356
#     4  11  24  41  61  91 128 165 202 246 307 371
#     4  11  21  37  64  94 124 161 205 250 300 360
#     4  10  23  44  67  90 117 157 212 261 303 355
#     4  11  24  40  62  92 129 165 198 246 310 370
#
# _framework density 20.079141
#
# number of rings (size 3 to 8) (size 9 to 14) (size 15 to 20)
#    0.000    1.250    2.500    3.375    0.000    8.500 
#    0.000    5.000    0.000    0.000    0.000    0.000 
#    0.000    0.000    0.000    0.000    0.000    0.000 
#
# Total GULP energy -397018.355574 kJ/mol
# GULP energy per Si atom -12406.823612 kJ/mol
# Density = 2.003344 g / cm^3
# Si number density = 20.079141 Si / 1000 Ang^3
#
#
#
# Elastic Constant Matrix: (Units=GPa)
#
#
# Indices 1 2 3 4 5 6 
#
# 1 80.1830 48.6855 37.3810 0.0000 -9.0519 0.0000
# 2 48.6855 128.4878 60.8398 0.0000 -3.5483 0.0000
# 3 37.3810 60.8398 113.4909 0.0000 -6.6788 0.0000
# 4 0.0000 0.0000 0.0000 28.9216 0.0000 5.4383
# 5 -9.0519 -3.5483 -6.6788 0.0000 12.3173 0.0000
# 6 0.0000 0.0000 0.0000 5.4383 0.0000 2.6086
#
#
#
# Elastic Compliance Matrix: (Units=1/GPa)
#
#
# Indices 1 2 3 4 5 6 
#
# 1 0.018063 -0.005401 -0.002443 0.000000 0.010394 0.000000
# 2 -0.005401 0.012045 -0.004863 0.000000 -0.003136 0.000000
# 3 -0.002443 -0.004863 0.012431 0.000000 0.003545 0.000000
# 4 0.000000 0.000000 0.000000 0.056871 0.000000 -0.118563
# 5 0.010394 -0.003136 0.003545 0.000000 0.089844 0.000000
# 6 0.000000 0.000000 0.000000 -0.118563 0.000000 0.630530
#
#
# Mechanical properties :
#
#
# Convention : Reuss Voigt Hill
#
# Bulk Modulus (GPa) = 58.38704 68.44161 63.41433
# Shear Modulus (GPa) = 5.87610 20.45318 13.16464
#
# Velocity S-wave (km/s) = 1.71255 3.19506 2.56332
# Velocity P-wave (km/s) = 5.74909 6.91167 6.35701
#
# Compressibility (1/GPa) = 0.01712709
#
# Stress axis : x y z
#
# Youngs Moduli (GPa) = 55.36284 83.02087 80.44227
#
# Poissons Ratio (x) = 0.44836 0.19649
# Poissons Ratio (y) = 0.29899 0.39118
# Poissons Ratio (z) = 0.13523 0.40372
#
# Static dielectric constant tensor:
#      x y z
#    x 3.525910 0.000000 -0.088660 
#    y 0.000000 3.758220 0.000000 
#    z -0.088660 0.000000 3.844860 
# 
# 
# High freq. dielectric constant tensor:
#      x y z
#    x 1.778310 0.000000 -0.002790 
#    y 0.000000 1.785730 0.000000 
#    z -0.002790 0.000000 1.800710 
# 
# From -- ./inp_files/49795.got.cif
#   From: 2010.06.25/outbox.cif.g09.slc.cpg/sg10_25_cif.got.tgz:49795.got - 2010.06.27 22:07:45.
