data_PCOD8065749
_publ_section_title
;
Structure prediction by ZEFSAII (Michael W. Deem and Ramdas Pophale) SiO2 
 PCOD8065749
Probable space group: P 2/M
;
_chemical_formula_sum "Si O2"
_cell_formula_units_Z 28
_cell_length_a 9.488828
_cell_length_b 14.720570
_cell_length_c 11.477886
_cell_angle_alpha 90.000000
_cell_angle_beta 114.415615
_cell_angle_gamma 90.000000
_cell_volume 1459.865829
_symmetry_space_group_name_H-M "P 2/M"
_symmetry_group_IT_number 10
_symmetry_cell_setting 'monoclinic'
loop_
_space_group_symop_operation_xyz
x,y,z
-x,y,-z
-x,-y,-z
x,-y,z
loop_
_atom_site_type_symbol
_atom_site_label
_atom_site_fract_x
_atom_site_fract_y
_atom_site_fract_z
Si Si1 0.096613 0.397511 0.858666
Si Si2 0.720128 0.897410 0.761848
Si Si3 0.762053 0.397511 0.858666
Si Si4 0.648879 0.279346 0.622843
Si Si5 0.041720 0.897410 0.761848
Si Si6 0.973965 0.720654 0.622843
Si Si7 0.657738 0.892265 0.000000
O O1 0.132969 0.500000 0.829376
O O2 0.097842 0.331458 0.747354
O O3 0.930301 0.393181 0.860601
O O4 0.223467 0.367183 1.000000
O O5 0.640989 0.829162 0.643058
O O6 0.677856 0.859898 0.874648
O O7 0.906006 0.894132 0.812012
O O8 0.658224 0.000000 0.718593
O O9 0.696407 0.500000 0.829376
O O10 0.649513 0.331458 0.747354
O O11 0.500000 0.310494 0.500000
O O12 0.799499 0.305094 0.598998
O O13 0.002069 0.829161 0.643058
O O14 0.060369 0.000000 0.718593
O O15 0.196793 0.859899 0.874647
O O16 0.000000 0.689506 0.500000
O O17 0.653147 0.000000 0.999999
O O18 0.500000 0.851237 0.000000
#
# Coordination Sequence:
#
# PCOD8065749 Si02
#       7
#     4   4   4   4   4   4   4
#     4   8  15  30  53  78 100 126 166 212 253 298
#     4   9  18  32  49  70  99 136 174 209 247 296
#     4   8  15  30  53  78 100 126 166 212 253 298
#     4  10  21  34  51  75 104 136 172 210 253 301
#     4   9  18  32  49  70  99 136 174 209 247 296
#     4  10  21  34  51  75 104 136 172 210 253 301
#     4   9  17  29  47  73 100 127 164 212 261 299
#
# _framework density 19.179846000000001
#
# number of rings (size 3 to 8) (size 9 to 14) (size 15 to 20)
#    0.000    3.000    0.000    1.286    2.000    4.000 
#    0.000    0.000    0.000    0.000    0.000    2.000 
#    0.000    0.000    0.000    0.000    0.000    0.000 
#
# Total GULP energy -347047.335867 kJ/mol
# GULP energy per Si atom -12394.547710 kJ/mol
# Density = 1.913619 g / cm^3
# Si number density = 19.179846 Si / 1000 Ang^3
#
#
#
# Elastic Constant Matrix: (Units=GPa)
#
#
# Indices 1 2 3 4 5 6 
#
# 1 59.0631 17.2950 45.3921 0.0000 0.8448 0.0000
# 2 17.2950 88.0526 64.3861 0.0000 0.8799 0.0000
# 3 45.3921 64.3861 146.6462 0.0000 0.7918 0.0000
# 4 0.0000 0.0000 0.0000 24.1386 0.0000 0.2732
# 5 0.8448 0.8799 0.7918 0.0000 29.4410 0.0000
# 6 0.0000 0.0000 0.0000 0.2732 0.0000 9.5178
#
#
#
# Elastic Compliance Matrix: (Units=1/GPa)
#
#
# Indices 1 2 3 4 5 6 
#
# 1 0.022280 0.000986 -0.007327 0.000000 -0.000472 0.000000
# 2 0.000986 0.016773 -0.007668 0.000000 -0.000323 0.000000
# 3 -0.007327 -0.007668 0.012453 0.000000 0.000105 0.000000
# 4 0.000000 0.000000 0.000000 0.041441 0.000000 -0.001189
# 5 -0.000472 -0.000323 0.000105 0.000000 0.033987 0.000000
# 6 0.000000 0.000000 0.000000 -0.001189 0.000000 0.105100
#
#
# Mechanical properties :
#
#
# Convention : Reuss Voigt Hill
#
# Bulk Modulus (GPa) = 42.57287 60.87871 51.72579
# Shear Modulus (GPa) = 18.66499 23.73205 21.19852
#
# Velocity S-wave (km/s) = 3.12293 3.52140 3.32814
# Velocity P-wave (km/s) = 5.93704 6.95296 6.46498
#
# Compressibility (1/GPa) = 0.02348914
#
# Stress axis : x y z
#
# Youngs Moduli (GPa) = 44.88329 59.61819 80.30078
#
# Poissons Ratio (x) = -0.05879 0.58835
# Poissons Ratio (y) = -0.04426 0.61575
# Poissons Ratio (z) = 0.32885 0.45715
#
# Static dielectric constant tensor:
#      x y z
#    x 3.266930 0.000000 0.004280 
#    y 0.000000 3.571410 0.000000 
#    z 0.004280 0.000000 3.496050 
# 
# 
# High freq. dielectric constant tensor:
#      x y z
#    x 1.705250 0.000000 0.000560 
#    y 0.000000 1.744390 0.000000 
#    z 0.000560 0.000000 1.735100 
# 
# From -- ./inp_files/42737.got.cif
#   From: 2010.06.25/outbox.cif.g09.slc.cpg/sg10_22_cif.got.tgz:42737.got - 2010.06.27 22:07:45.
