data_PCOD8065082
_publ_section_title
;
Structure prediction by ZEFSAII (Michael W. Deem and Ramdas Pophale) SiO2 
 PCOD8065082
Probable space group: P 2/M
;
_chemical_formula_sum "Si O2"
_cell_formula_units_Z 28
_cell_length_a 12.216500
_cell_length_b 14.479065
_cell_length_c 9.278381
_cell_angle_alpha 90.000000
_cell_angle_beta 124.108403
_cell_angle_gamma 90.000000
_cell_volume 1358.871438
_symmetry_space_group_name_H-M "P 2/M"
_symmetry_group_IT_number 10
_symmetry_cell_setting 'monoclinic'
loop_
_space_group_symop_operation_xyz
x,y,z
-x,y,-z
-x,-y,-z
x,-y,z
loop_
_atom_site_type_symbol
_atom_site_label
_atom_site_fract_x
_atom_site_fract_y
_atom_site_fract_z
Si Si1 0.719907 0.398158 0.314847
Si Si2 0.813456 0.394893 0.689694
Si Si3 0.375026 0.106047 0.505763
Si Si4 0.271928 0.282521 0.100517
Si Si5 0.086160 0.394785 0.769416
Si Si6 0.543840 0.768690 0.182855
Si Si7 0.842672 0.103741 0.888681
O O1 0.669797 0.500000 0.226140
O O2 0.713483 0.395100 0.482567
O O3 0.873271 0.386217 0.370552
O O4 0.630630 0.316528 0.188213
O O5 0.828328 0.500000 0.761512
O O6 0.756484 0.324919 0.763735
O O7 0.950244 0.350974 0.727680
O O8 0.500000 0.137538 0.500000
O O9 0.372527 0.162634 0.653795
O O10 0.234911 0.121400 0.320166
O O11 0.393593 0.000000 0.563193
O O12 0.426876 0.273825 0.191617
O O13 0.209929 0.179758 0.038422
O O14 0.210898 0.348995 0.938002
O O15 0.075825 0.500000 0.809691
O O16 0.500000 0.818620 0.000000
O O17 0.807298 0.000000 0.916625
O O18 0.000000 0.115319 0.000000
#
# Coordination Sequence:
#
# PCOD8065082 Si02
#       7
#     4   4   4   4   4   4   4
#     4  10  22  38  57  82 119 164 203 248 308 370
#     4  10  21  36  58  87 114 151 207 262 310 362
#     4  10  21  41  68  93 120 162 206 254 312 368
#     4  12  22  36  58  89 119 156 202 258 305 362
#     4  10  20  37  58  82 118 160 202 249 307 372
#     4  12  25  40  58  87 125 168 212 253 304 371
#     4  10  21  38  64  97 126 153 194 251 314 374
#
# _framework density 20.605335
#
# number of rings (size 3 to 8) (size 9 to 14) (size 15 to 20)
#    0.000    1.429    2.857    3.000    0.000    4.571 
#    0.000    1.429    0.000    0.000    0.000    3.000 
#    0.000    0.000    0.000    0.000    0.000    0.000 
#
# Total GULP energy -346979.956382 kJ/mol
# GULP energy per Si atom -12392.141299 kJ/mol
# Density = 2.055844 g / cm^3
# Si number density = 20.605335 Si / 1000 Ang^3
#
#
#
# Elastic Constant Matrix: (Units=GPa)
#
#
# Indices 1 2 3 4 5 6 
#
# 1 108.6982 41.0791 32.9147 0.0000 -0.1730 0.0000
# 2 41.0791 49.0278 14.8741 0.0000 -6.9745 0.0000
# 3 32.9147 14.8741 72.7918 0.0000 2.0635 0.0000
# 4 0.0000 0.0000 0.0000 25.8062 0.0000 1.5761
# 5 -0.1730 -6.9745 2.0635 0.0000 35.4346 0.0000
# 6 0.0000 0.0000 0.0000 1.5761 0.0000 23.5801
#
#
#
# Elastic Compliance Matrix: (Units=1/GPa)
#
#
# Indices 1 2 3 4 5 6 
#
# 1 0.014797 -0.011361 -0.004315 0.000000 -0.001913 0.000000
# 2 -0.011361 0.031224 -0.001418 0.000000 0.006173 0.000000
# 3 -0.004315 -0.001418 0.016014 0.000000 -0.001233 0.000000
# 4 0.000000 0.000000 0.000000 0.038909 0.000000 -0.002601
# 5 -0.001913 0.006173 -0.001233 0.000000 0.029498 0.000000
# 6 0.000000 0.000000 0.000000 -0.002601 0.000000 0.042582
#
#
# Mechanical properties :
#
#
# Convention : Reuss Voigt Hill
#
# Bulk Modulus (GPa) = 35.91138 45.36152 40.63645
# Shear Modulus (GPa) = 23.09523 26.40751 24.75137
#
# Velocity S-wave (km/s) = 3.35152 3.58381 3.46961
# Velocity P-wave (km/s) = 5.69587 6.25996 5.98457
#
# Compressibility (1/GPa) = 0.02784632
#
# Stress axis : x y z
#
# Youngs Moduli (GPa) = 67.58175 32.02673 62.44649
#
# Poissons Ratio (x) = 0.36385 0.26946
# Poissons Ratio (y) = 0.76779 0.08856
# Poissons Ratio (z) = 0.29162 0.04542
#
# Static dielectric constant tensor:
#      x y z
#    x 3.793810 0.000000 -0.020880 
#    y 0.000000 3.869850 0.000000 
#    z -0.020880 0.000000 3.670260 
# 
# 
# High freq. dielectric constant tensor:
#      x y z
#    x 1.800760 0.000000 0.003840 
#    y 0.000000 1.804910 0.000000 
#    z 0.003840 0.000000 1.801950 
# 
# From -- ./inp_files/25169.got.cif
#   From: 2010.06.25/outbox.cif.g09.slc.cpg/sg10_13_cif.got.tgz:25169.got - 2010.06.27 22:07:45.
