data_PCOD8065989
_publ_section_title
;
Structure prediction by ZEFSAII (Michael W. Deem and Ramdas Pophale) SiO2 
 PCOD8065989
Probable space group: P 2/M
;
_chemical_formula_sum "Si O2"
_cell_formula_units_Z 32
_cell_length_a 20.088503
_cell_length_b 8.885116
_cell_length_c 25.945961
_cell_angle_alpha 90.000000
_cell_angle_beta 21.380972
_cell_angle_gamma 90.000000
_cell_volume 1688.334357
_symmetry_space_group_name_H-M "P 2/M"
_symmetry_group_IT_number 10
_symmetry_cell_setting 'monoclinic'
loop_
_space_group_symop_operation_xyz
x,y,z
-x,y,-z
-x,-y,-z
x,-y,z
loop_
_atom_site_type_symbol
_atom_site_label
_atom_site_fract_x
_atom_site_fract_y
_atom_site_fract_z
Si Si1 0.978570 0.822069 0.597805
Si Si2 0.451581 0.677642 0.741255
Si Si3 0.976692 0.676996 0.227479
Si Si4 0.860352 0.322760 0.424337
Si Si5 0.282237 0.821992 0.300275
Si Si6 0.795869 0.173729 0.162103
Si Si7 0.342598 0.178758 0.925304
Si Si8 0.289811 0.173314 0.658408
O O1 0.792329 0.771868 0.702336
O O2 0.987758 0.746127 0.647048
O O3 0.148999 0.761444 0.441158
O O4 0.985379 0.000000 0.600299
O O5 0.442714 0.500000 0.755881
O O6 0.659210 0.735109 0.585092
O O7 0.343754 0.721112 0.767599
O O8 0.356401 0.758345 0.857827
O O9 0.013084 0.500000 0.199317
O O10 0.905376 0.731479 0.334389
O O11 0.824930 0.718719 0.295359
O O12 0.163149 0.762777 0.082116
O O13 0.870899 0.500000 0.420663
O O14 0.486334 0.762907 0.163621
O O15 0.275241 0.000000 0.308088
O O16 0.771205 0.206564 0.239814
O O17 0.755300 0.000000 0.177798
O O18 0.000000 0.219461 0.000000
O O19 0.336206 0.000000 0.926348
O O20 0.500000 0.215802 0.500000
O O21 0.253026 0.000000 0.669800
#
# Coordination Sequence:
#
# PCOD8065989 Si02
#       8
#     4   4   4   4   4   4   4   4
#     4   9  16  32  58  85 111 143 186 233 279 328
#     4  11  22  36  57  84 112 144 185 229 275 335
#     4  11  24  40  57  80 116 156 190 229 277 335
#     4  10  22  38  54  81 117 149 185 228 274 327
#     4   8  16  31  55  86 114 141 181 234 283 328
#     4  10  21  36  54  78 108 140 177 226 278 327
#     4  11  21  37  59  84 114 149 187 233 286 334
#     4  10  21  38  59  83 109 142 188 236 280 332
#
# _framework density 18.953592
#
# number of rings (size 3 to 8) (size 9 to 14) (size 15 to 20)
#    0.000    2.000    1.250    3.375    0.000    3.500 
#    0.000    3.125    0.000    3.750    0.000    0.000 
#    0.000    0.000    0.000    0.000    0.000    0.000 
#
# Total GULP energy -396859.219131 kJ/mol
# GULP energy per Si atom -12401.850598 kJ/mol
# Density = 1.891045 g / cm^3
# Si number density = 18.953592 Si / 1000 Ang^3
#
#
#
# Elastic Constant Matrix: (Units=GPa)
#
#
# Indices 1 2 3 4 5 6 
#
# 1 129.6437 35.6580 54.1774 0.0000 -11.0869 0.0000
# 2 35.6580 45.6701 28.4892 0.0000 1.0978 0.0000
# 3 54.1774 28.4892 99.0521 0.0000 4.4895 0.0000
# 4 0.0000 0.0000 0.0000 18.9124 0.0000 1.5952
# 5 -11.0869 1.0978 4.4895 0.0000 27.3456 0.0000
# 6 0.0000 0.0000 0.0000 1.5952 0.0000 22.0314
#
#
#
# Elastic Compliance Matrix: (Units=1/GPa)
#
#
# Indices 1 2 3 4 5 6 
#
# 1 0.012106 -0.006454 -0.005037 0.000000 0.005994 0.000000
# 2 -0.006454 0.030126 -0.004998 0.000000 -0.003006 0.000000
# 3 -0.005037 -0.004998 0.014479 0.000000 -0.004219 0.000000
# 4 0.000000 0.000000 0.000000 0.053200 0.000000 -0.003852
# 5 0.005994 -0.003006 -0.004219 0.000000 0.039813 0.000000
# 6 0.000000 0.000000 0.000000 -0.003852 0.000000 0.045669
#
#
# Mechanical properties :
#
#
# Convention : Reuss Voigt Hill
#
# Bulk Modulus (GPa) = 42.13631 56.77945 49.45788
# Shear Modulus (GPa) = 21.16110 24.06063 22.61087
#
# Velocity S-wave (km/s) = 3.34499 3.56680 3.45767
# Velocity P-wave (km/s) = 6.09903 6.85455 6.48780
#
# Compressibility (1/GPa) = 0.02373250
#
# Stress axis : x y z
#
# Youngs Moduli (GPa) = 82.60240 33.19429 69.06329
#
# Poissons Ratio (x) = 0.21424 0.34787
# Poissons Ratio (y) = 0.53314 0.34520
# Poissons Ratio (z) = 0.41606 0.16591
#
# Static dielectric constant tensor:
#      x y z
#    x 3.651660 0.000000 -0.111780 
#    y 0.000000 3.275950 0.000000 
#    z -0.111780 0.000000 3.596000 
# 
# 
# High freq. dielectric constant tensor:
#      x y z
#    x 1.749940 0.000000 -0.006730 
#    y 0.000000 1.722100 0.000000 
#    z -0.006730 0.000000 1.734100 
# 
# From -- ./inp_files/93663.got.cif
#   From: 2010.06.25/outbox.cif.g09.slc.cpg/sg10_47_cif.got.tgz:93663.got - 2010.06.27 22:07:45.
