data_PCOD8065692
_publ_section_title
;
Structure prediction by ZEFSAII (Michael W. Deem and Ramdas Pophale) SiO2 
 PCOD8065692
Probable space group: P 2/M
;
_chemical_formula_sum "Si O2"
_cell_formula_units_Z 32
_cell_length_a 21.024253
_cell_length_b 8.944338
_cell_length_c 27.084972
_cell_angle_alpha 90.000000
_cell_angle_beta 18.763764
_cell_angle_gamma 90.000000
_cell_volume 1638.338313
_symmetry_space_group_name_H-M "P 2/M"
_symmetry_group_IT_number 10
_symmetry_cell_setting 'monoclinic'
loop_
_space_group_symop_operation_xyz
x,y,z
-x,y,-z
-x,-y,-z
x,-y,z
loop_
_atom_site_type_symbol
_atom_site_label
_atom_site_fract_x
_atom_site_fract_y
_atom_site_fract_z
Si Si1 0.503460 0.674739 0.940034
Si Si2 0.895368 0.174827 0.628176
Si Si3 0.939239 0.176408 0.878381
Si Si4 0.220915 0.177341 0.839778
Si Si5 0.689397 0.822300 0.333331
Si Si6 0.425467 0.177085 0.788079
Si Si7 0.078239 0.324904 0.212504
Si Si8 0.844162 0.676575 0.480568
O O1 0.547186 0.500000 0.899960
O O2 0.669428 0.771028 0.790246
O O3 0.500000 0.715548 0.000000
O O4 0.295553 0.724337 0.069912
O O5 0.000000 0.213123 0.500000
O O6 0.998797 0.264649 0.595756
O O7 0.904437 0.000000 0.633473
O O8 0.976906 0.242706 0.797074
O O9 0.109494 0.238397 0.789744
O O10 0.954821 0.000000 0.862599
O O11 0.726957 0.223152 0.056647
O O12 0.328185 0.227853 0.710679
O O13 0.341879 0.240201 0.797535
O O14 0.207255 0.000000 0.855342
O O15 0.000000 0.243997 0.000000
O O16 0.500000 0.753040 0.500000
O O17 0.689280 0.000000 0.336836
O O18 0.632358 0.253369 0.647791
O O19 0.456532 0.000000 0.763367
O O20 0.071125 0.500000 0.208119
O O21 0.918678 0.277765 0.371241
O O22 0.831586 0.500000 0.495446
#
# Coordination Sequence:
#
# PCOD8065692 Si02
#       8
#     4   4   4   4   4   4   4   4
#     4  10  20  41  66  86 112 152 199 238 281 341
#     4  11  25  42  62  92 124 149 186 242 295 340
#     4  10  21  36  56  86 121 152 189 241 294 347
#     4   9  15  29  52  77 110 150 187 233 290 341
#     4   9  17  29  49  81 115 148 192 238 285 346
#     4  10  21  36  57  87 120 151 192 244 295 345
#     4  10  23  41  60  83 115 154 196 239 283 343
#     4  11  24  43  62  83 115 157 200 237 282 346
#
# _framework density 19.531986
#
# number of rings (size 3 to 8) (size 9 to 14) (size 15 to 20)
#    0.000    2.000    2.500    0.750    3.500    3.250 
#    0.000    0.000    0.000    1.500    0.000    0.000 
#    0.000    0.000    0.000    0.000    0.000    0.000 
#
# Total GULP energy -396855.426161 kJ/mol
# GULP energy per Si atom -12401.732068 kJ/mol
# Density = 1.948753 g / cm^3
# Si number density = 19.531986 Si / 1000 Ang^3
#
#
#
# Elastic Constant Matrix: (Units=GPa)
#
#
# Indices 1 2 3 4 5 6 
#
# 1 77.8900 22.9964 17.5067 0.0000 13.4556 0.0000
# 2 22.9964 36.1118 35.1838 0.0000 7.5526 0.0000
# 3 17.5067 35.1838 124.9229 0.0000 11.0216 0.0000
# 4 0.0000 0.0000 0.0000 14.0795 0.0000 11.8454
# 5 13.4556 7.5526 11.0216 0.0000 35.7019 0.0000
# 6 0.0000 0.0000 0.0000 11.8454 0.0000 10.6140
#
#
#
# Elastic Compliance Matrix: (Units=1/GPa)
#
#
# Indices 1 2 3 4 5 6 
#
# 1 0.016480 -0.010634 0.001064 0.000000 -0.004290 0.000000
# 2 -0.010634 0.045875 -0.011233 0.000000 -0.002229 0.000000
# 3 0.001064 -0.011233 0.011149 0.000000 -0.001466 0.000000
# 4 0.000000 0.000000 0.000000 1.162847 0.000000 -1.297755
# 5 -0.004290 -0.002229 -0.001466 0.000000 0.030551 0.000000
# 6 0.000000 0.000000 0.000000 -1.297755 0.000000 1.542529
#
#
# Mechanical properties :
#
#
# Convention : Reuss Voigt Hill
#
# Bulk Modulus (GPa) = 31.35122 43.36650 37.35886
# Shear Modulus (GPa) = 1.74723 22.96160 12.35442
#
# Velocity S-wave (km/s) = 0.94683 3.43241 2.51773
# Velocity P-wave (km/s) = 4.15709 6.16113 5.25552
#
# Compressibility (1/GPa) = 0.03189669
#
# Stress axis : x y z
#
# Youngs Moduli (GPa) = 60.67862 21.79852 89.69402
#
# Poissons Ratio (x) = 0.23181 -0.09544
# Poissons Ratio (y) = 0.64527 1.00757
# Poissons Ratio (z) = -0.06456 0.24487
#
# Static dielectric constant tensor:
#      x y z
#    x 3.671740 0.000000 0.023470 
#    y 0.000000 3.164850 0.000000 
#    z 0.023470 0.000000 3.789770 
# 
# 
# High freq. dielectric constant tensor:
#      x y z
#    x 1.770800 0.000000 0.002880 
#    y 0.000000 1.723400 0.000000 
#    z 0.002880 0.000000 1.776500 
# 
# From -- ./inp_files/93583.got.cif
#   From: 2010.06.25/outbox.cif.g09.slc.cpg/sg10_47_cif.got.tgz:93583.got - 2010.06.27 22:07:45.
