data_PCOD8065975
_publ_section_title
;
Structure prediction by ZEFSAII (Michael W. Deem and Ramdas Pophale) SiO2 
 PCOD8065975
Probable space group: P 2/M
;
_chemical_formula_sum "Si O2"
_cell_formula_units_Z 32
_cell_length_a 16.157888
_cell_length_b 9.147053
_cell_length_c 10.751370
_cell_angle_alpha 90.000000
_cell_angle_beta 95.496977
_cell_angle_gamma 90.000000
_cell_volume 1581.713351
_symmetry_space_group_name_H-M "P 2/M"
_symmetry_group_IT_number 10
_symmetry_cell_setting 'monoclinic'
loop_
_space_group_symop_operation_xyz
x,y,z
-x,y,-z
-x,-y,-z
x,-y,z
loop_
_atom_site_type_symbol
_atom_site_label
_atom_site_fract_x
_atom_site_fract_y
_atom_site_fract_z
Si Si1 0.766625 0.168579 0.371741
Si Si2 0.960355 0.173806 0.866224
Si Si3 0.636296 0.333465 0.960069
Si Si4 0.666761 0.832558 0.588612
Si Si5 0.227394 0.833853 0.148805
Si Si6 0.471560 0.667491 0.302088
Si Si7 0.610618 0.168735 0.197135
Si Si8 0.048740 0.174536 0.629798
O O1 0.718731 0.238133 0.482703
O O2 0.708361 0.187356 0.242570
O O3 0.857196 0.239107 0.361696
O O4 0.781439 0.000000 0.407049
O O5 0.865325 0.226971 0.847335
O O6 0.006786 0.236398 0.750233
O O7 0.965721 0.000000 0.864670
O O8 0.000000 0.234913 0.000000
O O9 0.648546 0.500000 0.003163
O O10 0.726413 0.264438 0.946498
O O11 0.577795 0.318584 0.833443
O O12 0.591643 0.247853 0.064967
O O13 0.726554 0.823438 0.714508
O O14 0.583347 0.737593 0.595770
O O15 0.640156 0.000000 0.557142
O O16 0.226669 0.000000 0.098380
O O17 0.491066 0.500000 0.338663
O O18 0.556778 0.757760 0.299603
O O19 0.584668 0.000000 0.183052
O O20 0.000000 0.229919 0.500000
O O21 0.048651 0.000000 0.634073
#
# Coordination Sequence:
#
# PCOD8065975 Si02
#       8
#     4   4   4   4   4   4   4   4
#     4   9  19  32  49  76 109 140 171 215 266 313
#     4   9  17  26  43  75 110 137 167 217 271 313
#     4  10  21  36  54  75 103 140 178 218 264 316
#     4   9  17  33  54  76 103 135 176 218 258 311
#     4   9  17  30  52  79 104 135 174 216 262 315
#     4  10  21  37  55  76 103 137 177 219 265 316
#     4  11  22  34  52  78 108 140 174 216 266 316
#     4   9  16  28  47  72 106 145 178 211 262 324
#
# _framework density 20.231228000000002
#
# number of rings (size 3 to 8) (size 9 to 14) (size 15 to 20)
#    0.000    2.500    0.000    2.250    1.750    6.500 
#    0.000    3.750    0.000    0.375    0.000    0.000 
#    0.000    7.000    0.000    0.000    0.000    0.000 
#
# Total GULP energy -396792.405824 kJ/mol
# GULP energy per Si atom -12399.762682 kJ/mol
# Density = 2.018518 g / cm^3
# Si number density = 20.231228 Si / 1000 Ang^3
#
#
#
# Elastic Constant Matrix: (Units=GPa)
#
#
# Indices 1 2 3 4 5 6 
#
# 1 120.1565 32.0901 17.9195 0.0000 -21.9921 0.0000
# 2 32.0901 74.8682 16.0850 0.0000 -7.8957 0.0000
# 3 17.9195 16.0850 75.8734 0.0000 -23.4714 0.0000
# 4 0.0000 0.0000 0.0000 10.8944 0.0000 0.1604
# 5 -21.9921 -7.8957 -23.4714 0.0000 29.3948 0.0000
# 6 0.0000 0.0000 0.0000 0.1604 0.0000 6.4371
#
#
#
# Elastic Compliance Matrix: (Units=1/GPa)
#
#
# Indices 1 2 3 4 5 6 
#
# 1 0.010627 -0.003906 0.000602 0.000000 0.007382 0.000000
# 2 -0.003906 0.015505 -0.002630 0.000000 -0.000857 0.000000
# 3 0.000602 -0.002630 0.017950 0.000000 0.014077 0.000000
# 4 0.000000 0.000000 0.000000 0.091824 0.000000 -0.002289
# 5 0.007382 -0.000857 0.014077 0.000000 0.050552 0.000000
# 6 0.000000 0.000000 0.000000 -0.002289 0.000000 0.155405
#
#
# Mechanical properties :
#
#
# Convention : Reuss Voigt Hill
#
# Bulk Modulus (GPa) = 31.04160 44.78749 37.91455
# Shear Modulus (GPa) = 13.71855 22.99884 18.35869
#
# Velocity S-wave (km/s) = 2.60684 3.37530 3.01565
# Velocity P-wave (km/s) = 4.94343 6.11360 5.55939
#
# Compressibility (1/GPa) = 0.03221483
#
# Stress axis : x y z
#
# Youngs Moduli (GPa) = 94.10032 64.49332 55.71086
#
# Poissons Ratio (x) = 0.25189 -0.03353
# Poissons Ratio (y) = 0.36753 0.14651
# Poissons Ratio (z) = -0.05663 0.16961
#
# Static dielectric constant tensor:
#      x y z
#    x 3.870320 0.000000 -0.176200 
#    y 0.000000 3.273380 0.000000 
#    z -0.176200 0.000000 3.672290 
# 
# 
# High freq. dielectric constant tensor:
#      x y z
#    x 1.801370 0.000000 -0.007020 
#    y 0.000000 1.736230 0.000000 
#    z -0.007020 0.000000 1.797170 
# 
# From -- ./inp_files/49893.got.cif
#   From: 2010.06.25/outbox.cif.g09.slc.cpg/sg10_25_cif.got.tgz:49893.got - 2010.06.27 22:07:45.
