data_PCOD8065462
_publ_section_title
;
Structure prediction by ZEFSAII (Michael W. Deem and Ramdas Pophale) SiO2 
 PCOD8065462
Probable space group: P 2/M
;
_chemical_formula_sum "Si O2"
_cell_formula_units_Z 28
_cell_length_a 9.005633
_cell_length_b 8.496319
_cell_length_c 25.023555
_cell_angle_alpha 90.000000
_cell_angle_beta 135.153727
_cell_angle_gamma 90.000000
_cell_volume 1350.239170
_symmetry_space_group_name_H-M "P 2/M"
_symmetry_group_IT_number 10
_symmetry_cell_setting 'monoclinic'
loop_
_space_group_symop_operation_xyz
x,y,z
-x,y,-z
-x,-y,-z
x,-y,z
loop_
_atom_site_type_symbol
_atom_site_label
_atom_site_fract_x
_atom_site_fract_y
_atom_site_fract_z
Si Si1 0.541860 0.319085 0.589113
Si Si2 0.621747 0.818033 0.722759
Si Si3 0.809083 0.181835 0.566008
Si Si4 0.938732 0.317637 0.136582
Si Si5 0.821642 0.182445 0.996122
Si Si6 0.267181 0.183718 0.715696
Si Si7 0.611882 0.317639 0.144035
O O1 0.592383 0.500000 0.590591
O O2 0.568700 0.285965 0.658102
O O3 0.705996 0.215242 0.597379
O O4 0.303944 0.281081 0.509519
O O5 0.462956 0.768307 0.728965
O O6 0.855446 0.787650 0.803401
O O7 0.594130 0.000000 0.700621
O O8 0.054162 0.227658 0.629843
O O9 0.778454 0.000000 0.544208
O O10 0.999182 0.500000 0.158404
O O11 0.840164 0.287571 0.053566
O O12 0.767800 0.266137 0.136623
O O13 0.845940 0.000000 0.017548
O O14 0.596801 0.212453 0.911800
O O15 0.000000 0.234894 0.000000
O O16 0.273069 0.285738 0.770804
O O17 0.270609 0.000000 0.731872
O O18 0.550620 0.500000 0.123371
#
# Coordination Sequence:
#
# PCOD8065462 Si02
#       7
#     4   4   4   4   4   4   4
#     4  11  22  37  58  87 119 152 193 241 290 345
#     4  11  23  40  60  85 117 154 195 239 289 345
#     4  10  20  38  62  86 114 153 196 240 291 345
#     4  11  24  41  61  89 120 152 194 240 288 343
#     4  11  24  41  62  89 120 154 194 238 285 341
#     4  10  23  40  60  86 116 151 195 242 288 344
#     4  11  24  40  61  88 119 153 192 239 288 342
#
# _framework density 20.737067
#
# number of rings (size 3 to 8) (size 9 to 14) (size 15 to 20)
#    0.000    1.286    0.000    6.429    0.000   13.714 
#    0.000    2.857    0.000    0.000    0.000    0.000 
#    0.000    0.000    0.000    0.000    0.000    0.000 
#
# Total GULP energy -347431.529640 kJ/mol
# GULP energy per Si atom -12408.268916 kJ/mol
# Density = 2.068987 g / cm^3
# Si number density = 20.737067 Si / 1000 Ang^3
#
#
#
# Elastic Constant Matrix: (Units=GPa)
#
#
# Indices 1 2 3 4 5 6 
#
# 1 55.8139 9.9001 11.9677 0.0000 26.6797 0.0000
# 2 9.9001 44.2794 12.2045 0.0000 7.8116 0.0000
# 3 11.9677 12.2045 82.9109 0.0000 16.2009 0.0000
# 4 0.0000 0.0000 0.0000 34.3822 0.0000 -5.6129
# 5 26.6797 7.8116 16.2009 0.0000 38.0832 0.0000
# 6 0.0000 0.0000 0.0000 -5.6129 0.0000 20.7441
#
#
#
# Elastic Compliance Matrix: (Units=1/GPa)
#
#
# Indices 1 2 3 4 5 6 
#
# 1 0.027276 -0.002853 0.000112 0.000000 -0.018571 0.000000
# 2 -0.002853 0.024314 -0.002817 0.000000 -0.001790 0.000000
# 3 0.000112 -0.002817 0.013483 0.000000 -0.005236 0.000000
# 4 0.000000 0.000000 0.000000 0.030429 0.000000 0.008233
# 5 -0.018571 -0.001790 -0.005236 0.000000 0.041863 0.000000
# 6 0.000000 0.000000 0.000000 0.008233 0.000000 0.050434
#
#
# Mechanical properties :
#
#
# Convention : Reuss Voigt Hill
#
# Bulk Modulus (GPa) = 18.53390 27.90541 23.21965
# Shear Modulus (GPa) = 23.05192 28.57070 25.81131
#
# Velocity S-wave (km/s) = 3.33773 3.71585 3.53185
# Velocity P-wave (km/s) = 4.87964 5.64765 5.27764
#
# Compressibility (1/GPa) = 0.05395519
#
# Stress axis : x y z
#
# Youngs Moduli (GPa) = 36.66249 41.12841 74.16807
#
# Poissons Ratio (x) = 0.11734 -0.00828
# Poissons Ratio (y) = 0.10460 0.20897
# Poissons Ratio (z) = -0.00409 0.11588
#
# Static dielectric constant tensor:
#      x y z
#    x 3.747720 0.000000 0.082510 
#    y 0.000000 3.657500 0.000000 
#    z 0.082510 0.000000 3.752450 
# 
# 
# High freq. dielectric constant tensor:
#      x y z
#    x 1.813640 0.000000 0.002730 
#    y 0.000000 1.814690 0.000000 
#    z 0.002730 0.000000 1.824250 
# 
# From -- ./inp_files/92064.got.cif
#   From: 2010.06.25/outbox.cif.g09.slc.cpg/sg10_47_cif.got.tgz:92064.got - 2010.06.27 22:07:45.
