data_PCOD8065907
_publ_section_title
;
Structure prediction by ZEFSAII (Michael W. Deem and Ramdas Pophale) SiO2 
 PCOD8065907
Probable space group: P 2/M
;
_chemical_formula_sum "Si O2"
_cell_formula_units_Z 32
_cell_length_a 16.644316
_cell_length_b 9.247353
_cell_length_c 25.394742
_cell_angle_alpha 90.000000
_cell_angle_beta 25.650781
_cell_angle_gamma 90.000000
_cell_volume 1691.997043
_symmetry_space_group_name_H-M "P 2/M"
_symmetry_group_IT_number 10
_symmetry_cell_setting 'monoclinic'
loop_
_space_group_symop_operation_xyz
x,y,z
-x,y,-z
-x,-y,-z
x,-y,z
loop_
_atom_site_type_symbol
_atom_site_label
_atom_site_fract_x
_atom_site_fract_y
_atom_site_fract_z
Si Si1 0.018758 0.334706 0.872234
Si Si2 0.575409 0.829210 0.842288
Si Si3 0.762644 0.333302 0.521003
Si Si4 0.816148 0.840519 0.074910
Si Si5 0.206248 0.169269 0.391730
Si Si6 0.146823 0.329296 0.245204
Si Si7 0.366273 0.334129 0.730391
Si Si8 0.213353 0.333637 0.086441
O O1 0.991296 0.500000 0.905901
O O2 0.229400 0.284735 0.763302
O O3 0.977452 0.315193 0.834571
O O4 0.861699 0.242783 0.994554
O O5 0.655310 0.790868 0.737569
O O6 0.699636 0.755832 0.813402
O O7 0.574570 0.000000 0.852578
O O8 0.369557 0.766901 0.968605
O O9 0.788224 0.500000 0.521105
O O10 0.724780 0.247955 0.596889
O O11 0.583862 0.311949 0.587866
O O12 0.943894 0.276509 0.383613
O O13 0.664991 0.756150 0.198076
O O14 0.737795 0.000000 0.107007
O O15 0.000000 0.853886 0.000000
O O16 0.000000 0.224888 0.500000
O O17 0.203637 0.000000 0.404881
O O18 0.174861 0.500000 0.236726
O O19 0.167873 0.284223 0.172157
O O20 0.324838 0.500000 0.768784
O O21 0.281535 0.500000 0.044825
#
# Coordination Sequence:
#
# PCOD8065907 Si02
#       8
#     4   4   4   4   4   4   4   4
#     4   9  18  34  53  74 106 144 180 219 265 315
#     4  11  23  38  58  83 110 141 179 224 275 329
#     4  10  21  35  56  83 110 143 183 221 264 322
#     4   9  17  29  47  72 102 136 173 216 264 311
#     4  10  21  38  56  79 112 143 174 220 274 326
#     4  10  21  39  58  79 109 143 182 227 270 320
#     4   9  18  33  52  77 108 142 179 218 262 318
#     4  10  22  38  57  80 108 145 185 225 271 318
#
# _framework density 18.912562000000001
#
# number of rings (size 3 to 8) (size 9 to 14) (size 15 to 20)
#    0.000    2.250    1.250    1.125    1.750    5.750 
#    0.000    0.625    0.000    3.750    0.000    0.000 
#    0.000    7.000    0.000    0.000    0.000    0.000 
#
# Total GULP energy -396717.266956 kJ/mol
# GULP energy per Si atom -12397.414592 kJ/mol
# Density = 1.886952 g / cm^3
# Si number density = 18.912562 Si / 1000 Ang^3
#
#
#
# Elastic Constant Matrix: (Units=GPa)
#
#
# Indices 1 2 3 4 5 6 
#
# 1 115.4803 38.7368 68.7301 0.0000 -2.3143 0.0000
# 2 38.7368 55.2392 25.6865 0.0000 3.0409 0.0000
# 3 68.7301 25.6865 79.9975 0.0000 -1.3972 0.0000
# 4 0.0000 0.0000 0.0000 20.0757 0.0000 1.3640
# 5 -2.3143 3.0409 -1.3972 0.0000 31.3551 0.0000
# 6 0.0000 0.0000 0.0000 1.3640 0.0000 12.2236
#
#
#
# Elastic Compliance Matrix: (Units=1/GPa)
#
#
# Indices 1 2 3 4 5 6 
#
# 1 0.019865 -0.007158 -0.014742 0.000000 0.001503 0.000000
# 2 -0.007158 0.024037 -0.001620 0.000000 -0.002932 0.000000
# 3 -0.014742 -0.001620 0.025690 0.000000 0.000214 0.000000
# 4 0.000000 0.000000 0.000000 0.050192 0.000000 -0.005601
# 5 0.001503 -0.002932 0.000214 0.000000 0.032298 0.000000
# 6 0.000000 0.000000 0.000000 -0.005601 0.000000 0.082434
#
#
# Mechanical properties :
#
#
# Convention : Reuss Voigt Hill
#
# Bulk Modulus (GPa) = 44.34115 57.44708 50.89411
# Shear Modulus (GPa) = 17.29668 20.56844 18.93256
#
# Velocity S-wave (km/s) = 3.02745 3.30139 3.16738
# Velocity P-wave (km/s) = 5.97636 6.70621 6.35177
#
# Compressibility (1/GPa) = 0.02255242
#
# Stress axis : x y z
#
# Youngs Moduli (GPa) = 50.34031 41.60238 38.92550
#
# Poissons Ratio (x) = 0.29778 0.57385
# Poissons Ratio (y) = 0.36033 0.06304
# Poissons Ratio (z) = 0.74213 0.06738
#
# Static dielectric constant tensor:
#      x y z
#    x 3.481350 0.000000 -0.127860 
#    y 0.000000 3.540300 0.000000 
#    z -0.127860 0.000000 3.493800 
# 
# 
# High freq. dielectric constant tensor:
#      x y z
#    x 1.735660 0.000000 -0.016050 
#    y 0.000000 1.730100 0.000000 
#    z -0.016050 0.000000 1.726030 
# 
# From -- ./inp_files/89534.got.cif
#   From: 2010.06.25/outbox.cif.g09.slc.cpg/sg10_45_cif.got.tgz:89534.got - 2010.06.27 22:07:45.
