data_PCOD8065741
_publ_section_title
;
Structure prediction by ZEFSAII (Michael W. Deem and Ramdas Pophale) SiO2 
 PCOD8065741
Probable space group: P 2/M
;
_chemical_formula_sum "Si O2"
_cell_formula_units_Z 28
_cell_length_a 17.038036
_cell_length_b 9.228922
_cell_length_c 14.348210
_cell_angle_alpha 90.000000
_cell_angle_beta 138.025925
_cell_angle_gamma 90.000000
_cell_volume 1508.901127
_symmetry_space_group_name_H-M "P 2/M"
_symmetry_group_IT_number 10
_symmetry_cell_setting 'monoclinic'
loop_
_space_group_symop_operation_xyz
x,y,z
-x,y,-z
-x,-y,-z
x,-y,z
loop_
_atom_site_type_symbol
_atom_site_label
_atom_site_fract_x
_atom_site_fract_y
_atom_site_fract_z
Si Si1 0.619640 0.826520 0.152015
Si Si2 0.488785 0.828563 0.594407
Si Si3 0.193081 0.165781 0.823562
Si Si4 0.047127 0.172702 0.310123
Si Si5 0.273492 0.165950 0.098980
Si Si6 0.949174 0.663108 0.056917
Si Si7 0.306762 0.172143 0.582131
O O1 0.731653 0.762511 0.193348
O O2 0.631867 0.770600 0.269012
O O3 0.619450 0.000000 0.147126
O O4 0.500000 0.766399 0.000000
O O5 0.500000 0.761249 0.500000
O O6 0.600718 0.782967 0.753715
O O7 0.375583 0.767926 0.551489
O O8 0.477691 0.000000 0.576012
O O9 0.061357 0.230798 0.721115
O O10 0.174717 0.000000 0.780910
O O11 0.269948 0.183783 0.984692
O O12 0.171252 0.223287 0.461807
O O13 0.034067 0.242476 0.197061
O O14 0.039265 0.000000 0.290991
O O15 0.247614 0.000000 0.104760
O O16 0.179009 0.267835 0.063876
O O17 0.939994 0.500000 0.088384
O O18 0.000000 0.663744 0.000000
O O19 0.312558 0.000000 0.586629
#
# Coordination Sequence:
#
# PCOD8065741 Si02
#       7
#     4   4   4   4   4   4   4
#     4   9  15  23  39  63  97 134 159 192 244 290
#     4   9  17  27  41  65  96 127 158 198 241 280
#     4   8  14  25  40  63  92 122 156 194 237 279
#     4   9  18  31  48  71  99 127 161 201 239 287
#     4   9  17  30  49  71  94 123 160 198 237 285
#     4  10  21  34  49  69  94 125 162 203 244 288
#     4   9  17  27  41  68 101 130 163 198 238 291
#
# _framework density 18.556549
#
# number of rings (size 3 to 8) (size 9 to 14) (size 15 to 20)
#    0.000    3.000    0.000    2.143    2.000    5.143 
#    0.000    2.857    0.000    1.286    0.000    8.000 
#    0.000   14.286    0.000    0.000    0.000    0.000 
#
# Total GULP energy -346996.884647 kJ/mol
# GULP energy per Si atom -12392.745880 kJ/mol
# Density = 1.851431 g / cm^3
# Si number density = 18.556549 Si / 1000 Ang^3
#
#
#
# Elastic Constant Matrix: (Units=GPa)
#
#
# Indices 1 2 3 4 5 6 
#
# 1 149.4211 16.4166 77.7129 0.0000 2.5237 0.0000
# 2 16.4166 24.7370 10.0758 0.0000 2.9730 0.0000
# 3 77.7129 10.0758 137.9300 0.0000 14.3345 0.0000
# 4 0.0000 0.0000 0.0000 0.7165 0.0000 -3.0423
# 5 2.5237 2.9730 14.3345 0.0000 26.0147 0.0000
# 6 0.0000 0.0000 0.0000 -3.0423 0.0000 6.0671
#
#
#
# Elastic Compliance Matrix: (Units=1/GPa)
#
#
# Indices 1 2 3 4 5 6 
#
# 1 0.010087 -0.004726 -0.005614 0.000000 0.002655 0.000000
# 2 -0.004726 0.044144 -0.000090 0.000000 -0.004537 0.000000
# 3 -0.005614 -0.000090 0.010991 0.000000 -0.005501 0.000000
# 4 0.000000 0.000000 0.000000 -1.236025 0.000000 -0.619801
# 5 0.002655 -0.004537 -0.005501 0.000000 0.041732 0.000000
# 6 0.000000 0.000000 0.000000 -0.619801 0.000000 -0.145973
#
#
# Mechanical properties :
#
#
# Convention : Reuss Voigt Hill
#
# Bulk Modulus (GPa) = 22.54226 57.83320 40.18773
# Shear Modulus (GPa) = -4.03422 20.41852 8.19215
#
# Velocity S-wave (km/s) = -1.47605 3.32074 2.10340
# Velocity P-wave (km/s) = 3.04455 6.77766 5.25385
#
# Compressibility (1/GPa) = 0.04436113
#
# Stress axis : x y z
#
# Youngs Moduli (GPa) = 99.14189 22.65311 90.98154
#
# Poissons Ratio (x) = 0.10707 0.51074
# Poissons Ratio (y) = 0.46859 0.00821
# Poissons Ratio (z) = 0.55655 0.00204
#
# Static dielectric constant tensor:
#      x y z
#    x 3.768380 0.000000 0.148870 
#    y 0.000000 2.852720 0.000000 
#    z 0.148870 0.000000 3.561270 
# 
# 
# High freq. dielectric constant tensor:
#      x y z
#    x 1.734090 0.000000 0.006170 
#    y 0.000000 1.641910 0.000000 
#    z 0.006170 0.000000 1.724040 
# 
# From -- ./inp_files/68703.got.cif
#   From: 2010.06.25/outbox.cif.g09.slc.cpg/sg10_35_cif.got.tgz:68703.got - 2010.06.27 22:07:45.
