data_PCOD8065414
_publ_section_title
;
Structure prediction by ZEFSAII (Michael W. Deem and Ramdas Pophale) SiO2 
 PCOD8065414
Probable space group: P 2/M
;
_chemical_formula_sum "Si O2"
_cell_formula_units_Z 32
_cell_length_a 24.394843
_cell_length_b 8.765474
_cell_length_c 14.255958
_cell_angle_alpha 90.000000
_cell_angle_beta 149.911314
_cell_angle_gamma 90.000000
_cell_volume 1528.277084
_symmetry_space_group_name_H-M "P 2/M"
_symmetry_group_IT_number 10
_symmetry_cell_setting 'monoclinic'
loop_
_space_group_symop_operation_xyz
x,y,z
-x,y,-z
-x,-y,-z
x,-y,z
loop_
_atom_site_type_symbol
_atom_site_label
_atom_site_fract_x
_atom_site_fract_y
_atom_site_fract_z
Si Si1 0.377292 0.820276 0.294200
Si Si2 0.383678 0.678202 0.792577
Si Si3 0.161263 0.179690 0.487256
Si Si4 0.308006 0.176140 0.983072
Si Si5 0.899962 0.679054 0.416515
Si Si6 0.887585 0.679153 0.785703
Si Si7 0.692756 0.320619 0.633496
Si Si8 0.545185 0.175541 0.279794
O O1 0.500000 0.764068 0.500000
O O2 0.340042 0.773496 0.135136
O O3 0.291866 0.732834 0.236347
O O4 0.367112 0.000000 0.294010
O O5 0.368395 0.500000 0.789445
O O6 0.284809 0.767412 0.694759
O O7 0.384074 0.714207 0.682749
O O8 0.500000 0.741654 0.000000
O O9 0.087117 0.240493 0.462992
O O10 0.122242 0.241981 0.329681
O O11 0.155196 0.000000 0.476308
O O12 0.415490 0.201724 0.077884
O O13 0.271113 0.000000 0.924758
O O14 0.212395 0.280317 0.801906
O O15 0.904078 0.500000 0.440085
O O16 0.000000 0.734757 0.500000
O O17 0.882601 0.500000 0.759101
O O18 0.794737 0.731452 0.720962
O O19 0.000000 0.729663 0.000000
O O20 0.672983 0.500000 0.598269
O O21 0.585162 0.226220 0.441599
O O22 0.575215 0.000000 0.304543
#
# Coordination Sequence:
#
# PCOD8065414 Si02
#       8
#     4   4   4   4   4   4   4   4
#     4  10  20  38  60  86 126 170 207 255 318 379
#     4  11  23  38  59  91 128 166 209 257 313 379
#     4  12  25  42  68  97 127 165 211 263 317 379
#     4  10  22  40  64  94 128 168 213 262 318 378
#     4  11  26  47  69  92 124 167 212 264 321 374
#     4  10  23  44  67  92 129 171 212 262 317 374
#     4  11  22  36  59  90 123 164 210 259 311 369
#     4  11  21  36  59  88 126 165 202 253 317 377
#
# _framework density 20.938610000000001
#
# number of rings (size 3 to 8) (size 9 to 14) (size 15 to 20)
#    0.000    1.250    2.500    3.375    0.000    7.500 
#    0.000    3.750    0.000    0.000    0.000    0.000 
#    0.000    0.000    0.000    0.000    0.000    0.000 
#
# Total GULP energy -396864.054089 kJ/mol
# GULP energy per Si atom -12402.001690 kJ/mol
# Density = 2.089095 g / cm^3
# Si number density = 20.938610 Si / 1000 Ang^3
#
#
#
# Elastic Constant Matrix: (Units=GPa)
#
#
# Indices 1 2 3 4 5 6 
#
# 1 143.5393 48.4003 37.8155 0.0000 2.5584 0.0000
# 2 48.4003 74.8625 36.8162 0.0000 2.4607 0.0000
# 3 37.8155 36.8162 85.7673 0.0000 3.8189 0.0000
# 4 0.0000 0.0000 0.0000 25.7204 0.0000 -2.8022
# 5 2.5584 2.4607 3.8189 0.0000 25.1291 0.0000
# 6 0.0000 0.0000 0.0000 -2.8022 0.0000 35.1256
#
#
#
# Elastic Compliance Matrix: (Units=1/GPa)
#
#
# Indices 1 2 3 4 5 6 
#
# 1 0.009146 -0.004979 -0.001888 0.000000 -0.000157 0.000000
# 2 -0.004979 0.019651 -0.006219 0.000000 -0.000472 0.000000
# 3 -0.001888 -0.006219 0.015229 0.000000 -0.001513 0.000000
# 4 0.000000 0.000000 0.000000 0.039221 0.000000 0.003129
# 5 -0.000157 -0.000472 -0.001513 0.000000 0.040087 0.000000
# 6 0.000000 0.000000 0.000000 0.003129 0.000000 0.028719
#
#
# Mechanical properties :
#
#
# Convention : Reuss Voigt Hill
#
# Bulk Modulus (GPa) = 56.01289 61.13704 58.57496
# Shear Modulus (GPa) = 27.14803 29.27083 28.20943
#
# Velocity S-wave (km/s) = 3.60468 3.74295 3.67446
# Velocity P-wave (km/s) = 6.64334 6.92396 6.78510
#
# Compressibility (1/GPa) = 0.01785303
#
# Stress axis : x y z
#
# Youngs Moduli (GPa) = 109.33791 50.88811 65.66509
#
# Poissons Ratio (x) = 0.25339 0.12398
# Poissons Ratio (y) = 0.54443 0.40836
# Poissons Ratio (z) = 0.20644 0.31646
#
# Static dielectric constant tensor:
#      x y z
#    x 3.992150 0.000000 -0.027390 
#    y 0.000000 3.582160 0.000000 
#    z -0.027390 0.000000 3.776640 
# 
# 
# High freq. dielectric constant tensor:
#      x y z
#    x 1.837540 0.000000 -0.007410 
#    y 0.000000 1.815290 0.000000 
#    z -0.007410 0.000000 1.812550 
# 
# From -- ./inp_files/71696.got.cif
#   From: 2010.06.25/outbox.cif.g09.slc.cpg/sg10_36_cif.got.tgz:71696.got - 2010.06.27 22:07:45.
