data_PCOD8065580
_publ_section_title
;
Structure prediction by ZEFSAII (Michael W. Deem and Ramdas Pophale) SiO2 
 PCOD8065580
Probable space group: P 2/M
;
_chemical_formula_sum "Si O2"
_cell_formula_units_Z 32
_cell_length_a 14.393569
_cell_length_b 9.038559
_cell_length_c 24.521227
_cell_angle_alpha 90.000000
_cell_angle_beta 148.568860
_cell_angle_gamma 90.000000
_cell_volume 1663.573892
_symmetry_space_group_name_H-M "P 2/M"
_symmetry_group_IT_number 10
_symmetry_cell_setting 'monoclinic'
loop_
_space_group_symop_operation_xyz
x,y,z
-x,y,-z
-x,-y,-z
x,-y,z
loop_
_atom_site_type_symbol
_atom_site_label
_atom_site_fract_x
_atom_site_fract_y
_atom_site_fract_z
Si Si1 0.999812 0.828995 0.159360
Si Si2 0.028719 0.168285 0.300372
Si Si3 0.189013 0.328516 0.618060
Si Si4 0.735965 0.671103 0.220838
Si Si5 0.678841 0.324529 0.734419
Si Si6 0.536999 0.826409 0.766931
Si Si7 0.571084 0.172719 0.476855
Si Si8 0.387774 0.827810 0.071993
O O1 0.048450 0.803810 0.246276
O O2 0.127811 0.726152 0.188368
O O3 0.027215 0.000000 0.156034
O O4 0.798496 0.777703 0.047165
O O5 0.218612 0.204559 0.422814
O O6 0.875817 0.271959 0.246871
O O7 0.972880 0.000000 0.284300
O O8 0.231911 0.500000 0.627673
O O9 0.185991 0.294130 0.680587
O O10 0.333900 0.228456 0.660139
O O11 0.000000 0.280325 0.500000
O O12 0.707198 0.500000 0.195967
O O13 0.543932 0.746376 0.117252
O O14 0.668527 0.500000 0.730778
O O15 0.656723 0.260308 0.783813
O O16 0.523582 0.264715 0.617637
O O17 0.612266 0.785628 0.864230
O O18 0.545054 0.000000 0.758661
O O19 0.500000 0.225696 0.500000
O O20 0.525973 0.000000 0.446028
O O21 0.422459 0.000000 0.081281
#
# Coordination Sequence:
#
# PCOD8065580 Si02
#       8
#     4   4   4   4   4   4   4   4
#     4  10  21  41  64  85 111 150 198 245 289 337
#     4  10  21  37  60  86 115 150 192 238 284 339
#     4   9  19  36  55  79 112 150 190 234 287 341
#     4  10  21  36  56  83 120 155 186 233 288 345
#     4  12  25  38  57  87 121 156 190 233 290 353
#     4  10  21  38  59  85 114 148 193 241 286 338
#     4  10  20  39  62  84 114 153 194 240 287 334
#     4   9  20  40  65  86 110 148 197 247 289 335
#
# _framework density 19.235693999999999
#
# number of rings (size 3 to 8) (size 9 to 14) (size 15 to 20)
#    0.000    2.000    1.250    1.875    1.750    4.000 
#    0.000    5.000    0.000    0.000    0.000    0.000 
#    0.000    0.000    0.000    0.000    0.000    0.000 
#
# Total GULP energy -396954.835666 kJ/mol
# GULP energy per Si atom -12404.838615 kJ/mol
# Density = 1.919191 g / cm^3
# Si number density = 19.235694 Si / 1000 Ang^3
#
#
#
# Elastic Constant Matrix: (Units=GPa)
#
#
# Indices 1 2 3 4 5 6 
#
# 1 79.4555 41.3944 9.0298 0.0000 21.3871 0.0000
# 2 41.3944 82.3217 26.2057 0.0000 13.1913 0.0000
# 3 9.0298 26.2057 78.4157 0.0000 22.1553 0.0000
# 4 0.0000 0.0000 0.0000 22.1015 0.0000 1.5153
# 5 21.3871 13.1913 22.1553 0.0000 23.2427 0.0000
# 6 0.0000 0.0000 0.0000 1.5153 0.0000 29.1060
#
#
#
# Elastic Compliance Matrix: (Units=1/GPa)
#
#
# Indices 1 2 3 4 5 6 
#
# 1 0.023117 -0.010319 0.007037 0.000000 -0.022122 0.000000
# 2 -0.010319 0.018574 -0.006464 0.000000 0.005115 0.000000
# 3 0.007037 -0.006464 0.020386 0.000000 -0.022238 0.000000
# 4 0.000000 0.000000 0.000000 0.045408 0.000000 -0.002364
# 5 -0.022122 0.005115 -0.022238 0.000000 0.081675 0.000000
# 6 0.000000 0.000000 0.000000 -0.002364 0.000000 0.034480
#
#
# Mechanical properties :
#
#
# Convention : Reuss Voigt Hill
#
# Bulk Modulus (GPa) = 23.48332 43.71701 33.60016
# Shear Modulus (GPa) = 19.43053 25.79424 22.61239
#
# Velocity S-wave (km/s) = 3.18170 3.66588 3.43234
# Velocity P-wave (km/s) = 5.07270 6.37923 5.76311
#
# Compressibility (1/GPa) = 0.04258341
#
# Stress axis : x y z
#
# Youngs Moduli (GPa) = 43.25902 53.83748 49.05419
#
# Poissons Ratio (x) = 0.55555 -0.34519
# Poissons Ratio (y) = 0.44639 0.31711
# Poissons Ratio (z) = -0.30441 0.34803
#
# Static dielectric constant tensor:
#      x y z
#    x 3.493350 0.000000 0.016150 
#    y 0.000000 3.462580 0.000000 
#    z 0.016150 0.000000 3.595100 
# 
# 
# High freq. dielectric constant tensor:
#      x y z
#    x 1.751620 0.000000 0.005190 
#    y 0.000000 1.743390 0.000000 
#    z 0.005190 0.000000 1.753300 
# 
# From -- ./inp_files/66631.got.cif
#   From: 2010.06.25/outbox.cif.g09.slc.cpg/sg10_34_cif.got.tgz:66631.got - 2010.06.27 22:07:45.
