data_PCOD8065179
_publ_section_title
;
Structure prediction by ZEFSAII (Michael W. Deem and Ramdas Pophale) SiO2 
 PCOD8065179
Probable space group: P 2/M
;
_chemical_formula_sum "Si O2"
_cell_formula_units_Z 28
_cell_length_a 13.901883
_cell_length_b 22.009402
_cell_length_c 8.265377
_cell_angle_alpha 90.000000
_cell_angle_beta 32.059967
_cell_angle_gamma 90.000000
_cell_volume 1342.396528
_symmetry_space_group_name_H-M "P 2/M"
_symmetry_group_IT_number 10
_symmetry_cell_setting 'monoclinic'
loop_
_space_group_symop_operation_xyz
x,y,z
-x,y,-z
-x,-y,-z
x,-y,z
loop_
_atom_site_type_symbol
_atom_site_label
_atom_site_fract_x
_atom_site_fract_y
_atom_site_fract_z
Si Si1 0.531938 0.070217 0.265537
Si Si2 0.194089 0.432887 0.642418
Si Si3 0.678873 0.323962 0.350727
Si Si4 0.967262 0.653389 0.366508
Si Si5 0.306862 0.253185 0.342786
Si Si6 0.846804 0.929417 0.330232
Si Si7 0.174143 0.859470 0.344034
O O1 0.500000 0.077749 0.500000
O O2 0.353174 0.093540 0.429687
O O3 0.581117 0.000000 0.152417
O O4 0.686267 0.117044 0.989624
O O5 0.282402 0.500000 0.497563
O O6 0.333143 0.389470 0.542506
O O7 0.150899 0.402317 0.533256
O O8 0.000000 0.438426 0.000000
O O9 0.500000 0.311610 0.500000
O O10 0.704347 0.269868 0.448439
O O11 0.852479 0.327638 0.987529
O O12 0.000000 0.631973 0.500000
O O13 0.843716 0.712264 0.544582
O O14 0.265237 0.183996 0.350576
O O15 0.500000 0.273639 0.000000
O O16 0.890764 0.916512 0.455343
O O17 0.852770 0.000000 0.286954
O O18 0.000000 0.897489 0.000000
O O19 0.000000 0.831030 0.500000
#
# Coordination Sequence:
#
# PCOD8065179 Si02
#       7
#     4   4   4   4   4   4   4
#     4  10  21  40  65  91 121 155 191 234 290 355
#     4   8  16  32  55  86 123 159 195 240 291 344
#     4  10  21  38  63  88 116 157 199 245 296 352
#     4  10  20  37  60  86 118 156 200 242 291 351
#     4  11  23  41  61  83 113 150 198 249 298 348
#     4  10  21  38  61  89 120 153 189 233 286 343
#     4  12  25  40  60  87 117 152 194 241 292 348
#
# _framework density 20.858218000000001
#
# number of rings (size 3 to 8) (size 9 to 14) (size 15 to 20)
#    0.000    1.857    0.000    5.143    0.000    5.143 
#    0.000    8.571    0.000   14.571    0.000    0.000 
#    0.000    0.000    0.000    0.000    0.000    0.000 
#
# Total GULP energy -346981.174427 kJ/mol
# GULP energy per Si atom -12392.184801 kJ/mol
# Density = 2.081074 g / cm^3
# Si number density = 20.858218 Si / 1000 Ang^3
#
#
#
# Elastic Constant Matrix: (Units=GPa)
#
#
# Indices 1 2 3 4 5 6 
#
# 1 139.2663 48.2607 44.5821 0.0000 4.5391 0.0000
# 2 48.2607 80.1119 42.2430 0.0000 -5.0455 0.0000
# 3 44.5821 42.2430 114.4594 0.0000 3.5690 0.0000
# 4 0.0000 0.0000 0.0000 18.6964 0.0000 -0.6206
# 5 4.5391 -5.0455 3.5690 0.0000 36.2588 0.0000
# 6 0.0000 0.0000 0.0000 -0.6206 0.0000 23.3820
#
#
#
# Elastic Compliance Matrix: (Units=1/GPa)
#
#
# Indices 1 2 3 4 5 6 
#
# 1 0.009514 -0.004856 -0.001861 0.000000 -0.001684 0.000000
# 2 -0.004856 0.018251 -0.004958 0.000000 0.003636 0.000000
# 3 -0.001861 -0.004958 0.011340 0.000000 -0.001573 0.000000
# 4 0.000000 0.000000 0.000000 0.053533 0.000000 0.001421
# 5 -0.001684 0.003636 -0.001573 0.000000 0.028451 0.000000
# 6 0.000000 0.000000 0.000000 0.001421 0.000000 0.042806
#
#
# Mechanical properties :
#
#
# Convention : Reuss Voigt Hill
#
# Bulk Modulus (GPa) = 63.46885 67.11213 65.29049
# Shear Modulus (GPa) = 25.97443 28.91755 27.44599
#
# Velocity S-wave (km/s) = 3.53269 3.72746 3.63138
# Velocity P-wave (km/s) = 6.86546 7.12534 6.99661
#
# Compressibility (1/GPa) = 0.01575576
#
# Stress axis : x y z
#
# Youngs Moduli (GPa) = 105.10939 54.79118 88.18052
#
# Poissons Ratio (x) = 0.26607 0.16410
# Poissons Ratio (y) = 0.51042 0.43718
# Poissons Ratio (z) = 0.19561 0.27164
#
# Static dielectric constant tensor:
#      x y z
#    x 3.943370 0.000000 -0.101310 
#    y 0.000000 3.874910 0.000000 
#    z -0.101310 0.000000 3.862840 
# 
# 
# High freq. dielectric constant tensor:
#      x y z
#    x 1.825610 0.000000 0.000190 
#    y 0.000000 1.804700 0.000000 
#    z 0.000190 0.000000 1.815750 
# 
# From -- ./inp_files/30412.got.cif
#   From: 2010.06.25/outbox.cif.g09.slc.cpg/sg10_16_cif.got.tgz:30412.got - 2010.06.27 22:07:45.
