data_PCOD8065432
_publ_section_title
;
Structure prediction by ZEFSAII (Michael W. Deem and Ramdas Pophale) SiO2 
 PCOD8065432
Probable space group: P 2/M
;
_chemical_formula_sum "Si O2"
_cell_formula_units_Z 20
_cell_length_a 9.694582
_cell_length_b 7.789777
_cell_length_c 20.040049
_cell_angle_alpha 90.000000
_cell_angle_beta 139.922316
_cell_angle_gamma 90.000000
_cell_volume 974.363866
_symmetry_space_group_name_H-M "P 2/M"
_symmetry_group_IT_number 10
_symmetry_cell_setting 'monoclinic'
loop_
_space_group_symop_operation_xyz
x,y,z
-x,y,-z
-x,-y,-z
x,-y,z
loop_
_atom_site_type_symbol
_atom_site_label
_atom_site_fract_x
_atom_site_fract_y
_atom_site_fract_z
Si Si1 0.028275 0.313696 0.433725
Si Si2 0.188807 0.300726 0.023462
Si Si3 0.338843 0.298321 0.800630
Si Si4 0.721433 0.000000 0.511004
Si Si5 0.218835 0.000000 0.320456
Si Si6 0.936203 0.300946 0.174621
O O1 0.091733 0.500000 0.424570
O O2 0.000000 0.348230 0.500000
O O3 0.815853 0.242962 0.317534
O O4 0.214989 0.175337 0.501228
O O5 0.194999 0.500000 0.044137
O O6 0.151380 0.271350 0.931503
O O7 0.424186 0.216886 0.124555
O O8 0.000000 0.216320 0.000000
O O9 0.371448 0.500000 0.814739
O O10 0.240795 0.242662 0.836181
O O11 0.470622 0.000000 0.416674
O O12 0.849686 0.000000 0.628026
O O13 0.139097 0.175035 0.256456
O O14 0.006059 0.500000 0.211395
#
# Coordination Sequence:
#
# PCOD8065432 Si02
#       6
#     4   4   4   2   2   4
#     4  10  21  38  62  89 117 155 200 241 291 352
#     4   9  18  33  57  88 119 151 190 240 298 351
#     4   9  17  33  57  84 115 153 194 236 286 348
#     4  11  23  40  57  84 122 154 193 249 297 343
#     4  11  24  38  59  87 116 154 201 243 294 351
#     4  10  20  38  61  84 116 157 197 240 290 350
#
# _framework density 20.526212999999998
#
# number of rings (size 3 to 8) (size 9 to 14) (size 15 to 20)
#    0.000    2.200    2.000    0.900    0.000    4.800 
#    0.000    9.500    0.000    0.000    0.000    0.000 
#    0.000    0.000    0.000    0.000    0.000    0.000 
#
# Total GULP energy -247785.052800 kJ/mol
# GULP energy per Si atom -12389.252640 kJ/mol
# Density = 2.047949 g / cm^3
# Si number density = 20.526213 Si / 1000 Ang^3
#
#
#
# Elastic Constant Matrix: (Units=GPa)
#
#
# Indices 1 2 3 4 5 6 
#
# 1 105.6156 20.1258 57.8265 0.0000 -7.3215 0.0000
# 2 20.1258 93.6521 33.2327 0.0000 11.0060 0.0000
# 3 57.8265 33.2327 110.5953 0.0000 1.5384 0.0000
# 4 0.0000 0.0000 0.0000 18.5618 0.0000 10.0801
# 5 -7.3215 11.0060 1.5384 0.0000 25.6959 0.0000
# 6 0.0000 0.0000 0.0000 10.0801 0.0000 15.5052
#
#
#
# Elastic Compliance Matrix: (Units=1/GPa)
#
#
# Indices 1 2 3 4 5 6 
#
# 1 0.013823 -0.001061 -0.006976 0.000000 0.004811 0.000000
# 2 -0.001061 0.012686 -0.003180 0.000000 -0.005545 0.000000
# 3 -0.006976 -0.003180 0.013665 0.000000 -0.001444 0.000000
# 4 0.000000 0.000000 0.000000 0.083274 0.000000 -0.054137
# 5 0.004811 -0.005545 -0.001444 0.000000 0.042749 0.000000
# 6 0.000000 0.000000 0.000000 -0.054137 0.000000 0.099690
#
#
# Mechanical properties :
#
#
# Convention : Reuss Voigt Hill
#
# Bulk Modulus (GPa) = 56.36720 59.13701 57.75211
# Shear Modulus (GPa) = 16.99324 25.19778 21.09551
#
# Velocity S-wave (km/s) = 2.88041 3.50750 3.20931
# Velocity P-wave (km/s) = 6.21153 6.72878 6.47532
#
# Compressibility (1/GPa) = 0.01774081
#
# Stress axis : x y z
#
# Youngs Moduli (GPa) = 72.34132 78.82718 73.17843
#
# Poissons Ratio (x) = 0.08360 0.51049
# Poissons Ratio (y) = 0.07672 0.23273
# Poissons Ratio (z) = 0.50465 0.25070
#
# Static dielectric constant tensor:
#      x y z
#    x 3.849260 0.000000 -0.011900 
#    y 0.000000 2.576130 0.000000 
#    z -0.011900 0.000000 3.829550 
# 
# 
# High freq. dielectric constant tensor:
#      x y z
#    x 1.793880 0.000000 -0.007460 
#    y 0.000000 1.787250 0.000000 
#    z -0.007460 0.000000 1.806790 
# 
# From -- ./inp_files/33657.got.cif
#   From: 2010.06.25/outbox.cif.g09.slc.cpg/sg10_17_cif.got.tgz:33657.got - 2010.06.27 22:07:45.
