data_PCOD8065153
_publ_section_title
;
Structure prediction by ZEFSAII (Michael W. Deem and Ramdas Pophale) SiO2 
 PCOD8065153
Probable space group: P 2/M
;
_chemical_formula_sum "Si O2"
_cell_formula_units_Z 28
_cell_length_a 11.175068
_cell_length_b 16.008344
_cell_length_c 9.610715
_cell_angle_alpha 90.000000
_cell_angle_beta 123.074005
_cell_angle_gamma 90.000000
_cell_volume 1440.717675
_symmetry_space_group_name_H-M "P 2/M"
_symmetry_group_IT_number 10
_symmetry_cell_setting 'monoclinic'
loop_
_space_group_symop_operation_xyz
x,y,z
-x,y,-z
-x,-y,-z
x,-y,z
loop_
_atom_site_type_symbol
_atom_site_label
_atom_site_fract_x
_atom_site_fract_y
_atom_site_fract_z
Si Si1 0.250580 0.500000 0.914548
Si Si2 0.842824 0.091540 0.448228
Si Si3 0.454673 0.669018 0.628082
Si Si4 0.052920 0.648118 0.884608
Si Si5 0.448325 0.500000 0.768777
Si Si6 0.284762 0.771884 0.122226
Si Si7 0.806863 0.237554 0.628804
Si Si8 0.665053 0.905258 0.074120
O O1 0.144231 0.579275 0.858650
O O2 0.345818 0.500000 0.836868
O O3 0.377495 0.500000 0.108694
O O4 0.860578 0.154594 0.587845
O O5 0.749432 0.130156 0.262197
O O6 0.000000 0.074345 0.500000
O O7 0.778151 0.000000 0.452110
O O8 0.500000 0.651805 0.500000
O O9 0.405023 0.581649 0.658173
O O10 0.578879 0.710526 0.799747
O O11 0.320513 0.729919 0.548332
O O12 0.920271 0.685818 0.712764
O O13 0.149811 0.727694 0.970638
O O14 0.000000 0.610400 0.000000
O O15 0.251945 0.793993 0.260642
O O16 0.305684 0.855507 0.048611
O O17 0.714300 0.000000 0.077238
O O18 0.500000 0.898456 0.000000
#
# Coordination Sequence:
#
# PCOD8065153 Si02
#       8
#     2   4   4   4   2   4   4   4
#     4  11  23  39  59  87 116 149 194 238 288 345
#     4  10  21  38  57  82 118 155 189 232 290 350
#     4  10  21  39  59  83 115 151 193 238 288 344
#     4  10  21  39  60  84 116 152 193 239 290 346
#     4  11  23  39  59  87 116 149 194 238 285 348
#     4  10  20  37  60  83 114 152 196 240 283 344
#     4  10  22  37  59  89 113 151 197 240 290 339
#     4  10  21  36  57  86 117 153 195 238 289 344
#
# _framework density 19.434759
#
# number of rings (size 3 to 8) (size 9 to 14) (size 15 to 20)
#    0.000    1.857    1.429    2.143    0.000    4.571 
#    0.000    0.714    0.000   10.286    0.000    0.000 
#    0.000    0.000    0.000    0.000    0.000    0.000 
#
# Total GULP energy -347077.820549 kJ/mol
# GULP energy per Si atom -12395.636448 kJ/mol
# Density = 1.939052 g / cm^3
# Si number density = 19.434759 Si / 1000 Ang^3
#
#
#
# Elastic Constant Matrix: (Units=GPa)
#
#
# Indices 1 2 3 4 5 6 
#
# 1 89.3159 44.4971 27.3055 0.0000 3.1953 0.0000
# 2 44.4971 100.2858 31.8249 0.0000 -26.6471 0.0000
# 3 27.3055 31.8249 72.5192 0.0000 1.5758 0.0000
# 4 0.0000 0.0000 0.0000 24.0786 0.0000 -5.9601
# 5 3.1953 -26.6471 1.5758 0.0000 21.5277 0.0000
# 6 0.0000 0.0000 0.0000 -5.9601 0.0000 55.1920
#
#
#
# Elastic Compliance Matrix: (Units=1/GPa)
#
#
# Indices 1 2 3 4 5 6 
#
# 1 0.018580 -0.012913 -0.000923 0.000000 -0.018673 0.000000
# 2 -0.012913 0.028374 -0.008408 0.000000 0.037654 0.000000
# 3 -0.000923 -0.008408 0.018079 0.000000 -0.011594 0.000000
# 4 0.000000 0.000000 0.000000 0.042671 0.000000 0.004608
# 5 -0.018673 0.037654 -0.011594 0.000000 0.096680 0.000000
# 6 0.000000 0.000000 0.000000 0.004608 0.000000 0.018616
#
#
# Mechanical properties :
#
#
# Convention : Reuss Voigt Hill
#
# Bulk Modulus (GPa) = 48.67466 52.15287 50.41376
# Shear Modulus (GPa) = 18.22580 30.72591 24.47585
#
# Velocity S-wave (km/s) = 3.06566 3.98046 3.55263
# Velocity P-wave (km/s) = 6.13438 6.92954 6.54405
#
# Compressibility (1/GPa) = 0.02054457
#
# Stress axis : x y z
#
# Youngs Moduli (GPa) = 53.82268 35.24338 55.31294
#
# Poissons Ratio (x) = 0.45508 0.05107
# Poissons Ratio (y) = 0.69499 0.46508
# Poissons Ratio (z) = 0.04970 0.29633
#
# Static dielectric constant tensor:
#      x y z
#    x 3.688450 0.000000 0.169180 
#    y 0.000000 3.476720 0.000000 
#    z 0.169180 0.000000 3.540490 
# 
# 
# High freq. dielectric constant tensor:
#      x y z
#    x 1.760290 0.000000 0.014710 
#    y 0.000000 1.756330 0.000000 
#    z 0.014710 0.000000 1.757380 
# 
# From -- ./inp_files/25455.got.cif
#   From: 2010.06.25/outbox.cif.g09.slc.cpg/sg10_13_cif.got.tgz:25455.got - 2010.06.27 22:07:45.
