data_PCOD8065060
_publ_section_title
;
Structure prediction by ZEFSAII (Michael W. Deem and Ramdas Pophale) SiO2 
 PCOD8065060
Probable space group: P 2/M
;
_chemical_formula_sum "Si O2"
_cell_formula_units_Z 32
_cell_length_a 21.066573
_cell_length_b 9.193363
_cell_length_c 27.033251
_cell_angle_alpha 90.000000
_cell_angle_beta 18.869590
_cell_angle_gamma 90.000000
_cell_volume 1693.273260
_symmetry_space_group_name_H-M "P 2/M"
_symmetry_group_IT_number 10
_symmetry_cell_setting 'monoclinic'
loop_
_space_group_symop_operation_xyz
x,y,z
-x,y,-z
-x,-y,-z
x,-y,z
loop_
_atom_site_type_symbol
_atom_site_label
_atom_site_fract_x
_atom_site_fract_y
_atom_site_fract_z
Si Si1 0.498779 0.671778 0.943533
Si Si2 0.884575 0.169075 0.635486
Si Si3 0.941186 0.169921 0.884257
Si Si4 0.221128 0.666441 0.839150
Si Si5 0.701205 0.666813 0.330065
Si Si6 0.413163 0.171816 0.786186
Si Si7 0.121399 0.170117 0.181925
Si Si8 0.849846 0.829370 0.471865
O O1 0.502835 0.500000 0.933181
O O2 0.684844 0.741184 0.779168
O O3 0.500000 0.716618 0.000000
O O4 0.307050 0.735125 0.059428
O O5 0.000000 0.192721 0.500000
O O6 0.014387 0.234945 0.584648
O O7 0.833128 0.000000 0.682201
O O8 0.943773 0.214732 0.825018
O O9 0.113531 0.248444 0.785976
O O10 0.976355 0.000000 0.865024
O O11 0.732819 0.216541 0.061788
O O12 0.220342 0.500000 0.858438
O O13 0.318093 0.682690 0.714294
O O14 0.345628 0.762429 0.784384
O O15 0.000000 0.726699 0.000000
O O16 0.500000 0.732691 0.500000
O O17 0.727690 0.500000 0.326725
O O18 0.629999 0.235200 0.638064
O O19 0.421339 0.000000 0.772987
O O20 0.941769 0.209018 0.350776
O O21 0.177616 0.000000 0.143724
O O22 0.838048 0.000000 0.489180
#
# Coordination Sequence:
#
# PCOD8065060 Si02
#       8
#     4   4   4   4   4   4   4   4
#     4  11  23  39  59  85 118 153 192 240 290 339
#     4  10  21  37  63  90 114 152 198 239 287 344
#     4  10  22  37  57  86 115 144 184 236 283 333
#     4  10  20  37  58  79 106 145 190 227 268 332
#     4  10  22  39  58  80 111 149 187 230 278 333
#     4  10  21  36  56  83 115 145 181 232 287 333
#     4  10  21  38  60  83 112 150 192 233 283 343
#     4   9  19  36  56  83 114 145 184 232 281 334
#
# _framework density 18.898306999999999
#
# number of rings (size 3 to 8) (size 9 to 14) (size 15 to 20)
#    0.000    2.000    2.500    0.375    3.500    2.250 
#    0.000    1.250    0.000    0.000    0.000    0.000 
#    0.000    0.000    0.000    0.000    0.000    0.000 
#
# Total GULP energy -396894.029205 kJ/mol
# GULP energy per Si atom -12402.938413 kJ/mol
# Density = 1.885529 g / cm^3
# Si number density = 18.898307 Si / 1000 Ang^3
#
#
#
# Elastic Constant Matrix: (Units=GPa)
#
#
# Indices 1 2 3 4 5 6 
#
# 1 93.1188 27.8448 36.5215 0.0000 6.4838 0.0000
# 2 27.8448 41.6722 35.9262 0.0000 -0.7392 0.0000
# 3 36.5215 35.9262 135.1145 0.0000 -1.1234 0.0000
# 4 0.0000 0.0000 0.0000 9.6411 0.0000 10.2697
# 5 6.4838 -0.7392 -1.1234 0.0000 32.4604 0.0000
# 6 0.0000 0.0000 0.0000 10.2697 0.0000 11.0731
#
#
#
# Elastic Compliance Matrix: (Units=1/GPa)
#
#
# Indices 1 2 3 4 5 6 
#
# 1 0.013989 -0.007940 -0.001695 0.000000 -0.003034 0.000000
# 2 -0.007940 0.035646 -0.007314 0.000000 0.002145 0.000000
# 3 -0.001695 -0.007314 0.009808 0.000000 0.000512 0.000000
# 4 0.000000 0.000000 0.000000 8.576165 0.000000 -7.953893
# 5 -0.003034 0.002145 0.000512 0.000000 0.031479 0.000000
# 6 0.000000 0.000000 0.000000 -7.953893 0.000000 7.467082
#
#
# Mechanical properties :
#
#
# Convention : Reuss Voigt Hill
#
# Bulk Modulus (GPa) = 39.14648 52.27673 45.71160
# Shear Modulus (GPa) = 0.30909 21.94244 11.12576
#
# Velocity S-wave (km/s) = 0.40486 3.41116 2.42898
# Velocity P-wave (km/s) = 4.58015 6.57547 5.66633
#
# Compressibility (1/GPa) = 0.02554508
#
# Stress axis : x y z
#
# Youngs Moduli (GPa) = 71.48311 28.05398 101.95322
#
# Poissons Ratio (x) = 0.22274 0.17286
# Poissons Ratio (y) = 0.56755 0.74569
# Poissons Ratio (z) = 0.12120 0.20519
#
# Static dielectric constant tensor:
#      x y z
#    x 3.543410 0.000000 0.087380 
#    y 0.000000 3.253930 0.000000 
#    z 0.087380 0.000000 3.738330 
# 
# 
# High freq. dielectric constant tensor:
#      x y z
#    x 1.741270 0.000000 0.003960 
#    y 0.000000 1.710600 0.000000 
#    z 0.003960 0.000000 1.749620 
# 
# From -- ./inp_files/93586.got.cif
#   From: 2010.06.25/outbox.cif.g09.slc.cpg/sg10_47_cif.got.tgz:93586.got - 2010.06.27 22:07:45.
