data_PCOD8065155
_publ_section_title
;
Structure prediction by ZEFSAII (Michael W. Deem and Ramdas Pophale) SiO2 
 PCOD8065155
Probable space group: P 2/M
;
_chemical_formula_sum "Si O2"
_cell_formula_units_Z 28
_cell_length_a 15.869711
_cell_length_b 9.256698
_cell_length_c 20.167326
_cell_angle_alpha 90.000000
_cell_angle_beta 150.266835
_cell_angle_gamma 90.000000
_cell_volume 1469.336590
_symmetry_space_group_name_H-M "P 2/M"
_symmetry_group_IT_number 10
_symmetry_cell_setting 'monoclinic'
loop_
_space_group_symop_operation_xyz
x,y,z
-x,y,-z
-x,-y,-z
x,-y,z
loop_
_atom_site_type_symbol
_atom_site_label
_atom_site_fract_x
_atom_site_fract_y
_atom_site_fract_z
Si Si1 0.389736 0.830578 0.362094
Si Si2 0.452946 0.171435 0.794937
Si Si3 0.204833 0.666507 0.951767
Si Si4 0.849615 0.667656 0.347917
Si Si5 0.020856 0.667207 0.327436
Si Si6 0.050985 0.667324 0.107109
Si Si7 0.363522 0.830290 0.585949
O O1 0.500000 0.779400 0.500000
O O2 0.210478 0.752519 0.244349
O O3 0.484850 0.785426 0.359585
O O4 0.354895 0.000000 0.341109
O O5 0.312837 0.235012 0.748396
O O6 0.413303 0.223446 0.693148
O O7 0.454244 0.000000 0.801677
O O8 0.633233 0.231359 0.940886
O O9 0.262182 0.500000 0.984311
O O10 0.082664 0.711106 0.808275
O O11 0.108874 0.694470 0.954907
O O12 0.801244 0.500000 0.324093
O O13 0.000000 0.712586 0.500000
O O14 0.905666 0.704072 0.311941
O O15 0.072571 0.500000 0.362554
O O16 0.192434 0.756825 0.444757
O O17 0.101973 0.500000 0.138938
O O18 0.000000 0.726459 0.000000
O O19 0.331302 0.000000 0.562179
#
# Coordination Sequence:
#
# PCOD8065155 Si02
#       7
#     4   4   4   4   4   4   4
#     4  10  21  36  55  81 112 146 184 226 275 329
#     4  11  23  37  57  84 113 146 185 225 271 328
#     4  10  22  39  57  81 114 147 183 228 276 325
#     4  10  20  37  60  84 110 142 183 227 274 326
#     4  10  21  37  59  84 109 144 186 228 276 327
#     4  10  21  37  57  82 111 146 187 229 273 322
#     4  10  21  36  55  82 113 145 183 228 275 325
#
# _framework density 19.056218999999999
#
# number of rings (size 3 to 8) (size 9 to 14) (size 15 to 20)
#    0.000    1.857    1.429    2.143    0.000    4.286 
#    0.000    2.857    0.000    0.000    0.000    0.000 
#    0.000    0.000    0.000    0.000    0.000    0.000 
#
# Total GULP energy -347374.047369 kJ/mol
# GULP energy per Si atom -12406.215977 kJ/mol
# Density = 1.901285 g / cm^3
# Si number density = 19.056219 Si / 1000 Ang^3
#
#
#
# Elastic Constant Matrix: (Units=GPa)
#
#
# Indices 1 2 3 4 5 6 
#
# 1 63.6586 17.0527 15.5670 0.0000 -5.8624 0.0000
# 2 17.0527 48.5367 39.0207 0.0000 9.9413 0.0000
# 3 15.5670 39.0207 94.7227 0.0000 6.5241 0.0000
# 4 0.0000 0.0000 0.0000 47.6992 0.0000 7.0793
# 5 -5.8624 9.9413 6.5241 0.0000 34.0753 0.0000
# 6 0.0000 0.0000 0.0000 7.0793 0.0000 13.5877
#
#
#
# Elastic Compliance Matrix: (Units=1/GPa)
#
#
# Indices 1 2 3 4 5 6 
#
# 1 0.018214 -0.007154 -0.000411 0.000000 0.005299 0.000000
# 2 -0.007154 0.035175 -0.012690 0.000000 -0.009063 0.000000
# 3 -0.000411 -0.012690 0.015811 0.000000 0.000604 0.000000
# 4 0.000000 0.000000 0.000000 0.022722 0.000000 -0.011838
# 5 0.005299 -0.009063 0.000604 0.000000 0.032787 0.000000
# 6 0.000000 0.000000 0.000000 -0.011838 0.000000 0.079764
#
#
# Mechanical properties :
#
#
# Convention : Reuss Voigt Hill
#
# Bulk Modulus (GPa) = 34.85706 38.91098 36.88402
# Shear Modulus (GPa) = 19.64282 28.09094 23.86688
#
# Velocity S-wave (km/s) = 3.21406 3.84358 3.54283
# Velocity P-wave (km/s) = 5.66613 6.33726 6.01107
#
# Compressibility (1/GPa) = 0.02868859
#
# Stress axis : x y z
#
# Youngs Moduli (GPa) = 54.90350 28.42929 63.24795
#
# Poissons Ratio (x) = 0.20338 0.02601
# Poissons Ratio (y) = 0.39278 0.80263
# Poissons Ratio (z) = 0.02258 0.36078
#
# Static dielectric constant tensor:
#      x y z
#    x 3.700300 0.000000 -0.131100 
#    y 0.000000 3.387320 0.000000 
#    z -0.131100 0.000000 3.419830 
# 
# 
# High freq. dielectric constant tensor:
#      x y z
#    x 1.756670 0.000000 -0.002500 
#    y 0.000000 1.733100 0.000000 
#    z -0.002500 0.000000 1.746090 
# 
# From -- ./inp_files/66873.got.cif
#   From: 2010.06.25/outbox.cif.g09.slc.cpg/sg10_34_cif.got.tgz:66873.got - 2010.06.27 22:07:45.
