data_PCOD8065764
_publ_section_title
;
Structure prediction by ZEFSAII (Michael W. Deem and Ramdas Pophale) SiO2 
 PCOD8065764
Probable space group: P 2/M
;
_chemical_formula_sum "Si O2"
_cell_formula_units_Z 24
_cell_length_a 18.085261
_cell_length_b 7.979127
_cell_length_c 25.278196
_cell_angle_alpha 90.000000
_cell_angle_beta 20.713836
_cell_angle_gamma 90.000000
_cell_volume 1290.215304
_symmetry_space_group_name_H-M "P 2/M"
_symmetry_group_IT_number 10
_symmetry_cell_setting 'monoclinic'
loop_
_space_group_symop_operation_xyz
x,y,z
-x,y,-z
-x,-y,-z
x,-y,z
loop_
_atom_site_type_symbol
_atom_site_label
_atom_site_fract_x
_atom_site_fract_y
_atom_site_fract_z
Si Si1 0.357235 0.309306 0.891905
Si Si2 0.803256 0.000000 0.836374
Si Si3 0.986252 0.190359 0.951297
Si Si4 0.328846 0.000000 0.188752
Si Si5 0.280926 0.690174 0.662134
Si Si6 0.236709 0.308567 0.324701
Si Si7 0.915900 0.691341 0.826680
O O1 0.298057 0.500000 0.919164
O O2 0.607316 0.277837 0.729175
O O3 0.266447 0.260171 0.010063
O O4 0.245207 0.208693 0.919782
O O5 0.822527 0.000000 0.760463
O O6 0.913738 0.828605 0.781800
O O7 0.566547 0.000000 0.013051
O O8 0.169695 0.245270 0.789296
O O9 0.031018 0.000000 0.932293
O O10 0.000000 0.281923 0.000000
O O11 0.283058 0.828479 0.249794
O O12 0.500000 0.782123 0.500000
O O13 0.332101 0.500000 0.641178
O O14 0.136009 0.710025 0.708229
O O15 0.274045 0.500000 0.278673
O O16 0.000000 0.283720 0.500000
O O17 0.886172 0.500000 0.824955
#
# Coordination Sequence:
#
# PCOD8065764 Si02
#       7
#     4   2   4   2   4   4   4
#     4   9  18  33  56  80 101 139 185 221 266 318
#     4  11  22  34  55  82 108 145 180 217 281 327
#     4  10  21  34  52  82 114 143 177 222 274 326
#     4  11  23  36  54  82 111 142 177 225 280 325
#     4   9  19  35  56  80 105 141 185 226 271 321
#     4  10  21  38  59  82 108 143 187 229 272 324
#     4   9  18  34  55  80 109 142 185 227 261 320
#
# _framework density 18.601545000000002
#
# number of rings (size 3 to 8) (size 9 to 14) (size 15 to 20)
#    0.000    2.333    1.667    1.750    5.833    2.333 
#    0.000    3.333    0.000    6.000    0.000    0.000 
#    0.000    0.000    0.000    0.000    0.000    0.000 
#
# Total GULP energy -297376.953642 kJ/mol
# GULP energy per Si atom -12390.706402 kJ/mol
# Density = 1.855921 g / cm^3
# Si number density = 18.601545 Si / 1000 Ang^3
#
#
#
# Elastic Constant Matrix: (Units=GPa)
#
#
# Indices 1 2 3 4 5 6 
#
# 1 129.2519 59.4822 48.7205 0.0000 -3.5032 0.0000
# 2 59.4822 95.7260 22.9672 0.0000 1.0969 0.0000
# 3 48.7205 22.9672 114.8333 0.0000 -16.7285 0.0000
# 4 0.0000 0.0000 0.0000 17.7260 0.0000 -13.6368
# 5 -3.5032 1.0969 -16.7285 0.0000 18.3264 0.0000
# 6 0.0000 0.0000 0.0000 -13.6368 0.0000 33.8684
#
#
#
# Elastic Compliance Matrix: (Units=1/GPa)
#
#
# Indices 1 2 3 4 5 6 
#
# 1 0.012293 -0.006664 -0.004016 0.000000 -0.000917 0.000000
# 2 -0.006664 0.014738 -0.000501 0.000000 -0.002613 0.000000
# 3 -0.004016 -0.000501 0.012001 0.000000 0.010217 0.000000
# 4 0.000000 0.000000 0.000000 0.081731 0.000000 0.032908
# 5 -0.000917 -0.002613 0.010217 0.000000 0.063873 0.000000
# 6 0.000000 0.000000 0.000000 0.032908 0.000000 0.042776
#
#
# Mechanical properties :
#
#
# Convention : Reuss Voigt Hill
#
# Bulk Modulus (GPa) = 59.99350 66.90566 63.44958
# Shear Modulus (GPa) = 19.58244 27.89358 23.73801
#
# Velocity S-wave (km/s) = 3.24810 3.87658 3.57617
# Velocity P-wave (km/s) = 6.81093 7.48886 7.15793
#
# Compressibility (1/GPa) = 0.01666847
#
# Stress axis : x y z
#
# Youngs Moduli (GPa) = 81.34820 67.85318 83.32842
#
# Poissons Ratio (x) = 0.45220 0.33466
# Poissons Ratio (y) = 0.54214 0.04173
# Poissons Ratio (z) = 0.32671 0.03398
#
# Static dielectric constant tensor:
#      x y z
#    x 3.536170 0.000000 0.027940 
#    y 0.000000 3.497250 0.000000 
#    z 0.027940 0.000000 3.680370 
# 
# 
# High freq. dielectric constant tensor:
#      x y z
#    x 1.705090 0.000000 -0.022910 
#    y 0.000000 1.729070 0.000000 
#    z -0.022910 0.000000 1.713770 
# 
# From -- ./inp_files/75904.got.cif
#   From: 2010.06.25/outbox.cif.g09.slc.cpg/sg10_38_cif.got.tgz:75904.got - 2010.06.27 22:07:45.
