data_PCOD8065449
_publ_section_title
;
Structure prediction by ZEFSAII (Michael W. Deem and Ramdas Pophale) SiO2 
 PCOD8065449
Probable space group: P 2/M
;
_chemical_formula_sum "Si O2"
_cell_formula_units_Z 32
_cell_length_a 11.671235
_cell_length_b 18.940304
_cell_length_c 13.858378
_cell_angle_alpha 90.000000
_cell_angle_beta 30.882584
_cell_angle_gamma 90.000000
_cell_volume 1572.428284
_symmetry_space_group_name_H-M "P 2/M"
_symmetry_group_IT_number 10
_symmetry_cell_setting 'monoclinic'
loop_
_space_group_symop_operation_xyz
x,y,z
-x,y,-z
-x,-y,-z
x,-y,z
loop_
_atom_site_type_symbol
_atom_site_label
_atom_site_fract_x
_atom_site_fract_y
_atom_site_fract_z
Si Si1 0.744619 0.577474 0.668180
Si Si2 0.454753 0.811649 0.253779
Si Si3 0.616378 0.420484 0.545929
Si Si4 0.927897 0.236221 0.952773
Si Si5 0.327529 0.921815 0.039775
Si Si6 0.285506 0.277021 0.211756
Si Si7 0.844384 0.385320 0.191854
Si Si8 0.036841 0.187078 0.671673
O O1 0.626299 0.500000 0.773365
O O2 0.707623 0.602773 0.584401
O O3 0.679357 0.639882 0.789402
O O4 0.000000 0.563886 0.500000
O O5 0.559518 0.881877 0.131962
O O6 0.283244 0.769124 0.309621
O O7 0.291434 0.830677 0.459959
O O8 0.658868 0.761650 0.138632
O O9 0.524050 0.500000 0.616700
O O10 0.811005 0.419010 0.322786
O O11 0.403480 0.372051 0.672868
O O12 0.019038 0.314821 0.888697
O O13 0.044113 0.197050 0.780748
O O14 0.000000 0.197086 0.000000
O O15 0.253742 0.000000 0.058098
O O16 0.500000 0.929352 0.000000
O O17 0.117562 0.880524 0.237275
O O18 0.066638 0.257509 0.306536
O O19 0.500000 0.249483 0.000000
O O20 0.000000 0.427950 0.000000
#
# Coordination Sequence:
#
# PCOD8065449 Si02
#       8
#     4   4   4   4   4   4   4   4
#     4  10  24  42  60  86 121 164 210 259 318 384
#     4  11  22  38  63  94 129 166 211 253 312 373
#     4  10  23  42  62  87 120 157 206 266 327 393
#     4  10  24  39  57  91 125 157 207 269 311 366
#     4  10  20  38  61  98 143 172 204 249 298 370
#     4  12  22  38  65  89 125 161 213 258 315 381
#     4  10  22  37  62  87 114 155 207 258 327 372
#     4  11  22  40  64  95 127 175 207 252 317 371
#
# _framework density 20.35069
#
# number of rings (size 3 to 8) (size 9 to 14) (size 15 to 20)
#    0.000    1.500    3.750    1.875    7.000    4.250 
#    0.000    1.250    0.000    6.000    0.000    7.000 
#    0.000    0.000    0.000    0.000    0.000    0.000 
#
# Total GULP energy -396450.593869 kJ/mol
# GULP energy per Si atom -12389.081058 kJ/mol
# Density = 2.030437 g / cm^3
# Si number density = 20.350690 Si / 1000 Ang^3
#
#
#
# Elastic Constant Matrix: (Units=GPa)
#
#
# Indices 1 2 3 4 5 6 
#
# 1 113.8459 31.5082 31.8421 0.0000 5.6035 0.0000
# 2 31.5082 112.6312 33.5967 0.0000 -0.2257 0.0000
# 3 31.8421 33.5967 149.3323 0.0000 6.3365 0.0000
# 4 0.0000 0.0000 0.0000 71.7160 0.0000 -48.8214
# 5 5.6035 -0.2257 6.3365 0.0000 24.9952 0.0000
# 6 0.0000 0.0000 0.0000 -48.8214 0.0000 70.5657
#
#
#
# Elastic Compliance Matrix: (Units=1/GPa)
#
#
# Indices 1 2 3 4 5 6 
#
# 1 0.009946 -0.002334 -0.001517 0.000000 -0.001866 0.000000
# 2 -0.002334 0.010075 -0.001815 0.000000 0.001074 0.000000
# 3 -0.001517 -0.001815 0.007495 0.000000 -0.001576 0.000000
# 4 0.000000 0.000000 0.000000 0.026358 0.000000 0.018236
# 5 -0.001866 0.001074 -0.001576 0.000000 0.040835 0.000000
# 6 0.000000 0.000000 0.000000 0.018236 0.000000 0.026788
#
#
# Mechanical properties :
#
#
# Convention : Reuss Voigt Hill
#
# Bulk Modulus (GPa) = 61.78196 63.30037 62.54116
# Shear Modulus (GPa) = 36.17365 52.04621 44.10993
#
# Velocity S-wave (km/s) = 4.22063 5.06263 4.66068
# Velocity P-wave (km/s) = 7.36045 8.08368 7.73053
#
# Compressibility (1/GPa) = 0.01618595
#
# Stress axis : x y z
#
# Youngs Moduli (GPa) = 100.54609 99.25765 133.42271
#
# Poissons Ratio (x) = 0.23163 0.20234
# Poissons Ratio (y) = 0.23464 0.24211
# Poissons Ratio (z) = 0.15248 0.18011
#
# Static dielectric constant tensor:
#      x y z
#    x 4.396700 0.000000 0.473040 
#    y 0.000000 3.979120 0.000000 
#    z 0.473040 0.000000 3.891030 
# 
# 
# High freq. dielectric constant tensor:
#      x y z
#    x 1.794840 0.000000 0.008370 
#    y 0.000000 1.772250 0.000000 
#    z 0.008370 0.000000 1.797520 
# 
# From -- ./inp_files/65384.got.cif
#   From: 2010.06.25/outbox.cif.g09.slc.cpg/sg10_33_cif.got.tgz:65384.got - 2010.06.27 22:07:45.
