data_PCOD8065079
_publ_section_title
;
Structure prediction by ZEFSAII (Michael W. Deem and Ramdas Pophale) SiO2 
 PCOD8065079
Probable space group: P 2/M
;
_chemical_formula_sum "Si O2"
_cell_formula_units_Z 32
_cell_length_a 15.200088
_cell_length_b 9.374090
_cell_length_c 24.859572
_cell_angle_alpha 90.000000
_cell_angle_beta 27.706918
_cell_angle_gamma 90.000000
_cell_volume 1646.926191
_symmetry_space_group_name_H-M "P 2/M"
_symmetry_group_IT_number 10
_symmetry_cell_setting 'monoclinic'
loop_
_space_group_symop_operation_xyz
x,y,z
-x,y,-z
-x,-y,-z
x,-y,z
loop_
_atom_site_type_symbol
_atom_site_label
_atom_site_fract_x
_atom_site_fract_y
_atom_site_fract_z
Si Si1 0.454436 0.831166 0.276584
Si Si2 0.871173 0.830680 0.022015
Si Si3 0.712214 0.165426 0.894195
Si Si4 0.831044 0.340029 0.632921
Si Si5 0.022960 0.166370 0.153032
Si Si6 0.651384 0.665505 0.374487
Si Si7 0.386000 0.337064 0.420841
Si Si8 0.971592 0.336608 0.674205
O O1 0.662060 0.778815 0.148549
O O2 0.325529 0.774437 0.298284
O O3 0.395308 0.767210 0.365560
O O4 0.436517 0.000000 0.290246
O O5 0.883224 0.000000 0.014148
O O6 0.000000 0.767302 0.000000
O O7 0.936628 0.771853 0.928489
O O8 0.860471 0.239137 0.775201
O O9 0.786771 0.190847 0.914663
O O10 0.711006 0.000000 0.879706
O O11 0.500000 0.228024 0.000000
O O12 0.745364 0.500000 0.679705
O O13 0.908132 0.295500 0.648894
O O14 0.000000 0.330877 0.500000
O O15 0.846046 0.248490 0.274802
O O16 0.969656 0.000000 0.180112
O O17 0.500000 0.722022 0.500000
O O18 0.696497 0.500000 0.361113
O O19 0.565836 0.689604 0.361470
O O20 0.380136 0.500000 0.402598
O O21 0.195836 0.306581 0.557930
O O22 0.925185 0.500000 0.713061
#
# Coordination Sequence:
#
# PCOD8065079 Si02
#       8
#     4   4   4   4   4   4   4   4
#     4  11  22  34  57  88 114 147 191 236 282 338
#     4   9  19  36  57  82 114 151 189 230 280 337
#     4  10  23  40  59  83 114 153 193 239 292 340
#     4  10  20  38  59  81 115 155 188 229 289 346
#     4  10  21  39  60  82 114 153 190 234 288 342
#     4  10  21  37  60  86 112 145 187 235 285 337
#     4  10  20  37  58  82 116 152 183 229 289 345
#     4  10  21  38  61  83 110 152 194 234 283 340
#
# _framework density 19.430135
#
# number of rings (size 3 to 8) (size 9 to 14) (size 15 to 20)
#    0.000    2.000    1.250    1.875    1.750    4.750 
#    0.000    1.250    0.000    3.375    0.000    0.000 
#    0.000    0.000    0.000    0.000    0.000    0.000 
#
# Total GULP energy -396862.350969 kJ/mol
# GULP energy per Si atom -12401.948468 kJ/mol
# Density = 1.938591 g / cm^3
# Si number density = 19.430135 Si / 1000 Ang^3
#
#
#
# Elastic Constant Matrix: (Units=GPa)
#
#
# Indices 1 2 3 4 5 6 
#
# 1 101.8218 31.8325 42.0824 0.0000 -6.9204 0.0000
# 2 31.8325 56.2979 39.3241 0.0000 -6.7311 0.0000
# 3 42.0824 39.3241 106.5974 0.0000 -7.2591 0.0000
# 4 0.0000 0.0000 0.0000 9.8161 0.0000 -1.9467
# 5 -6.9204 -6.7311 -7.2591 0.0000 38.4456 0.0000
# 6 0.0000 0.0000 0.0000 -1.9467 0.0000 31.0498
#
#
#
# Elastic Compliance Matrix: (Units=1/GPa)
#
#
# Indices 1 2 3 4 5 6 
#
# 1 0.012709 -0.004878 -0.003161 0.000000 0.000837 0.000000
# 2 -0.004878 0.026052 -0.007531 0.000000 0.002261 0.000000
# 3 -0.003161 -0.007531 0.013451 0.000000 0.000652 0.000000
# 4 0.000000 0.000000 0.000000 0.103156 0.000000 0.006467
# 5 0.000837 0.002261 0.000652 0.000000 0.026680 0.000000
# 6 0.000000 0.000000 0.000000 0.006467 0.000000 0.032612
#
#
# Mechanical properties :
#
#
# Convention : Reuss Voigt Hill
#
# Bulk Modulus (GPa) = 47.45467 54.57723 51.01595
# Shear Modulus (GPa) = 19.77660 25.96086 22.86873
#
# Velocity S-wave (km/s) = 3.19381 3.65925 3.43442
# Velocity P-wave (km/s) = 6.17064 6.78258 6.48384
#
# Compressibility (1/GPa) = 0.02107274
#
# Stress axis : x y z
#
# Youngs Moduli (GPa) = 78.68186 38.38545 74.34184
#
# Poissons Ratio (x) = 0.18726 0.23498
# Poissons Ratio (y) = 0.38384 0.55984
# Poissons Ratio (z) = 0.24869 0.28907
#
# Static dielectric constant tensor:
#      x y z
#    x 3.704270 0.000000 -0.095890 
#    y 0.000000 3.345350 0.000000 
#    z -0.095890 0.000000 3.536980 
# 
# 
# High freq. dielectric constant tensor:
#      x y z
#    x 1.774920 0.000000 -0.003000 
#    y 0.000000 1.735480 0.000000 
#    z -0.003000 0.000000 1.757760 
# 
# From -- ./inp_files/89555.got.cif
#   From: 2010.06.25/outbox.cif.g09.slc.cpg/sg10_45_cif.got.tgz:89555.got - 2010.06.27 22:07:45.
