data_PCOD8065734
_publ_section_title
;
Structure prediction by ZEFSAII (Michael W. Deem and Ramdas Pophale) SiO2 
 PCOD8065734
Probable space group: P 2/M
;
_chemical_formula_sum "Si O2"
_cell_formula_units_Z 28
_cell_length_a 19.197671
_cell_length_b 8.584615
_cell_length_c 14.301274
_cell_angle_alpha 90.000000
_cell_angle_beta 138.163119
_cell_angle_gamma 90.000000
_cell_volume 1572.091671
_symmetry_space_group_name_H-M "P 2/M"
_symmetry_group_IT_number 10
_symmetry_cell_setting 'monoclinic'
loop_
_space_group_symop_operation_xyz
x,y,z
-x,y,-z
-x,-y,-z
x,-y,z
loop_
_atom_site_type_symbol
_atom_site_label
_atom_site_fract_x
_atom_site_fract_y
_atom_site_fract_z
Si Si1 0.499433 0.818259 0.891161
Si Si2 0.383540 0.318338 0.477563
Si Si3 0.297327 0.180703 0.572473
Si Si4 0.609153 0.182211 0.708857
Si Si5 0.886829 0.684079 0.498963
Si Si6 0.689230 0.683239 0.969695
Si Si7 0.120683 0.683690 0.718651
O O1 0.387019 0.774050 0.736335
O O2 0.585726 0.717783 0.924892
O O3 0.525221 0.000000 0.903158
O O4 0.500000 0.770576 0.000000
O O5 0.378937 0.500000 0.451958
O O6 0.308772 0.276586 0.488434
O O7 0.501008 0.270255 0.620745
O O8 0.344542 0.229065 0.345561
O O9 0.185558 0.222692 0.502632
O O10 0.302634 0.000000 0.552600
O O11 0.689323 0.231276 0.869811
O O12 0.586535 0.000000 0.689702
O O13 0.866708 0.500000 0.488208
O O14 0.863091 0.745770 0.370518
O O15 0.006469 0.727896 0.643738
O O16 0.698747 0.500000 0.962551
O O17 0.789604 0.752219 0.124771
O O18 0.130706 0.500000 0.723164
#
# Coordination Sequence:
#
# PCOD8065734 Si02
#       7
#     4   4   4   4   4   4   4
#     4  10  21  34  47  69 106 145 173 207 262 316
#     4  11  21  35  55  78 102 135 177 216 255 311
#     4  11  21  33  50  76 110 141 172 214 264 311
#     4  11  21  35  53  76 107 139 169 212 265 314
#     4   9  17  34  56  76 102 140 183 222 262 306
#     4  11  20  32  52  78 105 137 178 218 258 311
#     4   8  17  33  54  78 104 137 180 227 263 299
#
# _framework density 17.810666000000001
#
# number of rings (size 3 to 8) (size 9 to 14) (size 15 to 20)
#    0.000    1.857    1.429    6.000    0.000    0.857 
#    0.000    3.571    0.000    0.857    0.000    6.000 
#    0.000    0.000    0.000    0.000    0.000    0.000 
#
# Total GULP energy -347265.295732 kJ/mol
# GULP energy per Si atom -12402.331990 kJ/mol
# Density = 1.777013 g / cm^3
# Si number density = 17.810666 Si / 1000 Ang^3
#
#
#
# Elastic Constant Matrix: (Units=GPa)
#
#
# Indices 1 2 3 4 5 6 
#
# 1 110.2112 18.2506 48.3310 0.0000 -6.1042 0.0000
# 2 18.2506 47.8375 18.9488 0.0000 -2.6945 0.0000
# 3 48.3310 18.9488 90.2526 0.0000 -6.5423 0.0000
# 4 0.0000 0.0000 0.0000 18.4288 0.0000 -7.2826
# 5 -6.1042 -2.6945 -6.5423 0.0000 28.8356 0.0000
# 6 0.0000 0.0000 0.0000 -7.2826 0.0000 20.3114
#
#
#
# Elastic Compliance Matrix: (Units=1/GPa)
#
#
# Indices 1 2 3 4 5 6 
#
# 1 0.012101 -0.002205 -0.005944 0.000000 0.001007 0.000000
# 2 -0.002205 0.023234 -0.003633 0.000000 0.000880 0.000000
# 3 -0.005944 -0.003633 0.015160 0.000000 0.001842 0.000000
# 4 0.000000 0.000000 0.000000 0.063220 0.000000 0.022668
# 5 0.001007 0.000880 0.001842 0.000000 0.035393 0.000000
# 6 0.000000 0.000000 0.000000 0.022668 0.000000 0.057361
#
#
# Mechanical properties :
#
#
# Convention : Reuss Voigt Hill
#
# Bulk Modulus (GPa) = 37.13474 46.59581 41.86528
# Shear Modulus (GPa) = 20.91951 24.36656 22.64304
#
# Velocity S-wave (km/s) = 3.43089 3.70278 3.56942
# Velocity P-wave (km/s) = 6.04894 6.67078 6.36745
#
# Compressibility (1/GPa) = 0.02692896
#
# Stress axis : x y z
#
# Youngs Moduli (GPa) = 82.63631 43.03994 65.96515
#
# Poissons Ratio (x) = 0.09492 0.39211
# Poissons Ratio (y) = 0.18225 0.23967
# Poissons Ratio (z) = 0.49121 0.15638
#
# Static dielectric constant tensor:
#      x y z
#    x 3.248750 0.000000 -0.173480 
#    y 0.000000 3.184120 0.000000 
#    z -0.173480 0.000000 3.568310 
# 
# 
# High freq. dielectric constant tensor:
#      x y z
#    x 1.684220 0.000000 -0.013310 
#    y 0.000000 1.685510 0.000000 
#    z -0.013310 0.000000 1.679440 
# 
# From -- ./inp_files/68720.got.cif
#   From: 2010.06.25/outbox.cif.g09.slc.cpg/sg10_35_cif.got.tgz:68720.got - 2010.06.27 22:07:45.
