data_PCOD8065059
_publ_section_title
;
Structure prediction by ZEFSAII (Michael W. Deem and Ramdas Pophale) SiO2 
 PCOD8065059
Probable space group: P 2/M
;
_chemical_formula_sum "Si O2"
_cell_formula_units_Z 32
_cell_length_a 21.146893
_cell_length_b 9.275532
_cell_length_c 20.446420
_cell_angle_alpha 90.000000
_cell_angle_beta 25.455862
_cell_angle_gamma 90.000000
_cell_volume 1723.792185
_symmetry_space_group_name_H-M "P 2/M"
_symmetry_group_IT_number 10
_symmetry_cell_setting 'monoclinic'
loop_
_space_group_symop_operation_xyz
x,y,z
-x,y,-z
-x,-y,-z
x,-y,z
loop_
_atom_site_type_symbol
_atom_site_label
_atom_site_fract_x
_atom_site_fract_y
_atom_site_fract_z
Si Si1 0.409467 0.665659 0.775040
Si Si2 0.361564 0.837974 0.363014
Si Si3 0.170085 0.160882 0.668073
Si Si4 0.116420 0.327748 0.256337
Si Si5 0.161294 0.166804 0.432392
Si Si6 0.461424 0.829819 0.463004
Si Si7 0.665814 0.832732 0.861127
Si Si8 0.092240 0.664083 0.130116
O O1 0.453767 0.500000 0.723506
O O2 0.508041 0.729728 0.741217
O O3 0.429886 0.749465 0.687994
O O4 0.243324 0.684510 0.951538
O O5 0.234784 0.831494 0.535195
O O6 0.290399 0.788171 0.361588
O O7 0.426076 0.000000 0.297751
O O8 0.293004 0.215173 0.604965
O O9 0.026537 0.258251 0.804662
O O10 0.121014 0.000000 0.732221
O O11 0.121415 0.500000 0.257634
O O12 0.269762 0.262432 0.139836
O O13 0.101112 0.274818 0.195601
O O14 0.980691 0.266229 0.425056
O O15 0.225568 0.192745 0.300916
O O16 0.115242 0.000000 0.486070
O O17 0.500000 0.781455 0.500000
O O18 0.482443 0.000000 0.432140
O O19 0.663156 0.000000 0.884662
O O20 0.500000 0.780832 0.000000
O O21 0.042783 0.500000 0.180775
#
# Coordination Sequence:
#
# PCOD8065059 Si02
#       8
#     4   4   4   4   4   4   4   4
#     4  10  21  35  53  80 114 146 181 221 267 320
#     4   9  18  33  54  81 106 136 181 228 273 322
#     4   9  17  32  56  83 106 136 180 221 263 317
#     4  11  23  38  56  79 108 146 187 225 277 334
#     4  10  20  37  58  79 106 139 181 230 277 331
#     4   9  19  38  61  85 114 145 181 224 266 315
#     4  10  23  40  57  79 107 141 183 232 286 337
#     4  10  22  37  52  78 115 148 179 224 274 321
#
# _framework density 18.563723
#
# number of rings (size 3 to 8) (size 9 to 14) (size 15 to 20)
#    0.000    2.250    1.250    1.875    1.750    6.500 
#    0.000    0.625    0.000    3.750    0.000    0.000 
#    0.000    0.000    0.000    0.000    0.000    0.000 
#
# Total GULP energy -396845.215137 kJ/mol
# GULP energy per Si atom -12401.412973 kJ/mol
# Density = 1.852147 g / cm^3
# Si number density = 18.563723 Si / 1000 Ang^3
#
#
#
# Elastic Constant Matrix: (Units=GPa)
#
#
# Indices 1 2 3 4 5 6 
#
# 1 119.4223 47.2605 42.4245 0.0000 -16.7477 0.0000
# 2 47.2605 74.8378 52.5656 0.0000 -12.6146 0.0000
# 3 42.4245 52.5656 75.6023 0.0000 -16.4408 0.0000
# 4 0.0000 0.0000 0.0000 29.4413 0.0000 2.1611
# 5 -16.7477 -12.6146 -16.4408 0.0000 20.8587 0.0000
# 6 0.0000 0.0000 0.0000 2.1611 0.0000 -12.2349
#
#
#
# Elastic Compliance Matrix: (Units=1/GPa)
#
#
# Indices 1 2 3 4 5 6 
#
# 1 0.011826 -0.005339 -0.001885 0.000000 0.004781 0.000000
# 2 -0.005339 0.028582 -0.016957 0.000000 -0.000366 0.000000
# 3 -0.001885 -0.016957 0.028380 0.000000 0.010601 0.000000
# 4 0.000000 0.000000 0.000000 0.033531 0.000000 0.005923
# 5 0.004781 -0.000366 0.010601 0.000000 0.059915 0.000000
# 6 0.000000 0.000000 0.000000 0.005923 0.000000 -0.080687
#
#
# Mechanical properties :
#
#
# Convention : Reuss Voigt Hill
#
# Bulk Modulus (GPa) = 48.95193 61.59598 55.27395
# Shear Modulus (GPa) = 36.57184 16.12049 26.34616
#
# Velocity S-wave (km/s) = 4.44336 2.95004 3.77135
# Velocity P-wave (km/s) = 7.26303 6.69750 6.98599
#
# Compressibility (1/GPa) = 0.02042820
#
# Stress axis : x y z
#
# Youngs Moduli (GPa) = 84.55599 34.98672 35.23613
#
# Poissons Ratio (x) = 0.18678 0.06641
# Poissons Ratio (y) = 0.45142 0.59749
# Poissons Ratio (z) = 0.15937 0.59326
#
# Static dielectric constant tensor:
#      x y z
#    x 3.493460 0.000000 -0.118200 
#    y 0.000000 3.394690 0.000000 
#    z -0.118200 0.000000 3.241160 
# 
# 
# High freq. dielectric constant tensor:
#      x y z
#    x 1.721750 0.000000 -0.011520 
#    y 0.000000 1.715030 0.000000 
#    z -0.011520 0.000000 1.713220 
# 
# From -- ./inp_files/90592.got.cif
#   From: 2010.06.25/outbox.cif.g09.slc.cpg/sg10_46_cif.got.tgz:90592.got - 2010.06.27 22:07:45.
