data_PCOD8065638
_publ_section_title
;
Structure prediction by ZEFSAII (Michael W. Deem and Ramdas Pophale) SiO2 
 PCOD8065638
Probable space group: P 2/M
;
_chemical_formula_sum "Si O2"
_cell_formula_units_Z 28
_cell_length_a 9.004330
_cell_length_b 13.391479
_cell_length_c 12.812238
_cell_angle_alpha 90.000000
_cell_angle_beta 113.346882
_cell_angle_gamma 90.000000
_cell_volume 1418.422260
_symmetry_space_group_name_H-M "P 2/M"
_symmetry_group_IT_number 10
_symmetry_cell_setting 'monoclinic'
loop_
_space_group_symop_operation_xyz
x,y,z
-x,y,-z
-x,-y,-z
x,-y,z
loop_
_atom_site_type_symbol
_atom_site_label
_atom_site_fract_x
_atom_site_fract_y
_atom_site_fract_z
Si Si1 0.310276 0.719651 0.453816
Si Si2 0.214815 0.217633 0.790595
Si Si3 0.067593 0.111127 0.403395
Si Si4 0.350172 0.695688 0.242723
Si Si5 0.464928 0.886036 0.187357
Si Si6 0.177941 0.213357 0.017048
Si Si7 0.312411 0.387325 0.664712
O O1 0.500000 0.734696 0.500000
O O2 0.231129 0.826388 0.450441
O O3 0.255197 0.675471 0.325038
O O4 0.261568 0.644718 0.533145
O O5 0.373047 0.148093 0.827239
O O6 0.185993 0.252179 0.901284
O O7 0.224902 0.317270 0.724184
O O8 0.060730 0.154549 0.713235
O O9 0.000000 0.110953 0.500000
O O10 0.111296 0.000000 0.378246
O O11 0.435028 0.807496 0.274139
O O12 0.493262 0.616023 0.266344
O O13 0.228928 0.694940 0.109560
O O14 0.483106 0.000000 0.231839
O O15 0.308381 0.876701 0.067043
O O16 0.000000 0.175356 0.000000
O O17 0.252976 0.500000 0.666361
#
# Coordination Sequence:
#
# PCOD8065638 Si02
#       7
#     4   4   4   4   4   4   4
#     4  10  20  40  60  86 123 156 199 252 300 352
#     4  11  21  40  60  85 124 157 203 253 298 356
#     4  11  23  37  57  87 123 165 201 240 296 360
#     4   8  20  36  56  87 121 154 194 246 299 348
#     4   9  20  36  57  87 120 162 207 242 288 354
#     4  10  21  37  59  86 123 160 195 245 299 353
#     4  10  21  39  67  92 112 152 207 255 312 365
#
# _framework density 19.740243
#
# number of rings (size 3 to 8) (size 9 to 14) (size 15 to 20)
#    0.857    1.286    1.429    1.714    0.000    5.429 
#    0.000    2.857    0.000    5.143    0.000    0.000 
#    0.000    0.000    0.000    0.000    0.000    0.000 
#
# Total GULP energy -346972.360520 kJ/mol
# GULP energy per Si atom -12391.870019 kJ/mol
# Density = 1.969531 g / cm^3
# Si number density = 19.740243 Si / 1000 Ang^3
#
#
#
# Elastic Constant Matrix: (Units=GPa)
#
#
# Indices 1 2 3 4 5 6 
#
# 1 56.7685 29.2478 20.5154 0.0000 -7.7265 0.0000
# 2 29.2478 97.4958 29.6099 0.0000 -2.4432 0.0000
# 3 20.5154 29.6099 113.8937 0.0000 -18.7020 0.0000
# 4 0.0000 0.0000 0.0000 20.4921 0.0000 -3.3854
# 5 -7.7265 -2.4432 -18.7020 0.0000 37.5703 0.0000
# 6 0.0000 0.0000 0.0000 -3.3854 0.0000 32.0232
#
#
#
# Elastic Compliance Matrix: (Units=1/GPa)
#
#
# Indices 1 2 3 4 5 6 
#
# 1 0.021750 -0.005877 -0.001871 0.000000 0.003159 0.000000
# 2 -0.005877 0.012745 -0.002524 0.000000 -0.001636 0.000000
# 3 -0.001871 -0.002524 0.010545 0.000000 0.004700 0.000000
# 4 0.000000 0.000000 0.000000 0.049667 0.000000 0.005251
# 5 0.003159 -0.001636 0.004700 0.000000 0.029500 0.000000
# 6 0.000000 0.000000 0.000000 0.005251 0.000000 0.031782
#
#
# Mechanical properties :
#
#
# Convention : Reuss Voigt Hill
#
# Bulk Modulus (GPa) = 40.82219 47.43382 44.12800
# Shear Modulus (GPa) = 27.07123 30.60278 28.83701
#
# Velocity S-wave (km/s) = 3.70722 3.94162 3.82622
# Velocity P-wave (km/s) = 6.24894 6.69301 6.47478
#
# Compressibility (1/GPa) = 0.02449648
#
# Stress axis : x y z
#
# Youngs Moduli (GPa) = 45.97792 78.45980 94.83178
#
# Poissons Ratio (x) = 0.46113 0.17742
# Poissons Ratio (y) = 0.27023 0.23931
# Poissons Ratio (z) = 0.08602 0.19799
#
# Static dielectric constant tensor:
#      x y z
#    x 3.549370 0.000000 -0.074080 
#    y 0.000000 3.236710 0.000000 
#    z -0.074080 0.000000 3.830480 
# 
# 
# High freq. dielectric constant tensor:
#      x y z
#    x 1.769200 0.000000 -0.002630 
#    y 0.000000 1.731680 0.000000 
#    z -0.002630 0.000000 1.775290 
# 
# From -- ./inp_files/61276.got.cif
#   From: 2010.06.25/outbox.cif.g09.slc.cpg/sg10_31_cif.got.tgz:61276.got - 2010.06.27 22:07:45.
