data_PCOD8065886
_publ_section_title
;
Structure prediction by ZEFSAII (Michael W. Deem and Ramdas Pophale) SiO2 
 PCOD8065886
Probable space group: P 2/M
;
_chemical_formula_sum "Si O2"
_cell_formula_units_Z 20
_cell_length_a 24.402034
_cell_length_b 8.465558
_cell_length_c 7.672932
_cell_angle_alpha 90.000000
_cell_angle_beta 37.527751
_cell_angle_gamma 90.000000
_cell_volume 965.526258
_symmetry_space_group_name_H-M "P 2/M"
_symmetry_group_IT_number 10
_symmetry_cell_setting 'monoclinic'
loop_
_space_group_symop_operation_xyz
x,y,z
-x,y,-z
-x,-y,-z
x,-y,z
loop_
_atom_site_type_symbol
_atom_site_label
_atom_site_fract_x
_atom_site_fract_y
_atom_site_fract_z
Si Si1 0.227667 0.684090 0.127192
Si Si2 0.896368 0.814586 0.269659
Si Si3 0.593138 0.817810 0.354824
Si Si4 0.596182 0.319066 0.708441
Si Si5 0.220488 0.184321 0.761280
O O1 0.247824 0.500000 0.086325
O O2 0.144992 0.725475 0.460630
O O3 0.315436 0.780035 0.982622
O O4 0.203352 0.728923 0.988380
O O5 0.852236 0.760585 0.197801
O O6 0.882536 0.000000 0.333259
O O7 0.000000 0.766232 0.000000
O O8 0.500000 0.774080 0.500000
O O9 0.603561 0.693900 0.483469
O O10 0.592497 0.000000 0.417749
O O11 0.600292 0.500000 0.760804
O O12 0.681517 0.225328 0.570743
O O13 0.500000 0.240877 0.000000
O O14 0.214527 0.000000 0.814921
#
# Coordination Sequence:
#
# PCOD8065886 Si02
#       5
#     4   4   4   4   4
#     4  11  23  39  61  88 124 160 194 246 303 360
#     4  10  23  43  66  91 118 155 204 252 301 356
#     4  10  21  36  56  83 114 153 200 242 285 346
#     4  10  21  35  53  82 118 155 192 235 293 354
#     4  10  21  39  63  87 117 157 201 249 295 351
#
# _framework density 20.714092999999998
#
# number of rings (size 3 to 8) (size 9 to 14) (size 15 to 20)
#    0.000    1.800    0.000    6.000    2.800    6.000 
#    0.000    4.000    0.000    0.000    0.000    0.000 
#    0.000    0.000    0.000    0.000    0.000    0.000 
#
# Total GULP energy -247900.970366 kJ/mol
# GULP energy per Si atom -12395.048518 kJ/mol
# Density = 2.066695 g / cm^3
# Si number density = 20.714093 Si / 1000 Ang^3
#
#
#
# Elastic Constant Matrix: (Units=GPa)
#
#
# Indices 1 2 3 4 5 6 
#
# 1 145.4395 35.7858 70.3436 0.0000 -29.1154 0.0000
# 2 35.7858 68.3375 35.4833 0.0000 -3.6294 0.0000
# 3 70.3436 35.4833 136.2014 0.0000 -21.3200 0.0000
# 4 0.0000 0.0000 0.0000 34.3218 0.0000 1.8143
# 5 -29.1154 -3.6294 -21.3200 0.0000 33.2376 0.0000
# 6 0.0000 0.0000 0.0000 1.8143 0.0000 4.6345
#
#
#
# Elastic Compliance Matrix: (Units=1/GPa)
#
#
# Indices 1 2 3 4 5 6 
#
# 1 0.010838 -0.003423 -0.003644 0.000000 0.006783 0.000000
# 2 -0.003423 0.018039 -0.003438 0.000000 -0.003234 0.000000
# 3 -0.003644 -0.003438 0.010628 0.000000 0.003250 0.000000
# 4 0.000000 0.000000 0.000000 0.029752 0.000000 -0.011647
# 5 0.006783 -0.003234 0.003250 0.000000 0.037760 0.000000
# 6 0.000000 0.000000 0.000000 -0.011647 0.000000 0.220330
#
#
# Mechanical properties :
#
#
# Convention : Reuss Voigt Hill
#
# Bulk Modulus (GPa) = 54.06663 70.35598 62.21130
# Shear Modulus (GPa) = 14.10345 28.32983 21.21664
#
# Velocity S-wave (km/s) = 2.61216 3.70220 3.20388
# Velocity P-wave (km/s) = 5.93767 7.23285 6.61702
#
# Compressibility (1/GPa) = 0.01849570
#
# Stress axis : x y z
#
# Youngs Moduli (GPa) = 92.26459 55.43491 94.08694
#
# Poissons Ratio (x) = 0.18977 0.34286
# Poissons Ratio (y) = 0.31585 0.32345
# Poissons Ratio (z) = 0.33622 0.19057
#
# Static dielectric constant tensor:
#      x y z
#    x 3.842410 0.000000 -0.317910 
#    y 0.000000 3.568920 0.000000 
#    z -0.317910 0.000000 4.020400 
# 
# 
# High freq. dielectric constant tensor:
#      x y z
#    x 1.805180 0.000000 -0.012150 
#    y 0.000000 1.808340 0.000000 
#    z -0.012150 0.000000 1.814590 
# 
# From -- ./inp_files/37814.got.cif
#   From: 2010.06.25/outbox.cif.g09.slc.cpg/sg10_19_cif.got.tgz:37814.got - 2010.06.27 22:07:45.
