data_PCOD8065649
_publ_section_title
;
Structure prediction by ZEFSAII (Michael W. Deem and Ramdas Pophale) SiO2 
 PCOD8065649
Probable space group: P 2/M
;
_chemical_formula_sum "Si O2"
_cell_formula_units_Z 28
_cell_length_a 9.509037
_cell_length_b 9.002987
_cell_length_c 26.615828
_cell_angle_alpha 90.000000
_cell_angle_beta 38.500223
_cell_angle_gamma 90.000000
_cell_volume 1418.452620
_symmetry_space_group_name_H-M "P 2/M"
_symmetry_group_IT_number 10
_symmetry_cell_setting 'monoclinic'
loop_
_space_group_symop_operation_xyz
x,y,z
-x,y,-z
-x,-y,-z
x,-y,z
loop_
_atom_site_type_symbol
_atom_site_label
_atom_site_fract_x
_atom_site_fract_y
_atom_site_fract_z
Si Si1 0.387506 0.167023 0.977314
Si Si2 0.800342 0.674820 0.820898
Si Si3 0.484672 0.829050 0.739203
Si Si4 0.737790 0.171807 0.567255
Si Si5 0.982343 0.325907 0.134393
Si Si6 0.101111 0.827628 0.307050
Si Si7 0.715108 0.329646 0.474363
O O1 0.550680 0.254403 0.893692
O O2 0.353607 0.000000 0.966489
O O3 0.500000 0.167286 0.000000
O O4 0.146209 0.247351 0.048293
O O5 0.773019 0.500000 0.822984
O O6 0.927219 0.739327 0.736981
O O7 0.949651 0.717681 0.827700
O O8 0.610735 0.780915 0.653249
O O9 0.269469 0.725513 0.806973
O O10 0.649962 0.803091 0.739949
O O11 0.407078 0.000000 0.757817
O O12 0.640305 0.272940 0.550039
O O13 0.000000 0.206913 0.500000
O O14 0.696889 0.000000 0.565586
O O15 0.004595 0.500000 0.119651
O O16 0.920321 0.769668 0.397431
O O17 0.053404 0.000000 0.310302
O O18 0.500000 0.308575 0.500000
O O19 0.793984 0.500000 0.454689
#
# Coordination Sequence:
#
# PCOD8065649 Si02
#       7
#     4   4   4   4   4   4   4
#     4   9  17  33  58  86 115 150 193 234 279 335
#     4  10  21  37  58  87 121 152 187 234 287 340
#     4  10  22  39  59  84 115 149 192 241 283 335
#     4  10  20  40  63  84 111 149 195 238 283 338
#     4  10  21  36  58  87 119 152 188 233 286 340
#     4  11  23  41  61  83 114 153 194 236 287 339
#     4  11  25  41  58  85 119 150 188 238 289 342
#
# _framework density 19.739820999999999
#
# number of rings (size 3 to 8) (size 9 to 14) (size 15 to 20)
#    0.000    1.857    1.429    2.143    2.000    6.571 
#    0.000    0.714    0.000    4.286    0.000    0.000 
#    0.000    0.000    0.000    0.000    0.000    0.000 
#
# Total GULP energy -347338.658993 kJ/mol
# GULP energy per Si atom -12404.952107 kJ/mol
# Density = 1.969489 g / cm^3
# Si number density = 19.739821 Si / 1000 Ang^3
#
#
#
# Elastic Constant Matrix: (Units=GPa)
#
#
# Indices 1 2 3 4 5 6 
#
# 1 47.8115 31.8298 0.9916 0.0000 -1.4499 0.0000
# 2 31.8298 95.9265 20.0747 0.0000 -7.3130 0.0000
# 3 0.9916 20.0747 51.8394 0.0000 -13.3126 0.0000
# 4 0.0000 0.0000 0.0000 23.4300 0.0000 -3.0391
# 5 -1.4499 -7.3130 -13.3126 0.0000 31.4030 0.0000
# 6 0.0000 0.0000 0.0000 -3.0391 0.0000 24.9654
#
#
#
# Elastic Compliance Matrix: (Units=1/GPa)
#
#
# Indices 1 2 3 4 5 6 
#
# 1 0.027346 -0.009745 0.003357 0.000000 0.000417 0.000000
# 2 -0.009745 0.014838 -0.005373 0.000000 0.000728 0.000000
# 3 0.003357 -0.005373 0.023594 0.000000 0.008906 0.000000
# 4 0.000000 0.000000 0.000000 0.043365 0.000000 0.005279
# 5 0.000417 0.000728 0.008906 0.000000 0.035808 0.000000
# 6 0.000000 0.000000 0.000000 0.005279 0.000000 0.040698
#
#
# Mechanical properties :
#
#
# Convention : Reuss Voigt Hill
#
# Bulk Modulus (GPa) = 23.66419 33.48551 28.57485
# Shear Modulus (GPa) = 22.39598 25.47176 23.93387
#
# Velocity S-wave (km/s) = 3.37197 3.59607 3.48583
# Velocity P-wave (km/s) = 5.21290 5.85172 5.54152
#
# Compressibility (1/GPa) = 0.04225794
#
# Stress axis : x y z
#
# Youngs Moduli (GPa) = 36.56874 67.39511 42.38409
#
# Poissons Ratio (x) = 0.65674 -0.14230
# Poissons Ratio (y) = 0.35635 0.22771
# Poissons Ratio (z) = -0.12278 0.36209
#
# Static dielectric constant tensor:
#      x y z
#    x 3.430680 0.000000 0.042910 
#    y 0.000000 3.636300 0.000000 
#    z 0.042910 0.000000 3.648330 
# 
# 
# High freq. dielectric constant tensor:
#      x y z
#    x 1.754990 0.000000 -0.000400 
#    y 0.000000 1.777140 0.000000 
#    z -0.000400 0.000000 1.774690 
# 
# From -- ./inp_files/36919.got.cif
#   From: 2010.06.25/outbox.cif.g09.slc.cpg/sg10_19_cif.got.tgz:36919.got - 2010.06.27 22:07:45.
