data_PCOD8065259
_publ_section_title
;
Structure prediction by ZEFSAII (Michael W. Deem and Ramdas Pophale) SiO2 
 PCOD8065259
Probable space group: P 2/M
;
_chemical_formula_sum "Si O2"
_cell_formula_units_Z 32
_cell_length_a 11.135946
_cell_length_b 18.746343
_cell_length_c 13.792591
_cell_angle_alpha 90.000000
_cell_angle_beta 31.496621
_cell_angle_gamma 90.000000
_cell_volume 1504.294393
_symmetry_space_group_name_H-M "P 2/M"
_symmetry_group_IT_number 10
_symmetry_cell_setting 'monoclinic'
loop_
_space_group_symop_operation_xyz
x,y,z
-x,y,-z
-x,-y,-z
x,-y,z
loop_
_atom_site_type_symbol
_atom_site_label
_atom_site_fract_x
_atom_site_fract_y
_atom_site_fract_z
Si Si1 0.328805 0.421852 0.540635
Si Si2 0.391993 0.417136 0.284905
Si Si3 0.072326 0.600344 0.053686
Si Si4 0.314107 0.077874 0.047715
Si Si5 0.932473 0.761774 0.946185
Si Si6 0.718267 0.706733 0.782168
Si Si7 0.450650 0.815094 0.248242
Si Si8 0.041823 0.805080 0.667082
O O1 0.500000 0.381867 0.500000
O O2 0.438739 0.500000 0.444795
O O3 0.316717 0.385903 0.442409
O O4 0.075602 0.432629 0.757634
O O5 0.316972 0.500000 0.317992
O O6 0.263610 0.366398 0.293525
O O7 0.667380 0.411873 0.092415
O O8 0.989072 0.680978 0.104942
O O9 0.000000 0.564774 0.000000
O O10 0.128927 0.128370 0.227644
O O11 0.210563 0.000000 0.089452
O O12 0.500000 0.064237 0.000000
O O13 0.432883 0.112057 0.870244
O O14 0.069888 0.797632 0.763430
O O15 0.656868 0.761047 0.128811
O O16 0.000000 0.801290 0.000000
O O17 0.701210 0.777043 0.728473
O O18 0.940450 0.729302 0.694267
O O19 0.500000 0.697504 0.000000
O O20 0.287201 0.827010 0.453387
#
# Coordination Sequence:
#
# PCOD8065259 Si02
#       8
#     4   4   4   4   4   4   4   4
#     4  10  21  36  54  79 114 154 201 258 325 385
#     4  11  24  39  58  88 120 161 216 270 319 376
#     4  11  20  35  59  84 117 161 206 261 331 378
#     4  10  20  37  61  99 139 164 203 259 303 358
#     4  10  23  40  60  95 127 155 208 269 311 367
#     4  12  21  42  63  86 122 166 214 254 307 378
#     4  11  21  39  65  94 124 170 206 248 305 376
#     4  11  22  40  66  91 125 177 208 243 316 375
#
# _framework density 21.272431999999998
#
# number of rings (size 3 to 8) (size 9 to 14) (size 15 to 20)
#    0.000    1.250    6.250    0.750    1.750    1.750 
#    2.250    1.250    0.000    7.500    0.000    7.000 
#    0.000    0.000    0.000    0.000    0.000    0.125 
#
# Total GULP energy -396498.704332 kJ/mol
# GULP energy per Si atom -12390.584510 kJ/mol
# Density = 2.122402 g / cm^3
# Si number density = 21.272432 Si / 1000 Ang^3
#
#
#
# Elastic Constant Matrix: (Units=GPa)
#
#
# Indices 1 2 3 4 5 6 
#
# 1 76.3500 24.6594 27.8903 0.0000 25.5852 0.0000
# 2 24.6594 109.2299 24.9730 0.0000 12.1907 0.0000
# 3 27.8903 24.9730 157.2427 0.0000 32.4093 0.0000
# 4 0.0000 0.0000 0.0000 16.5885 0.0000 -4.5641
# 5 25.5852 12.1907 32.4093 0.0000 30.1806 0.0000
# 6 0.0000 0.0000 0.0000 -4.5641 0.0000 40.2617
#
#
#
# Elastic Compliance Matrix: (Units=1/GPa)
#
#
# Indices 1 2 3 4 5 6 
#
# 1 0.018982 -0.002629 0.000191 0.000000 -0.015235 0.000000
# 2 -0.002629 0.010058 -0.000967 0.000000 -0.000796 0.000000
# 3 0.000191 -0.000967 0.008260 0.000000 -0.008641 0.000000
# 4 0.000000 0.000000 0.000000 0.062223 0.000000 0.007054
# 5 -0.015235 -0.000796 -0.008641 0.000000 0.055650 0.000000
# 6 0.000000 0.000000 0.000000 0.007054 0.000000 0.025637
#
#
# Mechanical properties :
#
#
# Convention : Reuss Voigt Hill
#
# Bulk Modulus (GPa) = 32.79688 55.31866 44.05777
# Shear Modulus (GPa) = 25.27990 35.09281 30.18635
#
# Velocity S-wave (km/s) = 3.45104 4.06604 3.77110
# Velocity P-wave (km/s) = 5.59737 6.93577 6.30220
#
# Compressibility (1/GPa) = 0.03049071
#
# Stress axis : x y z
#
# Youngs Moduli (GPa) = 52.68096 99.41961 121.05837
#
# Poissons Ratio (x) = 0.26134 -0.02308
# Poissons Ratio (y) = 0.13848 0.11709
# Poissons Ratio (z) = -0.01004 0.09616
#
# Static dielectric constant tensor:
#      x y z
#    x 3.957100 0.000000 0.271670 
#    y 0.000000 4.045980 0.000000 
#    z 0.271670 0.000000 3.828630 
# 
# 
# High freq. dielectric constant tensor:
#      x y z
#    x 1.821760 0.000000 0.016120 
#    y 0.000000 1.810650 0.000000 
#    z 0.016120 0.000000 1.840160 
# 
# From -- ./inp_files/65371.got.cif
#   From: 2010.06.25/outbox.cif.g09.slc.cpg/sg10_33_cif.got.tgz:65371.got - 2010.06.27 22:07:45.
