data_PCOD8065137
_publ_section_title
;
Structure prediction by ZEFSAII (Michael W. Deem and Ramdas Pophale) SiO2 
 PCOD8065137
Probable space group: P 2/M
;
_chemical_formula_sum "Si O2"
_cell_formula_units_Z 28
_cell_length_a 25.458720
_cell_length_b 8.788252
_cell_length_c 9.347072
_cell_angle_alpha 90.000000
_cell_angle_beta 135.615482
_cell_angle_gamma 90.000000
_cell_volume 1462.796477
_symmetry_space_group_name_H-M "P 2/M"
_symmetry_group_IT_number 10
_symmetry_cell_setting 'monoclinic'
loop_
_space_group_symop_operation_xyz
x,y,z
-x,y,-z
-x,-y,-z
x,-y,z
loop_
_atom_site_type_symbol
_atom_site_label
_atom_site_fract_x
_atom_site_fract_y
_atom_site_fract_z
Si Si1 0.147473 0.822436 0.965030
Si Si2 0.427974 0.819929 0.194996
Si Si3 0.696420 0.321439 0.227376
Si Si4 0.003026 0.332324 0.336439
Si Si5 0.414567 0.320267 0.469069
Si Si6 0.164580 0.319682 0.693264
Si Si7 0.726324 0.323023 0.612235
O O1 0.174440 0.747355 0.870176
O O2 0.062969 0.776492 0.847868
O O3 0.150284 0.000000 0.948082
O O4 0.202586 0.772919 0.198503
O O5 0.511829 0.762241 0.326309
O O6 0.395360 0.740160 0.273667
O O7 0.428402 0.000000 0.217193
O O8 0.376463 0.772288 0.961960
O O9 0.681314 0.500000 0.176563
O O10 0.767251 0.265056 0.272564
O O11 0.711455 0.280138 0.420015
O O12 0.991472 0.500000 0.245427
O O13 0.086498 0.266925 0.464261
O O14 0.000000 0.345505 0.500000
O O15 0.428993 0.500000 0.491334
O O16 0.346435 0.276408 0.438984
O O17 0.162882 0.500000 0.708073
O O18 0.745165 0.500000 0.668250
#
# Coordination Sequence:
#
# PCOD8065137 Si02
#       7
#     4   4   4   4   4   4   4
#     4  11  21  32  52  80 109 140 173 214 265 316
#     4  11  22  36  56  83 111 138 170 213 265 314
#     4  10  21  38  57  78 105 139 179 218 259 309
#     4   8  15  30  52  77 103 133 174 220 261 304
#     4  10  20  37  60  82 104 136 178 219 257 303
#     4   9  18  34  57  80 103 135 176 221 263 306
#     4  10  22  38  56  77 104 140 180 219 258 306
#
# _framework density 19.141418999999999
#
# number of rings (size 3 to 8) (size 9 to 14) (size 15 to 20)
#    0.000    2.143    0.000    5.571    0.000    8.857 
#    0.000    3.571    0.000    4.286    0.000    0.000 
#    0.000    0.000    0.000    0.000    0.000    0.000 
#
# Total GULP energy -347226.034912 kJ/mol
# GULP energy per Si atom -12400.929818 kJ/mol
# Density = 1.909785 g / cm^3
# Si number density = 19.141419 Si / 1000 Ang^3
#
#
#
# Elastic Constant Matrix: (Units=GPa)
#
#
# Indices 1 2 3 4 5 6 
#
# 1 43.0813 18.2055 56.2352 0.0000 7.7444 0.0000
# 2 18.2055 59.9376 41.7168 0.0000 5.1877 0.0000
# 3 56.2352 41.7168 129.9480 0.0000 12.0033 0.0000
# 4 0.0000 0.0000 0.0000 3.3682 0.0000 0.2651
# 5 7.7444 5.1877 12.0033 0.0000 21.7521 0.0000
# 6 0.0000 0.0000 0.0000 0.2651 0.0000 5.1021
#
#
#
# Elastic Compliance Matrix: (Units=1/GPa)
#
#
# Indices 1 2 3 4 5 6 
#
# 1 0.054258 0.000014 -0.022866 0.000000 -0.006703 0.000000
# 2 0.000014 0.021524 -0.006787 0.000000 -0.001393 0.000000
# 3 -0.022866 -0.006787 0.019881 0.000000 -0.001211 0.000000
# 4 0.000000 0.000000 0.000000 0.298118 0.000000 -0.015491
# 5 -0.006703 -0.001393 -0.001211 0.000000 0.049360 0.000000
# 6 0.000000 0.000000 0.000000 -0.015491 0.000000 0.196802
#
#
# Mechanical properties :
#
#
# Convention : Reuss Voigt Hill
#
# Bulk Modulus (GPa) = 27.48290 51.69798 39.59044
# Shear Modulus (GPa) = 7.02888 13.83176 10.43032
#
# Velocity S-wave (km/s) = 1.91835 2.69105 2.33686
# Velocity P-wave (km/s) = 4.39269 6.05993 5.29238
#
# Compressibility (1/GPa) = 0.03638626
#
# Stress axis : x y z
#
# Youngs Moduli (GPa) = 18.43043 46.45914 50.29818
#
# Poissons Ratio (x) = -0.00067 1.15011
# Poissons Ratio (y) = -0.00027 0.34140
# Poissons Ratio (z) = 0.42143 0.31534
#
# Static dielectric constant tensor:
#      x y z
#    x 3.655310 0.000000 0.326980 
#    y 0.000000 3.386620 0.000000 
#    z 0.326980 0.000000 3.550930 
# 
# 
# High freq. dielectric constant tensor:
#      x y z
#    x 1.736550 0.000000 0.021740 
#    y 0.000000 1.735740 0.000000 
#    z 0.021740 0.000000 1.746200 
# 
# From -- ./inp_files/37250.got.cif
#   From: 2010.06.25/outbox.cif.g09.slc.cpg/sg10_19_cif.got.tgz:37250.got - 2010.06.27 22:07:45.
