data_PCOD8065457
_publ_section_title
;
Structure prediction by ZEFSAII (Michael W. Deem and Ramdas Pophale) SiO2 
 PCOD8065457
Probable space group: P 2/M
;
_chemical_formula_sum "Si O2"
_cell_formula_units_Z 28
_cell_length_a 9.296632
_cell_length_b 14.905696
_cell_length_c 12.316381
_cell_angle_alpha 90.000000
_cell_angle_beta 123.993470
_cell_angle_gamma 90.000000
_cell_volume 1415.039653
_symmetry_space_group_name_H-M "P 2/M"
_symmetry_group_IT_number 10
_symmetry_cell_setting 'monoclinic'
loop_
_space_group_symop_operation_xyz
x,y,z
-x,y,-z
-x,-y,-z
x,-y,z
loop_
_atom_site_type_symbol
_atom_site_label
_atom_site_fract_x
_atom_site_fract_y
_atom_site_fract_z
Si Si1 0.556722 0.102773 0.274115
Si Si2 0.813291 0.102414 0.946233
Si Si3 0.555927 0.397285 0.643945
Si Si4 0.726416 0.724032 0.404241
Si Si5 0.813268 0.901135 0.193491
Si Si6 0.026912 0.722010 0.689385
Si Si7 0.045453 0.604358 0.142208
O O1 0.355930 0.137757 0.190624
O O2 0.670193 0.171449 0.393769
O O3 0.636258 0.108869 0.186641
O O4 0.571894 0.000000 0.324279
O O5 0.836248 0.000000 0.920265
O O6 0.758706 0.112529 0.047023
O O7 0.000000 0.151531 0.000000
O O8 0.500000 0.369383 0.500000
O O9 0.510463 0.500000 0.647669
O O10 0.442078 0.337756 0.676382
O O11 0.754129 0.376594 0.752465
O O12 0.840619 0.700211 0.558150
O O13 0.825511 0.699675 0.335607
O O14 0.961112 0.828497 0.283513
O O15 0.896248 0.000000 0.247543
O O16 0.057761 0.663849 0.812094
O O17 0.997075 0.500000 0.139855
O O18 0.000000 0.634155 0.000000
#
# Coordination Sequence:
#
# PCOD8065457 Si02
#       7
#     4   4   4   4   4   4   4
#     4   9  18  33  52  74 108 150 186 226 277 331
#     4   9  17  30  48  72 102 138 187 238 278 324
#     4  10  20  38  62  85 111 147 186 227 283 347
#     4  10  21  36  56  85 114 145 192 238 277 333
#     4   9  18  32  50  74 107 149 189 225 274 335
#     4  10  21  36  56  84 115 147 188 238 284 327
#     4  10  22  41  63  87 116 149 186 230 286 349
#
# _framework density 19.787431000000002
#
# number of rings (size 3 to 8) (size 9 to 14) (size 15 to 20)
#    0.000    2.429    1.429    0.429    0.000    5.714 
#    0.000    6.429    0.000    3.000    0.000    0.000 
#    0.000    0.000    0.000    0.000    0.000    0.000 
#
# Total GULP energy -346972.302895 kJ/mol
# GULP energy per Si atom -12391.867961 kJ/mol
# Density = 1.974239 g / cm^3
# Si number density = 19.787431 Si / 1000 Ang^3
#
#
#
# Elastic Constant Matrix: (Units=GPa)
#
#
# Indices 1 2 3 4 5 6 
#
# 1 82.5285 50.1144 40.0211 0.0000 6.2760 0.0000
# 2 50.1144 81.5579 36.9002 0.0000 -6.4804 0.0000
# 3 40.0211 36.9002 98.8041 0.0000 -4.1880 0.0000
# 4 0.0000 0.0000 0.0000 24.7194 0.0000 0.1199
# 5 6.2760 -6.4804 -4.1880 0.0000 21.6747 0.0000
# 6 0.0000 0.0000 0.0000 0.1199 0.0000 29.3395
#
#
#
# Elastic Compliance Matrix: (Units=1/GPa)
#
#
# Indices 1 2 3 4 5 6 
#
# 1 0.023347 -0.012957 -0.005110 0.000000 -0.011622 0.000000
# 2 -0.012957 0.022194 -0.002622 0.000000 0.009881 0.000000
# 3 -0.005110 -0.002622 0.013309 0.000000 0.003267 0.000000
# 4 0.000000 0.000000 0.000000 0.040455 0.000000 -0.000165
# 5 -0.011622 0.009881 0.003267 0.000000 0.053088 0.000000
# 6 0.000000 0.000000 0.000000 -0.000165 0.000000 0.034084
#
#
# Mechanical properties :
#
#
# Convention : Reuss Voigt Hill
#
# Bulk Modulus (GPa) = 57.23604 57.44020 57.33812
# Shear Modulus (GPa) = 21.39684 24.20371 22.80027
#
# Velocity S-wave (km/s) = 3.29193 3.50120 3.39818
# Velocity P-wave (km/s) = 6.59070 6.74064 6.66609
#
# Compressibility (1/GPa) = 0.01747151
#
# Stress axis : x y z
#
# Youngs Moduli (GPa) = 42.83164 45.05660 75.13943
#
# Poissons Ratio (x) = 0.58381 0.38399
# Poissons Ratio (y) = 0.55498 0.19699
# Poissons Ratio (z) = 0.21889 0.11812
#
# Static dielectric constant tensor:
#      x y z
#    x 3.649340 0.000000 0.051060 
#    y 0.000000 3.596580 0.000000 
#    z 0.051060 0.000000 3.464540 
# 
# 
# High freq. dielectric constant tensor:
#      x y z
#    x 1.772390 0.000000 0.004240 
#    y 0.000000 1.764340 0.000000 
#    z 0.004240 0.000000 1.754730 
# 
# From -- ./inp_files/43033.got.cif
#   From: 2010.06.25/outbox.cif.g09.slc.cpg/sg10_22_cif.got.tgz:43033.got - 2010.06.27 22:07:45.
