data_PCOD8065398
_publ_section_title
;
Structure prediction by ZEFSAII (Michael W. Deem and Ramdas Pophale) SiO2 
 PCOD8065398
Probable space group: P 2/M
;
_chemical_formula_sum "Si O2"
_cell_formula_units_Z 14
_cell_length_a 9.932190
_cell_length_b 16.566867
_cell_length_c 8.490011
_cell_angle_alpha 90.000000
_cell_angle_beta 149.957082
_cell_angle_gamma 90.000000
_cell_volume 699.401619
_symmetry_space_group_name_H-M "P 2/M"
_symmetry_group_IT_number 10
_symmetry_cell_setting 'monoclinic'
loop_
_space_group_symop_operation_xyz
x,y,z
-x,y,-z
-x,-y,-z
x,-y,z
loop_
_atom_site_type_symbol
_atom_site_label
_atom_site_fract_x
_atom_site_fract_y
_atom_site_fract_z
Si Si1 0.742462 0.500000 0.629233
Si Si2 0.256507 0.087207 0.865725
Si Si3 0.088138 0.251940 0.770151
Si Si4 0.408127 0.669978 0.586584
O O1 0.500000 0.500000 0.500000
O O2 0.716611 0.581371 0.499248
O O3 0.000000 0.500000 0.000000
O O4 0.200466 0.161937 0.927340
O O5 0.000000 0.074224 0.500000
O O6 0.316857 0.000000 0.011966
O O7 0.500000 0.113158 0.000000
O O8 0.000000 0.257722 0.500000
O O9 0.831782 0.267445 0.621570
O O10 0.329532 0.315415 0.040859
O O11 0.500000 0.679446 0.500000
#
# Coordination Sequence:
#
# PCOD8065398 Si02
#       4
#     2   4   4   4
#     4  10  20  38  59  80 105 146 197 228 257 330
#     4   9  17  31  53  80 109 145 186 223 263 323
#     4  11  21  36  57  86 116 142 181 236 285 323
#     4  11  22  38  59  81 109 149 190 228 275 334
#
# _framework density 20.017109999999999
#
# number of rings (size 3 to 8) (size 9 to 14) (size 15 to 20)
#    0.000    1.714    0.000    8.571    0.000    0.000 
#    0.000    4.286    0.000    5.143    0.000    0.000 
#    0.000    0.000    0.000    0.000    0.000    0.000 
#
# Total GULP energy -173467.892635 kJ/mol
# GULP energy per Si atom -12390.563760 kJ/mol
# Density = 1.997155 g / cm^3
# Si number density = 20.017110 Si / 1000 Ang^3
#
#
#
# Elastic Constant Matrix: (Units=GPa)
#
#
# Indices 1 2 3 4 5 6 
#
# 1 75.3938 67.1874 31.7030 0.0000 24.9105 0.0000
# 2 67.1874 154.5303 52.9939 0.0000 3.3939 0.0000
# 3 31.7030 52.9939 132.4523 0.0000 18.6109 0.0000
# 4 0.0000 0.0000 0.0000 20.6704 0.0000 10.5311
# 5 24.9105 3.3939 18.6109 0.0000 39.5644 0.0000
# 6 0.0000 0.0000 0.0000 10.5311 0.0000 27.4219
#
#
#
# Elastic Compliance Matrix: (Units=1/GPa)
#
#
# Indices 1 2 3 4 5 6 
#
# 1 0.031010 -0.013243 0.000492 0.000000 -0.018620 0.000000
# 2 -0.013243 0.013180 -0.003337 0.000000 0.008777 0.000000
# 3 0.000492 -0.003337 0.009391 0.000000 -0.004441 0.000000
# 4 0.000000 0.000000 0.000000 0.060147 0.000000 -0.023099
# 5 -0.018620 0.008777 -0.004441 0.000000 0.038335 0.000000
# 6 0.000000 0.000000 0.000000 -0.023099 0.000000 0.045338
#
#
# Mechanical properties :
#
#
# Convention : Reuss Voigt Hill
#
# Bulk Modulus (GPa) = 46.71356 74.01610 60.36483
# Shear Modulus (GPa) = 21.12272 31.56414 26.34343
#
# Velocity S-wave (km/s) = 3.25196 3.97527 3.63167
# Velocity P-wave (km/s) = 6.12273 7.62411 6.91429
#
# Compressibility (1/GPa) = 0.02140706
#
# Stress axis : x y z
#
# Youngs Moduli (GPa) = 32.24768 75.86967 106.48194
#
# Poissons Ratio (x) = 1.00471 -0.05242
# Poissons Ratio (y) = 0.42704 0.35534
# Poissons Ratio (z) = -0.01587 0.25318
#
# Static dielectric constant tensor:
#      x y z
#    x 3.271910 0.000000 0.266960 
#    y 0.000000 9.371820 0.000000 
#    z 0.266960 0.000000 3.729830 
# 
# 
# High freq. dielectric constant tensor:
#      x y z
#    x 1.733250 0.000000 0.038940 
#    y 0.000000 1.802810 0.000000 
#    z 0.038940 0.000000 1.796840 
# 
# From -- ./inp_files/6515.got.cif
#   From: 2010.06.25/outbox.cif.g09.slc.cpg/sg10_4_cif.got.tgz:6515.got - 2010.06.27 22:07:45.
