data_PCOD8065530
_publ_section_title
;
Structure prediction by ZEFSAII (Michael W. Deem and Ramdas Pophale) SiO2 
 PCOD8065530
Probable space group: P 2/M
;
_chemical_formula_sum "Si O2"
_cell_formula_units_Z 32
_cell_length_a 11.610270
_cell_length_b 18.180313
_cell_length_c 13.790069
_cell_angle_alpha 90.000000
_cell_angle_beta 31.282748
_cell_angle_gamma 90.000000
_cell_volume 1511.459432
_symmetry_space_group_name_H-M "P 2/M"
_symmetry_group_IT_number 10
_symmetry_cell_setting 'monoclinic'
loop_
_space_group_symop_operation_xyz
x,y,z
-x,y,-z
-x,-y,-z
x,-y,z
loop_
_atom_site_type_symbol
_atom_site_label
_atom_site_fract_x
_atom_site_fract_y
_atom_site_fract_z
Si Si1 0.369587 0.416878 0.501401
Si Si2 0.412383 0.416554 0.253495
Si Si3 0.100913 0.580541 0.078146
Si Si4 0.339694 0.082849 0.024218
Si Si5 0.890671 0.736760 0.985218
Si Si6 0.716976 0.711574 0.779073
Si Si7 0.437374 0.812453 0.272689
Si Si8 0.024937 0.795513 0.690201
O O1 0.500000 0.378713 0.500000
O O2 0.458956 0.500000 0.433836
O O3 0.421984 0.383439 0.357202
O O4 0.104640 0.412498 0.701124
O O5 0.317736 0.500000 0.319903
O O6 0.259747 0.366335 0.293778
O O7 0.666128 0.414152 0.030162
O O8 0.092461 0.500000 0.030873
O O9 0.093822 0.648662 0.009538
O O10 0.130740 0.133352 0.199458
O O11 0.257455 0.000000 0.063796
O O12 0.500000 0.086053 0.000000
O O13 0.464304 0.110291 0.836782
O O14 0.037588 0.761556 0.788048
O O15 0.635529 0.758488 0.159407
O O16 0.000000 0.775195 0.000000
O O17 0.701775 0.777185 0.713709
O O18 0.932813 0.729359 0.688249
O O19 0.500000 0.713210 0.000000
O O20 0.270191 0.822302 0.483087
#
# Coordination Sequence:
#
# PCOD8065530 Si02
#       8
#     4   4   4   4   4   4   4   4
#     4   9  20  36  53  78 112 150 201 265 329 384
#     4  10  22  38  58  85 117 160 215 268 321 382
#     4  10  21  37  57  81 116 158 206 267 331 376
#     4  10  20  38  65 103 141 164 197 250 300 366
#     4  11  25  42  61  91 125 163 218 274 318 372
#     4  12  20  40  63  85 123 168 212 257 315 379
#     4  11  22  41  65  94 127 169 206 248 308 382
#     4  11  23  42  66  93 128 174 207 245 317 382
#
# _framework density 21.171590999999999
#
# number of rings (size 3 to 8) (size 9 to 14) (size 15 to 20)
#    0.000    1.500    5.000    0.375    3.500    1.500 
#    2.250    1.875    0.000    8.250    0.000    7.000 
#    0.000    0.000    0.000    0.000    0.000    0.125 
#
# Total GULP energy -396604.044886 kJ/mol
# GULP energy per Si atom -12393.876403 kJ/mol
# Density = 2.112340 g / cm^3
# Si number density = 21.171591 Si / 1000 Ang^3
#
#
#
# Elastic Constant Matrix: (Units=GPa)
#
#
# Indices 1 2 3 4 5 6 
#
# 1 87.9461 36.3698 40.9208 0.0000 23.2529 0.0000
# 2 36.3698 123.4212 42.8816 0.0000 10.1690 0.0000
# 3 40.9208 42.8816 143.8432 0.0000 11.8016 0.0000
# 4 0.0000 0.0000 0.0000 12.5006 0.0000 2.2504
# 5 23.2529 10.1690 11.8016 0.0000 11.0023 0.0000
# 6 0.0000 0.0000 0.0000 2.2504 0.0000 -0.3047
#
#
#
# Elastic Compliance Matrix: (Units=1/GPa)
#
#
# Indices 1 2 3 4 5 6 
#
# 1 0.027995 -0.002895 -0.002704 0.000000 -0.053591 0.000000
# 2 -0.002895 0.009713 -0.002015 0.000000 -0.000699 0.000000
# 3 -0.002704 -0.002015 0.008443 0.000000 -0.001479 0.000000
# 4 0.000000 0.000000 0.000000 0.034340 0.000000 0.253614
# 5 -0.053591 -0.000699 -0.001479 0.000000 0.206385 0.000000
# 6 0.000000 0.000000 0.000000 0.253614 0.000000 -1.408781
#
#
# Mechanical properties :
#
#
# Convention : Reuss Voigt Hill
#
# Bulk Modulus (GPa) = 32.33719 66.17277 49.25498
# Shear Modulus (GPa) = -4.56051 20.30884 7.87417
#
# Velocity S-wave (km/s) = -1.46927 3.10054 1.93062
# Velocity P-wave (km/s) = 3.52543 6.64387 5.31835
#
# Compressibility (1/GPa) = 0.03092415
#
# Stress axis : x y z
#
# Youngs Moduli (GPa) = 35.72012 102.95605 118.43651
#
# Poissons Ratio (x) = 0.29801 0.32030
# Poissons Ratio (y) = 0.10339 0.23862
# Poissons Ratio (z) = 0.09660 0.20743
#
# Static dielectric constant tensor:
#      x y z
#    x 3.734200 0.000000 0.124910 
#    y 0.000000 3.864040 0.000000 
#    z 0.124910 0.000000 3.929400 
# 
# 
# High freq. dielectric constant tensor:
#      x y z
#    x 1.807900 0.000000 0.003560 
#    y 0.000000 1.804950 0.000000 
#    z 0.003560 0.000000 1.838830 
# 
# From -- ./inp_files/65370.got.cif
#   From: 2010.06.25/outbox.cif.g09.slc.cpg/sg10_33_cif.got.tgz:65370.got - 2010.06.27 22:07:45.
