data_PCOD8065171
_publ_section_title
;
Structure prediction by ZEFSAII (Michael W. Deem and Ramdas Pophale) SiO2 
 PCOD8065171
Probable space group: P 2/M
;
_chemical_formula_sum "Si O2"
_cell_formula_units_Z 32
_cell_length_a 14.007573
_cell_length_b 8.933577
_cell_length_c 14.536458
_cell_angle_alpha 90.000000
_cell_angle_beta 121.048091
_cell_angle_gamma 90.000000
_cell_volume 1558.451303
_symmetry_space_group_name_H-M "P 2/M"
_symmetry_group_IT_number 10
_symmetry_cell_setting 'monoclinic'
loop_
_space_group_symop_operation_xyz
x,y,z
-x,y,-z
-x,-y,-z
x,-y,z
loop_
_atom_site_type_symbol
_atom_site_label
_atom_site_fract_x
_atom_site_fract_y
_atom_site_fract_z
Si Si1 0.622853 0.322664 0.298912
Si Si2 0.813527 0.176038 0.273979
Si Si3 0.752216 0.172360 0.732211
Si Si4 0.971759 0.667075 0.842474
Si Si5 0.037896 0.670132 0.380705
Si Si6 0.808745 0.826633 0.057004
Si Si7 0.736286 0.822723 0.516216
Si Si8 0.605862 0.826042 0.830693
O O1 0.636079 0.500000 0.304932
O O2 0.710771 0.248959 0.274444
O O3 0.639710 0.257449 0.409942
O O4 0.500592 0.276718 0.204074
O O5 0.794851 0.209779 0.157329
O O6 0.927486 0.252460 0.367180
O O7 0.819274 0.000000 0.297380
O O8 0.860823 0.255079 0.825786
O O9 0.718577 0.226923 0.613257
O O10 0.649331 0.201611 0.748670
O O11 0.786176 0.000000 0.744723
O O12 0.972935 0.500000 0.881376
O O13 0.969644 0.674123 0.732061
O O14 0.083933 0.745817 0.933677
O O15 0.047586 0.500000 0.422328
O O16 0.145521 0.765073 0.464929
O O17 0.828653 0.000000 0.048654
O O18 0.698291 0.772462 0.949669
O O19 0.728501 0.000000 0.499057
O O20 0.574711 0.000000 0.829936
#
# Coordination Sequence:
#
# PCOD8065171 Si02
#       8
#     4   4   4   4   4   4   4   4
#     4  12  26  41  56  79 110 146 187 234 281 330
#     4  10  20  37  60  85 112 146 185 227 273 327
#     4   9  19  36  60  85 112 146 185 227 273 324
#     4   9  17  30  53  84 119 150 179 220 273 329
#     4   9  17  32  55  86 118 146 178 222 275 331
#     4   9  19  36  60  85 112 146 185 227 273 324
#     4  10  20  37  60  85 112 146 185 227 273 327
#     4  10  22  41  60  81 109 146 191 234 272 322
#
# _framework density 20.533204999999999
#
# number of rings (size 3 to 8) (size 9 to 14) (size 15 to 20)
#    0.000    2.250    0.000    2.625    0.000    7.000 
#    0.000   10.000    0.000    0.000    0.000    0.000 
#    0.000    0.000    0.000    0.000    0.000    0.000 
#
# Total GULP energy -396875.449360 kJ/mol
# GULP energy per Si atom -12402.357792 kJ/mol
# Density = 2.048647 g / cm^3
# Si number density = 20.533205 Si / 1000 Ang^3
#
#
#
# Elastic Constant Matrix: (Units=GPa)
#
#
# Indices 1 2 3 4 5 6 
#
# 1 61.8752 26.0733 -1.8242 0.0000 17.4674 0.0000
# 2 26.0733 94.2806 14.3084 0.0000 10.6295 0.0000
# 3 -1.8242 14.3084 48.6202 0.0000 16.8026 0.0000
# 4 0.0000 0.0000 0.0000 19.5122 0.0000 5.3930
# 5 17.4674 10.6295 16.8026 0.0000 29.7316 0.0000
# 6 0.0000 0.0000 0.0000 5.3930 0.0000 24.5821
#
#
#
# Elastic Compliance Matrix: (Units=1/GPa)
#
#
# Indices 1 2 3 4 5 6 
#
# 1 0.023526 -0.005916 0.008288 0.000000 -0.016390 0.000000
# 2 -0.005916 0.012759 -0.004476 0.000000 0.001443 0.000000
# 3 0.008288 -0.004476 0.028987 0.000000 -0.019651 0.000000
# 4 0.000000 0.000000 0.000000 0.054558 0.000000 -0.011969
# 5 -0.016390 0.001443 -0.019651 0.000000 0.053853 0.000000
# 6 0.000000 0.000000 0.000000 -0.011969 0.000000 0.043306
#
#
# Mechanical properties :
#
#
# Convention : Reuss Voigt Hill
#
# Bulk Modulus (GPa) = 16.37615 31.32121 23.84868
# Shear Modulus (GPa) = 20.69956 25.84643 23.27299
#
# Velocity S-wave (km/s) = 3.17851 3.55175 3.37030
# Velocity P-wave (km/s) = 4.63285 5.66630 5.17544
#
# Compressibility (1/GPa) = 0.06106442
#
# Stress axis : x y z
#
# Youngs Moduli (GPa) = 42.50653 78.37471 34.49849
#
# Poissons Ratio (x) = 0.46366 -0.28592
# Poissons Ratio (y) = 0.25147 0.15441
# Poissons Ratio (z) = -0.35229 0.35078
#
# Static dielectric constant tensor:
#      x y z
#    x 3.633640 0.000000 0.058050 
#    y 0.000000 3.737200 0.000000 
#    z 0.058050 0.000000 3.894990 
# 
# 
# High freq. dielectric constant tensor:
#      x y z
#    x 1.798830 0.000000 0.001030 
#    y 0.000000 1.801970 0.000000 
#    z 0.001030 0.000000 1.805300 
# 
# From -- ./inp_files/66567.got.cif
#   From: 2010.06.25/outbox.cif.g09.slc.cpg/sg10_34_cif.got.tgz:66567.got - 2010.06.27 22:07:45.
