data_PCOD8065570
_publ_section_title
;
Structure prediction by ZEFSAII (Michael W. Deem and Ramdas Pophale) SiO2 
 PCOD8065570
Probable space group: P 2/M
;
_chemical_formula_sum "Si O2"
_cell_formula_units_Z 32
_cell_length_a 14.620795
_cell_length_b 9.139604
_cell_length_c 25.543252
_cell_angle_alpha 90.000000
_cell_angle_beta 29.884098
_cell_angle_gamma 90.000000
_cell_volume 1700.667264
_symmetry_space_group_name_H-M "P 2/M"
_symmetry_group_IT_number 10
_symmetry_cell_setting 'monoclinic'
loop_
_space_group_symop_operation_xyz
x,y,z
-x,y,-z
-x,-y,-z
x,-y,z
loop_
_atom_site_type_symbol
_atom_site_label
_atom_site_fract_x
_atom_site_fract_y
_atom_site_fract_z
Si Si1 0.023377 0.167033 0.743234
Si Si2 0.513731 0.670997 0.653040
Si Si3 0.164583 0.166409 0.561404
Si Si4 0.750339 0.830283 0.739335
Si Si5 0.102033 0.328768 0.002372
Si Si6 0.518528 0.669437 0.771862
Si Si7 0.318850 0.668133 0.123010
Si Si8 0.846837 0.170475 0.206872
O O1 0.154910 0.196925 0.628374
O O2 0.136005 0.198698 0.739768
O O3 0.847945 0.271323 0.828699
O O4 0.951833 0.000000 0.776336
O O5 0.480251 0.500000 0.660808
O O6 0.693672 0.720258 0.533026
O O7 0.538924 0.708410 0.701140
O O8 0.339348 0.755841 0.718529
O O9 0.968161 0.196201 0.632276
O O10 0.228917 0.000000 0.518689
O O11 0.670312 0.764594 0.725879
O O12 0.654744 0.753418 0.835980
O O13 0.701754 0.000000 0.766387
O O14 0.069729 0.500000 0.028413
O O15 0.315584 0.288968 0.892206
O O16 0.000000 0.280091 0.000000
O O17 0.020917 0.240003 0.091247
O O18 0.558882 0.500000 0.762554
O O19 0.280590 0.500000 0.155345
O O20 0.500000 0.690310 0.000000
O O21 0.839770 0.000000 0.196890
#
# Coordination Sequence:
#
# PCOD8065570 Si02
#       8
#     4   4   4   4   4   4   4   4
#     4   9  21  40  59  83 117 154 190 234 292 344
#     4  11  23  40  61  86 115 153 196 241 293 344
#     4   9  20  41  62  82 113 152 190 238 294 344
#     4  10  22  39  60  85 117 153 191 238 291 345
#     4  10  20  39  60  80 117 160 192 236 292 344
#     4  10  22  39  59  84 118 156 194 237 289 346
#     4  10  21  36  56  84 115 151 194 237 285 341
#     4  11  23  38  59  89 119 152 196 241 286 346
#
# _framework density 18.816143
#
# number of rings (size 3 to 8) (size 9 to 14) (size 15 to 20)
#    0.000    2.000    1.250    2.250    1.750    7.250 
#    0.000    5.000    0.000    0.000    0.000    0.000 
#    0.000    0.000    0.000    0.000    0.000    0.000 
#
# Total GULP energy -396944.805755 kJ/mol
# GULP energy per Si atom -12404.525180 kJ/mol
# Density = 1.877332 g / cm^3
# Si number density = 18.816143 Si / 1000 Ang^3
#
#
#
# Elastic Constant Matrix: (Units=GPa)
#
#
# Indices 1 2 3 4 5 6 
#
# 1 186.3964 90.0521 81.8792 0.0000 -9.8611 0.0000
# 2 90.0521 110.3524 75.8956 0.0000 -0.1942 0.0000
# 3 81.8792 75.8956 123.1011 0.0000 1.7813 0.0000
# 4 0.0000 0.0000 0.0000 30.8679 0.0000 2.4092
# 5 -9.8611 -0.1942 1.7813 0.0000 25.8213 0.0000
# 6 0.0000 0.0000 0.0000 2.4092 0.0000 35.7360
#
#
#
# Elastic Compliance Matrix: (Units=1/GPa)
#
#
# Indices 1 2 3 4 5 6 
#
# 1 0.009687 -0.005953 -0.002829 0.000000 0.003850 0.000000
# 2 -0.005953 0.019407 -0.007983 0.000000 -0.001577 0.000000
# 3 -0.002829 -0.007983 0.014958 0.000000 -0.002172 0.000000
# 4 0.000000 0.000000 0.000000 0.032567 0.000000 -0.002196
# 5 0.003850 -0.001577 -0.002172 0.000000 0.040336 0.000000
# 6 0.000000 0.000000 0.000000 -0.002196 0.000000 0.028131
#
#
# Mechanical properties :
#
#
# Convention : Reuss Voigt Hill
#
# Bulk Modulus (GPa) = 95.02725 101.72262 98.37494
# Shear Modulus (GPa) = 27.45390 29.95326 28.70358
#
# Velocity S-wave (km/s) = 3.82391 3.99418 3.90997
# Velocity P-wave (km/s) = 8.37312 8.68620 8.53109
#
# Compressibility (1/GPa) = 0.01052330
#
# Stress axis : x y z
#
# Youngs Moduli (GPa) = 103.22946 51.52782 66.85305
#
# Poissons Ratio (x) = 0.30673 0.18913
# Poissons Ratio (y) = 0.61449 0.53368
# Poissons Ratio (z) = 0.29204 0.41134
#
# Static dielectric constant tensor:
#      x y z
#    x 1.916730 0.000000 -2.438480 
#    y 0.000000 3.531950 0.000000 
#    z -2.438480 0.000000 -0.518620 
# 
# 
# High freq. dielectric constant tensor:
#      x y z
#    x 1.737700 0.000000 0.003570 
#    y 0.000000 1.737740 0.000000 
#    z 0.003570 0.000000 1.732030 
# 
# From -- ./inp_files/71497.got.cif
#   From: 2010.06.25/outbox.cif.g09.slc.cpg/sg10_36_cif.got.tgz:71497.got - 2010.06.27 22:07:45.
