data_PCOD8065198
_publ_section_title
;
Structure prediction by ZEFSAII (Michael W. Deem and Ramdas Pophale) SiO2 
 PCOD8065198
Probable space group: P 2/M
;
_chemical_formula_sum "Si O2"
_cell_formula_units_Z 28
_cell_length_a 21.200852
_cell_length_b 8.795367
_cell_length_c 14.556731
_cell_angle_alpha 90.000000
_cell_angle_beta 150.687225
_cell_angle_gamma 90.000000
_cell_volume 1328.899194
_symmetry_space_group_name_H-M "P 2/M"
_symmetry_group_IT_number 10
_symmetry_cell_setting 'monoclinic'
loop_
_space_group_symop_operation_xyz
x,y,z
-x,y,-z
-x,-y,-z
x,-y,z
loop_
_atom_site_type_symbol
_atom_site_label
_atom_site_fract_x
_atom_site_fract_y
_atom_site_fract_z
Si Si1 0.766928 0.327548 0.931569
Si Si2 0.338701 0.327284 0.395246
Si Si3 0.026862 0.176670 0.285742
Si Si4 0.561935 0.671912 0.813195
Si Si5 0.598898 0.821315 0.045347
Si Si6 0.115737 0.678155 0.580832
Si Si7 0.887884 0.176780 0.797544
O O1 0.820423 0.500000 0.991643
O O2 0.664658 0.298167 0.718713
O O3 0.704418 0.305582 0.952804
O O4 0.879804 0.204837 0.068600
O O5 0.296384 0.500000 0.362928
O O6 0.475817 0.292042 0.614492
O O7 0.247127 0.210422 0.329490
O O8 0.068150 0.287118 0.418861
O O9 0.113586 0.230108 0.309999
O O10 0.045879 0.000000 0.337119
O O11 0.541079 0.500000 0.821873
O O12 0.535593 0.781420 0.866246
O O13 0.742470 0.750833 0.227351
O O14 0.615542 0.000000 0.077300
O O15 0.500000 0.762389 0.000000
O O16 0.133247 0.500000 0.619289
O O17 0.000000 0.740751 0.500000
O O18 0.917106 0.000000 0.832892
O O19 0.000000 0.258353 0.000000
#
# Coordination Sequence:
#
# PCOD8065198 Si02
#       7
#     4   4   4   4   4   4   4
#     4  10  20  37  60  89 126 161 198 246 298 358
#     4  10  21  36  59  89 120 158 202 245 294 356
#     4  11  23  38  61  90 123 161 201 248 303 360
#     4  10  22  40  62  89 121 159 201 249 304 358
#     4  11  26  46  66  92 126 165 210 261 316 374
#     4  11  25  45  69  96 125 160 207 263 319 375
#     4  10  21  38  56  81 121 162 197 243 298 354
#
# _framework density 21.070070999999999
#
# number of rings (size 3 to 8) (size 9 to 14) (size 15 to 20)
#    0.000    1.571    1.429    2.571    2.000   10.000 
#    0.000    0.000    0.000    2.571    0.000    0.000 
#    0.000    0.000    0.000    0.000    0.000    0.000 
#
# Total GULP energy -347042.947233 kJ/mol
# GULP energy per Si atom -12394.390973 kJ/mol
# Density = 2.102211 g / cm^3
# Si number density = 21.070071 Si / 1000 Ang^3
#
#
#
# Elastic Constant Matrix: (Units=GPa)
#
#
# Indices 1 2 3 4 5 6 
#
# 1 147.4463 33.8628 36.8289 0.0000 -4.5053 0.0000
# 2 33.8628 34.3819 19.1088 0.0000 0.2782 0.0000
# 3 36.8289 19.1088 83.4580 0.0000 -3.5562 0.0000
# 4 0.0000 0.0000 0.0000 76.2760 0.0000 127.8239
# 5 -4.5053 0.2782 -3.5562 0.0000 37.7327 0.0000
# 6 0.0000 0.0000 0.0000 127.8239 0.0000 359.1257
#
#
#
# Elastic Compliance Matrix: (Units=1/GPa)
#
#
# Indices 1 2 3 4 5 6 
#
# 1 0.009154 -0.007792 -0.002215 0.000000 0.000942 0.000000
# 2 -0.007792 0.039994 -0.005794 0.000000 -0.001771 0.000000
# 3 -0.002215 -0.005794 0.014334 0.000000 0.001129 0.000000
# 4 0.000000 0.000000 0.000000 0.032489 0.000000 -0.011564
# 5 0.000942 -0.001771 0.001129 0.000000 0.026734 0.000000
# 6 0.000000 0.000000 0.000000 -0.011564 0.000000 0.006900
#
#
# Mechanical properties :
#
#
# Convention : Reuss Voigt Hill
#
# Bulk Modulus (GPa) = 31.36814 49.43190 40.40002
# Shear Modulus (GPa) = 29.09769 106.32593 67.71181
#
# Velocity S-wave (km/s) = 3.72021 7.11144 5.67506
# Velocity P-wave (km/s) = 5.77695 9.53634 7.88400
#
# Compressibility (1/GPa) = 0.03187948
#
# Stress axis : x y z
#
# Youngs Moduli (GPa) = 109.24489 25.00373 69.76239
#
# Poissons Ratio (x) = 0.19483 0.15454
# Poissons Ratio (y) = 0.85124 0.40421
# Poissons Ratio (z) = 0.24200 0.14487
#
# Static dielectric constant tensor:
#      x y z
#    x 4.061780 0.000000 -0.095130 
#    y 0.000000 3.588090 0.000000 
#    z -0.095130 0.000000 3.894730 
# 
# 
# High freq. dielectric constant tensor:
#      x y z
#    x 1.839970 0.000000 -0.008550 
#    y 0.000000 1.807980 0.000000 
#    z -0.008550 0.000000 1.828570 
# 
# From -- ./inp_files/70313.got.cif
#   From: 2010.06.25/outbox.cif.g09.slc.cpg/sg10_36_cif.got.tgz:70313.got - 2010.06.27 22:07:45.
