data_PCOD8065926
_publ_section_title
;
Structure prediction by ZEFSAII (Michael W. Deem and Ramdas Pophale) SiO2 
 PCOD8065926
Probable space group: P 2/M
;
_chemical_formula_sum "Si O2"
_cell_formula_units_Z 28
_cell_length_a 10.377980
_cell_length_b 12.300003
_cell_length_c 18.252601
_cell_angle_alpha 90.000000
_cell_angle_beta 141.765996
_cell_angle_gamma 90.000000
_cell_volume 1441.934459
_symmetry_space_group_name_H-M "P 2/M"
_symmetry_group_IT_number 10
_symmetry_cell_setting 'monoclinic'
loop_
_space_group_symop_operation_xyz
x,y,z
-x,y,-z
-x,-y,-z
x,-y,z
loop_
_atom_site_type_symbol
_atom_site_label
_atom_site_fract_x
_atom_site_fract_y
_atom_site_fract_z
Si Si1 0.268795 0.500000 0.549446
Si Si2 0.654116 0.124941 0.508693
Si Si3 0.877496 0.873401 0.240424
Si Si4 0.057557 0.375234 0.109413
Si Si5 0.379193 0.273960 0.782413
Si Si6 0.693286 0.713900 0.039349
Si Si7 0.500752 0.709237 0.670595
Si Si8 0.193238 0.500000 0.688406
O O1 0.400539 0.605378 0.585665
O O2 0.232443 0.500000 0.619712
O O3 0.054442 0.500000 0.408127
O O4 0.500000 0.172702 0.500000
O O5 0.598117 0.184790 0.409169
O O6 0.878989 0.144511 0.643042
O O7 0.612570 0.000000 0.472701
O O8 0.785950 0.820529 0.273618
O O9 0.792881 0.811591 0.130650
O O10 0.816603 0.000000 0.207097
O O11 0.132836 0.500000 0.142019
O O12 0.248710 0.299113 0.220607
O O13 0.872600 0.365496 0.087402
O O14 0.000000 0.341888 0.000000
O O15 0.423865 0.280775 0.718197
O O16 0.292414 0.392503 0.769911
O O17 0.588108 0.240063 0.918751
O O18 0.500000 0.659394 0.000000
#
# Coordination Sequence:
#
# PCOD8065926 Si02
#       8
#     2   4   4   4   4   4   4   2
#     4   9  18  32  53  85 115 165 181 236 305 361
#     4  10  22  40  63  82 112 161 205 253 307 363
#     4  10  22  42  62  85 120 165 209 249 305 364
#     4  11  22  37  63  91 126 164 201 249 303 368
#     4  10  21  35  59  92 118 161 197 250 300 361
#     4  10  22  39  60  90 121 164 203 248 306 356
#     4  11  20  37  62  89 124 150 202 249 305 358
#     4   9  18  32  52  80 127 152 197 234 299 361
#
# _framework density 19.418358999999999
#
# number of rings (size 3 to 8) (size 9 to 14) (size 15 to 20)
#    0.000    1.857    2.143    1.714    1.000    5.143 
#    3.857    1.786    0.000    0.857    0.000    0.000 
#    0.000    0.000    0.000    0.000    0.000    0.000 
#
# Total GULP energy -346994.804426 kJ/mol
# GULP energy per Si atom -12392.671587 kJ/mol
# Density = 1.937416 g / cm^3
# Si number density = 19.418359 Si / 1000 Ang^3
#
#
#
# Elastic Constant Matrix: (Units=GPa)
#
#
# Indices 1 2 3 4 5 6 
#
# 1 92.9121 42.3705 40.3494 0.0000 10.8333 0.0000
# 2 42.3705 86.9878 58.0251 0.0000 0.6797 0.0000
# 3 40.3494 58.0251 108.7627 0.0000 4.8399 0.0000
# 4 0.0000 0.0000 0.0000 28.0723 0.0000 2.0900
# 5 10.8333 0.6797 4.8399 0.0000 28.4186 0.0000
# 6 0.0000 0.0000 0.0000 2.0900 0.0000 26.5038
#
#
#
# Elastic Compliance Matrix: (Units=1/GPa)
#
#
# Indices 1 2 3 4 5 6 
#
# 1 0.014967 -0.005744 -0.002258 0.000000 -0.005184 0.000000
# 2 -0.005744 0.020092 -0.008731 0.000000 0.003196 0.000000
# 3 -0.002258 -0.008731 0.014754 0.000000 -0.001443 0.000000
# 4 0.000000 0.000000 0.000000 0.035833 0.000000 -0.002826
# 5 -0.005184 0.003196 -0.001443 0.000000 0.037334 0.000000
# 6 0.000000 0.000000 0.000000 -0.002826 0.000000 0.037953
#
#
# Mechanical properties :
#
#
# Convention : Reuss Voigt Hill
#
# Bulk Modulus (GPa) = 61.16490 63.35027 62.25758
# Shear Modulus (GPa) = 25.01921 26.46013 25.73967
#
# Velocity S-wave (km/s) = 3.59337 3.69539 3.64474
# Velocity P-wave (km/s) = 6.98450 7.13461 7.05995
#
# Compressibility (1/GPa) = 0.01634925
#
# Stress axis : x y z
#
# Youngs Moduli (GPa) = 66.81372 49.77004 67.77864
#
# Poissons Ratio (x) = 0.28587 0.15301
# Poissons Ratio (y) = 0.38376 0.59175
# Poissons Ratio (z) = 0.15083 0.43453
#
# Static dielectric constant tensor:
#      x y z
#    x 3.601970 0.000000 0.148320 
#    y 0.000000 3.484660 0.000000 
#    z 0.148320 0.000000 3.708410 
# 
# 
# High freq. dielectric constant tensor:
#      x y z
#    x 1.752600 0.000000 0.010090 
#    y 0.000000 1.739980 0.000000 
#    z 0.010090 0.000000 1.772310 
# 
# From -- ./inp_files/84018.got.cif
#   From: 2010.06.25/outbox.cif.g09.slc.cpg/sg10_43_cif.got.tgz:84018.got - 2010.06.27 22:07:45.
