data_PCOD8065375
_publ_section_title
;
Structure prediction by ZEFSAII (Michael W. Deem and Ramdas Pophale) SiO2 
 PCOD8065375
Probable space group: P 2/M
;
_chemical_formula_sum "Si O2"
_cell_formula_units_Z 32
_cell_length_a 23.949217
_cell_length_b 8.857653
_cell_length_c 17.846704
_cell_angle_alpha 90.000000
_cell_angle_beta 149.291038
_cell_angle_gamma 90.000000
_cell_volume 1933.368537
_symmetry_space_group_name_H-M "P 2/M"
_symmetry_group_IT_number 10
_symmetry_cell_setting 'monoclinic'
loop_
_space_group_symop_operation_xyz
x,y,z
-x,y,-z
-x,-y,-z
x,-y,z
loop_
_atom_site_type_symbol
_atom_site_label
_atom_site_fract_x
_atom_site_fract_y
_atom_site_fract_z
Si Si1 0.373455 0.333614 0.375724
Si Si2 0.415199 0.677466 0.742883
Si Si3 0.812965 0.321416 0.132647
Si Si4 0.264186 0.174369 0.683466
Si Si5 0.676029 0.680078 0.837632
Si Si6 0.982235 0.822765 0.563871
Si Si7 0.358226 0.176085 0.953228
Si Si8 0.561327 0.679285 0.395921
O O1 0.500000 0.345388 0.500000
O O2 0.322150 0.500000 0.325002
O O3 0.311405 0.252985 0.233396
O O4 0.367825 0.252417 0.451611
O O5 0.438859 0.500000 0.776029
O O6 0.310639 0.722335 0.670885
O O7 0.388461 0.725451 0.626196
O O8 0.520499 0.765510 0.893374
O O9 0.813573 0.500000 0.139736
O O10 0.934002 0.258569 0.283963
O O11 0.729974 0.261057 0.098710
O O12 0.774627 0.268315 0.005350
O O13 0.331204 0.208032 0.835789
O O14 0.138578 0.220253 0.549360
O O15 0.275346 0.000000 0.673327
O O16 0.671032 0.500000 0.825936
O O17 0.563368 0.739696 0.744900
O O18 0.000000 0.763248 0.500000
O O19 0.004968 0.000000 0.593332
O O20 0.350461 0.000000 0.963037
O O21 0.560255 0.500000 0.404893
#
# Coordination Sequence:
#
# PCOD8065375 Si02
#       8
#     4   4   4   4   4   4   4   4
#     4   7  10  18  36  60  90 128 155 174 215 280
#     4  11  21  32  48  74 103 124 153 201 244 278
#     4  11  20  30  49  77 102 121 152 202 251 281
#     4  10  22  38  52  65  88 126 169 201 228 280
#     4   8  13  23  39  65  99 124 149 186 230 279
#     4  10  20  38  55  67  88 124 166 201 235 284
#     4  11  21  35  51  67  93 132 169 193 227 285
#     4   8  13  23  39  64  97 127 152 181 226 279
#
# _framework density 16.551423
#
# number of rings (size 3 to 8) (size 9 to 14) (size 15 to 20)
#    0.000    2.500    2.500    3.000    0.000    3.250 
#    0.000    0.000    0.000    0.000    0.000    5.250 
#    0.000    7.000    0.000    0.000    0.000    0.000 
#
# Total GULP energy -396519.285240 kJ/mol
# GULP energy per Si atom -12391.227664 kJ/mol
# Density = 1.651375 g / cm^3
# Si number density = 16.551423 Si / 1000 Ang^3
#
#
#
# Elastic Constant Matrix: (Units=GPa)
#
#
# Indices 1 2 3 4 5 6 
#
# 1 102.1043 22.3180 70.8727 0.0000 -19.1112 0.0000
# 2 22.3180 25.8896 27.7906 0.0000 -5.7231 0.0000
# 3 70.8727 27.7906 94.6615 0.0000 -20.5023 0.0000
# 4 0.0000 0.0000 0.0000 14.5879 0.0000 13.1454
# 5 -19.1112 -5.7231 -20.5023 0.0000 27.6138 0.0000
# 6 0.0000 0.0000 0.0000 13.1454 0.0000 7.0274
#
#
#
# Elastic Compliance Matrix: (Units=1/GPa)
#
#
# Indices 1 2 3 4 5 6 
#
# 1 0.020706 -0.001821 -0.014235 0.000000 0.003384 0.000000
# 2 -0.001821 0.056571 -0.015465 0.000000 -0.001018 0.000000
# 3 -0.014235 -0.015465 0.027329 0.000000 0.007233 0.000000
# 4 0.000000 0.000000 0.000000 -0.099982 0.000000 0.187026
# 5 0.003384 -0.001018 0.007233 0.000000 0.043715 0.000000
# 6 0.000000 0.000000 0.000000 0.187026 0.000000 -0.207550
#
#
# Mechanical properties :
#
#
# Convention : Reuss Voigt Hill
#
# Bulk Modulus (GPa) = 24.05974 51.62421 37.84198
# Shear Modulus (GPa) = -60.74341 16.62409 -22.05966
#
# Velocity S-wave (km/s) = -6.06461 3.17265 -3.65471
# Velocity P-wave (km/s) = 5.87123 6.68422 2.25914
#
# Compressibility (1/GPa) = 0.04156321
#
# Stress axis : x y z
#
# Youngs Moduli (GPa) = 48.29455 17.67683 36.59179
#
# Poissons Ratio (x) = 0.03220 0.52089
# Poissons Ratio (y) = 0.08796 0.56589
# Poissons Ratio (z) = 0.68748 0.27337
#
# Static dielectric constant tensor:
#      x y z
#    x 3.241360 0.000000 -0.398870 
#    y 0.000000 2.842670 0.000000 
#    z -0.398870 0.000000 3.321420 
# 
# 
# High freq. dielectric constant tensor:
#      x y z
#    x 1.626620 0.000000 -0.028220 
#    y 0.000000 1.607030 0.000000 
#    z -0.028220 0.000000 1.629880 
# 
# From -- ./inp_files/54838.got.cif
#   From: 2010.06.25/outbox.cif.g09.slc.cpg/sg10_28_cif.got.tgz:54838.got - 2010.06.27 22:07:45.
