data_PCOD8065192
_publ_section_title
;
Structure prediction by ZEFSAII (Michael W. Deem and Ramdas Pophale) SiO2 
 PCOD8065192
Probable space group: P 2/M
;
_chemical_formula_sum "Si O2"
_cell_formula_units_Z 16
_cell_length_a 14.255846
_cell_length_b 8.986260
_cell_length_c 11.658293
_cell_angle_alpha 90.000000
_cell_angle_beta 32.211770
_cell_angle_gamma 90.000000
_cell_volume 796.113458
_symmetry_space_group_name_H-M "P 2/M"
_symmetry_group_IT_number 10
_symmetry_cell_setting 'monoclinic'
loop_
_space_group_symop_operation_xyz
x,y,z
-x,y,-z
-x,-y,-z
x,-y,z
loop_
_atom_site_type_symbol
_atom_site_label
_atom_site_fract_x
_atom_site_fract_y
_atom_site_fract_z
Si Si1 0.797502 0.826410 0.206339
Si Si2 0.043553 0.326840 0.585528
Si Si3 0.647311 0.174683 0.608804
Si Si4 0.700442 0.675571 0.079635
O O1 0.712493 0.782940 0.414618
O O2 0.697359 0.734501 0.212660
O O3 0.775441 0.000000 0.200581
O O4 0.000000 0.778436 0.000000
O O5 0.084416 0.500000 0.561974
O O6 0.000000 0.290354 0.500000
O O7 0.214975 0.233800 0.440927
O O8 0.880643 0.274734 0.832313
O O9 0.460195 0.252281 0.824437
O O10 0.626480 0.000000 0.646756
O O11 0.676702 0.500000 0.102909
#
# Coordination Sequence:
#
# PCOD8065192 Si02
#       4
#     4   4   4   4
#     4  10  20  37  60  87 121 157 191 233 291 352
#     4  10  23  43  63  84 115 156 200 245 292 342
#     4  11  23  39  62  89 120 156 193 239 292 350
#     4  11  23  38  61  90 120 154 194 242 291 347
#
# _framework density 20.097638
#
# number of rings (size 3 to 8) (size 9 to 14) (size 15 to 20)
#    0.000    1.500    2.500    2.250    0.000    8.000 
#    0.000    5.000    0.000    0.000    0.000    0.000 
#    0.000    0.000    0.000    0.000    0.000    0.000 
#
# Total GULP energy -198517.628805 kJ/mol
# GULP energy per Si atom -12407.351800 kJ/mol
# Density = 2.005189 g / cm^3
# Si number density = 20.097638 Si / 1000 Ang^3
#
#
#
# Elastic Constant Matrix: (Units=GPa)
#
#
# Indices 1 2 3 4 5 6 
#
# 1 113.2442 49.1488 37.7787 0.0000 -17.7343 0.0000
# 2 49.1488 67.1363 25.8088 0.0000 -12.4377 0.0000
# 3 37.7787 25.8088 44.6127 0.0000 -23.4815 0.0000
# 4 0.0000 0.0000 0.0000 29.6407 0.0000 -4.7616
# 5 -17.7343 -12.4377 -23.4815 0.0000 39.8607 0.0000
# 6 0.0000 0.0000 0.0000 -4.7616 0.0000 22.4917
#
#
#
# Elastic Compliance Matrix: (Units=1/GPa)
#
#
# Indices 1 2 3 4 5 6 
#
# 1 0.014949 -0.007797 -0.008592 0.000000 -0.000844 0.000000
# 2 -0.007797 0.023239 -0.007031 0.000000 -0.000359 0.000000
# 3 -0.008592 -0.007031 0.044340 0.000000 0.020104 0.000000
# 4 0.000000 0.000000 0.000000 0.034925 0.000000 0.007394
# 5 -0.000844 -0.000359 0.020104 0.000000 0.036443 0.000000
# 6 0.000000 0.000000 0.000000 0.007394 0.000000 0.046026
#
#
# Mechanical properties :
#
#
# Convention : Reuss Voigt Hill
#
# Bulk Modulus (GPa) = 28.02049 50.05176 39.03613
# Shear Modulus (GPa) = 19.33060 25.88241 22.60651
#
# Velocity S-wave (km/s) = 3.10471 3.59253 3.35749
# Velocity P-wave (km/s) = 5.17926 6.49359 5.87331
#
# Compressibility (1/GPa) = 0.03568817
#
# Stress axis : x y z
#
# Youngs Moduli (GPa) = 66.89579 43.03099 22.55303
#
# Poissons Ratio (x) = 0.33550 0.19378
# Poissons Ratio (y) = 0.52157 0.15856
# Poissons Ratio (z) = 0.57479 0.30254
#
# Static dielectric constant tensor:
#      x y z
#    x 3.603140 0.000000 -0.095200 
#    y 0.000000 3.552540 0.000000 
#    z -0.095200 0.000000 3.780670 
# 
# 
# High freq. dielectric constant tensor:
#      x y z
#    x 1.789050 0.000000 -0.012500 
#    y 0.000000 1.782880 0.000000 
#    z -0.012500 0.000000 1.791430 
# 
# From -- ./inp_files/21247.got.cif
#   From: 2010.06.25/outbox.cif.g09.slc.cpg/sg10_11_cif.got.tgz:21247.got - 2010.06.27 22:07:45.
