data_PCOD8065922
_publ_section_title
;
Structure prediction by ZEFSAII (Michael W. Deem and Ramdas Pophale) SiO2 
 PCOD8065922
Probable space group: P 2/M
;
_chemical_formula_sum "Si O2"
_cell_formula_units_Z 30
_cell_length_a 11.081335
_cell_length_b 18.484385
_cell_length_c 14.511154
_cell_angle_alpha 90.000000
_cell_angle_beta 30.365091
_cell_angle_gamma 90.000000
_cell_volume 1502.544046
_symmetry_space_group_name_H-M "P 2/M"
_symmetry_group_IT_number 10
_symmetry_cell_setting 'monoclinic'
loop_
_space_group_symop_operation_xyz
x,y,z
-x,y,-z
-x,-y,-z
x,-y,z
loop_
_atom_site_type_symbol
_atom_site_label
_atom_site_fract_x
_atom_site_fract_y
_atom_site_fract_z
Si Si1 0.194362 0.920497 0.950316
Si Si2 0.381143 0.581823 0.488062
Si Si3 0.718197 0.275108 0.676127
Si Si4 0.482259 0.183896 0.358270
Si Si5 0.544227 0.582115 0.183717
Si Si6 0.500000 0.719222 0.000000
Si Si7 0.880021 0.195164 0.242643
Si Si8 0.915995 0.343077 0.826815
O O1 0.443565 0.888655 0.745654
O O2 0.250028 0.000000 0.956394
O O3 0.000000 0.930335 0.000000
O O4 0.080725 0.866580 0.099971
O O5 0.500000 0.618178 0.500000
O O6 0.309776 0.500000 0.558455
O O7 0.557958 0.587201 0.285470
O O8 0.141601 0.625353 0.624424
O O9 0.611312 0.244039 0.651664
O O10 0.650959 0.360579 0.725900
O O11 0.582977 0.236499 0.853292
O O12 0.000000 0.262026 0.500000
O O13 0.718169 0.209542 0.258536
O O14 0.273760 0.168793 0.568612
O O15 0.473321 0.500000 0.200714
O O16 0.808631 0.601702 0.973226
O O17 0.275074 0.668300 0.127291
O O18 0.022174 0.268419 0.164535
#
# Coordination Sequence:
#
# PCOD8065922 Si02
#       8
#     4   4   4   4   4   2   4   4
#     4   9  18  34  55  84 123 156 182 220 275 341
#     4  10  22  38  55  79 112 149 189 234 292 351
#     4  11  22  38  59  81 113 149 195 244 289 343
#     4  10  21  36  58  89 116 147 190 235 283 337
#     4  10  22  38  55  80 109 146 193 239 293 347
#     4  10  22  38  53  82 107 146 192 232 292 344
#     4  10  21  35  58  90 117 148 189 232 286 340
#     4  11  22  38  60  81 114 148 190 244 290 342
#
# _framework density 19.966135999999999
#
# number of rings (size 3 to 8) (size 9 to 14) (size 15 to 20)
#    0.000    1.867    0.000    4.400    3.733    1.333 
#    2.400   14.333    0.000    0.400    0.000   12.133 
#    0.000    0.000    0.000    0.000    0.000    0.000 
#
# Total GULP energy -371817.548976 kJ/mol
# GULP energy per Si atom -12393.918299 kJ/mol
# Density = 1.992069 g / cm^3
# Si number density = 19.966136 Si / 1000 Ang^3
#
#
#
# Elastic Constant Matrix: (Units=GPa)
#
#
# Indices 1 2 3 4 5 6 
#
# 1 84.4125 30.6534 38.2097 0.0000 2.1077 0.0000
# 2 30.6534 111.1000 38.9452 0.0000 -1.8746 0.0000
# 3 38.2097 38.9452 116.9345 0.0000 12.1645 0.0000
# 4 0.0000 0.0000 0.0000 23.9513 0.0000 0.8544
# 5 2.1077 -1.8746 12.1645 0.0000 32.4635 0.0000
# 6 0.0000 0.0000 0.0000 0.8544 0.0000 3.7645
#
#
#
# Elastic Compliance Matrix: (Units=1/GPa)
#
#
# Indices 1 2 3 4 5 6 
#
# 1 0.014571 -0.002640 -0.003921 0.000000 0.000371 0.000000
# 2 -0.002640 0.010787 -0.002927 0.000000 0.001891 0.000000
# 3 -0.003921 -0.002927 0.011237 0.000000 -0.004125 0.000000
# 4 0.000000 0.000000 0.000000 0.042092 0.000000 -0.009553
# 5 0.000371 0.001891 -0.004125 0.000000 0.032435 0.000000
# 6 0.000000 0.000000 0.000000 -0.009553 0.000000 0.267811
#
#
# Mechanical properties :
#
#
# Convention : Reuss Voigt Hill
#
# Bulk Modulus (GPa) = 56.75218 58.67374 57.71296
# Shear Modulus (GPa) = 12.38299 25.67842 19.03070
#
# Velocity S-wave (km/s) = 2.49308 3.59011 3.09066
# Velocity P-wave (km/s) = 6.06409 6.82903 6.45790
#
# Compressibility (1/GPa) = 0.01762047
#
# Stress axis : x y z
#
# Youngs Moduli (GPa) = 68.63178 92.70349 88.99333
#
# Poissons Ratio (x) = 0.24470 0.34890
# Poissons Ratio (y) = 0.18116 0.26047
# Poissons Ratio (z) = 0.26907 0.27133
#
# Static dielectric constant tensor:
#      x y z
#    x 3.572570 0.000000 0.157530 
#    y 0.000000 3.663120 0.000000 
#    z 0.157530 0.000000 3.938600 
# 
# 
# High freq. dielectric constant tensor:
#      x y z
#    x 1.763050 0.000000 0.011620 
#    y 0.000000 1.752450 0.000000 
#    z 0.011620 0.000000 1.800550 
# 
# From -- ./inp_files/65328.got.cif
#   From: 2010.06.25/outbox.cif.g09.slc.cpg/sg10_33_cif.got.tgz:65328.got - 2010.06.27 22:07:45.
