data_PCOD8065237
_publ_section_title
;
Structure prediction by ZEFSAII (Michael W. Deem and Ramdas Pophale) SiO2 
 PCOD8065237
Probable space group: P 2/M
;
_chemical_formula_sum "Si O2"
_cell_formula_units_Z 28
_cell_length_a 9.664331
_cell_length_b 8.710720
_cell_length_c 26.819134
_cell_angle_alpha 90.000000
_cell_angle_beta 38.222510
_cell_angle_gamma 90.000000
_cell_volume 1396.891621
_symmetry_space_group_name_H-M "P 2/M"
_symmetry_group_IT_number 10
_symmetry_cell_setting 'monoclinic'
loop_
_space_group_symop_operation_xyz
x,y,z
-x,y,-z
-x,-y,-z
x,-y,z
loop_
_atom_site_type_symbol
_atom_site_label
_atom_site_fract_x
_atom_site_fract_y
_atom_site_fract_z
Si Si1 0.805728 0.179711 0.817017
Si Si2 0.007071 0.178150 0.864626
Si Si3 0.741547 0.678158 0.566413
Si Si4 0.477832 0.179059 0.276248
Si Si5 0.712481 0.177952 0.472923
Si Si6 0.606930 0.328009 0.023901
Si Si7 0.133876 0.320076 0.303307
O O1 0.911602 0.269191 0.740441
O O2 0.947141 0.232451 0.825400
O O3 0.827529 0.000000 0.800739
O O4 0.544324 0.224039 0.896935
O O5 0.261970 0.215999 0.804928
O O6 0.858444 0.263858 0.948350
O O7 0.949552 0.000000 0.885358
O O8 0.703653 0.500000 0.565452
O O9 0.609227 0.722173 0.653170
O O10 0.646837 0.779162 0.547856
O O11 0.000000 0.718509 0.500000
O O12 0.350349 0.229980 0.262415
O O13 0.437338 0.000000 0.298424
O O14 0.500000 0.218492 0.500000
O O15 0.920224 0.280935 0.397329
O O16 0.779124 0.000000 0.449799
O O17 0.614009 0.500000 0.043586
O O18 0.500000 0.323291 0.000000
O O19 0.179486 0.500000 0.293711
#
# Coordination Sequence:
#
# PCOD8065237 Si02
#       7
#     4   4   4   4   4   4   4
#     4  10  20  37  61  87 118 156 195 240 290 346
#     4   9  20  37  60  89 117 150 196 241 286 344
#     4  11  23  40  62  89 118 154 196 240 293 349
#     4  11  23  40  62  87 117 157 200 243 289 347
#     4  11  25  43  64  88 116 153 198 243 290 348
#     4   9  17  32  56  87 120 153 190 235 290 346
#     4  12  25  41  59  86 121 156 194 241 298 351
#
# _framework density 20.044504
#
# number of rings (size 3 to 8) (size 9 to 14) (size 15 to 20)
#    0.000    1.571    1.429    3.429    2.000    5.143 
#    0.000    0.714    0.000    4.286    0.000    0.000 
#    0.000    0.000    0.000    0.000    0.000    0.000 
#
# Total GULP energy -347353.250807 kJ/mol
# GULP energy per Si atom -12405.473243 kJ/mol
# Density = 1.999888 g / cm^3
# Si number density = 20.044504 Si / 1000 Ang^3
#
#
#
# Elastic Constant Matrix: (Units=GPa)
#
#
# Indices 1 2 3 4 5 6 
#
# 1 78.3977 28.7568 10.9516 0.0000 -11.6848 0.0000
# 2 28.7568 66.5089 19.9640 0.0000 -13.0232 0.0000
# 3 10.9516 19.9640 51.1261 0.0000 -13.3808 0.0000
# 4 0.0000 0.0000 0.0000 30.0757 0.0000 6.6549
# 5 -11.6848 -13.0232 -13.3808 0.0000 31.7330 0.0000
# 6 0.0000 0.0000 0.0000 6.6549 0.0000 24.3173
#
#
#
# Elastic Compliance Matrix: (Units=1/GPa)
#
#
# Indices 1 2 3 4 5 6 
#
# 1 0.015455 -0.006024 -0.000130 0.000000 0.003164 0.000000
# 2 -0.006024 0.020028 -0.005575 0.000000 0.003651 0.000000
# 3 -0.000130 -0.005575 0.023777 0.000000 0.007690 0.000000
# 4 0.000000 0.000000 0.000000 0.035393 0.000000 -0.009686
# 5 0.003164 0.003651 0.007690 0.000000 0.037419 0.000000
# 6 0.000000 0.000000 0.000000 -0.009686 0.000000 0.043774
#
#
# Mechanical properties :
#
#
# Convention : Reuss Voigt Hill
#
# Bulk Modulus (GPa) = 27.93130 35.04194 31.48662
# Shear Modulus (GPa) = 23.67007 26.31589 24.99298
#
# Velocity S-wave (km/s) = 3.44012 3.62729 3.53494
# Velocity P-wave (km/s) = 5.45381 5.92140 5.69241
#
# Compressibility (1/GPa) = 0.03580213
#
# Stress axis : x y z
#
# Youngs Moduli (GPa) = 64.70512 49.92929 42.05752
#
# Poissons Ratio (x) = 0.30075 0.00548
# Poissons Ratio (y) = 0.38976 0.23447
# Poissons Ratio (z) = 0.00844 0.27835
#
# Static dielectric constant tensor:
#      x y z
#    x 3.606000 0.000000 -0.044010 
#    y 0.000000 3.674040 0.000000 
#    z -0.044010 0.000000 3.687010 
# 
# 
# High freq. dielectric constant tensor:
#      x y z
#    x 1.769900 0.000000 -0.001450 
#    y 0.000000 1.790960 0.000000 
#    z -0.001450 0.000000 1.785550 
# 
# From -- ./inp_files/91942.got.cif
#   From: 2010.06.25/outbox.cif.g09.slc.cpg/sg10_46_cif.got.tgz:91942.got - 2010.06.27 22:07:45.
