data_PCOD8065318
_publ_section_title
;
Structure prediction by ZEFSAII (Michael W. Deem and Ramdas Pophale) SiO2 
 PCOD8065318
Probable space group: P 2/M
;
_chemical_formula_sum "Si O2"
_cell_formula_units_Z 32
_cell_length_a 21.227833
_cell_length_b 13.839275
_cell_length_c 15.008321
_cell_angle_alpha 90.000000
_cell_angle_beta 157.018581
_cell_angle_gamma 90.000000
_cell_volume 1721.460935
_symmetry_space_group_name_H-M "P 2/M"
_symmetry_group_IT_number 10
_symmetry_cell_setting 'monoclinic'
loop_
_space_group_symop_operation_xyz
x,y,z
-x,y,-z
-x,-y,-z
x,-y,z
loop_
_atom_site_type_symbol
_atom_site_label
_atom_site_fract_x
_atom_site_fract_y
_atom_site_fract_z
Si Si1 0.526201 0.111797 0.268738
Si Si2 0.739188 0.746931 0.128042
Si Si3 0.040258 0.225868 0.953332
Si Si4 0.513802 0.612247 0.119358
Si Si5 0.162273 0.889660 0.428264
Si Si6 0.952482 0.260531 0.576022
Si Si7 0.121944 0.389087 0.374038
Si Si8 0.641712 0.112330 0.613549
O O1 0.651542 0.134381 0.351516
O O2 0.585518 0.147973 0.442640
O O3 0.491243 0.000000 0.231187
O O4 0.358545 0.157619 0.022194
O O5 0.858720 0.729205 0.201080
O O6 0.845215 0.765250 0.352552
O O7 0.616904 0.658830 0.984849
O O8 0.222789 0.188908 0.178851
O O9 0.994906 0.320297 0.835762
O O10 0.000000 0.257457 0.000000
O O11 0.931126 0.133667 0.784989
O O12 0.473593 0.500000 0.062565
O O13 0.687403 0.631273 0.391968
O O14 0.500000 0.654911 0.000000
O O15 0.083711 0.824733 0.401875
O O16 0.138440 0.000000 0.425231
O O17 0.907020 0.364162 0.559497
O O18 0.077409 0.500000 0.296275
O O19 0.500000 0.122949 0.500000
O O20 0.702060 0.000000 0.689296
#
# Coordination Sequence:
#
# PCOD8065318 Si02
#       8
#     4   4   4   4   4   4   4   4
#     4  10  22  37  57  86 118 155 195 240 287 341
#     4  11  22  37  58  84 120 152 196 238 291 349
#     4  11  21  36  61  84 111 148 191 240 291 341
#     4  10  20  37  63  87 109 144 188 239 291 343
#     4  10  21  37  57  83 114 151 197 240 285 341
#     4  10  23  37  56  86 115 159 191 237 293 344
#     4  10  22  40  60  86 116 148 192 238 290 351
#     4  10  22  38  58  87 119 153 192 236 288 342
#
# _framework density 18.588863
#
# number of rings (size 3 to 8) (size 9 to 14) (size 15 to 20)
#    0.000    1.750    2.500    1.875    3.500    2.250 
#    0.000    3.750    0.000    0.375    0.000    0.000 
#    0.000    0.000    0.000    0.000    0.000    0.000 
#
# Total GULP energy -396638.684246 kJ/mol
# GULP energy per Si atom -12394.958883 kJ/mol
# Density = 1.854655 g / cm^3
# Si number density = 18.588863 Si / 1000 Ang^3
#
#
#
# Elastic Constant Matrix: (Units=GPa)
#
#
# Indices 1 2 3 4 5 6 
#
# 1 103.3060 50.5483 46.3241 0.0000 15.3370 0.0000
# 2 50.5483 89.5305 59.6038 0.0000 12.9353 0.0000
# 3 46.3241 59.6038 118.6243 0.0000 13.3791 0.0000
# 4 0.0000 0.0000 0.0000 28.1363 0.0000 -6.6464
# 5 15.3370 12.9353 13.3791 0.0000 29.9954 0.0000
# 6 0.0000 0.0000 0.0000 -6.6464 0.0000 18.3735
#
#
#
# Elastic Compliance Matrix: (Units=1/GPa)
#
#
# Indices 1 2 3 4 5 6 
#
# 1 0.014117 -0.006078 -0.002044 0.000000 -0.003686 0.000000
# 2 -0.006078 0.019791 -0.007327 0.000000 -0.002159 0.000000
# 3 -0.002044 -0.007327 0.013094 0.000000 -0.001636 0.000000
# 4 0.000000 0.000000 0.000000 0.038862 0.000000 0.014058
# 5 -0.003686 -0.002159 -0.001636 0.000000 0.036884 0.000000
# 6 0.000000 0.000000 0.000000 0.014058 0.000000 0.059512
#
#
# Mechanical properties :
#
#
# Convention : Reuss Voigt Hill
#
# Bulk Modulus (GPa) = 62.09028 69.37926 65.73477
# Shear Modulus (GPa) = 22.88074 25.63333 24.25704
#
# Velocity S-wave (km/s) = 3.51220 3.71747 3.61629
# Velocity P-wave (km/s) = 7.06554 7.47196 7.27159
#
# Compressibility (1/GPa) = 0.01610558
#
# Stress axis : x y z
#
# Youngs Moduli (GPa) = 70.83476 50.52913 76.37053
#
# Poissons Ratio (x) = 0.30709 0.15607
# Poissons Ratio (y) = 0.43050 0.55957
# Poissons Ratio (z) = 0.14475 0.37023
#
# Static dielectric constant tensor:
#      x y z
#    x 3.575110 0.000000 0.015410 
#    y 0.000000 3.312230 0.000000 
#    z 0.015410 0.000000 3.550780 
# 
# 
# High freq. dielectric constant tensor:
#      x y z
#    x 1.723110 0.000000 0.004280 
#    y 0.000000 1.712190 0.000000 
#    z 0.004280 0.000000 1.726290 
# 
# From -- ./inp_files/25298.got.cif
#   From: 2010.06.25/outbox.cif.g09.slc.cpg/sg10_13_cif.got.tgz:25298.got - 2010.06.27 22:07:45.
