data_PCOD8065832
_publ_section_title
;
Structure prediction by ZEFSAII (Michael W. Deem and Ramdas Pophale) SiO2 
 PCOD8065832
Probable space group: P 2/M
;
_chemical_formula_sum "Si O2"
_cell_formula_units_Z 28
_cell_length_a 14.874820
_cell_length_b 9.094164
_cell_length_c 12.346395
_cell_angle_alpha 90.000000
_cell_angle_beta 106.102473
_cell_angle_gamma 90.000000
_cell_volume 1604.622320
_symmetry_space_group_name_H-M "P 2/M"
_symmetry_group_IT_number 10
_symmetry_cell_setting 'monoclinic'
loop_
_space_group_symop_operation_xyz
x,y,z
-x,y,-z
-x,-y,-z
x,-y,z
loop_
_atom_site_type_symbol
_atom_site_label
_atom_site_fract_x
_atom_site_fract_y
_atom_site_fract_z
Si Si1 0.221556 0.173494 0.694072
Si Si2 0.098627 0.671331 0.485709
Si Si3 0.088013 0.672330 0.230553
Si Si4 0.103465 0.171627 0.862574
Si Si5 0.393981 0.330102 0.089650
Si Si6 0.606227 0.669614 0.160100
Si Si7 0.221439 0.171949 0.114363
O O1 0.181460 0.239670 0.570200
O O2 0.157143 0.224796 0.772988
O O3 0.326563 0.231458 0.744378
O O4 0.224930 0.000000 0.685791
O O5 0.113205 0.500000 0.514872
O O6 0.101659 0.708500 0.360721
O O7 0.000000 0.726524 0.500000
O O8 0.086199 0.500000 0.206881
O O9 0.174344 0.744957 0.198114
O O10 0.991634 0.739265 0.154960
O O11 0.078705 0.000000 0.849007
O O12 0.167599 0.209685 0.986008
O O13 0.366007 0.500000 0.095221
O O14 0.500176 0.303392 0.164015
O O15 0.327464 0.228914 0.140169
O O16 0.383577 0.283352 0.961268
O O17 0.634132 0.500000 0.183956
O O18 0.221991 0.000000 0.139384
#
# Coordination Sequence:
#
# PCOD8065832 Si02
#       7
#     4   4   4   4   4   4   4
#     4  11  21  33  54  82 111 141 177 217 265 320
#     4  10  21  38  56  76 103 138 182 228 269 310
#     4  11  23  37  55  77 103 141 187 226 263 314
#     4  10  21  35  50  76 112 146 175 212 264 318
#     4   9  18  33  54  80 108 141 180 217 260 315
#     4   9  18  33  54  80 110 141 175 220 266 310
#     4  11  22  36  53  77 113 148 176 215 267 320
#
# _framework density 17.449591000000002
#
# number of rings (size 3 to 8) (size 9 to 14) (size 15 to 20)
#    0.000    1.857    2.857    2.571    0.000    5.429 
#    0.000    1.429    0.000    0.857    0.000    6.000 
#    0.000    0.000    0.000    0.000    0.000    0.000 
#
# Total GULP energy -347339.497727 kJ/mol
# GULP energy per Si atom -12404.982062 kJ/mol
# Density = 1.740987 g / cm^3
# Si number density = 17.449591 Si / 1000 Ang^3
#
#
#
# Elastic Constant Matrix: (Units=GPa)
#
#
# Indices 1 2 3 4 5 6 
#
# 1 118.0913 51.3450 42.8397 0.0000 -0.4284 0.0000
# 2 51.3450 67.0519 40.7509 0.0000 -0.8660 0.0000
# 3 42.8397 40.7509 66.1935 0.0000 2.2602 0.0000
# 4 0.0000 0.0000 0.0000 25.9829 0.0000 0.8710
# 5 -0.4284 -0.8660 2.2602 0.0000 28.8529 0.0000
# 6 0.0000 0.0000 0.0000 0.8710 0.0000 30.8281
#
#
#
# Elastic Compliance Matrix: (Units=1/GPa)
#
#
# Indices 1 2 3 4 5 6 
#
# 1 0.013246 -0.007868 -0.003737 0.000000 0.000253 0.000000
# 2 -0.007868 0.028605 -0.012577 0.000000 0.001727 0.000000
# 3 -0.003737 -0.012577 0.025351 0.000000 -0.002419 0.000000
# 4 0.000000 0.000000 0.000000 0.038523 0.000000 -0.001088
# 5 0.000253 0.001727 -0.002419 0.000000 0.034904 0.000000
# 6 0.000000 0.000000 0.000000 -0.001088 0.000000 0.032469
#
#
# Mechanical properties :
#
#
# Convention : Reuss Voigt Hill
#
# Bulk Modulus (GPa) = 53.08635 57.91198 55.49916
# Shear Modulus (GPa) = 21.95478 24.89287 23.42382
#
# Velocity S-wave (km/s) = 3.55094 3.78108 3.66781
# Velocity P-wave (km/s) = 6.87757 7.23341 7.05773
#
# Compressibility (1/GPa) = 0.01883723
#
# Stress axis : x y z
#
# Youngs Moduli (GPa) = 75.49580 34.95905 39.44611
#
# Poissons Ratio (x) = 0.27507 0.14741
# Poissons Ratio (y) = 0.59404 0.49610
# Poissons Ratio (z) = 0.28213 0.43967
#
# Static dielectric constant tensor:
#      x y z
#    x 3.244960 0.000000 0.001730 
#    y 0.000000 3.205760 0.000000 
#    z 0.001730 0.000000 3.107870 
# 
# 
# High freq. dielectric constant tensor:
#      x y z
#    x 1.674470 0.000000 0.005900 
#    y 0.000000 1.678750 0.000000 
#    z 0.005900 0.000000 1.657400 
# 
# From -- ./inp_files/49112.got.cif
#   From: 2010.06.25/outbox.cif.g09.slc.cpg/sg10_25_cif.got.tgz:49112.got - 2010.06.27 22:07:45.
