data_PCOD8065921
_publ_section_title
;
Structure prediction by ZEFSAII (Michael W. Deem and Ramdas Pophale) SiO2 
 PCOD8065921
Probable space group: P 2/M
;
_chemical_formula_sum "Si O2"
_cell_formula_units_Z 28
_cell_length_a 8.950920
_cell_length_b 11.882932
_cell_length_c 13.880619
_cell_angle_alpha 90.000000
_cell_angle_beta 112.657744
_cell_angle_gamma 90.000000
_cell_volume 1362.442777
_symmetry_space_group_name_H-M "P 2/M"
_symmetry_group_IT_number 10
_symmetry_cell_setting 'monoclinic'
loop_
_space_group_symop_operation_xyz
x,y,z
-x,y,-z
-x,-y,-z
x,-y,z
loop_
_atom_site_type_symbol
_atom_site_label
_atom_site_fract_x
_atom_site_fract_y
_atom_site_fract_z
Si Si1 0.619873 0.263730 0.452206
Si Si2 0.138907 0.731352 0.768412
Si Si3 0.235908 0.500000 0.489502
Si Si4 0.454842 0.871736 0.879486
Si Si5 0.901349 0.500000 0.335307
Si Si6 0.153905 0.131869 0.372890
Si Si7 0.935355 0.628006 0.876796
Si Si8 0.355558 0.221179 0.242568
O O1 0.500000 0.210784 0.500000
O O2 0.654691 0.390644 0.493775
O O3 0.775790 0.184220 0.509049
O O4 0.533840 0.258997 0.326602
O O5 0.308738 0.791143 0.817808
O O6 0.174139 0.612025 0.727767
O O7 0.020641 0.810266 0.677662
O O8 0.058582 0.708581 0.851565
O O9 0.144305 0.500000 0.566129
O O10 0.097539 0.500000 0.372031
O O11 0.605815 0.851908 0.843542
O O12 0.397696 0.000000 0.855780
O O13 0.500000 0.843588 0.000000
O O14 0.259818 0.153753 0.302086
O O15 0.132428 0.000000 0.381667
O O16 0.940695 0.500000 0.838531
O O17 0.751339 0.672225 0.818346
O O18 0.000000 0.632591 0.000000
#
# Coordination Sequence:
#
# PCOD8065921 Si02
#       8
#     4   4   2   4   2   4   4   4
#     4  10  21  35  58  87 117 152 190 240 293 350
#     4  11  21  40  62  87 118 158 198 242 294 353
#     4  11  21  36  54  82 120 153 192 232 284 356
#     4  11  24  42  62  86 120 159 202 250 296 347
#     4  11  22  36  60  80 118 158 190 236 290 350
#     4  10  21  38  61  88 117 154 199 241 292 353
#     4  10  21  38  61  88 119 154 196 248 298 350
#     4  10  22  38  60  89 120 156 195 247 299 349
#
# _framework density 20.551321999999999
#
# number of rings (size 3 to 8) (size 9 to 14) (size 15 to 20)
#    0.000    1.571    2.143    2.786    1.000    3.143 
#    1.286    0.357    0.000    9.429    0.000    0.000 
#    0.000    0.000    0.000    0.000    0.000    0.000 
#
# Total GULP energy -347047.281746 kJ/mol
# GULP energy per Si atom -12394.545777 kJ/mol
# Density = 2.050455 g / cm^3
# Si number density = 20.551322 Si / 1000 Ang^3
#
#
#
# Elastic Constant Matrix: (Units=GPa)
#
#
# Indices 1 2 3 4 5 6 
#
# 1 64.5369 27.8572 31.7544 0.0000 7.2297 0.0000
# 2 27.8572 136.9191 46.6903 0.0000 26.2960 0.0000
# 3 31.7544 46.6903 106.4522 0.0000 13.3009 0.0000
# 4 0.0000 0.0000 0.0000 19.3662 0.0000 7.4805
# 5 7.2297 26.2960 13.3009 0.0000 27.8812 0.0000
# 6 0.0000 0.0000 0.0000 7.4805 0.0000 21.9870
#
#
#
# Elastic Compliance Matrix: (Units=1/GPa)
#
#
# Indices 1 2 3 4 5 6 
#
# 1 0.018737 -0.002123 -0.004574 0.000000 -0.000674 0.000000
# 2 -0.002123 0.010194 -0.002877 0.000000 -0.007691 0.000000
# 3 -0.004574 -0.002877 0.012264 0.000000 -0.001951 0.000000
# 4 0.000000 0.000000 0.000000 0.059449 0.000000 -0.020226
# 5 -0.000674 -0.007691 -0.001951 0.000000 0.044226 0.000000
# 6 0.000000 0.000000 0.000000 -0.020226 0.000000 0.052363
#
#
# Mechanical properties :
#
#
# Convention : Reuss Voigt Hill
#
# Bulk Modulus (GPa) = 45.35621 57.83465 51.59543
# Shear Modulus (GPa) = 22.34843 27.28730 24.81786
#
# Velocity S-wave (km/s) = 3.30122 3.64780 3.47883
# Velocity P-wave (km/s) = 6.05379 6.77825 6.42624
#
# Compressibility (1/GPa) = 0.02204770
#
# Stress axis : x y z
#
# Youngs Moduli (GPa) = 53.36900 98.10043 81.54078
#
# Poissons Ratio (x) = 0.20827 0.37296
# Poissons Ratio (y) = 0.11330 0.23457
# Poissons Ratio (z) = 0.24410 0.28220
#
# Static dielectric constant tensor:
#      x y z
#    x 3.660960 0.000000 0.039410 
#    y 0.000000 3.596350 0.000000 
#    z 0.039410 0.000000 4.002710 
# 
# 
# High freq. dielectric constant tensor:
#      x y z
#    x 1.801090 0.000000 0.001200 
#    y 0.000000 1.803080 0.000000 
#    z 0.001200 0.000000 1.811790 
# 
# From -- ./inp_files/61289.got.cif
#   From: 2010.06.25/outbox.cif.g09.slc.cpg/sg10_31_cif.got.tgz:61289.got - 2010.06.27 22:07:45.
