data_PCOD8065869
_publ_section_title
;
Structure prediction by ZEFSAII (Michael W. Deem and Ramdas Pophale) SiO2 
 PCOD8065869
Probable space group: P 2/M
;
_chemical_formula_sum "Si O2"
_cell_formula_units_Z 28
_cell_length_a 9.496669
_cell_length_b 7.692295
_cell_length_c 30.743956
_cell_angle_alpha 90.000000
_cell_angle_beta 39.444857
_cell_angle_gamma 90.000000
_cell_volume 1426.888257
_symmetry_space_group_name_H-M "P 2/M"
_symmetry_group_IT_number 10
_symmetry_cell_setting 'monoclinic'
loop_
_space_group_symop_operation_xyz
x,y,z
-x,y,-z
-x,-y,-z
x,-y,z
loop_
_atom_site_type_symbol
_atom_site_label
_atom_site_fract_x
_atom_site_fract_y
_atom_site_fract_z
Si Si1 0.156721 0.300535 0.299230
Si Si2 0.152879 0.699468 0.700767
Si Si3 0.034910 0.794744 0.423083
Si Si4 0.650335 0.794744 0.576914
Si Si5 0.346529 0.298408 0.826630
Si Si6 0.241300 0.000000 0.068856
Si Si7 0.979679 0.701592 0.173371
Si Si8 0.914422 0.000000 0.068856
O O1 0.178010 0.500000 0.282369
O O2 0.048946 0.284468 0.372176
O O3 0.404472 0.223810 0.238182
O O4 0.997184 0.210001 0.301127
O O5 0.089878 0.500000 0.717624
O O6 0.409829 0.715551 0.627821
O O7 0.095386 0.776191 0.761816
O O8 0.238147 0.727947 0.404741
O O9 0.803239 0.735162 0.499998
O O10 0.044752 0.000000 0.417330
O O11 0.631445 0.000000 0.582660
O O12 0.335339 0.500000 0.844936
O O13 0.232597 0.277120 0.806961
O O14 0.227770 0.175518 0.890108
O O15 0.178307 0.175518 0.109893
O O16 0.500000 0.000000 0.000000
O O17 0.125404 0.000000 0.049839
O O18 0.060017 0.500000 0.155066
O O19 0.000000 0.000000 0.000000
#
# Coordination Sequence:
#
# PCOD8065869 Si02
#       8
#     4   4   4   4   4   2   4   2
#     4  10  21  35  52  78 109 140 177 223 276 327
#     4  10  21  35  52  78 109 140 177 223 276 327
#     4   9  19  35  53  74 102 139 183 227 271 322
#     4   9  19  35  53  74 102 139 183 227 271 322
#     4   9  19  37  58  80 110 147 185 225 268 319
#     4  10  22  38  58  86 113 142 181 220 266 327
#     4   9  19  37  58  80 110 147 185 225 268 319
#     4  10  22  38  58  86 113 142 181 220 266 327
#
# _framework density 19.623121000000001
#
# number of rings (size 3 to 8) (size 9 to 14) (size 15 to 20)
#    0.000    2.571    0.000    1.714    2.000    5.143 
#    0.000    4.286    0.000    0.000    0.000    0.000 
#    0.000    0.000    0.000    0.000    0.000    0.000 
#
# Total GULP energy -347101.938337 kJ/mol
# GULP energy per Si atom -12396.497798 kJ/mol
# Density = 1.957846 g / cm^3
# Si number density = 19.623121 Si / 1000 Ang^3
#
#
#
# Elastic Constant Matrix: (Units=GPa)
#
#
# Indices 1 2 3 4 5 6 
#
# 1 133.1216 34.9493 99.5946 0.0000 -2.3070 0.0000
# 2 34.9493 64.0490 43.2865 0.0000 -0.4247 0.0000
# 3 99.5946 43.2865 163.9849 0.0000 0.7384 0.0000
# 4 0.0000 0.0000 0.0000 30.2923 0.0000 -0.6910
# 5 -2.3070 -0.4247 0.7384 0.0000 39.3118 0.0000
# 6 0.0000 0.0000 0.0000 -0.6910 0.0000 16.7012
#
#
#
# Elastic Compliance Matrix: (Units=1/GPa)
#
#
# Indices 1 2 3 4 5 6 
#
# 1 0.014079 -0.002306 -0.007946 0.000000 0.000951 0.000000
# 2 -0.002306 0.019384 -0.003717 0.000000 0.000144 0.000000
# 3 -0.007946 -0.003717 0.011909 0.000000 -0.000730 0.000000
# 4 0.000000 0.000000 0.000000 0.033043 0.000000 0.001367
# 5 0.000951 0.000144 -0.000730 0.000000 0.025509 0.000000
# 6 0.000000 0.000000 0.000000 0.001367 0.000000 0.059933
#
#
# Mechanical properties :
#
#
# Convention : Reuss Voigt Hill
#
# Bulk Modulus (GPa) = 57.36035 79.64625 68.50330
# Shear Modulus (GPa) = 25.30302 29.48273 27.39288
#
# Velocity S-wave (km/s) = 3.59479 3.88035 3.74029
# Velocity P-wave (km/s) = 6.82088 7.79437 7.32382
#
# Compressibility (1/GPa) = 0.01743365
#
# Stress axis : x y z
#
# Youngs Moduli (GPa) = 71.02966 51.58819 83.97258
#
# Poissons Ratio (x) = 0.11894 0.66726
# Poissons Ratio (y) = 0.16377 0.31214
# Poissons Ratio (z) = 0.56441 0.19176
#
# Static dielectric constant tensor:
#      x y z
#    x 4.041600 0.000000 0.023070 
#    y 0.000000 3.575260 0.000000 
#    z 0.023070 0.000000 3.578290 
# 
# 
# High freq. dielectric constant tensor:
#      x y z
#    x 1.764630 0.000000 0.000340 
#    y 0.000000 1.760420 0.000000 
#    z 0.000340 0.000000 1.757930 
# 
# From -- ./inp_files/37199.got.cif
#   From: 2010.06.25/outbox.cif.g09.slc.cpg/sg10_19_cif.got.tgz:37199.got - 2010.06.27 22:07:45.
