data_PCOD8065604
_publ_section_title
;
Structure prediction by ZEFSAII (Michael W. Deem and Ramdas Pophale) SiO2 
 PCOD8065604
Probable space group: P 2/M
;
_chemical_formula_sum "Si O2"
_cell_formula_units_Z 32
_cell_length_a 12.319013
_cell_length_b 8.931026
_cell_length_c 14.442731
_cell_angle_alpha 90.000000
_cell_angle_beta 89.978222
_cell_angle_gamma 90.000000
_cell_volume 1589.009736
_symmetry_space_group_name_H-M "P 2/M"
_symmetry_group_IT_number 10
_symmetry_cell_setting 'monoclinic'
loop_
_space_group_symop_operation_xyz
x,y,z
-x,y,-z
-x,-y,-z
x,-y,z
loop_
_atom_site_type_symbol
_atom_site_label
_atom_site_fract_x
_atom_site_fract_y
_atom_site_fract_z
Si Si1 0.324080 0.823290 0.008181
Si Si2 0.884262 0.674747 0.959759
Si Si3 0.373633 0.671358 0.202665
Si Si4 0.222068 0.832354 0.343654
Si Si5 0.173748 0.322621 0.722447
Si Si6 0.880862 0.175506 0.469024
Si Si7 0.964424 0.170199 0.790000
Si Si8 0.613139 0.671342 0.169542
O O1 0.204865 0.762193 0.979854
O O2 0.350877 0.761613 0.109287
O O3 0.328846 0.000000 0.011944
O O4 0.401434 0.765781 0.925667
O O5 0.858380 0.500000 0.961138
O O6 0.882217 0.739158 0.856118
O O7 0.000000 0.715730 0.000000
O O8 0.342200 0.500000 0.183161
O O9 0.305801 0.724937 0.291534
O O10 0.501251 0.688608 0.226669
O O11 0.208905 0.791192 0.451513
O O12 0.097587 0.825180 0.307538
O O13 0.267624 0.000000 0.330520
O O14 0.160487 0.500000 0.724774
O O15 0.163464 0.265386 0.618373
O O16 0.079702 0.251749 0.785487
O O17 0.289242 0.271214 0.765021
O O18 0.000000 0.232634 0.500000
O O19 0.886596 0.000000 0.443846
O O20 0.981226 0.000000 0.824697
O O21 0.633713 0.500000 0.140267
#
# Coordination Sequence:
#
# PCOD8065604 Si02
#       8
#     4   4   4   4   4   4   4   4
#     4  12  24  38  60  90 120 155 202 252 298 352
#     4  11  23  37  54  81 119 160 199 241 292 353
#     4  11  23  41  65  87 117 161 206 250 299 352
#     4  10  21  38  61  89 120 152 192 245 298 353
#     4  11  23  39  61  90 123 156 200 250 297 358
#     4  10  20  39  63  88 122 159 194 239 300 362
#     4  11  21  36  58  85 120 157 193 239 298 354
#     4  10  24  44  61  84 120 162 203 250 302 350
#
# _framework density 20.138325999999999
#
# number of rings (size 3 to 8) (size 9 to 14) (size 15 to 20)
#    0.000    1.250    2.500    3.750    0.000    8.750 
#    0.000    0.625    0.000    3.750    0.000    0.000 
#    0.000    0.000    0.000    0.000    0.000    0.000 
#
# Total GULP energy -396840.299723 kJ/mol
# GULP energy per Si atom -12401.259366 kJ/mol
# Density = 2.009249 g / cm^3
# Si number density = 20.138326 Si / 1000 Ang^3
#
#
#
# Elastic Constant Matrix: (Units=GPa)
#
#
# Indices 1 2 3 4 5 6 
#
# 1 99.5811 37.1179 23.5209 0.0000 -12.5657 0.0000
# 2 37.1179 101.3636 26.5763 0.0000 -8.0825 0.0000
# 3 23.5209 26.5763 69.0472 0.0000 -8.3712 0.0000
# 4 0.0000 0.0000 0.0000 15.1989 0.0000 -20.9659
# 5 -12.5657 -8.0825 -8.3712 0.0000 25.1818 0.0000
# 6 0.0000 0.0000 0.0000 -20.9659 0.0000 15.8448
#
#
#
# Elastic Compliance Matrix: (Units=1/GPa)
#
#
# Indices 1 2 3 4 5 6 
#
# 1 0.012484 -0.003616 -0.002341 0.000000 0.004291 0.000000
# 2 -0.003616 0.012139 -0.003321 0.000000 0.000988 0.000000
# 3 -0.002341 -0.003321 0.016972 0.000000 0.003408 0.000000
# 4 0.000000 0.000000 0.000000 -0.079724 0.000000 -0.105491
# 5 0.004291 0.000988 0.003408 0.000000 0.043302 0.000000
# 6 0.000000 0.000000 0.000000 -0.105491 0.000000 -0.076474
#
#
# Mechanical properties :
#
#
# Convention : Reuss Voigt Hill
#
# Bulk Modulus (GPa) = 43.40257 49.38022 46.39140
# Shear Modulus (GPa) = -110.94769 23.43022 -43.75873
#
# Velocity S-wave (km/s) = -7.43051 3.41466 -4.66650
# Velocity P-wave (km/s) = 7.21232 6.33406 2.43898
#
# Compressibility (1/GPa) = 0.02304011
#
# Stress axis : x y z
#
# Youngs Moduli (GPa) = 80.10183 82.37955 58.92186
#
# Poissons Ratio (x) = 0.29785 0.13793
# Poissons Ratio (y) = 0.28962 0.19567
# Poissons Ratio (z) = 0.18750 0.27357
#
# Static dielectric constant tensor:
#      x y z
#    x 3.820690 0.000000 -0.086330 
#    y 0.000000 3.615040 0.000000 
#    z -0.086330 0.000000 3.623960 
# 
# 
# High freq. dielectric constant tensor:
#      x y z
#    x 1.790130 0.000000 -0.009070 
#    y 0.000000 1.787650 0.000000 
#    z -0.009070 0.000000 1.780720 
# 
# From -- ./inp_files/63791.got.cif
#   From: 2010.06.25/outbox.cif.g09.slc.cpg/sg10_32_cif.got.tgz:63791.got - 2010.06.27 22:07:45.
