data_PCOD8065701
_publ_section_title
;
Structure prediction by ZEFSAII (Michael W. Deem and Ramdas Pophale) SiO2 
 PCOD8065701
Probable space group: P 2/M
;
_chemical_formula_sum "Si O2"
_cell_formula_units_Z 16
_cell_length_a 12.732069
_cell_length_b 7.656316
_cell_length_c 9.462260
_cell_angle_alpha 90.000000
_cell_angle_beta 121.101358
_cell_angle_gamma 90.000000
_cell_volume 789.799312
_symmetry_space_group_name_H-M "P 2/M"
_symmetry_group_IT_number 10
_symmetry_cell_setting 'monoclinic'
loop_
_space_group_symop_operation_xyz
x,y,z
-x,y,-z
-x,-y,-z
x,-y,z
loop_
_atom_site_type_symbol
_atom_site_label
_atom_site_fract_x
_atom_site_fract_y
_atom_site_fract_z
Si Si1 0.883521 0.000000 0.516688
Si Si2 0.248511 0.700510 0.985061
Si Si3 0.532777 0.301053 0.673472
Si Si4 0.946346 0.000000 0.116094
Si Si5 0.670545 0.193334 0.256509
O O1 0.802235 0.827082 0.427093
O O2 0.000000 0.000000 0.500000
O O3 0.928989 0.000000 0.707815
O O4 0.209111 0.500000 0.989183
O O5 0.314513 0.701729 0.878424
O O6 0.131081 0.826107 0.904096
O O7 0.344429 0.775994 0.168387
O O8 0.500000 0.206941 0.500000
O O9 0.563372 0.500000 0.661625
O O10 0.419844 0.293459 0.702350
O O11 0.000000 0.000000 0.000000
O O12 0.616998 0.000000 0.185377
#
# Coordination Sequence:
#
# PCOD8065701 Si02
#       5
#     2   4   4   2   4
#     4  10  20  43  60  91 121 158 209 256 292 370
#     4  11  23  42  66  92 123 164 207 250 311 369
#     4  10  23  40  59  93 129 157 203 259 310 371
#     4  12  26  43  66  89 129 162 205 262 302 356
#     4  10  21  37  67  88 124 158 206 254 303 360
#
# _framework density 20.258310000000002
#
# number of rings (size 3 to 8) (size 9 to 14) (size 15 to 20)
#    0.750    0.750    3.750    1.500    5.250    4.000 
#    0.000    3.750    0.000    0.000    0.000    0.000 
#    0.000    0.000    0.000    0.000    0.000    0.000 
#
# Total GULP energy -198298.036177 kJ/mol
# GULP energy per Si atom -12393.627261 kJ/mol
# Density = 2.021220 g / cm^3
# Si number density = 20.258310 Si / 1000 Ang^3
#
#
#
# Elastic Constant Matrix: (Units=GPa)
#
#
# Indices 1 2 3 4 5 6 
#
# 1 68.7429 11.4610 30.4084 0.0000 -12.8894 0.0000
# 2 11.4610 73.2241 25.7676 0.0000 3.6057 0.0000
# 3 30.4084 25.7676 168.0988 0.0000 2.5257 0.0000
# 4 0.0000 0.0000 0.0000 23.8598 0.0000 1.6004
# 5 -12.8894 3.6057 2.5257 0.0000 42.0630 0.0000
# 6 0.0000 0.0000 0.0000 1.6004 0.0000 14.3864
#
#
#
# Elastic Compliance Matrix: (Units=1/GPa)
#
#
# Indices 1 2 3 4 5 6 
#
# 1 0.017207 -0.001950 -0.002898 0.000000 0.005614 0.000000
# 2 -0.001950 0.014708 -0.001876 0.000000 -0.001746 0.000000
# 3 -0.002898 -0.001876 0.006778 0.000000 -0.001134 0.000000
# 4 0.000000 0.000000 0.000000 0.042227 0.000000 -0.004697
# 5 0.005614 -0.001746 -0.001134 0.000000 0.025712 0.000000
# 6 0.000000 0.000000 0.000000 -0.004697 0.000000 0.070033
#
#
# Mechanical properties :
#
#
# Convention : Reuss Voigt Hill
#
# Bulk Modulus (GPa) = 39.61144 49.48220 44.54682
# Shear Modulus (GPa) = 25.18573 32.22376 28.70474
#
# Velocity S-wave (km/s) = 3.52977 3.99261 3.76831
# Velocity P-wave (km/s) = 6.01731 6.76264 6.40083
#
# Compressibility (1/GPa) = 0.02524523
#
# Stress axis : x y z
#
# Youngs Moduli (GPa) = 58.11733 67.99082 147.54300
#
# Poissons Ratio (x) = 0.13257 0.42759
# Poissons Ratio (y) = 0.11331 0.27673
# Poissons Ratio (z) = 0.16843 0.12752
#
# Static dielectric constant tensor:
#      x y z
#    x 5.948920 0.000000 4.381390 
#    y 0.000000 3.434030 0.000000 
#    z 4.381390 0.000000 12.009460 
# 
# 
# High freq. dielectric constant tensor:
#      x y z
#    x 1.782760 0.000000 -0.002330 
#    y 0.000000 1.772760 0.000000 
#    z -0.002330 0.000000 1.809870 
# 
# From -- ./inp_files/22483.got.cif
#   From: 2010.06.25/outbox.cif.g09.slc.cpg/sg10_12_cif.got.tgz:22483.got - 2010.06.27 22:07:45.
