data_PCOD8065779
_publ_section_title
;
Structure prediction by ZEFSAII (Michael W. Deem and Ramdas Pophale) SiO2 
 PCOD8065779
Probable space group: P 2/M
;
_chemical_formula_sum "Si O2"
_cell_formula_units_Z 24
_cell_length_a 17.826331
_cell_length_b 7.722856
_cell_length_c 23.756228
_cell_angle_alpha 90.000000
_cell_angle_beta 158.828453
_cell_angle_gamma 90.000000
_cell_volume 1181.187597
_symmetry_space_group_name_H-M "P 2/M"
_symmetry_group_IT_number 10
_symmetry_cell_setting 'monoclinic'
loop_
_space_group_symop_operation_xyz
x,y,z
-x,y,-z
-x,-y,-z
x,-y,z
loop_
_atom_site_type_symbol
_atom_site_label
_atom_site_fract_x
_atom_site_fract_y
_atom_site_fract_z
Si Si1 0.302016 0.000000 0.323141
Si Si2 0.874347 0.697661 0.617958
Si Si3 0.754865 0.000000 0.840759
Si Si4 0.668813 0.805503 0.076452
Si Si5 0.502852 0.293183 0.720383
Si Si6 0.390088 0.692186 0.084512
Si Si7 0.912740 0.696652 0.769008
O O1 0.500000 0.000000 0.500000
O O2 0.173805 0.175691 0.244346
O O3 0.366901 0.000000 0.303629
O O4 0.817944 0.500000 0.585335
O O5 0.708031 0.774572 0.457629
O O6 0.850444 0.776299 0.664011
O O7 0.111002 0.711204 0.762350
O O8 0.692050 0.824413 0.829915
O O9 0.000000 0.000000 0.000000
O O10 0.706742 0.000000 0.123075
O O11 0.500000 0.717323 0.000000
O O12 0.583768 0.808916 0.952616
O O13 0.549159 0.500000 0.744165
O O14 0.468752 0.252946 0.763275
O O15 0.446915 0.500000 0.103642
O O16 0.158682 0.697376 0.946822
O O17 0.828085 0.500000 0.718861
#
# Coordination Sequence:
#
# PCOD8065779 Si02
#       7
#     2   4   2   4   4   4   4
#     4  12  24  34  52  80 105 141 184 227 287 336
#     4   9  19  36  59  83 109 152 195 230 282 332
#     4  12  26  38  56  86 113 151 192 229 301 344
#     4  10  21  34  55  89 120 147 182 231 284 330
#     4  10  22  40  60  84 114 150 195 238 278 339
#     4   9  19  36  59  81 104 147 191 225 275 330
#     4   9  19  35  54  77 105 142 187 230 273 329
#
# _framework density 20.318532999999999
#
# number of rings (size 3 to 8) (size 9 to 14) (size 15 to 20)
#    0.000    2.167    0.000    3.500    7.000    2.667 
#    0.000    0.833    0.000    5.000    0.000    0.000 
#    0.000    0.000    0.000    0.000    0.000    0.000 
#
# Total GULP energy -297424.081831 kJ/mol
# GULP energy per Si atom -12392.670076 kJ/mol
# Density = 2.027229 g / cm^3
# Si number density = 20.318533 Si / 1000 Ang^3
#
#
#
# Elastic Constant Matrix: (Units=GPa)
#
#
# Indices 1 2 3 4 5 6 
#
# 1 98.5693 32.8484 32.0646 0.0000 -4.7032 0.0000
# 2 32.8484 75.3922 12.2106 0.0000 3.2043 0.0000
# 3 32.0646 12.2106 78.8322 0.0000 -20.1861 0.0000
# 4 0.0000 0.0000 0.0000 13.0445 0.0000 -20.2036
# 5 -4.7032 3.2043 -20.1861 0.0000 32.2347 0.0000
# 6 0.0000 0.0000 0.0000 -20.2036 0.0000 -38.8176
#
#
#
# Elastic Compliance Matrix: (Units=1/GPa)
#
#
# Indices 1 2 3 4 5 6 
#
# 1 0.013350 -0.005016 -0.004796 0.000000 -0.000557 0.000000
# 2 -0.005016 0.015770 -0.001180 0.000000 -0.003039 0.000000
# 3 -0.004796 -0.001180 0.017471 0.000000 0.010358 0.000000
# 4 0.000000 0.000000 0.000000 0.042445 0.000000 -0.022092
# 5 -0.000557 -0.003039 0.010358 0.000000 0.037730 0.000000
# 6 0.000000 0.000000 0.000000 -0.022092 0.000000 -0.014263
#
#
# Mechanical properties :
#
#
# Convention : Reuss Voigt Hill
#
# Bulk Modulus (GPa) = 40.63985 45.22677 42.93331
# Shear Modulus (GPa) = 35.04102 13.00364 24.02233
#
# Velocity S-wave (km/s) = 4.15732 2.53255 3.44217
# Velocity P-wave (km/s) = 6.56423 5.55508 6.08063
#
# Compressibility (1/GPa) = 0.02460639
#
# Stress axis : x y z
#
# Youngs Moduli (GPa) = 74.90436 63.41181 57.23748
#
# Poissons Ratio (x) = 0.31810 0.27450
# Poissons Ratio (y) = 0.37575 0.06756
# Poissons Ratio (z) = 0.35922 0.07485
#
# Static dielectric constant tensor:
#      x y z
#    x 3.753840 0.000000 -0.277880 
#    y 0.000000 4.246140 0.000000 
#    z -0.277880 0.000000 3.841390 
# 
# 
# High freq. dielectric constant tensor:
#      x y z
#    x 1.781540 0.000000 -0.022760 
#    y 0.000000 1.794180 0.000000 
#    z -0.022760 0.000000 1.785520 
# 
# From -- ./inp_files/33811.got.cif
#   From: 2010.06.25/outbox.cif.g09.slc.cpg/sg10_17_cif.got.tgz:33811.got - 2010.06.27 22:07:45.
