data_PCOD8065395
_publ_section_title
;
Structure prediction by ZEFSAII (Michael W. Deem and Ramdas Pophale) SiO2 
 PCOD8065395
Probable space group: P 2/M
;
_chemical_formula_sum "Si O2"
_cell_formula_units_Z 24
_cell_length_a 8.633834
_cell_length_b 13.074415
_cell_length_c 10.829524
_cell_angle_alpha 90.000000
_cell_angle_beta 107.189922
_cell_angle_gamma 90.000000
_cell_volume 1167.854957
_symmetry_space_group_name_H-M "P 2/M"
_symmetry_group_IT_number 10
_symmetry_cell_setting 'monoclinic'
loop_
_space_group_symop_operation_xyz
x,y,z
-x,y,-z
-x,-y,-z
x,-y,z
loop_
_atom_site_type_symbol
_atom_site_label
_atom_site_fract_x
_atom_site_fract_y
_atom_site_fract_z
Si Si1 0.362965 0.384850 0.600716
Si Si2 0.439802 0.883702 0.846351
Si Si3 0.353838 0.758723 0.288496
Si Si4 0.191068 0.383945 0.054173
Si Si5 0.904652 0.264484 0.593560
Si Si6 0.777436 0.698163 0.199841
O O1 0.416175 0.500000 0.580687
O O2 0.509101 0.305936 0.606054
O O3 0.199270 0.357929 0.487336
O O4 0.325654 0.376973 0.737663
O O5 0.577146 0.849521 0.780145
O O6 0.280319 0.815045 0.791375
O O7 0.392357 0.000000 0.805136
O O8 0.500000 0.872221 0.000000
O O9 0.254425 0.678631 0.184133
O O10 0.226398 0.805041 0.360989
O O11 0.250683 0.500000 0.082600
O O12 0.264521 0.335736 0.947477
O O13 0.000000 0.376707 0.000000
O O14 0.000000 0.209541 0.500000
O O15 0.032873 0.308158 0.722462
#
# Coordination Sequence:
#
# PCOD8065395 Si02
#       6
#     4   4   4   4   4   4
#     4  10  22  36  57  86 119 163 209 242 282 347
#     4  10  21  39  65  92 118 150 191 246 312 371
#     4  11  21  38  60  85 123 154 198 252 297 347
#     4  11  21  32  54  88 125 162 192 232 300 362
#     4  10  22  38  58  80 116 161 200 240 286 337
#     4  10  20  38  58  85 123 155 193 248 297 354
#
# _framework density 20.550495999999999
#
# number of rings (size 3 to 8) (size 9 to 14) (size 15 to 20)
#    0.000    1.667    3.333    1.500    0.000    5.667 
#    0.000    3.333    0.000   34.000    0.000    0.000 
#    0.000    0.000    0.000    0.000    0.000    0.000 
#
# Total GULP energy -297441.971123 kJ/mol
# GULP energy per Si atom -12393.415463 kJ/mol
# Density = 2.050372 g / cm^3
# Si number density = 20.550496 Si / 1000 Ang^3
#
#
#
# Elastic Constant Matrix: (Units=GPa)
#
#
# Indices 1 2 3 4 5 6 
#
# 1 126.1427 32.7183 40.9639 0.0000 -22.3357 0.0000
# 2 32.7183 103.3557 32.8866 0.0000 -2.6621 0.0000
# 3 40.9639 32.8866 89.5469 0.0000 -9.3324 0.0000
# 4 0.0000 0.0000 0.0000 13.6022 0.0000 7.4424
# 5 -22.3357 -2.6621 -9.3324 0.0000 42.6834 0.0000
# 6 0.0000 0.0000 0.0000 7.4424 0.0000 1.0464
#
#
#
# Elastic Compliance Matrix: (Units=1/GPa)
#
#
# Indices 1 2 3 4 5 6 
#
# 1 0.010414 -0.002055 -0.003535 0.000000 0.004548 0.000000
# 2 -0.002055 0.011363 -0.003348 0.000000 -0.001098 0.000000
# 3 -0.003535 -0.003348 0.014121 0.000000 0.001029 0.000000
# 4 0.000000 0.000000 0.000000 -0.025423 0.000000 0.180830
# 5 0.004548 -0.001098 0.001029 0.000000 0.025965 0.000000
# 6 0.000000 0.000000 0.000000 0.180830 0.000000 -0.330495
#
#
# Mechanical properties :
#
#
# Convention : Reuss Voigt Hill
#
# Bulk Modulus (GPa) = 55.48547 59.13144 57.30845
# Shear Modulus (GPa) = -18.50666 25.63149 3.56241
#
# Velocity S-wave (km/s) = -3.00416 3.53547 1.31805
# Velocity P-wave (km/s) = 3.87619 6.74553 5.50123
#
# Compressibility (1/GPa) = 0.01802274
#
# Stress axis : x y z
#
# Youngs Moduli (GPa) = 96.02581 88.00812 70.81546
#
# Poissons Ratio (x) = 0.18082 0.25036
# Poissons Ratio (y) = 0.19729 0.23706
# Poissons Ratio (z) = 0.33948 0.29461
#
# Static dielectric constant tensor:
#      x y z
#    x 4.097080 0.000000 -0.188270 
#    y 0.000000 3.296680 0.000000 
#    z -0.188270 0.000000 3.942240 
# 
# 
# High freq. dielectric constant tensor:
#      x y z
#    x 1.822790 0.000000 -0.010810 
#    y 0.000000 1.747220 0.000000 
#    z -0.010810 0.000000 1.829070 
# 
# From -- ./inp_files/42518.got.cif
#   From: 2010.06.25/outbox.cif.g09.slc.cpg/sg10_22_cif.got.tgz:42518.got - 2010.06.27 22:07:45.
