data_PCOD8065256
_publ_section_title
;
Structure prediction by ZEFSAII (Michael W. Deem and Ramdas Pophale) SiO2 
 PCOD8065256
Probable space group: P 2/M
;
_chemical_formula_sum "Si O2"
_cell_formula_units_Z 28
_cell_length_a 12.483372
_cell_length_b 8.828483
_cell_length_c 13.277065
_cell_angle_alpha 90.000000
_cell_angle_beta 67.979133
_cell_angle_gamma 90.000000
_cell_volume 1356.506882
_symmetry_space_group_name_H-M "P 2/M"
_symmetry_group_IT_number 10
_symmetry_cell_setting 'monoclinic'
loop_
_space_group_symop_operation_xyz
x,y,z
-x,y,-z
-x,-y,-z
x,-y,z
loop_
_atom_site_type_symbol
_atom_site_label
_atom_site_fract_x
_atom_site_fract_y
_atom_site_fract_z
Si Si1 0.270617 0.675845 0.234961
Si Si2 0.126652 0.172896 0.914559
Si Si3 0.840788 0.677773 0.306822
Si Si4 0.299637 0.672341 0.994843
Si Si5 0.396125 0.177904 0.606370
Si Si6 0.033500 0.178036 0.376411
Si Si7 0.485774 0.327611 0.769468
O O1 0.236470 0.500000 0.256793
O O2 0.164936 0.777273 0.308550
O O3 0.379845 0.715772 0.266929
O O4 0.307481 0.716529 0.108639
O O5 0.149763 0.283604 0.813821
O O6 0.211057 0.212577 0.975601
O O7 0.146711 0.000000 0.872532
O O8 0.000000 0.199520 0.000000
O O9 0.839092 0.500000 0.322495
O O10 0.721193 0.744846 0.391946
O O11 0.950238 0.743082 0.326229
O O12 0.254828 0.500000 0.997764
O O13 0.425156 0.691260 0.899542
O O14 0.500000 0.237282 0.500000
O O15 0.423004 0.218973 0.712308
O O16 0.379334 0.000000 0.602725
O O17 0.000000 0.231665 0.500000
O O18 0.019174 0.000000 0.368502
O O19 0.472558 0.500000 0.735661
#
# Coordination Sequence:
#
# PCOD8065256 Si02
#       7
#     4   4   4   4   4   4   4
#     4  10  22  40  64  95 130 168 213 261 311 374
#     4  11  23  38  60  91 129 168 208 257 314 376
#     4  12  25  43  68  95 125 163 212 264 315 374
#     4  10  20  37  61  92 129 167 207 254 313 373
#     4  11  25  43  65  94 130 168 209 259 319 379
#     4  11  26  46  66  90 125 168 212 261 320 376
#     4  10  21  39  64  96 130 167 209 256 313 374
#
# _framework density 20.641249999999999
#
# number of rings (size 3 to 8) (size 9 to 14) (size 15 to 20)
#    0.000    1.286    1.429    3.857    2.000    8.571 
#    0.000    0.000    0.000    2.571    0.000    0.000 
#    0.000    0.000    0.000    0.000    0.000    0.000 
#
# Total GULP energy -347362.240589 kJ/mol
# GULP energy per Si atom -12405.794307 kJ/mol
# Density = 2.059427 g / cm^3
# Si number density = 20.641250 Si / 1000 Ang^3
#
#
#
# Elastic Constant Matrix: (Units=GPa)
#
#
# Indices 1 2 3 4 5 6 
#
# 1 102.2603 29.3102 10.9375 0.0000 -18.5663 0.0000
# 2 29.3102 70.4653 24.5330 0.0000 -13.2929 0.0000
# 3 10.9375 24.5330 80.7816 0.0000 -13.7397 0.0000
# 4 0.0000 0.0000 0.0000 25.1095 0.0000 -4.5041
# 5 -18.5663 -13.2929 -13.7397 0.0000 35.6650 0.0000
# 6 0.0000 0.0000 0.0000 -4.5041 0.0000 20.3314
#
#
#
# Elastic Compliance Matrix: (Units=1/GPa)
#
#
# Indices 1 2 3 4 5 6 
#
# 1 0.011789 -0.004172 0.000482 0.000000 0.004768 0.000000
# 2 -0.004172 0.018000 -0.004420 0.000000 0.002835 0.000000
# 3 0.000482 -0.004420 0.014359 0.000000 0.004135 0.000000
# 4 0.000000 0.000000 0.000000 0.041474 0.000000 0.009188
# 5 0.004768 0.002835 0.004135 0.000000 0.033170 0.000000
# 6 0.000000 0.000000 0.000000 0.009188 0.000000 0.051221
#
#
# Mechanical properties :
#
#
# Convention : Reuss Voigt Hill
#
# Bulk Modulus (GPa) = 35.80534 42.56318 39.18426
# Shear Modulus (GPa) = 25.56996 28.80293 27.18645
#
# Velocity S-wave (km/s) = 3.52345 3.73957 3.63311
# Velocity P-wave (km/s) = 5.82555 6.26985 6.05178
#
# Compressibility (1/GPa) = 0.02792880
#
# Stress axis : x y z
#
# Youngs Moduli (GPa) = 84.82621 55.55510 69.64079
#
# Poissons Ratio (x) = 0.23177 -0.03355
# Poissons Ratio (y) = 0.35389 0.30778
# Poissons Ratio (z) = -0.04086 0.24553
#
# Static dielectric constant tensor:
#      x y z
#    x 3.963290 0.000000 -0.117330 
#    y 0.000000 3.681120 0.000000 
#    z -0.117330 0.000000 3.847950 
# 
# 
# High freq. dielectric constant tensor:
#      x y z
#    x 1.818770 0.000000 -0.008900 
#    y 0.000000 1.805070 0.000000 
#    z -0.008900 0.000000 1.815220 
# 
# From -- ./inp_files/63675.got.cif
#   From: 2010.06.25/outbox.cif.g09.slc.cpg/sg10_32_cif.got.tgz:63675.got - 2010.06.27 22:07:45.
