data_PCOD8065612
_publ_section_title
;
Structure prediction by ZEFSAII (Michael W. Deem and Ramdas Pophale) SiO2 
 PCOD8065612
Probable space group: P 2/M
;
_chemical_formula_sum "Si O2"
_cell_formula_units_Z 24
_cell_length_a 14.609111
_cell_length_b 8.474801
_cell_length_c 9.870628
_cell_angle_alpha 90.000000
_cell_angle_beta 100.031901
_cell_angle_gamma 90.000000
_cell_volume 1203.391212
_symmetry_space_group_name_H-M "P 2/M"
_symmetry_group_IT_number 10
_symmetry_cell_setting 'monoclinic'
loop_
_space_group_symop_operation_xyz
x,y,z
-x,y,-z
-x,-y,-z
x,-y,z
loop_
_atom_site_type_symbol
_atom_site_label
_atom_site_fract_x
_atom_site_fract_y
_atom_site_fract_z
Si Si1 0.892560 0.314449 0.607424
Si Si2 0.469835 0.316620 0.339756
Si Si3 0.767020 0.683856 0.082409
Si Si4 0.422409 0.817006 0.872658
Si Si5 0.263781 0.687136 0.229077
Si Si6 0.907740 0.182974 0.325381
O O1 0.906700 0.500000 0.630377
O O2 0.809618 0.248419 0.679966
O O3 0.868828 0.278680 0.444798
O O4 0.986143 0.227829 0.677910
O O5 0.500000 0.288551 0.500000
O O6 0.475617 0.500000 0.299828
O O7 0.540529 0.216846 0.267469
O O8 0.366030 0.248587 0.291908
O O9 0.790908 0.500000 0.095345
O O10 0.668475 0.713038 0.127356
O O11 0.847545 0.778783 0.178395
O O12 0.764873 0.746206 0.927490
O O13 0.396607 0.000000 0.882236
O O14 0.500000 0.763513 0.000000
O O15 0.265978 0.500000 0.235114
O O16 0.901062 0.000000 0.359000
#
# Coordination Sequence:
#
# PCOD8065612 Si02
#       6
#     4   4   4   4   4   4
#     4  10  20  39  64  89 117 154 198 243 291 349
#     4  10  21  38  61  89 118 155 201 245 287 343
#     4  11  22  39  63  87 114 155 201 244 290 347
#     4  11  23  39  58  86 123 159 193 238 292 351
#     4   9  20  37  59  89 118 148 197 250 291 337
#     4  11  23  40  59  88 122 154 193 240 297 356
#
# _framework density 19.943639999999998
#
# number of rings (size 3 to 8) (size 9 to 14) (size 15 to 20)
#    0.000    1.667    1.667    4.000    2.333    1.667 
#    0.000    8.333    0.000    0.000    0.000    0.000 
#    0.000    0.000    0.000    0.000    0.000    0.000 
#
# Total GULP energy -297725.320611 kJ/mol
# GULP energy per Si atom -12405.221692 kJ/mol
# Density = 1.989825 g / cm^3
# Si number density = 19.943640 Si / 1000 Ang^3
#
#
#
# Elastic Constant Matrix: (Units=GPa)
#
#
# Indices 1 2 3 4 5 6 
#
# 1 105.7333 12.5471 61.4269 0.0000 -12.0347 0.0000
# 2 12.5471 47.4613 14.3988 0.0000 3.3116 0.0000
# 3 61.4269 14.3988 120.2748 0.0000 2.1462 0.0000
# 4 0.0000 0.0000 0.0000 18.8617 0.0000 7.2323
# 5 -12.0347 3.3116 2.1462 0.0000 42.9630 0.0000
# 6 0.0000 0.0000 0.0000 7.2323 0.0000 13.0070
#
#
#
# Elastic Compliance Matrix: (Units=1/GPa)
#
#
# Indices 1 2 3 4 5 6 
#
# 1 0.014384 -0.001936 -0.007196 0.000000 0.004538 0.000000
# 2 -0.001936 0.022229 -0.001633 0.000000 -0.002174 0.000000
# 3 -0.007196 -0.001633 0.012229 0.000000 -0.002501 0.000000
# 4 0.000000 0.000000 0.000000 0.067384 0.000000 -0.037467
# 5 0.004538 -0.002174 -0.002501 0.000000 0.024840 0.000000
# 6 0.000000 0.000000 0.000000 -0.037467 0.000000 0.097715
#
#
# Mechanical properties :
#
#
# Convention : Reuss Voigt Hill
#
# Bulk Modulus (GPa) = 36.61391 50.02388 43.31890
# Shear Modulus (GPa) = 18.55871 27.30612 22.93242
#
# Velocity S-wave (km/s) = 3.05381 3.70424 3.39464
# Velocity P-wave (km/s) = 5.55274 6.59031 6.09365
#
# Compressibility (1/GPa) = 0.02731202
#
# Stress axis : x y z
#
# Youngs Moduli (GPa) = 69.51966 44.98634 81.77022
#
# Poissons Ratio (x) = 0.08711 0.58838
# Poissons Ratio (y) = 0.13462 0.13356
# Poissons Ratio (z) = 0.50023 0.07348
#
# Static dielectric constant tensor:
#      x y z
#    x 3.730280 0.000000 -0.020890 
#    y 0.000000 3.458680 0.000000 
#    z -0.020890 0.000000 3.718260 
# 
# 
# High freq. dielectric constant tensor:
#      x y z
#    x 1.784290 0.000000 0.000790 
#    y 0.000000 1.765270 0.000000 
#    z 0.000790 0.000000 1.785560 
# 
# From -- ./inp_files/27298.got.cif
#   From: 2010.06.25/outbox.cif.g09.slc.cpg/sg10_14_cif.got.tgz:27298.got - 2010.06.27 22:07:45.
