data_PCOD8065083
_publ_section_title
;
Structure prediction by ZEFSAII (Michael W. Deem and Ramdas Pophale) SiO2 
 PCOD8065083
Probable space group: P 2/M
;
_chemical_formula_sum "Si O2"
_cell_formula_units_Z 24
_cell_length_a 5.267797
_cell_length_b 16.988473
_cell_length_c 10.507196
_cell_angle_alpha 90.000000
_cell_angle_beta 89.999935
_cell_angle_gamma 90.000000
_cell_volume 940.308168
_symmetry_space_group_name_H-M "P 2/M"
_symmetry_group_IT_number 10
_symmetry_cell_setting 'monoclinic'
loop_
_space_group_symop_operation_xyz
x,y,z
-x,y,-z
-x,-y,-z
x,-y,z
loop_
_atom_site_type_symbol
_atom_site_label
_atom_site_fract_x
_atom_site_fract_y
_atom_site_fract_z
Si Si1 0.160994 0.589796 0.642602
Si Si2 0.613101 0.339959 0.126652
Si Si3 0.113101 0.839959 0.373348
Si Si4 0.843116 0.176917 0.126794
Si Si5 0.339007 0.089796 0.142602
Si Si6 0.656885 0.323083 0.626794
O O1 0.216490 0.500000 0.606858
O O2 0.199209 0.601499 0.795434
O O3 0.371484 0.648260 0.574037
O O4 0.875730 0.611357 0.599544
O O5 0.763518 0.262734 0.078420
O O6 0.378865 0.316138 0.219944
O O7 0.500000 0.381562 0.000000
O O8 0.878864 0.816138 0.280056
O O9 0.000000 0.881563 0.500000
O O10 0.300792 0.898501 0.295434
O O11 0.263518 0.762734 0.421580
O O12 0.624271 0.111357 0.099544
O O13 0.128517 0.148260 0.074037
O O14 0.283510 0.000000 0.106858
#
# Coordination Sequence:
#
# PCOD8065083 Si02
#       6
#     4   4   4   4   4   4
#     4  10  20  37  58  82 119 149 181 234 290 336
#     4  10  21  38  61  85 114 150 192 236 283 333
#     4  10  21  38  61  85 114 150 192 236 283 333
#     4  10  20  39  54  87 111 150 193 225 282 336
#     4  10  20  37  58  82 119 149 181 234 290 336
#     4  10  20  39  54  87 111 150 193 225 282 336
#
# _framework density 25.523548999999999
#
# number of rings (size 3 to 8) (size 9 to 14) (size 15 to 20)
#    2.000    0.000    3.333    1.000    0.000    2.000 
#    0.000    1.667    0.000    6.000    0.000    0.000 
#    0.000    0.000    0.000    0.000    0.000    0.000 
#
# Total GULP energy -297569.922464 kJ/mol
# GULP energy per Si atom -12398.746769 kJ/mol
# Density = 2.546546 g / cm^3
# Si number density = 25.523549 Si / 1000 Ang^3
#
#
#
# Elastic Constant Matrix: (Units=GPa)
#
#
# Indices 1 2 3 4 5 6 
#
# 1 170.6995 45.4602 69.7866 0.0000 -5.4659 0.0000
# 2 45.4602 121.7997 11.7241 0.0000 6.9082 0.0000
# 3 69.7866 11.7241 135.3512 0.0000 12.7041 0.0000
# 4 0.0000 0.0000 0.0000 28.2770 0.0000 1.5807
# 5 -5.4659 6.9082 12.7041 0.0000 60.0823 0.0000
# 6 0.0000 0.0000 0.0000 1.5807 0.0000 35.9958
#
#
#
# Elastic Compliance Matrix: (Units=1/GPa)
#
#
# Indices 1 2 3 4 5 6 
#
# 1 0.008435 -0.002849 -0.004290 0.000000 0.002002 0.000000
# 2 -0.002849 0.009281 0.000805 0.000000 -0.001497 0.000000
# 3 -0.004290 0.000805 0.009770 0.000000 -0.002549 0.000000
# 4 0.000000 0.000000 0.000000 0.035451 0.000000 -0.001557
# 5 0.002002 -0.001497 -0.002549 0.000000 0.017537 0.000000
# 6 0.000000 0.000000 0.000000 -0.001557 0.000000 0.027849
#
#
# Mechanical properties :
#
#
# Convention : Reuss Voigt Hill
#
# Bulk Modulus (GPa) = 67.48441 75.75469 71.61955
# Shear Modulus (GPa) = 39.70461 44.92965 42.31713
#
# Velocity S-wave (km/s) = 3.94840 4.20017 4.07623
# Velocity P-wave (km/s) = 6.87633 7.29840 7.09051
#
# Compressibility (1/GPa) = 0.01481824
#
# Stress axis : x y z
#
# Youngs Moduli (GPa) = 118.55354 107.74869 102.35777
#
# Poissons Ratio (x) = 0.30696 0.43914
# Poissons Ratio (y) = 0.33774 -0.08244
# Poissons Ratio (z) = 0.50862 -0.08678
#
# Static dielectric constant tensor:
#      x y z
#    x 4.692780 0.000000 -0.099310 
#    y 0.000000 3.871730 0.000000 
#    z -0.099310 0.000000 5.177800 
# 
# 
# High freq. dielectric constant tensor:
#      x y z
#    x 2.035120 0.000000 -0.009030 
#    y 0.000000 1.971330 0.000000 
#    z -0.009030 0.000000 2.079190 
# 
# From -- ./inp_files/59269.got.cif
#   From: 2010.06.25/outbox.cif.g09.slc.cpg/sg10_30_cif.got.tgz:59269.got - 2010.06.27 22:07:45.
