data_PCOD8065773
_publ_section_title
;
Structure prediction by ZEFSAII (Michael W. Deem and Ramdas Pophale) SiO2 
 PCOD8065773
Probable space group: P 2/M
;
_chemical_formula_sum "Si O2"
_cell_formula_units_Z 20
_cell_length_a 17.933566
_cell_length_b 14.270024
_cell_length_c 10.100248
_cell_angle_alpha 90.000000
_cell_angle_beta 152.595516
_cell_angle_gamma 90.000000
_cell_volume 1189.694274
_symmetry_space_group_name_H-M "P 2/M"
_symmetry_group_IT_number 10
_symmetry_cell_setting 'monoclinic'
loop_
_space_group_symop_operation_xyz
x,y,z
-x,y,-z
-x,-y,-z
x,-y,z
loop_
_atom_site_type_symbol
_atom_site_label
_atom_site_fract_x
_atom_site_fract_y
_atom_site_fract_z
Si Si1 0.250105 0.891746 0.829941
Si Si2 0.079850 0.108254 0.829958
Si Si3 0.519704 0.253605 0.181251
Si Si4 0.412149 0.391858 0.500000
Si Si5 0.161551 0.746397 0.181258
O O1 0.213006 0.874476 0.926005
O O2 0.095757 0.861015 0.499991
O O3 0.291166 0.000000 0.869442
O O4 0.403886 0.832739 0.029266
O O5 0.078292 0.000000 0.869464
O O6 0.125404 0.167259 0.029299
O O7 0.480055 0.342059 0.215048
O O8 0.704842 0.219967 0.499996
O O9 0.500000 0.287444 0.000000
O O10 0.500000 0.377525 0.500000
O O11 0.389283 0.500000 0.499999
O O12 0.234990 0.342061 0.215047
O O13 0.000000 0.712565 0.000000
#
# Coordination Sequence:
#
# PCOD8065773 Si02
#       5
#     4   4   4   4   4
#     4   9  18  33  54  79 110 148 185 223 267 318
#     4   9  18  33  54  79 110 148 185 223 267 318
#     4  10  21  34  54  80 110 144 182 221 271 322
#     4   9  20  38  59  81 106 139 181 227 275 326
#     4  10  21  34  54  80 110 144 182 221 271 322
#
# _framework density 16.811042
#
# number of rings (size 3 to 8) (size 9 to 14) (size 15 to 20)
#    1.200    1.400    0.000    3.600    0.000    2.400 
#    0.000    2.000    0.000    0.000    0.000    8.400 
#    0.000    0.000    0.000    0.000    0.000    0.000 
#
# Total GULP energy -247883.383944 kJ/mol
# GULP energy per Si atom -12394.169197 kJ/mol
# Density = 1.677278 g / cm^3
# Si number density = 16.811042 Si / 1000 Ang^3
#
#
#
# Elastic Constant Matrix: (Units=GPa)
#
#
# Indices 1 2 3 4 5 6 
#
# 1 106.1496 58.2777 54.9527 0.0000 2.4151 0.0000
# 2 58.2777 95.4543 49.0138 0.0000 -1.2422 0.0000
# 3 54.9527 49.0138 98.5874 0.0000 -3.4357 0.0000
# 4 0.0000 0.0000 0.0000 16.3949 0.0000 -0.0871
# 5 2.4151 -1.2422 -3.4357 0.0000 33.8488 0.0000
# 6 0.0000 0.0000 0.0000 -0.0871 0.0000 17.0664
#
#
#
# Elastic Compliance Matrix: (Units=1/GPa)
#
#
# Indices 1 2 3 4 5 6 
#
# 1 0.016252 -0.007064 -0.005616 0.000000 -0.001989 0.000000
# 2 -0.007064 0.017139 -0.004560 0.000000 0.000670 0.000000
# 3 -0.005616 -0.004560 0.015604 0.000000 0.001817 0.000000
# 4 0.000000 0.000000 0.000000 0.060996 0.000000 0.000311
# 5 -0.001989 0.000670 0.001817 0.000000 0.029894 0.000000
# 6 0.000000 0.000000 0.000000 0.000311 0.000000 0.058596
#
#
# Mechanical properties :
#
#
# Convention : Reuss Voigt Hill
#
# Bulk Modulus (GPa) = 68.89645 69.40887 69.15266
# Shear Modulus (GPa) = 21.02606 22.65850 21.84228
#
# Velocity S-wave (km/s) = 3.54040 3.67527 3.60847
# Velocity P-wave (km/s) = 7.60161 7.70632 7.65414
#
# Compressibility (1/GPa) = 0.01451454
#
# Stress axis : x y z
#
# Youngs Moduli (GPa) = 61.53224 58.34506 64.08626
#
# Poissons Ratio (x) = 0.41217 0.35990
# Poissons Ratio (y) = 0.43469 0.29223
# Poissons Ratio (z) = 0.34556 0.26605
#
# Static dielectric constant tensor:
#      x y z
#    x 3.127970 0.000000 -0.007060 
#    y 0.000000 2.951770 0.000000 
#    z -0.007060 0.000000 3.075360 
# 
# 
# High freq. dielectric constant tensor:
#      x y z
#    x 1.654990 0.000000 -0.001870 
#    y 0.000000 1.636110 0.000000 
#    z -0.001870 0.000000 1.641050 
# 
# From -- ./inp_files/32698.got.cif
#   From: 2010.06.25/outbox.cif.g09.slc.cpg/sg10_17_cif.got.tgz:32698.got - 2010.06.27 22:07:45.
