data_PCOD8065293
_publ_section_title
;
Structure prediction by ZEFSAII (Michael W. Deem and Ramdas Pophale) SiO2 
 PCOD8065293
Probable space group: P 2/M
;
_chemical_formula_sum "Si O2"
_cell_formula_units_Z 20
_cell_length_a 17.403701
_cell_length_b 8.435886
_cell_length_c 10.791354
_cell_angle_alpha 90.000000
_cell_angle_beta 36.272281
_cell_angle_gamma 90.000000
_cell_volume 937.332033
_symmetry_space_group_name_H-M "P 2/M"
_symmetry_group_IT_number 10
_symmetry_cell_setting 'monoclinic'
loop_
_space_group_symop_operation_xyz
x,y,z
-x,y,-z
-x,-y,-z
x,-y,z
loop_
_atom_site_type_symbol
_atom_site_label
_atom_site_fract_x
_atom_site_fract_y
_atom_site_fract_z
Si Si1 0.585660 0.814443 0.004430
Si Si2 0.030976 0.318839 0.794668
Si Si3 0.128780 0.318672 0.396474
Si Si4 0.808635 0.817914 0.203169
Si Si5 0.537491 0.316555 0.586352
O O1 0.531366 0.767952 0.209124
O O2 0.577036 0.000000 0.002288
O O3 0.500000 0.740658 0.000000
O O4 0.736657 0.767205 0.806851
O O5 0.034891 0.500000 0.836752
O O6 0.105046 0.303170 0.571516
O O7 0.097451 0.196771 0.801656
O O8 0.880170 0.257826 0.988470
O O9 0.142613 0.500000 0.333591
O O10 0.000000 0.242538 0.500000
O O11 0.689568 0.709469 0.398354
O O12 0.768828 0.000000 0.230925
O O13 0.500000 0.245136 0.500000
O O14 0.500106 0.500000 0.642987
#
# Coordination Sequence:
#
# PCOD8065293 Si02
#       5
#     4   4   4   4   4
#     4  11  25  44  67  97 132 170 214 265 322 388
#     4  10  20  37  62  89 122 163 209 252 301 369
#     4  10  23  41  63  92 126 165 211 261 310 371
#     4  11  22  37  60  90 125 159 202 256 312 372
#     4  11  25  43  65  91 124 166 213 263 316 377
#
# _framework density 21.337156
#
# number of rings (size 3 to 8) (size 9 to 14) (size 15 to 20)
#    0.000    1.400    0.000    6.000    2.800    8.400 
#    0.000    0.000    0.000    0.000    0.000    0.000 
#    0.000    0.000    0.000    0.000    0.000    0.000 
#
# Total GULP energy -247849.005732 kJ/mol
# GULP energy per Si atom -12392.450287 kJ/mol
# Density = 2.128859 g / cm^3
# Si number density = 21.337156 Si / 1000 Ang^3
#
#
#
# Elastic Constant Matrix: (Units=GPa)
#
#
# Indices 1 2 3 4 5 6 
#
# 1 105.2263 20.9726 59.6656 0.0000 -4.4009 0.0000
# 2 20.9726 61.4444 24.5448 0.0000 -6.0871 0.0000
# 3 59.6656 24.5448 174.9265 0.0000 -5.8996 0.0000
# 4 0.0000 0.0000 0.0000 48.0182 0.0000 16.7622
# 5 -4.4009 -6.0871 -5.8996 0.0000 28.3657 0.0000
# 6 0.0000 0.0000 0.0000 16.7622 0.0000 37.1349
#
#
#
# Elastic Compliance Matrix: (Units=1/GPa)
#
#
# Indices 1 2 3 4 5 6 
#
# 1 0.012183 -0.002597 -0.003773 0.000000 0.000548 0.000000
# 2 -0.002597 0.018092 -0.001546 0.000000 0.003158 0.000000
# 3 -0.003773 -0.001546 0.007240 0.000000 0.000589 0.000000
# 4 0.000000 0.000000 0.000000 0.024721 0.000000 -0.011159
# 5 0.000548 0.003158 0.000589 0.000000 0.036139 0.000000
# 6 0.000000 0.000000 0.000000 -0.011159 0.000000 0.031966
#
#
# Mechanical properties :
#
#
# Convention : Reuss Voigt Hill
#
# Bulk Modulus (GPa) = 46.11829 61.32923 53.72376
# Shear Modulus (GPa) = 32.59451 38.46470 35.52960
#
# Velocity S-wave (km/s) = 3.91268 4.25044 4.08505
# Velocity P-wave (km/s) = 6.48638 7.27280 6.89082
#
# Compressibility (1/GPa) = 0.02168337
#
# Stress axis : x y z
#
# Youngs Moduli (GPa) = 82.08147 55.27363 138.11585
#
# Poissons Ratio (x) = 0.14355 0.52106
# Poissons Ratio (y) = 0.21317 0.21356
# Poissons Ratio (z) = 0.30966 0.08547
#
# Static dielectric constant tensor:
#      x y z
#    x 4.021610 0.000000 -0.088150 
#    y 0.000000 3.731560 0.000000 
#    z -0.088150 0.000000 4.431240 
# 
# 
# High freq. dielectric constant tensor:
#      x y z
#    x 1.830860 0.000000 0.002030 
#    y 0.000000 1.829220 0.000000 
#    z 0.002030 0.000000 1.863500 
# 
# From -- ./inp_files/52993.got.cif
#   From: 2010.06.25/outbox.cif.g09.slc.cpg/sg10_27_cif.got.tgz:52993.got - 2010.06.27 22:07:45.
