data_PCOD8065611
_publ_section_title
;
Structure prediction by ZEFSAII (Michael W. Deem and Ramdas Pophale) SiO2 
 PCOD8065611
Probable space group: P 2/M
;
_chemical_formula_sum "Si O2"
_cell_formula_units_Z 32
_cell_length_a 26.053737
_cell_length_b 13.873055
_cell_length_c 9.291018
_cell_angle_alpha 90.000000
_cell_angle_beta 30.771983
_cell_angle_gamma 90.000000
_cell_volume 1718.127183
_symmetry_space_group_name_H-M "P 2/M"
_symmetry_group_IT_number 10
_symmetry_cell_setting 'monoclinic'
loop_
_space_group_symop_operation_xyz
x,y,z
-x,y,-z
-x,-y,-z
x,-y,z
loop_
_atom_site_type_symbol
_atom_site_label
_atom_site_fract_x
_atom_site_fract_y
_atom_site_fract_z
Si Si1 0.694763 0.745243 0.310666
Si Si2 0.520569 0.231975 0.296526
Si Si3 0.200220 0.110912 0.740021
Si Si4 0.306986 0.112221 0.193755
Si Si5 0.017472 0.110527 0.627189
Si Si6 0.797372 0.759488 0.767062
Si Si7 0.613785 0.391217 0.724797
Si Si8 0.676631 0.389036 0.896764
O O1 0.580743 0.754870 0.542324
O O2 0.732618 0.838878 0.301964
O O3 0.693139 0.655952 0.423861
O O4 0.766029 0.727236 0.002597
O O5 0.500000 0.181988 0.500000
O O6 0.578201 0.333235 0.193028
O O7 0.586684 0.163416 0.033523
O O8 0.230551 0.141543 0.505248
O O9 0.223443 0.000000 0.709426
O O10 0.083356 0.133566 0.042572
O O11 0.269930 0.152541 0.129487
O O12 0.323142 0.000000 0.142111
O O13 0.000000 0.119333 0.500000
O O14 0.091076 0.196040 0.501421
O O15 0.054626 0.000000 0.572818
O O16 0.777721 0.666240 0.710762
O O17 0.601069 0.500000 0.703114
O O18 0.500000 0.345532 0.000000
O O19 0.670054 0.383201 0.741027
O O20 0.677489 0.500000 0.948485
#
# Coordination Sequence:
#
# PCOD8065611 Si02
#       8
#     4   4   4   4   4   4   4   4
#     4  12  21  34  56  84 119 149 194 238 288 346
#     4  11  21  36  51  85 119 159 195 231 287 344
#     4  10  23  39  59  85 115 154 196 244 295 342
#     4  10  22  38  53  80 119 155 195 236 282 348
#     4  10  20  39  64  89 116 148 195 250 299 348
#     4  11  22  37  59  87 116 150 193 246 299 345
#     4  10  21  36  58  84 114 156 197 238 285 338
#     4  10  21  38  58  85 121 155 194 241 290 347
#
# _framework density 18.624931
#
# number of rings (size 3 to 8) (size 9 to 14) (size 15 to 20)
#    0.000    1.500    5.000    1.875    0.000    2.500 
#    0.000    3.125    0.000    1.125    0.000    7.000 
#    0.000    0.000    0.000    0.000    0.000    0.000 
#
# Total GULP energy -396575.217469 kJ/mol
# GULP energy per Si atom -12392.975546 kJ/mol
# Density = 1.858254 g / cm^3
# Si number density = 18.624931 Si / 1000 Ang^3
#
#
#
# Elastic Constant Matrix: (Units=GPa)
#
#
# Indices 1 2 3 4 5 6 
#
# 1 75.6343 49.7509 33.3086 0.0000 -0.6072 0.0000
# 2 49.7509 109.2126 56.8501 0.0000 -4.8522 0.0000
# 3 33.3086 56.8501 113.1367 0.0000 8.4787 0.0000
# 4 0.0000 0.0000 0.0000 25.4679 0.0000 -1.7655
# 5 -0.6072 -4.8522 8.4787 0.0000 30.6241 0.0000
# 6 0.0000 0.0000 0.0000 -1.7655 0.0000 27.1463
#
#
#
# Elastic Compliance Matrix: (Units=1/GPa)
#
#
# Indices 1 2 3 4 5 6 
#
# 1 0.019121 -0.007874 -0.001642 0.000000 -0.000414 0.000000
# 2 -0.007874 0.016083 -0.006069 0.000000 0.004072 0.000000
# 3 -0.001642 -0.006069 0.012710 0.000000 -0.004513 0.000000
# 4 0.000000 0.000000 0.000000 0.039443 0.000000 0.002565
# 5 -0.000414 0.004072 -0.004513 0.000000 0.034541 0.000000
# 6 0.000000 0.000000 0.000000 0.002565 0.000000 0.037004
#
#
# Mechanical properties :
#
#
# Convention : Reuss Voigt Hill
#
# Bulk Modulus (GPa) = 59.71940 64.20031 61.95986
# Shear Modulus (GPa) = 25.55555 27.18592 26.37074
#
# Velocity S-wave (km/s) = 3.70823 3.82468 3.76691
# Velocity P-wave (km/s) = 7.10411 7.35182 7.22903
#
# Compressibility (1/GPa) = 0.01674498
#
# Stress axis : x y z
#
# Youngs Moduli (GPa) = 52.29969 62.17589 78.67903
#
# Poissons Ratio (x) = 0.48958 0.12916
# Poissons Ratio (y) = 0.41181 0.47748
# Poissons Ratio (z) = 0.08586 0.37733
#
# Static dielectric constant tensor:
#      x y z
#    x 3.495650 0.000000 0.127880 
#    y 0.000000 3.500660 0.000000 
#    z 0.127880 0.000000 3.695470 
# 
# 
# High freq. dielectric constant tensor:
#      x y z
#    x 1.725010 0.000000 0.013320 
#    y 0.000000 1.713530 0.000000 
#    z 0.013320 0.000000 1.716290 
# 
# From -- ./inp_files/37700.got.cif
#   From: 2010.06.25/outbox.cif.g09.slc.cpg/sg10_19_cif.got.tgz:37700.got - 2010.06.27 22:07:45.
