data_PCOD8065874
_publ_section_title
;
Structure prediction by ZEFSAII (Michael W. Deem and Ramdas Pophale) SiO2 
 PCOD8065874
Probable space group: P 2/M
;
_chemical_formula_sum "Si O2"
_cell_formula_units_Z 24
_cell_length_a 17.716950
_cell_length_b 7.764012
_cell_length_c 24.606306
_cell_angle_alpha 90.000000
_cell_angle_beta 21.373081
_cell_angle_gamma 90.000000
_cell_volume 1233.521701
_symmetry_space_group_name_H-M "P 2/M"
_symmetry_group_IT_number 10
_symmetry_cell_setting 'monoclinic'
loop_
_space_group_symop_operation_xyz
x,y,z
-x,y,-z
-x,-y,-z
x,-y,z
loop_
_atom_site_type_symbol
_atom_site_label
_atom_site_fract_x
_atom_site_fract_y
_atom_site_fract_z
Si Si1 0.009096 0.803373 0.933682
Si Si2 0.269050 0.303026 0.659437
Si Si3 0.866281 0.500000 0.670767
Si Si4 0.107583 0.802698 0.156140
Si Si5 0.307942 0.500000 0.331898
Si Si6 0.744106 0.196643 0.829306
Si Si7 0.384302 0.801412 0.874048
O O1 0.176313 0.712401 0.782364
O O2 0.083294 0.000000 0.887900
O O3 0.000000 0.718870 0.000000
O O4 0.778620 0.789749 0.065389
O O5 0.500000 0.221582 0.500000
O O6 0.280182 0.500000 0.634813
O O7 0.124889 0.213933 0.710743
O O8 0.754992 0.500000 0.688077
O O9 0.801318 0.323107 0.742641
O O10 0.112375 0.500000 0.502192
O O11 0.141515 0.725932 0.193488
O O12 0.167750 0.000000 0.120405
O O13 0.272083 0.724581 0.003156
O O14 0.428559 0.675376 0.265435
O O15 0.816269 0.000000 0.767754
O O16 0.500000 0.201344 0.000000
O O17 0.460874 0.000000 0.829568
#
# Coordination Sequence:
#
# PCOD8065874 Si02
#       7
#     4   4   2   4   2   4   4
#     4   9  19  37  58  81 109 147 197 242 282 337
#     4  10  21  35  52  83 118 152 187 231 294 346
#     4  11  25  40  56  84 119 150 189 233 279 345
#     4   9  19  35  59  85 108 144 190 233 285 344
#     4  11  24  40  57  82 112 158 194 220 287 342
#     4  10  21  39  62  89 116 146 187 238 292 337
#     4   9  19  37  60  85 111 145 193 238 277 335
#
# _framework density 19.456489000000001
#
# number of rings (size 3 to 8) (size 9 to 14) (size 15 to 20)
#    0.000    2.333    0.000    2.750    5.833    4.333 
#    3.000    1.667    0.000    0.000    0.000    0.000 
#    0.000    0.000    0.000    0.000    0.000    0.000 
#
# Total GULP energy -297511.616532 kJ/mol
# GULP energy per Si atom -12396.317356 kJ/mol
# Density = 1.941220 g / cm^3
# Si number density = 19.456489 Si / 1000 Ang^3
#
#
#
# Elastic Constant Matrix: (Units=GPa)
#
#
# Indices 1 2 3 4 5 6 
#
# 1 76.6834 19.6819 33.3458 0.0000 3.8221 0.0000
# 2 19.6819 88.2019 42.0853 0.0000 0.4694 0.0000
# 3 33.3458 42.0853 106.8601 0.0000 -9.2740 0.0000
# 4 0.0000 0.0000 0.0000 79.4388 0.0000 -46.1988
# 5 3.8221 0.4694 -9.2740 0.0000 24.9529 0.0000
# 6 0.0000 0.0000 0.0000 -46.1988 0.0000 49.9844
#
#
#
# Elastic Compliance Matrix: (Units=1/GPa)
#
#
# Indices 1 2 3 4 5 6 
#
# 1 0.015625 -0.001190 -0.004767 0.000000 -0.004143 0.000000
# 2 -0.001190 0.014190 -0.005399 0.000000 -0.002091 0.000000
# 3 -0.004767 -0.005399 0.013479 0.000000 0.005841 0.000000
# 4 0.000000 0.000000 0.000000 0.027219 0.000000 0.025158
# 5 -0.004143 -0.002091 0.005841 0.000000 0.042920 0.000000
# 6 0.000000 0.000000 0.000000 0.025158 0.000000 0.043259
#
#
# Mechanical properties :
#
#
# Convention : Reuss Voigt Hill
#
# Bulk Modulus (GPa) = 48.58374 51.33015 49.95694
# Shear Modulus (GPa) = 26.84352 42.65071 34.74712
#
# Velocity S-wave (km/s) = 3.71842 4.68707 4.23056
# Velocity P-wave (km/s) = 6.59243 7.46531 7.04241
#
# Compressibility (1/GPa) = 0.02058302
#
# Stress axis : x y z
#
# Youngs Moduli (GPa) = 63.99838 70.47046 74.19162
#
# Poissons Ratio (x) = 0.08388 0.35365
# Poissons Ratio (y) = 0.07618 0.40054
# Poissons Ratio (z) = 0.30506 0.38045
#
# Static dielectric constant tensor:
#      x y z
#    x 3.807140 0.000000 -0.015330 
#    y 0.000000 3.513640 0.000000 
#    z -0.015330 0.000000 3.482440 
# 
# 
# High freq. dielectric constant tensor:
#      x y z
#    x 1.765140 0.000000 -0.005970 
#    y 0.000000 1.758650 0.000000 
#    z -0.005970 0.000000 1.739290 
# 
# From -- ./inp_files/90026.got.cif
#   From: 2010.06.25/outbox.cif.g09.slc.cpg/sg10_46_cif.got.tgz:90026.got - 2010.06.27 22:07:45.
