data_PCOD8065950
_publ_section_title
;
Structure prediction by ZEFSAII (Michael W. Deem and Ramdas Pophale) SiO2 
 PCOD8065950
Probable space group: P 2/M
;
_chemical_formula_sum "Si O2"
_cell_formula_units_Z 28
_cell_length_a 28.929179
_cell_length_b 9.571437
_cell_length_c 9.095387
_cell_angle_alpha 90.000000
_cell_angle_beta 38.186278
_cell_angle_gamma 90.000000
_cell_volume 1556.960542
_symmetry_space_group_name_H-M "P 2/M"
_symmetry_group_IT_number 10
_symmetry_cell_setting 'monoclinic'
loop_
_space_group_symop_operation_xyz
x,y,z
-x,y,-z
-x,-y,-z
x,-y,z
loop_
_atom_site_type_symbol
_atom_site_label
_atom_site_fract_x
_atom_site_fract_y
_atom_site_fract_z
Si Si1 0.075262 0.160827 0.233734
Si Si2 0.633866 0.654761 0.990864
Si Si3 0.924738 0.839173 0.110045
Si Si4 0.500000 0.157109 0.675679
Si Si5 0.801739 0.336054 0.577111
Si Si6 0.633866 0.345239 0.339808
Si Si7 0.198261 0.663946 0.085806
O O1 0.144256 0.251732 0.115173
O O2 0.000000 0.213823 0.500000
O O3 0.091277 0.000000 0.233839
O O4 0.064461 0.183534 0.088846
O O5 0.616161 0.500000 0.971915
O O6 0.717384 0.701356 0.737381
O O7 0.573640 0.764453 0.078743
O O8 0.628701 0.647761 0.178248
O O9 0.855744 0.748268 0.336454
O O10 0.908723 0.000000 0.190222
O O11 0.000000 0.786177 0.000000
O O12 0.500000 0.156494 0.500000
O O13 0.573640 0.235546 0.553059
O O14 0.500000 0.000000 0.737990
O O15 0.816736 0.500000 0.521195
O O16 0.815121 0.290435 0.712198
O O17 0.616161 0.500000 0.447280
O O18 0.717384 0.298645 0.175699
O O19 0.183264 0.500000 0.104876
#
# Coordination Sequence:
#
# PCOD8065950 Si02
#       7
#     4   4   4   4   4   4   4
#     4  10  21  36  53  73  97 127 162 198 240 291
#     4   8  14  25  40  59  88 125 159 192 234 282
#     4  10  21  36  53  73  97 127 162 198 240 291
#     4   9  15  21  33  59  92 123 158 197 234 274
#     4   9  18  32  50  73  99 128 164 203 243 288
#     4   8  14  25  40  59  88 125 159 192 234 282
#     4   9  18  32  50  73  99 128 164 203 243 288
#
# _framework density 17.983757000000001
#
# number of rings (size 3 to 8) (size 9 to 14) (size 15 to 20)
#    0.000    3.000    0.000    3.000    0.000    5.714 
#    0.000    2.857    0.000    0.000    0.000    1.000 
#    0.000    8.000    0.000    0.000    0.000    0.000 
#
# Total GULP energy -347141.816788 kJ/mol
# GULP energy per Si atom -12397.922028 kJ/mol
# Density = 1.794283 g / cm^3
# Si number density = 17.983757 Si / 1000 Ang^3
#
#
#
# Elastic Constant Matrix: (Units=GPa)
#
#
# Indices 1 2 3 4 5 6 
#
# 1 83.6886 54.2554 50.8911 0.0000 -27.1445 0.0000
# 2 54.2554 98.0727 62.5578 0.0000 -27.7483 0.0000
# 3 50.8911 62.5578 100.8409 0.0000 -30.1806 0.0000
# 4 0.0000 0.0000 0.0000 24.2836 0.0000 -2.5298
# 5 -27.1445 -27.7483 -30.1806 0.0000 30.6068 0.0000
# 6 0.0000 0.0000 0.0000 -2.5298 0.0000 23.5272
#
#
#
# Elastic Compliance Matrix: (Units=1/GPa)
#
#
# Indices 1 2 3 4 5 6 
#
# 1 0.021843 -0.006968 -0.003963 0.000000 0.009147 0.000000
# 2 -0.006968 0.020244 -0.007659 0.000000 0.004621 0.000000
# 3 -0.003963 -0.007659 0.019206 0.000000 0.008480 0.000000
# 4 0.000000 0.000000 0.000000 0.041647 0.000000 0.004478
# 5 0.009147 0.004621 0.008480 0.000000 0.053336 0.000000
# 6 0.000000 0.000000 0.000000 0.004478 0.000000 0.042986
#
#
# Mechanical properties :
#
#
# Convention : Reuss Voigt Hill
#
# Bulk Modulus (GPa) = 41.47154 68.66786 55.06970
# Shear Modulus (GPa) = 20.45146 23.34338 21.89742
#
# Velocity S-wave (km/s) = 3.37593 3.60672 3.49323
# Velocity P-wave (km/s) = 6.18922 7.45726 6.85263
#
# Compressibility (1/GPa) = 0.02411292
#
# Stress axis : x y z
#
# Youngs Moduli (GPa) = 45.78048 49.39617 52.06651
#
# Poissons Ratio (x) = 0.34419 0.20636
# Poissons Ratio (y) = 0.31900 0.39879
# Poissons Ratio (z) = 0.18145 0.37834
#
# Static dielectric constant tensor:
#      x y z
#    x 3.146220 0.000000 -0.341400 
#    y 0.000000 3.433140 0.000000 
#    z -0.341400 0.000000 3.248360 
# 
# 
# High freq. dielectric constant tensor:
#      x y z
#    x 1.673800 0.000000 -0.031290 
#    y 0.000000 1.694890 0.000000 
#    z -0.031290 0.000000 1.683170 
# 
# From -- ./inp_files/37932.got.cif
#   From: 2010.06.25/outbox.cif.g09.slc.cpg/sg10_19_cif.got.tgz:37932.got - 2010.06.27 22:07:45.
