data_PCOD8065948
_publ_section_title
;
Structure prediction by ZEFSAII (Michael W. Deem and Ramdas Pophale) SiO2 
 PCOD8065948
Probable space group: P 2/M
;
_chemical_formula_sum "Si O2"
_cell_formula_units_Z 28
_cell_length_a 9.370532
_cell_length_b 17.508535
_cell_length_c 17.129105
_cell_angle_alpha 90.000000
_cell_angle_beta 34.857136
_cell_angle_gamma 90.000000
_cell_volume 1606.162155
_symmetry_space_group_name_H-M "P 2/M"
_symmetry_group_IT_number 10
_symmetry_cell_setting 'monoclinic'
loop_
_space_group_symop_operation_xyz
x,y,z
-x,y,-z
-x,-y,-z
x,-y,z
loop_
_atom_site_type_symbol
_atom_site_label
_atom_site_fract_x
_atom_site_fract_y
_atom_site_fract_z
Si Si1 0.598405 0.359997 0.162326
Si Si2 0.904519 0.500000 0.836730
Si Si3 0.595015 0.810981 0.159813
Si Si4 0.785723 0.089534 0.366034
Si Si5 0.074455 0.189019 0.840187
Si Si6 0.116175 0.089534 0.366034
Si Si7 0.414710 0.500000 0.163270
Si Si8 0.914618 0.640003 0.162326
O O1 0.483658 0.275097 0.206986
O O2 0.403331 0.423960 0.221512
O O3 0.671543 0.377738 0.218971
O O4 0.845251 0.363601 1.000000
O O5 0.830700 0.500000 0.779534
O O6 0.067866 0.576040 0.778488
O O7 0.662549 0.500000 0.000000
O O8 0.708258 0.828253 0.194495
O O9 0.377576 0.868940 0.235731
O O10 0.806653 0.821725 1.000000
O O11 0.500000 0.116587 0.500000
O O12 0.915230 0.131060 0.235731
O O13 0.925257 0.112018 0.383162
O O14 0.803324 0.000000 0.341425
O O15 0.104616 0.275097 0.793014
O O16 0.000000 0.116587 0.500000
O O17 0.172402 0.000000 0.341425
#
# Coordination Sequence:
#
# PCOD8065948 Si02
#       8
#     4   2   4   4   4   4   2   4
#     4   8  14  25  40  59  87 123 158 190 228 276
#     4   9  15  21  33  57  88 121 156 193 232 271
#     4   9  18  32  50  73 100 129 161 198 241 287
#     4  10  21  36  53  72  95 125 161 200 241 287
#     4   9  18  32  50  73 100 129 161 198 241 287
#     4  10  21  36  53  72  95 125 161 200 241 287
#     4   9  15  21  33  57  88 121 156 193 232 271
#     4   8  14  25  40  59  87 123 158 190 228 276
#
# _framework density 17.432859000000001
#
# number of rings (size 3 to 8) (size 9 to 14) (size 15 to 20)
#    0.000    3.000    0.000    3.000    0.000    5.714 
#    0.000    5.714    0.000    0.000    0.000    1.000 
#    0.000    0.000    0.000    0.000    0.000    0.000 
#
# Total GULP energy -347116.486122 kJ/mol
# GULP energy per Si atom -12397.017361 kJ/mol
# Density = 1.739318 g / cm^3
# Si number density = 17.432859 Si / 1000 Ang^3
#
#
#
# Elastic Constant Matrix: (Units=GPa)
#
#
# Indices 1 2 3 4 5 6 
#
# 1 139.0641 73.3165 48.7059 0.0000 -0.5722 0.0000
# 2 73.3165 85.9149 40.3359 0.0000 -0.4542 0.0000
# 3 48.7059 40.3359 46.4795 0.0000 -0.7030 0.0000
# 4 0.0000 0.0000 0.0000 0.7187 0.0000 -0.4455
# 5 -0.5722 -0.4542 -0.7030 0.0000 24.4076 0.0000
# 6 0.0000 0.0000 0.0000 -0.4455 0.0000 33.0611
#
#
#
# Elastic Compliance Matrix: (Units=1/GPa)
#
#
# Indices 1 2 3 4 5 6 
#
# 1 0.014474 -0.008827 -0.007508 0.000000 -0.000041 0.000000
# 2 -0.008827 0.025026 -0.012470 0.000000 -0.000100 0.000000
# 3 -0.007508 -0.012470 0.040215 0.000000 0.000750 0.000000
# 4 0.000000 0.000000 0.000000 1.403074 0.000000 0.018905
# 5 -0.000041 -0.000100 0.000750 0.000000 0.040990 0.000000
# 6 0.000000 0.000000 0.000000 0.018905 0.000000 0.030502
#
#
# Mechanical properties :
#
#
# Convention : Reuss Voigt Hill
#
# Bulk Modulus (GPa) = 45.23632 66.24166 55.73899
# Shear Modulus (GPa) = 3.08783 18.91083 10.99933
#
# Velocity S-wave (km/s) = 1.33234 3.29717 2.51460
# Velocity P-wave (km/s) = 5.32654 7.25092 6.36191
#
# Compressibility (1/GPa) = 0.02210613
#
# Stress axis : x y z
#
# Youngs Moduli (GPa) = 69.08961 39.95871 24.86639
#
# Poissons Ratio (x) = 0.35272 0.18669
# Poissons Ratio (y) = 0.60985 0.31008
# Poissons Ratio (z) = 0.51870 0.49827
#
# Static dielectric constant tensor:
#      x y z
#    x 3.404470 0.000000 -0.009220 
#    y 0.000000 3.406790 0.000000 
#    z -0.009220 0.000000 2.734810 
# 
# 
# High freq. dielectric constant tensor:
#      x y z
#    x 1.680010 0.000000 -0.000840 
#    y 0.000000 1.682290 0.000000 
#    z -0.000840 0.000000 1.619370 
# 
# From -- ./inp_files/75299.got.cif
#   From: 2010.06.25/outbox.cif.g09.slc.cpg/sg10_38_cif.got.tgz:75299.got - 2010.06.27 22:07:45.
