data_PCOD8065430
_publ_section_title
;
Structure prediction by ZEFSAII (Michael W. Deem and Ramdas Pophale) SiO2 
 PCOD8065430
Probable space group: P 2/M
;
_chemical_formula_sum "Si O2"
_cell_formula_units_Z 24
_cell_length_a 9.149888
_cell_length_b 8.651679
_cell_length_c 20.571489
_cell_angle_alpha 90.000000
_cell_angle_beta 47.799430
_cell_angle_gamma 90.000000
_cell_volume 1206.373126
_symmetry_space_group_name_H-M "P 2/M"
_symmetry_group_IT_number 10
_symmetry_cell_setting 'monoclinic'
loop_
_space_group_symop_operation_xyz
x,y,z
-x,y,-z
-x,-y,-z
x,-y,z
loop_
_atom_site_type_symbol
_atom_site_label
_atom_site_fract_x
_atom_site_fract_y
_atom_site_fract_z
Si Si1 0.964711 0.818156 0.081933
Si Si2 0.556250 0.321001 0.240828
Si Si3 0.718489 0.819944 0.909341
Si Si4 0.794026 0.680484 0.748799
Si Si5 0.797214 0.180913 0.408654
Si Si6 0.509662 0.679803 0.592567
O O1 0.750452 0.778387 0.172327
O O2 0.130666 0.755478 0.081604
O O3 0.987830 0.000000 0.070150
O O4 0.000000 0.744027 0.000000
O O5 0.612335 0.500000 0.216812
O O6 0.395620 0.269781 0.236141
O O7 0.469021 0.284205 0.337814
O O8 0.752886 0.719620 0.835396
O O9 0.755215 0.000000 0.882294
O O10 0.500000 0.790614 0.000000
O O11 0.840591 0.500000 0.727345
O O12 0.975853 0.776576 0.666760
O O13 0.678513 0.229640 0.379565
O O14 0.710106 0.266583 0.497834
O O15 0.773689 0.000000 0.426396
O O16 0.474680 0.500000 0.589448
#
# Coordination Sequence:
#
# PCOD8065430 Si02
#       6
#     4   4   4   4   4   4
#     4  10  21  37  59  85 113 147 185 228 279 332
#     4  10  23  39  57  82 112 148 189 232 277 330
#     4  10  21  38  60  86 115 147 186 231 280 335
#     4  11  23  39  57  81 114 151 190 231 279 332
#     4  11  22  37  58  86 115 146 187 232 281 335
#     4  10  20  38  61  84 112 148 188 231 281 333
#
# _framework density 19.894341000000001
#
# number of rings (size 3 to 8) (size 9 to 14) (size 15 to 20)
#    0.000    1.667    0.000    5.500    0.000    8.667 
#    0.000    3.333    0.000    0.000    0.000    0.000 
#    0.000    0.000    0.000    0.000    0.000    0.000 
#
# Total GULP energy -297728.269216 kJ/mol
# GULP energy per Si atom -12405.344551 kJ/mol
# Density = 1.984906 g / cm^3
# Si number density = 19.894341 Si / 1000 Ang^3
#
#
#
# Elastic Constant Matrix: (Units=GPa)
#
#
# Indices 1 2 3 4 5 6 
#
# 1 155.8389 21.9531 68.6396 0.0000 9.5005 0.0000
# 2 21.9531 36.4391 18.3805 0.0000 2.9242 0.0000
# 3 68.6396 18.3805 109.8600 0.0000 6.7768 0.0000
# 4 0.0000 0.0000 0.0000 29.2046 0.0000 4.1028
# 5 9.5005 2.9242 6.7768 0.0000 40.6261 0.0000
# 6 0.0000 0.0000 0.0000 4.1028 0.0000 12.8690
#
#
#
# Elastic Compliance Matrix: (Units=1/GPa)
#
#
# Indices 1 2 3 4 5 6 
#
# 1 0.009165 -0.002818 -0.005188 0.000000 -0.001075 0.000000
# 2 -0.002818 0.030911 -0.003349 0.000000 -0.001007 0.000000
# 3 -0.005188 -0.003349 0.012948 0.000000 -0.000705 0.000000
# 4 0.000000 0.000000 0.000000 0.035847 0.000000 -0.011428
# 5 -0.001075 -0.001007 -0.000705 0.000000 0.025056 0.000000
# 6 0.000000 0.000000 0.000000 -0.011428 0.000000 0.081350
#
#
# Mechanical properties :
#
#
# Convention : Reuss Voigt Hill
#
# Bulk Modulus (GPa) = 32.98893 57.78716 45.38805
# Shear Modulus (GPa) = 21.92116 29.41759 25.66937
#
# Velocity S-wave (km/s) = 3.32306 3.84955 3.59595
# Velocity P-wave (km/s) = 5.59836 6.99062 6.33287
#
# Compressibility (1/GPa) = 0.03031320
#
# Stress axis : x y z
#
# Youngs Moduli (GPa) = 109.11657 32.35107 77.23317
#
# Poissons Ratio (x) = 0.09117 0.40070
# Poissons Ratio (y) = 0.30749 0.25864
# Poissons Ratio (z) = 0.56611 0.10834
#
# Static dielectric constant tensor:
#      x y z
#    x 3.797220 0.000000 0.120100 
#    y 0.000000 3.571600 0.000000 
#    z 0.120100 0.000000 3.676670 
# 
# 
# High freq. dielectric constant tensor:
#      x y z
#    x 1.783860 0.000000 0.002440 
#    y 0.000000 1.772540 0.000000 
#    z 0.002440 0.000000 1.788570 
# 
# From -- ./inp_files/33745.got.cif
#   From: 2010.06.25/outbox.cif.g09.slc.cpg/sg10_17_cif.got.tgz:33745.got - 2010.06.27 22:07:45.
