data_PCOD8065471
_publ_section_title
;
Structure prediction by ZEFSAII (Michael W. Deem and Ramdas Pophale) SiO2 
 PCOD8065471
Probable space group: P 2/M
;
_chemical_formula_sum "Si O2"
_cell_formula_units_Z 32
_cell_length_a 12.988519
_cell_length_b 8.924358
_cell_length_c 30.574852
_cell_angle_alpha 90.000000
_cell_angle_beta 24.900537
_cell_angle_gamma 90.000000
_cell_volume 1492.206023
_symmetry_space_group_name_H-M "P 2/M"
_symmetry_group_IT_number 10
_symmetry_cell_setting 'monoclinic'
loop_
_space_group_symop_operation_xyz
x,y,z
-x,y,-z
-x,-y,-z
x,-y,z
loop_
_atom_site_type_symbol
_atom_site_label
_atom_site_fract_x
_atom_site_fract_y
_atom_site_fract_z
Si Si1 0.355909 0.824124 0.921194
Si Si2 0.794454 0.822047 0.813493
Si Si3 0.924670 0.677256 0.222450
Si Si4 0.118192 0.323285 0.862165
Si Si5 0.246520 0.830653 0.585494
Si Si6 0.540120 0.176257 0.753830
Si Si7 0.023463 0.663596 0.541338
Si Si8 0.567246 0.831332 0.577926
O O1 0.539350 0.774551 0.889536
O O2 0.463488 0.781235 0.832604
O O3 0.300371 0.000000 0.945270
O O4 0.105998 0.734477 0.022584
O O5 0.835508 0.742652 0.844867
O O6 0.005033 0.758671 0.699551
O O7 0.802758 0.000000 0.816360
O O8 0.916027 0.500000 0.231529
O O9 0.926251 0.724997 0.171044
O O10 0.688185 0.752659 0.336385
O O11 0.139890 0.500000 0.858230
O O12 0.366103 0.252536 0.785028
O O13 0.500000 0.745915 0.500000
O O14 0.234878 0.829528 0.537699
O O15 0.261509 0.000000 0.598619
O O16 0.815439 0.231447 0.641495
O O17 0.530220 0.000000 0.749955
O O18 0.019019 0.500000 0.566573
O O19 0.000000 0.636418 0.500000
O O20 0.292345 0.738422 0.439512
O O21 0.511580 0.000000 0.614979
#
# Coordination Sequence:
#
# PCOD8065471 Si02
#       8
#     4   4   4   4   4   4   4   4
#     4  10  23  42  65  93 122 152 197 259 311 356
#     4  10  20  38  62  88 120 159 201 244 298 361
#     4  11  24  40  57  85 125 163 202 250 302 358
#     4  11  25  43  63  87 120 161 201 249 310 367
#     4   9  16  31  56  85 115 148 188 235 287 342
#     4  11  23  42  68  95 121 153 200 254 305 359
#     4  11  24  40  58  86 127 166 197 238 293 351
#     4  11  21  36  61  88 117 158 204 247 294 351
#
# _framework density 21.444758
#
# number of rings (size 3 to 8) (size 9 to 14) (size 15 to 20)
#    0.000    1.500    1.250    3.750    0.000   11.500 
#    0.000    5.625    0.000    0.000    0.000    0.000 
#    0.000    0.000    0.000    0.000    0.000    0.000 
#
# Total GULP energy -396756.830215 kJ/mol
# GULP energy per Si atom -12398.650944 kJ/mol
# Density = 2.139595 g / cm^3
# Si number density = 21.444758 Si / 1000 Ang^3
#
#
#
# Elastic Constant Matrix: (Units=GPa)
#
#
# Indices 1 2 3 4 5 6 
#
# 1 101.7672 41.1884 6.1851 0.0000 -8.5054 0.0000
# 2 41.1884 80.8024 21.4328 0.0000 -1.1118 0.0000
# 3 6.1851 21.4328 62.4949 0.0000 -3.9947 0.0000
# 4 0.0000 0.0000 0.0000 15.1621 0.0000 8.7643
# 5 -8.5054 -1.1118 -3.9947 0.0000 35.5778 0.0000
# 6 0.0000 0.0000 0.0000 8.7643 0.0000 14.7782
#
#
#
# Elastic Compliance Matrix: (Units=1/GPa)
#
#
# Indices 1 2 3 4 5 6 
#
# 1 0.012747 -0.006790 0.001257 0.000000 0.002976 0.000000
# 2 -0.006790 0.017232 -0.005345 0.000000 -0.001685 0.000000
# 3 0.001257 -0.005345 0.017847 0.000000 0.002137 0.000000
# 4 0.000000 0.000000 0.000000 0.100358 0.000000 -0.059518
# 5 0.002976 -0.001685 0.002137 0.000000 0.029006 0.000000
# 6 0.000000 0.000000 0.000000 -0.059518 0.000000 0.102965
#
#
# Mechanical properties :
#
#
# Convention : Reuss Voigt Hill
#
# Bulk Modulus (GPa) = 38.35969 42.51969 40.43969
# Shear Modulus (GPa) = 16.09784 24.85415 20.47600
#
# Velocity S-wave (km/s) = 2.74280 3.40808 3.09338
# Velocity P-wave (km/s) = 5.28745 5.94620 5.62647
#
# Compressibility (1/GPa) = 0.02606903
#
# Stress axis : x y z
#
# Youngs Moduli (GPa) = 78.45052 58.03221 56.03276
#
# Poissons Ratio (x) = 0.39405 -0.07046
# Poissons Ratio (y) = 0.53270 0.29952
# Poissons Ratio (z) = -0.09864 0.31020
#
# Static dielectric constant tensor:
#      x y z
#    x 4.016160 0.000000 -0.078020 
#    y 0.000000 3.757700 0.000000 
#    z -0.078020 0.000000 3.879780 
# 
# 
# High freq. dielectric constant tensor:
#      x y z
#    x 1.855660 0.000000 -0.005650 
#    y 0.000000 1.827080 0.000000 
#    z -0.005650 0.000000 1.839530 
# 
# From -- ./inp_files/94945.got.cif
#   From: 2010.06.25/outbox.cif.g09.slc.cpg/sg10_48_cif.got.tgz:94945.got - 2010.06.27 22:07:45.
