data_PCOD8065810
_publ_section_title
;
Structure prediction by ZEFSAII (Michael W. Deem and Ramdas Pophale) SiO2 
 PCOD8065810
Probable space group: P 2/M
;
_chemical_formula_sum "Si O2"
_cell_formula_units_Z 32
_cell_length_a 13.265302
_cell_length_b 8.951000
_cell_length_c 17.319098
_cell_angle_alpha 90.000000
_cell_angle_beta 100.544683
_cell_angle_gamma 90.000000
_cell_volume 2021.702191
_symmetry_space_group_name_H-M "P 2/M"
_symmetry_group_IT_number 10
_symmetry_cell_setting 'monoclinic'
loop_
_space_group_symop_operation_xyz
x,y,z
-x,y,-z
-x,-y,-z
x,-y,z
loop_
_atom_site_type_symbol
_atom_site_label
_atom_site_fract_x
_atom_site_fract_y
_atom_site_fract_z
Si Si1 0.078330 0.821077 0.330651
Si Si2 0.776833 0.826485 0.940376
Si Si3 0.122860 0.675451 0.180565
Si Si4 0.381416 0.327002 0.970853
Si Si5 0.119877 0.836059 0.500440
Si Si6 0.070534 0.166226 0.906990
Si Si7 0.850320 0.821385 0.332161
Si Si8 0.732172 0.169129 0.171799
O O1 0.135614 0.747048 0.266779
O O2 0.133163 0.760132 0.417742
O O3 0.959797 0.767527 0.313840
O O4 0.085661 0.000000 0.326145
O O5 0.787029 0.742039 0.860433
O O6 0.755173 0.000000 0.923366
O O7 0.681065 0.762438 0.973709
O O8 0.884114 0.802321 0.001443
O O9 0.136723 0.500000 0.188811
O O10 0.012943 0.712134 0.127695
O O11 0.354026 0.500000 0.975168
O O12 0.352278 0.273366 0.880310
O O13 0.500000 0.293989 0.000000
O O14 0.169048 0.754617 0.583349
O O15 0.000000 0.851793 0.500000
O O16 0.169626 0.000000 0.501247
O O17 0.163098 0.174436 0.860536
O O18 0.020495 0.000000 0.896383
O O19 0.758662 0.771052 0.261931
O O20 0.854392 0.000000 0.338216
O O21 0.689569 0.000000 0.168316
#
# Coordination Sequence:
#
# PCOD8065810 Si02
#       8
#     4   4   4   4   4   4   4   4
#     4   9  15  26  41  57  83 119 155 185 214 249
#     4  10  21  35  50  64  80 108 147 186 219 256
#     4  12  22  28  39  61  90 120 149 181 216 258
#     4  10  21  36  51  67  90 114 137 174 222 268
#     4   7  11  19  37  60  79 108 150 189 217 244
#     4   9  17  30  44  60  83 114 148 182 217 251
#     4   8  12  22  40  63  86 110 148 190 220 246
#     4   9  16  27  46  68  89 115 148 185 218 255
#
# _framework density 15.828246
#
# number of rings (size 3 to 8) (size 9 to 14) (size 15 to 20)
#    0.000    2.750    1.250    4.500    0.000    5.000 
#    0.000    0.000    0.000    4.125    0.000    0.000 
#    0.000    1.000    0.000   11.500    0.000    2.875 
#
# Total GULP energy -396492.654168 kJ/mol
# GULP energy per Si atom -12390.395443 kJ/mol
# Density = 1.579222 g / cm^3
# Si number density = 15.828246 Si / 1000 Ang^3
#
#
#
# Elastic Constant Matrix: (Units=GPa)
#
#
# Indices 1 2 3 4 5 6 
#
# 1 39.9545 27.8539 36.4848 0.0000 5.5203 0.0000
# 2 27.8539 69.5732 46.1046 0.0000 -0.7749 0.0000
# 3 36.4848 46.1046 154.4197 0.0000 2.9441 0.0000
# 4 0.0000 0.0000 0.0000 6.8350 0.0000 -0.0278
# 5 5.5203 -0.7749 2.9441 0.0000 14.3306 0.0000
# 6 0.0000 0.0000 0.0000 -0.0278 0.0000 17.6052
#
#
#
# Elastic Compliance Matrix: (Units=1/GPa)
#
#
# Indices 1 2 3 4 5 6 
#
# 1 0.041349 -0.013025 -0.005585 0.000000 -0.015485 0.000000
# 2 -0.013025 0.022083 -0.003649 0.000000 0.006961 0.000000
# 3 -0.005585 -0.003649 0.008882 0.000000 0.000129 0.000000
# 4 0.000000 0.000000 0.000000 0.146306 0.000000 0.000231
# 5 -0.015485 0.006961 0.000129 0.000000 0.076095 0.000000
# 6 0.000000 0.000000 0.000000 0.000231 0.000000 0.056802
#
#
# Mechanical properties :
#
#
# Convention : Reuss Voigt Hill
#
# Bulk Modulus (GPa) = 35.97635 53.87044 44.92339
# Shear Modulus (GPa) = 12.33648 17.98776 15.16212
#
# Velocity S-wave (km/s) = 2.79480 3.37476 3.09838
# Velocity P-wave (km/s) = 5.76134 7.02094 6.42210
#
# Compressibility (1/GPa) = 0.02779604
#
# Stress axis : x y z
#
# Youngs Moduli (GPa) = 24.18461 45.28273 112.58230
#
# Poissons Ratio (x) = 0.58982 0.62881
# Poissons Ratio (y) = 0.31501 0.41077
# Poissons Ratio (z) = 0.13508 0.16522
#
# Static dielectric constant tensor:
#      x y z
#    x 2.553950 0.000000 0.072040 
#    y 0.000000 2.788500 0.000000 
#    z 0.072040 0.000000 3.608840 
# 
# 
# High freq. dielectric constant tensor:
#      x y z
#    x 1.545510 0.000000 -0.001610 
#    y 0.000000 1.584160 0.000000 
#    z -0.001610 0.000000 1.626520 
# 
# From -- ./inp_files/54791.got.cif
#   From: 2010.06.25/outbox.cif.g09.slc.cpg/sg10_28_cif.got.tgz:54791.got - 2010.06.27 22:07:45.
