data_PCOD8065528
_publ_section_title
;
Structure prediction by ZEFSAII (Michael W. Deem and Ramdas Pophale) SiO2 
 PCOD8065528
Probable space group: P 2/M
;
_chemical_formula_sum "Si O2"
_cell_formula_units_Z 18
_cell_length_a 11.747394
_cell_length_b 9.419121
_cell_length_c 16.052765
_cell_angle_alpha 90.000000
_cell_angle_beta 26.173818
_cell_angle_gamma 90.000000
_cell_volume 783.492196
_symmetry_space_group_name_H-M "P 2/M"
_symmetry_group_IT_number 10
_symmetry_cell_setting 'monoclinic'
loop_
_space_group_symop_operation_xyz
x,y,z
-x,y,-z
-x,-y,-z
x,-y,z
loop_
_atom_site_type_symbol
_atom_site_label
_atom_site_fract_x
_atom_site_fract_y
_atom_site_fract_z
Si Si1 0.502530 0.156907 0.750402
Si Si2 0.207282 0.658222 0.695470
Si Si3 0.256977 0.338991 0.276637
Si Si4 0.008730 0.834281 0.682751
Si Si5 0.000000 0.745643 0.000000
O O1 0.514520 0.268267 0.818936
O O2 0.718173 0.194088 0.540540
O O3 0.556514 0.000000 0.751396
O O4 0.226503 0.156360 0.887359
O O5 0.500000 0.714623 0.500000
O O6 0.191316 0.500000 0.666731
O O7 0.027284 0.766841 0.762465
O O8 0.111972 0.648275 0.853093
O O9 0.335353 0.500000 0.202411
O O10 0.000000 0.334323 0.500000
O O11 0.216728 0.247744 0.219221
O O12 0.938159 0.000000 0.736015
#
# Coordination Sequence:
#
# PCOD8065528 Si02
#       5
#     4   4   4   4   2
#     4  10  21  37  61  93 130 169 211 260 314 375
#     4  11  24  42  64  92 128 169 213 262 314 375
#     4   9  18  34  60  92 126 166 212 262 316 374
#     4  10  20  38  64  93 126 167 213 261 316 377
#     4  12  24  42  64  96 128 170 212 262 312 380
#
# _framework density 22.974063999999998
#
# number of rings (size 3 to 8) (size 9 to 14) (size 15 to 20)
#    0.000    1.778    2.222    2.000    0.000    7.556 
#    0.000    1.111    0.000    5.333    0.000    0.000 
#    0.000    0.000    0.000    0.000    0.000    0.000 
#
# Total GULP energy -223251.874891 kJ/mol
# GULP energy per Si atom -12402.881938 kJ/mol
# Density = 2.292177 g / cm^3
# Si number density = 22.974064 Si / 1000 Ang^3
#
#
#
# Elastic Constant Matrix: (Units=GPa)
#
#
# Indices 1 2 3 4 5 6 
#
# 1 173.0764 89.1093 38.3566 0.0000 -7.6530 0.0000
# 2 89.1093 165.8119 19.0744 0.0000 -5.8760 0.0000
# 3 38.3566 19.0744 58.4493 0.0000 -3.3714 0.0000
# 4 0.0000 0.0000 0.0000 4.3548 0.0000 1.1459
# 5 -7.6530 -5.8760 -3.3714 0.0000 35.7813 0.0000
# 6 0.0000 0.0000 0.0000 1.1459 0.0000 41.8793
#
#
#
# Elastic Compliance Matrix: (Units=1/GPa)
#
#
# Indices 1 2 3 4 5 6 
#
# 1 0.009020 -0.004305 -0.004468 0.000000 0.000801 0.000000
# 2 -0.004305 0.008346 0.000128 0.000000 0.000462 0.000000
# 3 -0.004468 0.000128 0.020054 0.000000 0.000955 0.000000
# 4 0.000000 0.000000 0.000000 0.231299 0.000000 -0.006329
# 5 0.000801 0.000462 0.000955 0.000000 0.028285 0.000000
# 6 0.000000 0.000000 0.000000 -0.006329 0.000000 0.024051
#
#
# Mechanical properties :
#
#
# Convention : Reuss Voigt Hill
#
# Bulk Modulus (GPa) = 49.67650 76.71314 63.19482
# Shear Modulus (GPa) = 14.49041 33.12288 23.80664
#
# Velocity S-wave (km/s) = 2.51416 3.80116 3.22256
# Velocity P-wave (km/s) = 5.48614 7.26146 6.43531
#
# Compressibility (1/GPa) = 0.02013024
#
# Stress axis : x y z
#
# Youngs Moduli (GPa) = 110.86630 119.81608 49.86474
#
# Poissons Ratio (x) = 0.51581 0.22280
# Poissons Ratio (y) = 0.47728 -0.00639
# Poissons Ratio (z) = 0.49536 -0.01534
#
# Static dielectric constant tensor:
#      x y z
#    x 4.120040 0.000000 -0.045920 
#    y 0.000000 3.964330 0.000000 
#    z -0.045920 0.000000 3.863280 
# 
# 
# High freq. dielectric constant tensor:
#      x y z
#    x 1.910080 0.000000 -0.003600 
#    y 0.000000 1.904300 0.000000 
#    z -0.003600 0.000000 1.896350 
# 
# From -- ./inp_files/75842.got.cif
#   From: 2010.06.25/outbox.cif.g09.slc.cpg/sg10_38_cif.got.tgz:75842.got - 2010.06.27 22:07:45.
