data_PCOD8065339
_publ_section_title
;
Structure prediction by ZEFSAII (Michael W. Deem and Ramdas Pophale) SiO2 
 PCOD8065339
Probable space group: P 2/M
;
_chemical_formula_sum "Si O2"
_cell_formula_units_Z 28
_cell_length_a 27.894477
_cell_length_b 7.724733
_cell_length_c 9.221348
_cell_angle_alpha 90.000000
_cell_angle_beta 137.439894
_cell_angle_gamma 90.000000
_cell_volume 1343.928397
_symmetry_space_group_name_H-M "P 2/M"
_symmetry_group_IT_number 10
_symmetry_cell_setting 'monoclinic'
loop_
_space_group_symop_operation_xyz
x,y,z
-x,y,-z
-x,-y,-z
x,-y,z
loop_
_atom_site_type_symbol
_atom_site_label
_atom_site_fract_x
_atom_site_fract_y
_atom_site_fract_z
Si Si1 0.438073 0.500000 0.473817
Si Si2 0.066670 0.204353 0.560813
Si Si3 0.204555 0.796360 0.361832
Si Si4 0.344261 0.798794 0.849990
Si Si5 0.455293 0.500000 0.041183
Si Si6 0.660570 0.809173 0.827600
Si Si7 0.069392 0.793822 0.239183
Si Si8 0.792605 0.694998 0.961365
O O1 0.500000 0.500000 0.500000
O O2 0.476009 0.500000 0.708272
O O3 0.392264 0.672195 0.358003
O O4 0.069241 0.280855 0.403061
O O5 0.000000 0.281889 0.500000
O O6 0.060218 0.000000 0.535607
O O7 0.134198 0.255818 0.803032
O O8 0.277616 0.745833 0.603152
O O9 0.139198 0.724478 0.311812
O O10 0.202344 0.711255 0.199820
O O11 0.197361 0.000000 0.326222
O O12 0.365842 0.000000 0.872374
O O13 0.409277 0.674120 0.955247
O O14 0.322102 0.765268 0.966818
O O15 0.500000 0.500000 0.000000
O O16 0.732546 0.815921 0.895796
O O17 0.625654 0.000000 0.738802
O O18 0.070175 0.000000 0.244531
O O19 0.000000 0.725482 0.000000
O O20 0.771946 0.500000 0.955231
#
# Coordination Sequence:
#
# PCOD8065339 Si02
#       8
#     2   4   4   4   2   4   4   4
#     4  12  24  46  68 102 131 164 215 258 318 392
#     4  10  20  37  63  92 124 165 215 268 323 380
#     4  10  21  38  60  89 124 163 214 262 313 383
#     4  10  23  43  67  95 126 169 214 258 317 383
#     4  12  28  44  68  94 137 168 203 264 316 384
#     4  11  23  43  70  96 129 169 214 265 321 380
#     4   9  17  33  60  91 122 159 207 264 319 375
#     4  12  25  39  60  92 128 168 217 267 318 379
#
# _framework density 20.834443
#
# number of rings (size 3 to 8) (size 9 to 14) (size 15 to 20)
#    0.000    1.429    2.143    3.000    3.000    6.000 
#    0.000    0.714    0.000    1.714    0.000    0.000 
#    0.000    0.000    0.000    0.000    0.000    0.000 
#
# Total GULP energy -347190.819918 kJ/mol
# GULP energy per Si atom -12399.672140 kJ/mol
# Density = 2.078702 g / cm^3
# Si number density = 20.834443 Si / 1000 Ang^3
#
#
#
# Elastic Constant Matrix: (Units=GPa)
#
#
# Indices 1 2 3 4 5 6 
#
# 1 180.7419 36.6257 79.3779 0.0000 -6.4045 0.0000
# 2 36.6257 102.7503 64.2227 0.0000 -6.4125 0.0000
# 3 79.3779 64.2227 202.6450 0.0000 -13.5230 0.0000
# 4 0.0000 0.0000 0.0000 18.9487 0.0000 1.0739
# 5 -6.4045 -6.4125 -13.5230 0.0000 47.4346 0.0000
# 6 0.0000 0.0000 0.0000 1.0739 0.0000 22.2838
#
#
#
# Elastic Compliance Matrix: (Units=1/GPa)
#
#
# Indices 1 2 3 4 5 6 
#
# 1 0.006755 -0.000937 -0.002341 0.000000 0.000118 0.000000
# 2 -0.000937 0.012281 -0.003489 0.000000 0.000539 0.000000
# 3 -0.002341 -0.003489 0.007039 0.000000 0.001219 0.000000
# 4 0.000000 0.000000 0.000000 0.052919 0.000000 -0.002550
# 5 0.000118 0.000539 0.001219 0.000000 0.021518 0.000000
# 6 0.000000 0.000000 0.000000 -0.002550 0.000000 0.044999
#
#
# Mechanical properties :
#
#
# Convention : Reuss Voigt Hill
#
# Bulk Modulus (GPa) = 79.74441 94.06552 86.90497
# Shear Modulus (GPa) = 30.63270 38.12748 34.38009
#
# Velocity S-wave (km/s) = 3.83860 4.28252 4.06662
# Velocity P-wave (km/s) = 7.61609 8.34867 7.99078
#
# Compressibility (1/GPa) = 0.01254006
#
# Stress axis : x y z
#
# Youngs Moduli (GPa) = 148.03821 81.42804 142.06864
#
# Poissons Ratio (x) = 0.07631 0.33260
# Poissons Ratio (y) = 0.13874 0.49567
# Poissons Ratio (z) = 0.34657 0.28410
#
# Static dielectric constant tensor:
#      x y z
#    x 3.925690 0.000000 -0.103740 
#    y 0.000000 3.669550 0.000000 
#    z -0.103740 0.000000 3.821930 
# 
# 
# High freq. dielectric constant tensor:
#      x y z
#    x 1.827190 0.000000 -0.005970 
#    y 0.000000 1.809540 0.000000 
#    z -0.005970 0.000000 1.826550 
# 
# From -- ./inp_files/37367.got.cif
#   From: 2010.06.25/outbox.cif.g09.slc.cpg/sg10_19_cif.got.tgz:37367.got - 2010.06.27 22:07:45.
