data_PCOD8065659
_publ_section_title
;
Structure prediction by ZEFSAII (Michael W. Deem and Ramdas Pophale) SiO2 
 PCOD8065659
Probable space group: P 2/M
;
_chemical_formula_sum "Si O2"
_cell_formula_units_Z 28
_cell_length_a 6.394999
_cell_length_b 13.793393
_cell_length_c 17.534363
_cell_angle_alpha 90.000000
_cell_angle_beta 62.605955
_cell_angle_gamma 90.000000
_cell_volume 1373.243795
_symmetry_space_group_name_H-M "P 2/M"
_symmetry_group_IT_number 10
_symmetry_cell_setting 'monoclinic'
loop_
_space_group_symop_operation_xyz
x,y,z
-x,y,-z
-x,-y,-z
x,-y,z
loop_
_atom_site_type_symbol
_atom_site_label
_atom_site_fract_x
_atom_site_fract_y
_atom_site_fract_z
Si Si1 0.455104 0.658913 0.303584
Si Si2 0.103273 0.885791 0.766776
Si Si3 0.315153 0.246685 0.177312
Si Si4 0.816298 0.220540 0.090265
Si Si5 0.359212 0.231987 0.596016
Si Si6 0.969399 0.605343 0.418187
Si Si7 0.045520 0.609929 0.836922
O O1 0.415540 0.738754 0.245195
O O2 0.448430 0.711608 0.386464
O O3 0.230923 0.588411 0.339106
O O4 0.709101 0.607222 0.251696
O O5 0.202754 0.841786 0.828628
O O6 0.244585 0.850663 0.668006
O O7 0.834484 0.851385 0.802433
O O8 0.116510 0.000000 0.768315
O O9 0.561835 0.229261 0.090460
O O10 0.165078 0.339786 0.175405
O O11 0.914112 0.328501 0.093146
O O12 0.000000 0.172306 0.000000
O O13 0.500000 0.187059 0.500000
O O14 0.162106 0.309267 0.603809
O O15 0.840389 0.500000 0.431312
O O16 0.000000 0.635666 0.500000
O O17 0.970152 0.500000 0.868898
#
# Coordination Sequence:
#
# PCOD8065659 Si02
#       7
#     4   4   4   4   4   4   4
#     4  11  19  38  58  84 124 170 208 253 304 362
#     4  11  24  44  67  94 120 156 211 263 319 381
#     4  10  20  40  64  90 124 163 202 257 310 369
#     4  10  23  44  66  92 129 165 200 253 317 374
#     4  12  23  40  63  89 130 166 208 261 309 367
#     4  11  23  35  56  89 125 169 213 254 304 362
#     4  10  21  36  61  94 126 167 212 252 299 365
#
# _framework density 20.389679000000001
#
# number of rings (size 3 to 8) (size 9 to 14) (size 15 to 20)
#    0.000    1.286    7.143    0.429    0.000    9.143 
#    0.000    1.429    0.000    1.286    0.000    0.000 
#    0.000    0.000    0.000    0.000    0.000    0.000 
#
# Total GULP energy -346907.382954 kJ/mol
# GULP energy per Si atom -12389.549391 kJ/mol
# Density = 2.034327 g / cm^3
# Si number density = 20.389679 Si / 1000 Ang^3
#
#
#
# Elastic Constant Matrix: (Units=GPa)
#
#
# Indices 1 2 3 4 5 6 
#
# 1 128.7919 49.9907 43.1547 0.0000 -18.1854 0.0000
# 2 49.9907 144.7668 33.3420 0.0000 -0.4897 0.0000
# 3 43.1547 33.3420 92.6042 0.0000 -17.6085 0.0000
# 4 0.0000 0.0000 0.0000 12.5318 0.0000 -0.1228
# 5 -18.1854 -0.4897 -17.6085 0.0000 32.3498 0.0000
# 6 0.0000 0.0000 0.0000 -0.1228 0.0000 6.5316
#
#
#
# Elastic Compliance Matrix: (Units=1/GPa)
#
#
# Indices 1 2 3 4 5 6 
#
# 1 0.010511 -0.002913 -0.003050 0.000000 0.004204 0.000000
# 2 -0.002913 0.008407 -0.002183 0.000000 -0.002698 0.000000
# 3 -0.003050 -0.002183 0.014137 0.000000 0.005947 0.000000
# 4 0.000000 0.000000 0.000000 0.079812 0.000000 0.001500
# 5 0.004204 -0.002698 0.005947 0.000000 0.036472 0.000000
# 6 0.000000 0.000000 0.000000 0.001500 0.000000 0.153130
#
#
# Mechanical properties :
#
#
# Convention : Reuss Voigt Hill
#
# Bulk Modulus (GPa) = 59.65263 68.79307 64.22285
# Shear Modulus (GPa) = 15.41560 26.26101 20.83831
#
# Velocity S-wave (km/s) = 2.75262 3.59270 3.20035
# Velocity P-wave (km/s) = 6.27872 7.14300 6.72476
#
# Compressibility (1/GPa) = 0.01676372
#
# Stress axis : x y z
#
# Youngs Moduli (GPa) = 95.14117 118.94724 70.73827
#
# Poissons Ratio (x) = 0.34648 0.21574
# Poissons Ratio (y) = 0.27714 0.15439
# Poissons Ratio (z) = 0.29017 0.25961
#
# Static dielectric constant tensor:
#      x y z
#    x 3.995040 0.000000 -0.197820 
#    y 0.000000 3.301160 0.000000 
#    z -0.197820 0.000000 3.834950 
# 
# 
# High freq. dielectric constant tensor:
#      x y z
#    x 1.812910 0.000000 -0.003760 
#    y 0.000000 1.759970 0.000000 
#    z -0.003760 0.000000 1.797300 
# 
# From -- ./inp_files/73411.got.cif
#   From: 2010.06.25/outbox.cif.g09.slc.cpg/sg10_37_cif.got.tgz:73411.got - 2010.06.27 22:07:45.
