data_PCOD8065328
_publ_section_title
;
Structure prediction by ZEFSAII (Michael W. Deem and Ramdas Pophale) SiO2 
 PCOD8065328
Probable space group: P 2/M
;
_chemical_formula_sum "Si O2"
_cell_formula_units_Z 28
_cell_length_a 11.129305
_cell_length_b 9.169491
_cell_length_c 16.526296
_cell_angle_alpha 90.000000
_cell_angle_beta 125.468748
_cell_angle_gamma 90.000000
_cell_volume 1373.547570
_symmetry_space_group_name_H-M "P 2/M"
_symmetry_group_IT_number 10
_symmetry_cell_setting 'monoclinic'
loop_
_space_group_symop_operation_xyz
x,y,z
-x,y,-z
-x,-y,-z
x,-y,z
loop_
_atom_site_type_symbol
_atom_site_label
_atom_site_fract_x
_atom_site_fract_y
_atom_site_fract_z
Si Si1 0.701147 0.170830 0.384804
Si Si2 0.912621 0.335837 0.577054
Si Si3 0.143668 0.333610 0.266750
Si Si4 0.477488 0.661846 0.396720
Si Si5 0.059690 0.170651 0.936964
Si Si6 0.672737 0.170271 0.066569
Si Si7 0.751911 0.664285 0.254243
O O1 0.851468 0.233350 0.482350
O O2 0.566183 0.208977 0.389914
O O3 0.658011 0.241314 0.281170
O O4 0.718164 0.000000 0.379863
O O5 0.852050 0.500000 0.539127
O O6 0.858205 0.275298 0.642193
O O7 0.087422 0.335576 0.643841
O O8 0.084177 0.500000 0.241548
O O9 0.310312 0.322245 0.301313
O O10 0.040615 0.236230 0.171708
O O11 0.500000 0.682481 0.500000
O O12 0.535253 0.500000 0.394577
O O13 0.233709 0.202443 0.980650
O O14 0.031493 0.000000 0.926647
O O15 0.000000 0.235173 0.000000
O O16 0.753780 0.261725 0.167492
O O17 0.683566 0.000000 0.091855
O O18 0.500000 0.218465 0.000000
O O19 0.689657 0.500000 0.222139
#
# Coordination Sequence:
#
# PCOD8065328 Si02
#       7
#     4   4   4   4   4   4   4
#     4  12  25  37  56  89 127 162 204 250 298 360
#     4  10  20  38  61  86 118 158 202 246 298 355
#     4  10  20  37  63  90 115 153 201 247 296 352
#     4  10  20  38  60  82 118 161 200 244 297 356
#     4  10  22  40  62  89 122 159 200 250 311 374
#     4  10  22  41  64  90 124 163 203 254 316 372
#     4  11  23  40  63  88 119 159 206 253 303 361
#
# _framework density 20.385169999999999
#
# number of rings (size 3 to 8) (size 9 to 14) (size 15 to 20)
#    0.000    1.571    2.857    2.143    0.000    6.000 
#    0.000    1.429    0.000    0.000    0.000    0.000 
#    0.000    0.000    0.000    0.000    0.000    0.000 
#
# Total GULP energy -347062.249558 kJ/mol
# GULP energy per Si atom -12395.080341 kJ/mol
# Density = 2.033877 g / cm^3
# Si number density = 20.385170 Si / 1000 Ang^3
#
#
#
# Elastic Constant Matrix: (Units=GPa)
#
#
# Indices 1 2 3 4 5 6 
#
# 1 110.2349 37.2181 44.2684 0.0000 -4.4159 0.0000
# 2 37.2181 87.6023 38.4020 0.0000 -14.5490 0.0000
# 3 44.2684 38.4020 69.1594 0.0000 -16.7441 0.0000
# 4 0.0000 0.0000 0.0000 82.9290 0.0000 -21.0472
# 5 -4.4159 -14.5490 -16.7441 0.0000 32.2361 0.0000
# 6 0.0000 0.0000 0.0000 -21.0472 0.0000 32.2295
#
#
#
# Elastic Compliance Matrix: (Units=1/GPa)
#
#
# Indices 1 2 3 4 5 6 
#
# 1 0.012892 -0.002727 -0.007559 0.000000 -0.003391 0.000000
# 2 -0.002727 0.015891 -0.006214 0.000000 0.003571 0.000000
# 3 -0.007559 -0.006214 0.024957 0.000000 0.009123 0.000000
# 4 0.000000 0.000000 0.000000 0.014454 0.000000 0.009439
# 5 -0.003391 0.003571 0.009123 0.000000 0.036907 0.000000
# 6 0.000000 0.000000 0.000000 0.009439 0.000000 0.037192
#
#
# Mechanical properties :
#
#
# Convention : Reuss Voigt Hill
#
# Bulk Modulus (GPa) = 48.21436 56.30817 52.26126
# Shear Modulus (GPa) = 27.44176 39.28611 33.36394
#
# Velocity S-wave (km/s) = 3.67299 4.39474 4.04998
# Velocity P-wave (km/s) = 6.45684 7.30984 6.89654
#
# Compressibility (1/GPa) = 0.02074071
#
# Stress axis : x y z
#
# Youngs Moduli (GPa) = 77.56854 62.93030 40.06927
#
# Poissons Ratio (x) = 0.17159 0.30288
# Poissons Ratio (y) = 0.21151 0.24898
# Poissons Ratio (z) = 0.58633 0.39103
#
# Static dielectric constant tensor:
#      x y z
#    x 4.062440 0.000000 -0.141370 
#    y 0.000000 3.590010 0.000000 
#    z -0.141370 0.000000 3.552240 
# 
# 
# High freq. dielectric constant tensor:
#      x y z
#    x 1.811540 0.000000 -0.007830 
#    y 0.000000 1.784440 0.000000 
#    z -0.007830 0.000000 1.782870 
# 
# From -- ./inp_files/63922.got.cif
#   From: 2010.06.25/outbox.cif.g09.slc.cpg/sg10_32_cif.got.tgz:63922.got - 2010.06.27 22:07:45.
