data_PCOD8065485
_publ_section_title
;
Structure prediction by ZEFSAII (Michael W. Deem and Ramdas Pophale) SiO2 
 PCOD8065485
Probable space group: P 2/M
;
_chemical_formula_sum "Si O2"
_cell_formula_units_Z 32
_cell_length_a 11.762468
_cell_length_b 9.208316
_cell_length_c 15.053930
_cell_angle_alpha 90.000000
_cell_angle_beta 87.250375
_cell_angle_gamma 90.000000
_cell_volume 1628.651901
_symmetry_space_group_name_H-M "P 2/M"
_symmetry_group_IT_number 10
_symmetry_cell_setting 'monoclinic'
loop_
_space_group_symop_operation_xyz
x,y,z
-x,y,-z
-x,-y,-z
x,-y,z
loop_
_atom_site_type_symbol
_atom_site_label
_atom_site_fract_x
_atom_site_fract_y
_atom_site_fract_z
Si Si1 0.069298 0.671570 0.870868
Si Si2 0.342452 0.168337 0.604657
Si Si3 0.292759 0.834117 0.415017
Si Si4 0.170130 0.670984 0.052199
Si Si5 0.578373 0.672174 0.913028
Si Si6 0.108065 0.830033 0.698075
Si Si7 0.065935 0.334287 0.406579
Si Si8 0.479330 0.167338 0.263689
O O1 0.083007 0.500000 0.856424
O O2 0.132908 0.758165 0.791634
O O3 0.934350 0.713749 0.878629
O O4 0.135020 0.725559 0.956005
O O5 0.366691 0.208996 0.500472
O O6 0.211874 0.209352 0.629259
O O7 0.425558 0.240884 0.674722
O O8 0.367062 0.000000 0.617446
O O9 0.192826 0.719698 0.413166
O O10 0.362380 0.820439 0.322153
O O11 0.247800 0.000000 0.429437
O O12 0.182232 0.500000 0.048085
O O13 0.292788 0.734607 0.077511
O O14 0.579052 0.500000 0.899259
O O15 0.525985 0.743039 0.826875
O O16 0.500000 0.715299 0.000000
O O17 0.992508 0.763033 0.665538
O O18 0.091525 0.000000 0.710423
O O19 0.067126 0.500000 0.373643
O O20 0.000000 0.315898 0.500000
O O21 0.505455 0.000000 0.238101
#
# Coordination Sequence:
#
# PCOD8065485 Si02
#       8
#     4   4   4   4   4   4   4   4
#     4   9  18  35  59  82 107 146 190 235 281 339
#     4   9  19  37  59  83 116 154 191 233 284 341
#     4  10  20  38  63  86 114 153 193 236 284 345
#     4   8  17  36  58  79 108 147 189 229 286 344
#     4  10  22  39  58  82 114 153 192 236 288 345
#     4  11  22  35  56  85 117 151 188 233 285 340
#     4  11  23  38  56  82 116 152 189 231 280 335
#     4  10  22  39  61  88 113 149 198 240 286 339
#
# _framework density 19.648153000000001
#
# number of rings (size 3 to 8) (size 9 to 14) (size 15 to 20)
#    0.000    2.250    1.250    1.875    3.500    2.750 
#    0.000    3.125    0.000    1.500    0.000    0.000 
#    0.000    0.000    0.000    0.000    0.000    0.000 
#
# Total GULP energy -396675.556360 kJ/mol
# GULP energy per Si atom -12396.111136 kJ/mol
# Density = 1.960343 g / cm^3
# Si number density = 19.648153 Si / 1000 Ang^3
#
#
#
# Elastic Constant Matrix: (Units=GPa)
#
#
# Indices 1 2 3 4 5 6 
#
# 1 71.9947 22.3039 22.7099 0.0000 18.4171 0.0000
# 2 22.3039 57.5050 38.7601 0.0000 -2.3780 0.0000
# 3 22.7099 38.7601 115.1145 0.0000 3.8233 0.0000
# 4 0.0000 0.0000 0.0000 26.5188 0.0000 6.0069
# 5 18.4171 -2.3780 3.8233 0.0000 25.8781 0.0000
# 6 0.0000 0.0000 0.0000 6.0069 0.0000 18.8903
#
#
#
# Elastic Compliance Matrix: (Units=1/GPa)
#
#
# Indices 1 2 3 4 5 6 
#
# 1 0.020539 -0.008028 -0.000843 0.000000 -0.015231 0.000000
# 2 -0.008028 0.025900 -0.007442 0.000000 0.009193 0.000000
# 3 -0.000843 -0.007442 0.011418 0.000000 -0.001771 0.000000
# 4 0.000000 0.000000 0.000000 0.040636 0.000000 -0.012922
# 5 -0.015231 0.009193 -0.001771 0.000000 0.050589 0.000000
# 6 0.000000 0.000000 0.000000 -0.012922 0.000000 0.057046
#
#
# Mechanical properties :
#
#
# Convention : Reuss Voigt Hill
#
# Bulk Modulus (GPa) = 39.63449 45.79580 42.71515
# Shear Modulus (GPa) = 20.22944 24.98011 22.60477
#
# Velocity S-wave (km/s) = 3.21220 3.56950 3.39555
# Velocity P-wave (km/s) = 5.82868 6.35193 6.09592
#
# Compressibility (1/GPa) = 0.02523055
#
# Stress axis : x y z
#
# Youngs Moduli (GPa) = 48.68784 38.61001 87.58067
#
# Poissons Ratio (x) = 0.30996 0.07383
# Poissons Ratio (y) = 0.39086 0.65181
# Poissons Ratio (z) = 0.04105 0.28735
#
# Static dielectric constant tensor:
#      x y z
#    x 3.780570 0.000000 0.082100 
#    y 0.000000 3.259190 0.000000 
#    z 0.082100 0.000000 3.642270 
# 
# 
# High freq. dielectric constant tensor:
#      x y z
#    x 1.770170 0.000000 0.003860 
#    y 0.000000 1.731230 0.000000 
#    z 0.003860 0.000000 1.777340 
# 
# From -- ./inp_files/63844.got.cif
#   From: 2010.06.25/outbox.cif.g09.slc.cpg/sg10_32_cif.got.tgz:63844.got - 2010.06.27 22:07:45.
