data_PCOD8065688
_publ_section_title
;
Structure prediction by ZEFSAII (Michael W. Deem and Ramdas Pophale) SiO2 
 PCOD8065688
Probable space group: P 2/M
;
_chemical_formula_sum "Si O2"
_cell_formula_units_Z 26
_cell_length_a 8.781176
_cell_length_b 14.357265
_cell_length_c 11.156457
_cell_angle_alpha 90.000000
_cell_angle_beta 112.282605
_cell_angle_gamma 90.000000
_cell_volume 1301.502279
_symmetry_space_group_name_H-M "P 2/M"
_symmetry_group_IT_number 10
_symmetry_cell_setting 'monoclinic'
loop_
_space_group_symop_operation_xyz
x,y,z
-x,y,-z
-x,-y,-z
x,-y,z
loop_
_atom_site_type_symbol
_atom_site_label
_atom_site_fract_x
_atom_site_fract_y
_atom_site_fract_z
Si Si1 0.357733 0.106568 0.150389
Si Si2 0.200998 0.204928 0.888755
Si Si3 0.702912 0.394798 0.761002
Si Si4 0.586431 0.731310 0.257675
Si Si5 0.000000 0.663841 0.000000
Si Si6 0.687918 0.741547 0.539503
Si Si7 0.106668 0.894180 0.283753
O O1 0.503974 0.166782 0.252211
O O2 0.192813 0.118601 0.179895
O O3 0.415837 0.000000 0.161551
O O4 0.322722 0.144460 0.007056
O O5 0.306504 0.269030 0.830383
O O6 0.089867 0.273589 0.930365
O O7 0.084306 0.133286 0.782761
O O8 0.649779 0.500000 0.714934
O O9 0.558657 0.345293 0.794738
O O10 0.867756 0.398324 0.889787
O O11 0.734123 0.341168 0.645035
O O12 0.704862 0.708265 0.406442
O O13 0.500000 0.773175 0.500000
O O14 0.805467 0.829662 0.592381
O O15 0.120124 0.000000 0.332768
#
# Coordination Sequence:
#
# PCOD8065688 Si02
#       7
#     4   4   4   4   2   4   4
#     4  11  21  37  62  91 125 168 214 255 302 366
#     4  12  21  39  62  88 129 164 204 254 309 366
#     4  11  23  44  70  94 120 158 206 256 317 379
#     4  11  24  38  62  92 128 164 204 257 308 366
#     4  12  21  42  67  92 118 160 199 248 315 368
#     4  10  20  41  61  91 120 166 208 249 310 365
#     4  11  21  37  63  90 123 170 215 252 300 368
#
# _framework density 19.976914000000001
#
# number of rings (size 3 to 8) (size 9 to 14) (size 15 to 20)
#    0.000    0.923    7.692    1.154    0.000    7.385 
#    0.000    3.077    0.000    0.923    0.000    0.000 
#    0.000    0.000    0.000    0.000    0.000    0.000 
#
# Total GULP energy -322447.098981 kJ/mol
# GULP energy per Si atom -12401.811499 kJ/mol
# Density = 1.993145 g / cm^3
# Si number density = 19.976914 Si / 1000 Ang^3
#
#
#
# Elastic Constant Matrix: (Units=GPa)
#
#
# Indices 1 2 3 4 5 6 
#
# 1 80.7553 44.2680 40.1705 0.0000 -7.1868 0.0000
# 2 44.2680 130.2466 41.5478 0.0000 0.6858 0.0000
# 3 40.1705 41.5478 120.4930 0.0000 8.0735 0.0000
# 4 0.0000 0.0000 0.0000 13.3317 0.0000 3.1673
# 5 -7.1868 0.6858 8.0735 0.0000 24.3330 0.0000
# 6 0.0000 0.0000 0.0000 3.1673 0.0000 16.4276
#
#
#
# Elastic Compliance Matrix: (Units=1/GPa)
#
#
# Indices 1 2 3 4 5 6 
#
# 1 0.017947 -0.004582 -0.004876 0.000000 0.007048 0.000000
# 2 -0.004582 0.009810 -0.001786 0.000000 -0.001037 0.000000
# 3 -0.004876 -0.001786 0.010875 0.000000 -0.004998 0.000000
# 4 0.000000 0.000000 0.000000 0.078610 0.000000 -0.015156
# 5 0.007048 -0.001037 -0.004998 0.000000 0.044866 0.000000
# 6 0.000000 0.000000 0.000000 -0.015156 0.000000 0.063795
#
#
# Mechanical properties :
#
#
# Convention : Reuss Voigt Hill
#
# Bulk Modulus (GPa) = 61.93313 64.82974 63.38143
# Shear Modulus (GPa) = 19.70277 24.51904 22.11090
#
# Velocity S-wave (km/s) = 3.14391 3.50718 3.33050
# Velocity P-wave (km/s) = 6.65196 6.99451 6.82539
#
# Compressibility (1/GPa) = 0.01614645
#
# Stress axis : x y z
#
# Youngs Moduli (GPa) = 55.71905 101.93648 91.95104
#
# Poissons Ratio (x) = 0.46704 0.44833
# Poissons Ratio (y) = 0.25529 0.16420
# Poissons Ratio (z) = 0.27167 0.18203
#
# Static dielectric constant tensor:
#      x y z
#    x 3.579150 0.000000 0.018520 
#    y 0.000000 3.476320 0.000000 
#    z 0.018520 0.000000 3.981670 
# 
# 
# High freq. dielectric constant tensor:
#      x y z
#    x 1.764950 0.000000 0.008160 
#    y 0.000000 1.764310 0.000000 
#    z 0.008160 0.000000 1.788600 
# 
# From -- ./inp_files/42585.got.cif
#   From: 2010.06.25/outbox.cif.g09.slc.cpg/sg10_22_cif.got.tgz:42585.got - 2010.06.27 22:07:45.
