data_PCOD8065309
_publ_section_title
;
Structure prediction by ZEFSAII (Michael W. Deem and Ramdas Pophale) SiO2 
 PCOD8065309
Probable space group: P 2/M
;
_chemical_formula_sum "Si O2"
_cell_formula_units_Z 28
_cell_length_a 22.103893
_cell_length_b 7.951885
_cell_length_c 25.064669
_cell_angle_alpha 90.000000
_cell_angle_beta 161.803479
_cell_angle_gamma 90.000000
_cell_volume 1375.755191
_symmetry_space_group_name_H-M "P 2/M"
_symmetry_group_IT_number 10
_symmetry_cell_setting 'monoclinic'
loop_
_space_group_symop_operation_xyz
x,y,z
-x,y,-z
-x,-y,-z
x,-y,z
loop_
_atom_site_type_symbol
_atom_site_label
_atom_site_fract_x
_atom_site_fract_y
_atom_site_fract_z
Si Si1 0.989593 0.699534 0.112828
Si Si2 0.393480 0.691772 0.261121
Si Si3 0.025081 0.811945 0.681171
Si Si4 0.471955 0.184712 0.039193
Si Si5 0.003180 0.500000 0.413471
Si Si6 0.677634 0.193548 0.683700
Si Si7 0.171288 0.299574 0.377423
Si Si8 0.708647 0.500000 0.251075
O O1 0.004852 0.500000 0.118663
O O2 0.122520 0.785851 0.179896
O O3 0.063384 0.756547 0.232724
O O4 0.768262 0.763635 0.916013
O O5 0.423853 0.500000 0.271630
O O6 0.311410 0.706314 0.252000
O O7 0.608030 0.773928 0.436494
O O8 0.940998 0.667240 0.572463
O O9 0.943668 0.789352 0.671880
O O10 0.971609 0.000000 0.615261
O O11 0.253690 0.789323 0.874779
O O12 0.590198 0.332633 0.166021
O O13 0.546205 0.000000 0.120247
O O14 0.500000 0.199337 0.000000
O O15 0.116735 0.500000 0.562721
O O16 0.779886 0.500000 0.248240
O O17 0.500000 0.267344 0.500000
O O18 0.639354 0.000000 0.665448
O O19 0.164718 0.500000 0.378094
#
# Coordination Sequence:
#
# PCOD8065309 Si02
#       8
#     4   4   4   4   2   4   4   2
#     4  10  21  38  61  88 112 149 200 249 304 365
#     4  10  21  38  60  86 115 152 198 249 305 363
#     4  11  23  41  64  89 124 166 207 254 310 370
#     4  10  20  37  62  92 123 161 209 256 304 364
#     4  11  23  40  61  96 129 163 206 250 314 373
#     4  11  22  35  56  84 117 154 194 246 306 363
#     4  10  21  39  60  83 120 160 203 255 306 367
#     4  11  22  37  66  95 128 165 199 259 315 361
#
# _framework density 20.352457000000001
#
# number of rings (size 3 to 8) (size 9 to 14) (size 15 to 20)
#    0.000    1.571    3.571    1.500    0.000    4.571 
#    2.571    1.429    0.000    0.000    0.000    0.000 
#    0.000    0.000    0.000    0.000    0.000    0.000 
#
# Total GULP energy -347108.670248 kJ/mol
# GULP energy per Si atom -12396.738223 kJ/mol
# Density = 2.030613 g / cm^3
# Si number density = 20.352457 Si / 1000 Ang^3
#
#
#
# Elastic Constant Matrix: (Units=GPa)
#
#
# Indices 1 2 3 4 5 6 
#
# 1 122.0722 31.4830 62.9179 0.0000 16.0769 0.0000
# 2 31.4830 94.0868 35.1278 0.0000 -1.3421 0.0000
# 3 62.9179 35.1278 144.2030 0.0000 -0.0387 0.0000
# 4 0.0000 0.0000 0.0000 15.2633 0.0000 14.5376
# 5 16.0769 -1.3421 -0.0387 0.0000 27.6612 0.0000
# 6 0.0000 0.0000 0.0000 14.5376 0.0000 52.0946
#
#
#
# Elastic Compliance Matrix: (Units=1/GPa)
#
#
# Indices 1 2 3 4 5 6 
#
# 1 0.012210 -0.002419 -0.004740 0.000000 -0.007220 0.000000
# 2 -0.002419 0.012180 -0.001911 0.000000 0.001994 0.000000
# 3 -0.004740 -0.001911 0.009469 0.000000 0.002675 0.000000
# 4 0.000000 0.000000 0.000000 0.089235 0.000000 -0.024902
# 5 -0.007220 0.001994 0.002675 0.000000 0.040449 0.000000
# 6 0.000000 0.000000 0.000000 -0.024902 0.000000 0.026145
#
#
# Mechanical properties :
#
#
# Convention : Reuss Voigt Hill
#
# Bulk Modulus (GPa) = 63.61837 68.82439 66.22138
# Shear Modulus (GPa) = 23.46688 34.39271 28.92979
#
# Velocity S-wave (km/s) = 3.39931 4.11524 3.77429
# Velocity P-wave (km/s) = 6.83617 7.51465 7.18343
#
# Compressibility (1/GPa) = 0.01571873
#
# Stress axis : x y z
#
# Youngs Moduli (GPa) = 81.90224 82.10292 105.60726
#
# Poissons Ratio (x) = 0.19860 0.50057
# Poissons Ratio (y) = 0.19811 0.20182
# Poissons Ratio (z) = 0.38821 0.15691
#
# Static dielectric constant tensor:
#      x y z
#    x 3.314490 0.000000 -0.087660 
#    y 0.000000 3.785950 0.000000 
#    z -0.087660 0.000000 3.727130 
# 
# 
# High freq. dielectric constant tensor:
#      x y z
#    x 1.784540 0.000000 0.010620 
#    y 0.000000 1.795340 0.000000 
#    z 0.010620 0.000000 1.793880 
# 
# From -- ./inp_files/90418.got.cif
#   From: 2010.06.25/outbox.cif.g09.slc.cpg/sg10_46_cif.got.tgz:90418.got - 2010.06.27 22:07:45.
