data_PCOD8065407
_publ_section_title
;
Structure prediction by ZEFSAII (Michael W. Deem and Ramdas Pophale) SiO2 
 PCOD8065407
Probable space group: P 2/M
;
_chemical_formula_sum "Si O2"
_cell_formula_units_Z 32
_cell_length_a 13.637866
_cell_length_b 18.767379
_cell_length_c 9.779674
_cell_angle_alpha 90.000000
_cell_angle_beta 43.740140
_cell_angle_gamma 90.000000
_cell_volume 1730.600083
_symmetry_space_group_name_H-M "P 2/M"
_symmetry_group_IT_number 10
_symmetry_cell_setting 'monoclinic'
loop_
_space_group_symop_operation_xyz
x,y,z
-x,y,-z
-x,-y,-z
x,-y,z
loop_
_atom_site_type_symbol
_atom_site_label
_atom_site_fract_x
_atom_site_fract_y
_atom_site_fract_z
Si Si1 0.840920 0.823172 0.157100
Si Si2 0.332881 0.851887 0.178845
Si Si3 0.636923 0.303062 0.774054
Si Si4 0.157398 0.080845 0.586884
Si Si5 0.872102 0.581471 0.221303
Si Si6 0.360247 0.303139 0.550874
Si Si7 0.127768 0.418794 0.467241
Si Si8 0.837065 0.083188 0.896988
O O1 0.829416 0.882011 0.282937
O O2 0.728009 0.761934 0.298338
O O3 0.804883 0.864875 0.055273
O O4 0.000000 0.790086 0.000000
O O5 0.293169 0.768521 0.234201
O O6 0.278201 0.891217 0.366861
O O7 0.263262 0.888590 0.119713
O O8 0.500000 0.861544 0.000000
O O9 0.602685 0.291787 0.647037
O O10 0.740746 0.368384 0.695429
O O11 0.500000 0.322778 0.000000
O O12 0.999820 0.091293 0.683489
O O13 0.190669 0.000000 0.584035
O O14 0.836687 0.500000 0.219096
O O15 0.729530 0.625195 0.338454
O O16 0.923579 0.589472 0.325362
O O17 0.000000 0.611033 0.000000
O O18 0.500000 0.311692 0.500000
O O19 0.173719 0.500000 0.388977
O O20 0.000000 0.394136 0.500000
O O21 0.804299 0.000000 0.964141
#
# Coordination Sequence:
#
# PCOD8065407 Si02
#       8
#     4   4   4   4   4   4   4   4
#     4  10  21  38  59  84 111 145 186 237 288 343
#     4  11  23  38  55  81 116 152 189 234 279 339
#     4  10  23  40  55  82 116 155 191 232 279 333
#     4  10  20  38  60  82 111 144 184 234 289 340
#     4   9  19  38  61  88 122 153 189 235 281 332
#     4  11  23  38  59  84 116 153 193 235 281 337
#     4   9  19  37  61  89 118 150 190 234 279 330
#     4  10  22  38  60  86 110 143 190 237 288 345
#
# _framework density 18.490696
#
# number of rings (size 3 to 8) (size 9 to 14) (size 15 to 20)
#    0.000    2.000    1.250    1.500    3.500    6.000 
#    2.250    0.000    0.000    2.250    0.000    0.000 
#    0.000    0.000    0.000    0.000    0.000    0.000 
#
# Total GULP energy -396789.639277 kJ/mol
# GULP energy per Si atom -12399.676227 kJ/mol
# Density = 1.844861 g / cm^3
# Si number density = 18.490696 Si / 1000 Ang^3
#
#
#
# Elastic Constant Matrix: (Units=GPa)
#
#
# Indices 1 2 3 4 5 6 
#
# 1 130.1133 55.2258 43.8117 0.0000 5.8558 0.0000
# 2 55.2258 103.7078 55.0683 0.0000 -7.6050 0.0000
# 3 43.8117 55.0683 128.5593 0.0000 -1.8892 0.0000
# 4 0.0000 0.0000 0.0000 -55.9322 0.0000 -132.5584
# 5 5.8558 -7.6050 -1.8892 0.0000 22.3811 0.0000
# 6 0.0000 0.0000 0.0000 -132.5584 0.0000 -167.6700
#
#
#
# Elastic Compliance Matrix: (Units=1/GPa)
#
#
# Indices 1 2 3 4 5 6 
#
# 1 0.010597 -0.005218 -0.001445 0.000000 -0.004668 0.000000
# 2 -0.005218 0.015381 -0.004719 0.000000 0.006193 0.000000
# 3 -0.001445 -0.004719 0.010287 0.000000 -0.000357 0.000000
# 4 0.000000 0.000000 0.000000 0.020464 0.000000 -0.016178
# 5 -0.004668 0.006193 -0.000357 0.000000 0.047976 0.000000
# 6 0.000000 0.000000 0.000000 -0.016178 0.000000 0.006826
#
#
# Mechanical properties :
#
#
# Convention : Reuss Voigt Hill
#
# Bulk Modulus (GPa) = 74.06829 74.51021 74.28925
# Shear Modulus (GPa) = 36.02409 -26.35922 4.83243
#
# Velocity S-wave (km/s) = 4.41866 -3.77973 1.61837
# Velocity P-wave (km/s) = 8.13491 4.61899 6.61483
#
# Compressibility (1/GPa) = 0.01350105
#
# Stress axis : x y z
#
# Youngs Moduli (GPa) = 94.36662 65.01409 97.20915
#
# Poissons Ratio (x) = 0.33925 0.14044
# Poissons Ratio (y) = 0.49242 0.45875
# Poissons Ratio (z) = 0.13633 0.30682
#
# Static dielectric constant tensor:
#      x y z
#    x 3.377660 0.000000 -0.008040 
#    y 0.000000 3.564360 0.000000 
#    z -0.008040 0.000000 3.648140 
# 
# 
# High freq. dielectric constant tensor:
#      x y z
#    x 1.711400 0.000000 0.008140 
#    y 0.000000 1.731470 0.000000 
#    z 0.008140 0.000000 1.727180 
# 
# From -- ./inp_files/26067.got.cif
#   From: 2010.06.25/outbox.cif.g09.slc.cpg/sg10_14_cif.got.tgz:26067.got - 2010.06.27 22:07:45.
