data_PCOD8065990
_publ_section_title
;
Structure prediction by ZEFSAII (Michael W. Deem and Ramdas Pophale) SiO2 
 PCOD8065990
Probable space group: P 2/M
;
_chemical_formula_sum "Si O2"
_cell_formula_units_Z 28
_cell_length_a 29.117197
_cell_length_b 9.137526
_cell_length_c 9.169516
_cell_angle_alpha 90.000000
_cell_angle_beta 38.066634
_cell_angle_gamma 90.000000
_cell_volume 1504.223180
_symmetry_space_group_name_H-M "P 2/M"
_symmetry_group_IT_number 10
_symmetry_cell_setting 'monoclinic'
loop_
_space_group_symop_operation_xyz
x,y,z
-x,y,-z
-x,-y,-z
x,-y,z
loop_
_atom_site_type_symbol
_atom_site_label
_atom_site_fract_x
_atom_site_fract_y
_atom_site_fract_z
Si Si1 0.924699 0.831097 0.767728
Si Si2 0.500000 0.825873 0.164594
Si Si3 0.075300 0.168903 0.891225
Si Si4 0.644658 0.169088 0.968809
Si Si5 0.794384 0.327726 0.596730
Si Si6 0.794383 0.327726 0.931353
Si Si7 0.355342 0.169088 0.692099
O O1 0.858446 0.732731 0.874118
O O2 0.000000 0.781663 0.500000
O O3 0.906496 0.000000 0.779234
O O4 0.934912 0.802216 0.912719
O O5 0.426094 0.766674 0.428747
O O6 0.500000 0.000000 0.172742
O O7 0.500000 0.767455 0.000000
O O8 0.573907 0.766674 0.059213
O O9 0.141554 0.267269 0.666346
O O10 0.093504 0.000000 0.811715
O O11 0.000000 0.218337 0.000000
O O12 0.716608 0.259271 0.738942
O O13 0.659445 0.000000 0.893372
O O14 0.627439 0.190645 0.181402
O O15 0.789310 0.500000 0.590061
O O16 0.811131 0.283202 0.722173
O O17 0.789310 0.500000 0.963388
O O18 0.716607 0.259271 0.178020
O O19 0.340556 0.000000 0.690594
#
# Coordination Sequence:
#
# PCOD8065990 Si02
#       7
#     4   4   4   4   4   4   4
#     4  10  21  37  58  82 106 135 173 216 261 309
#     4   9  17  29  48  75 102 128 166 217 264 305
#     4  10  21  37  58  82 106 135 173 216 261 309
#     4   9  17  31  52  75 100 133 172 213 258 308
#     4  10  21  36  54  78 108 141 176 214 259 311
#     4  10  21  36  54  78 108 141 176 214 259 311
#     4   9  17  31  52  75 100 133 172 213 258 308
#
# _framework density 18.614259000000001
#
# number of rings (size 3 to 8) (size 9 to 14) (size 15 to 20)
#    0.000    2.429    0.000    2.143    0.000    6.857 
#    0.000    3.571    0.000    4.286    0.000    0.000 
#    0.000    0.000    0.000    0.000    0.000    0.000 
#
# Total GULP energy -347302.701259 kJ/mol
# GULP energy per Si atom -12403.667902 kJ/mol
# Density = 1.857189 g / cm^3
# Si number density = 18.614259 Si / 1000 Ang^3
#
#
#
# Elastic Constant Matrix: (Units=GPa)
#
#
# Indices 1 2 3 4 5 6 
#
# 1 135.7083 48.5828 74.0078 0.0000 -21.6792 0.0000
# 2 48.5828 61.3514 54.2451 0.0000 -9.9072 0.0000
# 3 74.0078 54.2451 157.3567 0.0000 -16.2026 0.0000
# 4 0.0000 0.0000 0.0000 3.5042 0.0000 14.1121
# 5 -21.6792 -9.9072 -16.2026 0.0000 27.4619 0.0000
# 6 0.0000 0.0000 0.0000 14.1121 0.0000 11.5691
#
#
#
# Elastic Compliance Matrix: (Units=1/GPa)
#
#
# Indices 1 2 3 4 5 6 
#
# 1 0.012048 -0.005952 -0.003041 0.000000 0.005569 0.000000
# 2 -0.005952 0.026791 -0.006308 0.000000 0.001245 0.000000
# 3 -0.003041 -0.006308 0.010091 0.000000 0.001278 0.000000
# 4 0.000000 0.000000 0.000000 -0.072940 0.000000 0.088973
# 5 0.005569 0.001245 0.001278 0.000000 0.042013 0.000000
# 6 0.000000 0.000000 0.000000 0.088973 0.000000 -0.022093
#
#
# Mechanical properties :
#
#
# Convention : Reuss Voigt Hill
#
# Bulk Modulus (GPa) = 54.56167 78.67642 66.61905
# Shear Modulus (GPa) = 153.26728 20.34575 86.80651
#
# Velocity S-wave (km/s) = 9.08391 3.30967 6.83635
# Velocity P-wave (km/s) = 11.80672 7.54743 9.90864
#
# Compressibility (1/GPa) = 0.01832788
#
# Stress axis : x y z
#
# Youngs Moduli (GPa) = 83.00392 37.32538 99.09523
#
# Poissons Ratio (x) = 0.22217 0.30134
# Poissons Ratio (y) = 0.49406 0.62510
# Poissons Ratio (z) = 0.25240 0.23545
#
# Static dielectric constant tensor:
#      x y z
#    x 3.493250 0.000000 -0.066440 
#    y 0.000000 3.200150 0.000000 
#    z -0.066440 0.000000 3.531210 
# 
# 
# High freq. dielectric constant tensor:
#      x y z
#    x 1.727690 0.000000 -0.006500 
#    y 0.000000 1.700040 0.000000 
#    z -0.006500 0.000000 1.731410 
# 
# From -- ./inp_files/37063.got.cif
#   From: 2010.06.25/outbox.cif.g09.slc.cpg/sg10_19_cif.got.tgz:37063.got - 2010.06.27 22:07:45.
