data_PCOD8065464
_publ_section_title
;
Structure prediction by ZEFSAII (Michael W. Deem and Ramdas Pophale) SiO2 
 PCOD8065464
Probable space group: P 2/M
;
_chemical_formula_sum "Si O2"
_cell_formula_units_Z 28
_cell_length_a 9.260686
_cell_length_b 14.143207
_cell_length_c 11.353904
_cell_angle_alpha 90.000000
_cell_angle_beta 62.040931
_cell_angle_gamma 90.000000
_cell_volume 1313.517983
_symmetry_space_group_name_H-M "P 2/M"
_symmetry_group_IT_number 10
_symmetry_cell_setting 'monoclinic'
loop_
_space_group_symop_operation_xyz
x,y,z
-x,y,-z
-x,-y,-z
x,-y,z
loop_
_atom_site_type_symbol
_atom_site_label
_atom_site_fract_x
_atom_site_fract_y
_atom_site_fract_z
Si Si1 0.529887 0.609566 0.853396
Si Si2 0.205543 0.231990 0.612559
Si Si3 0.329428 0.894650 0.013830
Si Si4 0.373886 0.107353 0.391395
Si Si5 0.089256 0.103369 0.320247
Si Si6 0.660263 0.233950 0.190864
Si Si7 0.806575 0.607732 0.565444
O O1 0.487706 0.500000 0.860551
O O2 0.396170 0.662486 0.826009
O O3 0.711152 0.630338 0.726425
O O4 0.500000 0.643379 0.000000
O O5 0.342092 0.151446 0.532797
O O6 0.218696 0.251112 0.746401
O O7 0.253211 0.324120 0.517174
O O8 0.027355 0.193041 0.649448
O O9 0.203916 0.900968 0.165685
O O10 0.358098 0.000000 0.948817
O O11 0.500000 0.854241 0.000000
O O12 0.250711 0.822816 0.948437
O O13 0.196930 0.118998 0.395812
O O14 0.504866 0.167362 0.271488
O O15 0.433231 0.000000 0.377749
O O16 0.998909 0.000000 0.363646
O O17 0.765943 0.500000 0.544128
O O18 0.000000 0.622019 0.500000
#
# Coordination Sequence:
#
# PCOD8065464 Si02
#       7
#     4   4   4   4   4   4   4
#     4  10  23  43  68  95 122 159 212 266 315 376
#     4  12  25  37  57  92 129 162 198 251 316 372
#     4  10  20  38  62  86 116 162 217 260 301 363
#     4  11  22  38  59  84 119 164 210 251 295 358
#     4  10  22  40  62  87 120 167 216 260 304 362
#     4  12  24  37  59  92 124 161 202 252 314 370
#     4  10  22  42  68  95 123 161 210 261 314 376
#
# _framework density 21.316797999999999
#
# number of rings (size 3 to 8) (size 9 to 14) (size 15 to 20)
#    0.000    1.286    2.857    3.000    0.000    5.143 
#    0.000    2.857    0.000    0.000    0.000    6.000 
#    0.000    0.000    0.000    0.000    0.000    0.000 
#
# Total GULP energy -347057.868168 kJ/mol
# GULP energy per Si atom -12394.923863 kJ/mol
# Density = 2.126828 g / cm^3
# Si number density = 21.316798 Si / 1000 Ang^3
#
#
#
# Elastic Constant Matrix: (Units=GPa)
#
#
# Indices 1 2 3 4 5 6 
#
# 1 39.0074 25.2158 36.8225 0.0000 2.5669 0.0000
# 2 25.2158 92.8380 44.9624 0.0000 2.8643 0.0000
# 3 36.8225 44.9624 125.6816 0.0000 15.4560 0.0000
# 4 0.0000 0.0000 0.0000 47.3479 0.0000 0.0393
# 5 2.5669 2.8643 15.4560 0.0000 26.8316 0.0000
# 6 0.0000 0.0000 0.0000 0.0393 0.0000 15.0208
#
#
#
# Elastic Compliance Matrix: (Units=1/GPa)
#
#
# Indices 1 2 3 4 5 6 
#
# 1 0.038119 -0.005899 -0.009349 0.000000 0.002368 0.000000
# 2 -0.005899 0.013990 -0.003404 0.000000 0.001031 0.000000
# 3 -0.009349 -0.003404 0.012655 0.000000 -0.006032 0.000000
# 4 0.000000 0.000000 0.000000 0.021120 0.000000 -0.000055
# 5 0.002368 0.001031 -0.006032 0.000000 0.040408 0.000000
# 6 0.000000 0.000000 0.000000 -0.000055 0.000000 0.066574
#
#
# Mechanical properties :
#
#
# Convention : Reuss Voigt Hill
#
# Bulk Modulus (GPa) = 36.41476 52.39207 44.40341
# Shear Modulus (GPa) = 20.89221 27.87514 24.38368
#
# Velocity S-wave (km/s) = 3.13402 3.62008 3.38579
# Velocity P-wave (km/s) = 5.49690 6.48880 6.01333
#
# Compressibility (1/GPa) = 0.02746139
#
# Stress axis : x y z
#
# Youngs Moduli (GPa) = 26.23360 71.47878 79.01877
#
# Poissons Ratio (x) = 0.42163 0.73877
# Poissons Ratio (y) = 0.15474 0.26895
# Poissons Ratio (z) = 0.24526 0.24328
#
# Static dielectric constant tensor:
#      x y z
#    x 18.613140 0.000000 0.887800 
#    y 0.000000 4.115320 0.000000 
#    z 0.887800 0.000000 4.216840 
# 
# 
# High freq. dielectric constant tensor:
#      x y z
#    x 1.800690 0.000000 -0.005140 
#    y 0.000000 1.847280 0.000000 
#    z -0.005140 0.000000 1.856360 
# 
# From -- ./inp_files/42653.got.cif
#   From: 2010.06.25/outbox.cif.g09.slc.cpg/sg10_22_cif.got.tgz:42653.got - 2010.06.27 22:07:45.
