data_PCOD8065656
_publ_section_title
;
Structure prediction by ZEFSAII (Michael W. Deem and Ramdas Pophale) SiO2 
 PCOD8065656
Probable space group: P 2/M
;
_chemical_formula_sum "Si O2"
_cell_formula_units_Z 32
_cell_length_a 12.217678
_cell_length_b 9.005437
_cell_length_c 29.156905
_cell_angle_alpha 90.000000
_cell_angle_beta 30.694223
_cell_angle_gamma 90.000000
_cell_volume 1637.545545
_symmetry_space_group_name_H-M "P 2/M"
_symmetry_group_IT_number 10
_symmetry_cell_setting 'monoclinic'
loop_
_space_group_symop_operation_xyz
x,y,z
-x,y,-z
-x,-y,-z
x,-y,z
loop_
_atom_site_type_symbol
_atom_site_label
_atom_site_fract_x
_atom_site_fract_y
_atom_site_fract_z
Si Si1 0.688382 0.174083 0.671174
Si Si2 0.081940 0.333493 0.569196
Si Si3 0.146445 0.824884 0.734563
Si Si4 0.541621 0.328982 0.633986
Si Si5 0.860758 0.671363 0.981085
Si Si6 0.277103 0.174986 0.060635
Si Si7 0.315177 0.327834 0.856710
Si Si8 0.732660 0.329415 0.401075
O O1 0.666889 0.257291 0.630940
O O2 0.508283 0.224104 0.771782
O O3 0.919518 0.212241 0.608605
O O4 0.672703 0.000000 0.668351
O O5 0.998888 0.500000 0.587501
O O6 0.315875 0.309839 0.462822
O O7 0.103371 0.313575 0.615900
O O8 0.316932 0.751960 0.707408
O O9 0.171695 0.768356 0.673913
O O10 0.912391 0.777133 0.836723
O O11 0.180066 0.000000 0.723655
O O12 0.495288 0.500000 0.662156
O O13 0.832926 0.500000 0.978590
O O14 0.763140 0.766586 0.975692
O O15 0.110780 0.708831 0.898576
O O16 0.732509 0.710284 0.073457
O O17 0.291668 0.000000 0.051235
O O18 0.500000 0.240534 0.000000
O O19 0.379083 0.500000 0.828304
O O20 0.500000 0.269260 0.500000
O O21 0.711943 0.500000 0.391807
#
# Coordination Sequence:
#
# PCOD8065656 Si02
#       8
#     4   4   4   4   4   4   4   4
#     4  12  25  37  54  87 124 154 193 240 292 354
#     4  10  22  40  61  83 113 156 199 240 292 350
#     4  11  23  38  61  92 121 155 198 246 300 351
#     4  11  22  40  63  84 114 156 199 243 294 352
#     4   9  19  37  63  89 111 143 195 247 288 339
#     4  10  23  41  57  80 121 162 194 235 293 355
#     4   9  19  38  61  86 116 149 187 238 296 351
#     4  10  20  40  64  87 114 151 201 246 288 350
#
# _framework density 19.541443000000001
#
# number of rings (size 3 to 8) (size 9 to 14) (size 15 to 20)
#    0.000    1.750    1.250    3.750    0.000    8.500 
#    0.000    3.750    0.000    0.000    0.000    0.000 
#    0.000    0.000    0.000    0.000    0.000    0.000 
#
# Total GULP energy -396955.602885 kJ/mol
# GULP energy per Si atom -12404.862590 kJ/mol
# Density = 1.949697 g / cm^3
# Si number density = 19.541443 Si / 1000 Ang^3
#
#
#
# Elastic Constant Matrix: (Units=GPa)
#
#
# Indices 1 2 3 4 5 6 
#
# 1 118.4830 37.2094 47.1459 0.0000 -2.5115 0.0000
# 2 37.2094 66.1978 31.0156 0.0000 -3.6929 0.0000
# 3 47.1459 31.0156 81.4204 0.0000 -8.0139 0.0000
# 4 0.0000 0.0000 0.0000 29.6329 0.0000 -5.5989
# 5 -2.5115 -3.6929 -8.0139 0.0000 29.7550 0.0000
# 6 0.0000 0.0000 0.0000 -5.5989 0.0000 11.3825
#
#
#
# Elastic Compliance Matrix: (Units=1/GPa)
#
#
# Indices 1 2 3 4 5 6 
#
# 1 0.011880 -0.004216 -0.005368 0.000000 -0.000966 0.000000
# 2 -0.004216 0.019889 -0.005061 0.000000 0.000749 0.000000
# 3 -0.005368 -0.005061 0.017680 0.000000 0.003681 0.000000
# 4 0.000000 0.000000 0.000000 0.037204 0.000000 0.018300
# 5 -0.000966 0.000749 0.003681 0.000000 0.034611 0.000000
# 6 0.000000 0.000000 0.000000 0.018300 0.000000 0.096855
#
#
# Mechanical properties :
#
#
# Convention : Reuss Voigt Hill
#
# Bulk Modulus (GPa) = 49.60676 55.20478 52.40577
# Shear Modulus (GPa) = 19.67499 24.20277 21.93888
#
# Velocity S-wave (km/s) = 3.17651 3.52310 3.35428
# Velocity P-wave (km/s) = 6.23652 6.69784 6.47129
#
# Compressibility (1/GPa) = 0.02015854
#
# Stress axis : x y z
#
# Youngs Moduli (GPa) = 84.17795 50.27793 56.55996
#
# Poissons Ratio (x) = 0.21199 0.30360
# Poissons Ratio (y) = 0.35493 0.28627
# Poissons Ratio (z) = 0.45184 0.25447
#
# Static dielectric constant tensor:
#      x y z
#    x 3.549420 0.000000 0.000780 
#    y 0.000000 3.460280 0.000000 
#    z 0.000780 0.000000 3.627330 
# 
# 
# High freq. dielectric constant tensor:
#      x y z
#    x 1.770370 0.000000 0.004470 
#    y 0.000000 1.754230 0.000000 
#    z 0.004470 0.000000 1.766170 
# 
# From -- ./inp_files/58359.got.cif
#   From: 2010.06.25/outbox.cif.g09.slc.cpg/sg10_30_cif.got.tgz:58359.got - 2010.06.27 22:07:45.
