data_PCOD8065613
_publ_section_title
;
Structure prediction by ZEFSAII (Michael W. Deem and Ramdas Pophale) SiO2 
 PCOD8065613
Probable space group: P 2/M
;
_chemical_formula_sum "Si O2"
_cell_formula_units_Z 24
_cell_length_a 9.298933
_cell_length_b 9.261779
_cell_length_c 14.531075
_cell_angle_alpha 90.000000
_cell_angle_beta 98.382643
_cell_angle_gamma 90.000000
_cell_volume 1238.113752
_symmetry_space_group_name_H-M "P 2/M"
_symmetry_group_IT_number 10
_symmetry_cell_setting 'monoclinic'
loop_
_space_group_symop_operation_xyz
x,y,z
-x,y,-z
-x,-y,-z
x,-y,z
loop_
_atom_site_type_symbol
_atom_site_label
_atom_site_fract_x
_atom_site_fract_y
_atom_site_fract_z
Si Si1 0.640089 0.159821 0.951860
Si Si2 0.965938 0.663389 0.733464
Si Si3 0.352945 0.330228 0.235529
Si Si4 0.882098 0.168338 0.411345
Si Si5 0.119961 0.661945 0.940786
Si Si6 0.418540 0.669363 0.585986
O O1 0.616701 0.251528 0.857420
O O2 0.693118 0.000000 0.927583
O O3 0.500000 0.148599 0.000000
O O4 0.748032 0.231105 0.034558
O O5 0.962982 0.500000 0.693179
O O6 0.048364 0.770750 0.674400
O O7 0.058813 0.668921 0.833732
O O8 0.801796 0.717843 0.736299
O O9 0.350003 0.500000 0.214883
O O10 0.479618 0.288135 0.318592
O O11 0.732051 0.246051 0.422331
O O12 0.000000 0.199008 0.500000
O O13 0.849102 0.000000 0.395567
O O14 0.170336 0.500000 0.970765
O O15 0.000000 0.716651 0.000000
O O16 0.500000 0.714126 0.500000
O O17 0.382724 0.500000 0.582963
#
# Coordination Sequence:
#
# PCOD8065613 Si02
#       6
#     4   4   4   4   4   4
#     4  11  25  40  56  85 125 165 202 243 295 356
#     4  10  21  39  65  92 118 153 200 252 299 349
#     4  10  21  40  64  90 118 154 200 249 302 354
#     4  11  25  42  61  89 125 162 197 238 296 361
#     4  10  20  39  64  89 117 155 203 251 299 348
#     4  10  22  41  67  94 119 153 199 250 300 351
#
# _framework density 19.384325
#
# number of rings (size 3 to 8) (size 9 to 14) (size 15 to 20)
#    0.000    1.667    1.667    2.000    2.333    6.667 
#    0.000    0.000    0.000    0.000    0.000    0.000 
#    0.000    0.000    0.000    0.000    0.000    0.000 
#
# Total GULP energy -297626.554664 kJ/mol
# GULP energy per Si atom -12401.106444 kJ/mol
# Density = 1.934021 g / cm^3
# Si number density = 19.384325 Si / 1000 Ang^3
#
#
#
# Elastic Constant Matrix: (Units=GPa)
#
#
# Indices 1 2 3 4 5 6 
#
# 1 133.6073 68.9179 52.8314 0.0000 5.3968 0.0000
# 2 68.9179 82.1501 40.2515 0.0000 5.6312 0.0000
# 3 52.8314 40.2515 86.3048 0.0000 -0.1095 0.0000
# 4 0.0000 0.0000 0.0000 33.9279 0.0000 32.8730
# 5 5.3968 5.6312 -0.1095 0.0000 33.7653 0.0000
# 6 0.0000 0.0000 0.0000 32.8730 0.0000 60.6671
#
#
#
# Elastic Compliance Matrix: (Units=1/GPa)
#
#
# Indices 1 2 3 4 5 6 
#
# 1 0.014232 -0.009886 -0.004102 0.000000 -0.000639 0.000000
# 2 -0.009886 0.022887 -0.004626 0.000000 -0.002252 0.000000
# 3 -0.004102 -0.004626 0.016257 0.000000 0.001480 0.000000
# 4 0.000000 0.000000 0.000000 0.062053 0.000000 -0.033624
# 5 -0.000639 -0.002252 0.001480 0.000000 0.030099 0.000000
# 6 0.000000 0.000000 0.000000 -0.033624 0.000000 0.034703
#
#
# Mechanical properties :
#
#
# Convention : Reuss Voigt Hill
#
# Bulk Modulus (GPa) = 61.92314 69.56266 65.74290
# Shear Modulus (GPa) = 22.43759 35.00948 28.72354
#
# Velocity S-wave (km/s) = 3.40591 4.25440 3.85358
# Velocity P-wave (km/s) = 6.89067 7.75224 7.33411
#
# Compressibility (1/GPa) = 0.01614905
#
# Stress axis : x y z
#
# Youngs Moduli (GPa) = 70.26508 43.69309 61.51113
#
# Poissons Ratio (x) = 0.43193 0.25234
# Poissons Ratio (y) = 0.69461 0.28452
# Poissons Ratio (z) = 0.28825 0.20211
#
# Static dielectric constant tensor:
#      x y z
#    x 3.612110 0.000000 0.057770 
#    y 0.000000 3.723740 0.000000 
#    z 0.057770 0.000000 3.560590 
# 
# 
# High freq. dielectric constant tensor:
#      x y z
#    x 1.765710 0.000000 0.003300 
#    y 0.000000 1.751780 0.000000 
#    z 0.003300 0.000000 1.767600 
# 
# From -- ./inp_files/27077.got.cif
#   From: 2010.06.25/outbox.cif.g09.slc.cpg/sg10_14_cif.got.tgz:27077.got - 2010.06.27 22:07:45.
