data_PCOD8065026
_publ_section_title
;
Structure prediction by ZEFSAII (Michael W. Deem and Ramdas Pophale) SiO2 
 PCOD8065026
Probable space group: P 2/M
;
_chemical_formula_sum "Si O2"
_cell_formula_units_Z 32
_cell_length_a 11.502453
_cell_length_b 14.032298
_cell_length_c 17.054533
_cell_angle_alpha 90.000000
_cell_angle_beta 147.352177
_cell_angle_gamma 90.000000
_cell_volume 1485.010172
_symmetry_space_group_name_H-M "P 2/M"
_symmetry_group_IT_number 10
_symmetry_cell_setting 'monoclinic'
loop_
_space_group_symop_operation_xyz
x,y,z
-x,y,-z
-x,-y,-z
x,-y,z
loop_
_atom_site_type_symbol
_atom_site_label
_atom_site_fract_x
_atom_site_fract_y
_atom_site_fract_z
Si Si1 0.085862 0.654857 0.369624
Si Si2 0.730829 0.105455 0.139298
Si Si3 0.070438 0.108538 0.917700
Si Si4 0.855411 0.222182 0.350882
Si Si5 0.378577 0.268382 0.132974
Si Si6 0.275937 0.234447 0.343474
Si Si7 0.562201 0.391298 0.678222
Si Si8 0.311230 0.395448 0.949116
O O1 0.133956 0.745146 0.340133
O O2 0.306507 0.601414 0.516498
O O3 0.974411 0.681809 0.389379
O O4 0.911682 0.591574 0.224541
O O5 0.847363 0.104369 0.123461
O O6 0.870267 0.156603 0.283528
O O7 0.689320 0.000000 0.148272
O O8 0.500000 0.158321 0.000000
O O9 0.837049 0.159669 0.780145
O O10 0.053634 0.000000 0.942385
O O11 0.231817 0.173175 0.062570
O O12 0.619262 0.237771 0.250108
O O13 0.000000 0.173747 0.500000
O O14 0.379838 0.335009 0.209576
O O15 0.274930 0.325445 0.001537
O O16 0.500000 0.187964 0.500000
O O17 0.320571 0.335602 0.325569
O O18 0.650263 0.500000 0.732976
O O19 0.381056 0.500000 0.019503
O O20 0.500000 0.354083 0.000000
#
# Coordination Sequence:
#
# PCOD8065026 Si02
#       8
#     4   4   4   4   4   4   4   4
#     4  11  21  41  64  94 127 173 214 264 319 386
#     4  10  20  36  64  97 126 165 216 261 315 391
#     4  11  23  42  70  98 128 170 219 272 332 389
#     4  12  22  36  62  95 138 176 204 259 325 381
#     4  12  23  41  64  97 137 169 213 263 330 392
#     4  10  23  43  70  93 126 167 227 274 324 379
#     4  11  26  46  66  91 129 175 224 273 329 388
#     4  11  22  35  60  94 128 168 214 263 317 384
#
# _framework density 21.548674999999999
#
# number of rings (size 3 to 8) (size 9 to 14) (size 15 to 20)
#    0.000    1.000    6.250    0.750    0.000    3.750 
#    0.000    2.500    0.000    0.750    0.000    0.000 
#    0.000    0.000    0.000    0.000    0.000    0.000 
#
# Total GULP energy -396654.029747 kJ/mol
# GULP energy per Si atom -12395.438430 kJ/mol
# Density = 2.149963 g / cm^3
# Si number density = 21.548675 Si / 1000 Ang^3
#
#
#
# Elastic Constant Matrix: (Units=GPa)
#
#
# Indices 1 2 3 4 5 6 
#
# 1 55.6210 20.2960 39.4852 0.0000 -1.8093 0.0000
# 2 20.2960 125.7244 54.8105 0.0000 1.8998 0.0000
# 3 39.4852 54.8105 135.4715 0.0000 -3.4742 0.0000
# 4 0.0000 0.0000 0.0000 26.7612 0.0000 -4.4228
# 5 -1.8093 1.8998 -3.4742 0.0000 37.7896 0.0000
# 6 0.0000 0.0000 0.0000 -4.4228 0.0000 17.7735
#
#
#
# Elastic Compliance Matrix: (Units=1/GPa)
#
#
# Indices 1 2 3 4 5 6 
#
# 1 0.022774 -0.000968 -0.006232 0.000000 0.000566 0.000000
# 2 -0.000968 0.009726 -0.003675 0.000000 -0.000873 0.000000
# 3 -0.006232 -0.003675 0.010707 0.000000 0.000871 0.000000
# 4 0.000000 0.000000 0.000000 0.038970 0.000000 0.009697
# 5 0.000566 -0.000873 0.000871 0.000000 0.026613 0.000000
# 6 0.000000 0.000000 0.000000 0.009697 0.000000 0.058677
#
#
# Mechanical properties :
#
#
# Convention : Reuss Voigt Hill
#
# Bulk Modulus (GPa) = 46.60462 60.66668 53.63565
# Shear Modulus (GPa) = 25.46218 29.94655 27.70437
#
# Velocity S-wave (km/s) = 3.44119 3.73193 3.58951
# Velocity P-wave (km/s) = 6.12075 6.83990 6.49029
#
# Compressibility (1/GPa) = 0.02145710
#
# Stress axis : x y z
#
# Youngs Moduli (GPa) = 43.90892 102.82167 93.39565
#
# Poissons Ratio (x) = 0.09957 0.58201
# Poissons Ratio (y) = 0.04252 0.34323
# Poissons Ratio (z) = 0.27362 0.37787
#
# Static dielectric constant tensor:
#      x y z
#    x 3.845410 0.000000 0.021740 
#    y 0.000000 3.921890 0.000000 
#    z 0.021740 0.000000 4.063770 
# 
# 
# High freq. dielectric constant tensor:
#      x y z
#    x 1.843030 0.000000 0.004090 
#    y 0.000000 1.832640 0.000000 
#    z 0.004090 0.000000 1.854370 
# 
# From -- ./inp_files/77068.got.cif
#   From: 2010.06.25/outbox.cif.g09.slc.cpg/sg10_39_cif.got.tgz:77068.got - 2010.06.27 22:07:45.
