data_PCOD8065875
_publ_section_title
;
Structure prediction by ZEFSAII (Michael W. Deem and Ramdas Pophale) SiO2 
 PCOD8065875
Probable space group: P 2/M
;
_chemical_formula_sum "Si O2"
_cell_formula_units_Z 28
_cell_length_a 22.504322
_cell_length_b 8.928600
_cell_length_c 24.868824
_cell_angle_alpha 90.000000
_cell_angle_beta 17.029155
_cell_angle_gamma 90.000000
_cell_volume 1463.396666
_symmetry_space_group_name_H-M "P 2/M"
_symmetry_group_IT_number 10
_symmetry_cell_setting 'monoclinic'
loop_
_space_group_symop_operation_xyz
x,y,z
-x,y,-z
-x,-y,-z
x,-y,z
loop_
_atom_site_type_symbol
_atom_site_label
_atom_site_fract_x
_atom_site_fract_y
_atom_site_fract_z
Si Si1 0.136334 0.835880 0.926641
Si Si2 0.182451 0.325099 0.089349
Si Si3 0.439804 0.165316 0.495009
Si Si4 0.276892 0.325891 0.540061
Si Si5 0.203734 0.321865 0.295859
Si Si6 0.358876 0.322253 0.048562
Si Si7 0.646561 0.820988 0.162017
O O1 0.362767 0.852744 0.710990
O O2 0.168556 0.762765 0.957936
O O3 0.033077 0.000000 0.022637
O O4 0.000000 0.745143 0.000000
O O5 0.231091 0.500000 0.040087
O O6 0.256176 0.262321 0.083056
O O7 0.944923 0.292695 0.290677
O O8 0.308449 0.235302 0.936184
O O9 0.500000 0.241035 0.500000
O O10 0.284849 0.266866 0.595040
O O11 0.343378 0.000000 0.588858
O O12 0.331348 0.500000 0.493313
O O13 0.430436 0.242649 0.367465
O O14 0.189416 0.500000 0.309343
O O15 0.227996 0.264653 0.213154
O O16 0.000000 0.253754 0.500000
O O17 0.406284 0.267955 0.152236
O O18 0.355483 0.500000 0.052695
O O19 0.636951 0.000000 0.172225
#
# Coordination Sequence:
#
# PCOD8065875 Si02
#       7
#     4   4   4   4   4   4   4
#     4   8  15  28  46  69  91 115 157 212 264 307
#     4  10  21  35  53  77 109 148 178 209 266 325
#     4   9  18  31  50  73  96 127 171 220 266 316
#     4  10  21  36  52  73 107 142 173 214 266 328
#     4   8  13  23  43  70 101 135 171 212 254 293
#     4   8  15  27  42  69 105 136 172 211 249 307
#     4  10  21  36  55  76 101 135 178 226 267 313
#
# _framework density 19.133569000000001
#
# number of rings (size 3 to 8) (size 9 to 14) (size 15 to 20)
#    0.000    3.000    0.000    2.571    2.000    2.571 
#    0.000    4.286    0.000    2.143    0.000    2.000 
#    0.000    5.714    0.000    0.000    0.000    0.000 
#
# Total GULP energy -346881.007765 kJ/mol
# GULP energy per Si atom -12388.607420 kJ/mol
# Density = 1.909002 g / cm^3
# Si number density = 19.133569 Si / 1000 Ang^3
#
#
#
# Elastic Constant Matrix: (Units=GPa)
#
#
# Indices 1 2 3 4 5 6 
#
# 1 198.1631 38.6548 78.1988 0.0000 -7.4473 0.0000
# 2 38.6548 46.2026 31.5407 0.0000 -1.9494 0.0000
# 3 78.1988 31.5407 115.1745 0.0000 2.1739 0.0000
# 4 0.0000 0.0000 0.0000 9.0979 0.0000 7.8544
# 5 -7.4473 -1.9494 2.1739 0.0000 28.7776 0.0000
# 6 0.0000 0.0000 0.0000 7.8544 0.0000 6.2342
#
#
#
# Elastic Compliance Matrix: (Units=1/GPa)
#
#
# Indices 1 2 3 4 5 6 
#
# 1 0.007405 -0.003262 -0.004172 0.000000 0.002010 0.000000
# 2 -0.003262 0.028218 -0.005541 0.000000 0.001486 0.000000
# 3 -0.004172 -0.005541 0.013079 0.000000 -0.002443 0.000000
# 4 0.000000 0.000000 0.000000 -1.253604 0.000000 1.579390
# 5 0.002010 0.001486 -0.002443 0.000000 0.035555 0.000000
# 6 0.000000 0.000000 0.000000 1.579390 0.000000 -1.829438
#
#
# Mechanical properties :
#
#
# Convention : Reuss Voigt Hill
#
# Bulk Modulus (GPa) = 43.95318 72.92543 58.43930
# Shear Modulus (GPa) = -1.68620 22.89836 10.60608
#
# Velocity S-wave (km/s) = -0.93978 3.46318 2.35695
# Velocity P-wave (km/s) = 4.67376 7.36126 6.16572
#
# Compressibility (1/GPa) = 0.02275148
#
# Stress axis : x y z
#
# Youngs Moduli (GPa) = 135.05160 35.43824 76.46076
#
# Poissons Ratio (x) = 0.11560 0.31900
# Poissons Ratio (y) = 0.44054 0.42366
# Poissons Ratio (z) = 0.56344 0.19636
#
# Static dielectric constant tensor:
#      x y z
#    x 3.964290 0.000000 0.002250 
#    y 0.000000 3.120130 0.000000 
#    z 0.002250 0.000000 3.441760 
# 
# 
# High freq. dielectric constant tensor:
#      x y z
#    x 1.756600 0.000000 0.000590 
#    y 0.000000 1.687200 0.000000 
#    z 0.000590 0.000000 1.744960 
# 
# From -- ./inp_files/90365.got.cif
#   From: 2010.06.25/outbox.cif.g09.slc.cpg/sg10_46_cif.got.tgz:90365.got - 2010.06.27 22:07:45.
