data_PCOD8065304
_publ_section_title
;
Structure prediction by ZEFSAII (Michael W. Deem and Ramdas Pophale) SiO2 
 PCOD8065304
Probable space group: P 2/M
;
_chemical_formula_sum "Si O2"
_cell_formula_units_Z 28
_cell_length_a 25.354045
_cell_length_b 8.591079
_cell_length_c 9.729992
_cell_angle_alpha 90.000000
_cell_angle_beta 139.231581
_cell_angle_gamma 90.000000
_cell_volume 1383.957644
_symmetry_space_group_name_H-M "P 2/M"
_symmetry_group_IT_number 10
_symmetry_cell_setting 'monoclinic'
loop_
_space_group_symop_operation_xyz
x,y,z
-x,y,-z
-x,-y,-z
x,-y,z
loop_
_atom_site_type_symbol
_atom_site_label
_atom_site_fract_x
_atom_site_fract_y
_atom_site_fract_z
Si Si1 0.005529 0.315528 0.353350
Si Si2 0.861092 0.683458 0.873600
Si Si3 0.693313 0.326358 0.138687
Si Si4 0.592630 0.181499 0.698153
Si Si5 0.585103 0.326163 0.186814
Si Si6 0.145021 0.181501 0.444883
Si Si7 0.313257 0.315280 0.365559
O O1 0.003782 0.500000 0.355881
O O2 0.086622 0.261501 0.439603
O O3 0.000000 0.250354 0.500000
O O4 0.931759 0.254708 0.112966
O O5 0.865770 0.500000 0.857691
O O6 0.867210 0.757298 0.734248
O O7 0.779837 0.729026 0.794037
O O8 0.727727 0.500000 0.177097
O O9 0.631439 0.330463 0.138514
O O10 0.765844 0.212395 0.320997
O O11 0.639531 0.270382 0.908205
O O12 0.500000 0.243253 0.500000
O O13 0.647179 0.214682 0.674684
O O14 0.590821 0.000000 0.728500
O O15 0.565583 0.500000 0.201826
O O16 0.640806 0.248552 0.410799
O O17 0.500000 0.235015 0.000000
O O18 0.127324 0.000000 0.408486
O O19 0.322382 0.500000 0.356754
#
# Coordination Sequence:
#
# PCOD8065304 Si02
#       7
#     4   4   4   4   4   4   4
#     4  10  23  42  67  96 125 162 211 261 309 364
#     4  10  21  41  66  93 123 162 212 264 310 365
#     4  11  22  40  66  91 121 163 213 263 308 363
#     4  11  25  42  58  87 132 173 208 254 318 381
#     4   9  17  32  58  90 118 146 196 261 309 353
#     4  12  25  41  63  94 131 167 203 249 317 384
#     4  10  20  37  62  91 120 158 212 261 308 364
#
# _framework density 20.231833000000002
#
# number of rings (size 3 to 8) (size 9 to 14) (size 15 to 20)
#    0.000    1.571    1.429    3.429    2.000    5.429 
#    0.000    0.000    0.000    3.000    0.000    0.000 
#    0.000    0.000    0.000    0.000    0.000    0.000 
#
# Total GULP energy -347082.183930 kJ/mol
# GULP energy per Si atom -12395.792283 kJ/mol
# Density = 2.018578 g / cm^3
# Si number density = 20.231833 Si / 1000 Ang^3
#
#
#
# Elastic Constant Matrix: (Units=GPa)
#
#
# Indices 1 2 3 4 5 6 
#
# 1 113.5802 7.1423 50.4147 0.0000 -3.3145 0.0000
# 2 7.1423 8.5559 8.6179 0.0000 -6.1483 0.0000
# 3 50.4147 8.6179 154.3227 0.0000 -4.9587 0.0000
# 4 0.0000 0.0000 0.0000 18.4927 0.0000 7.1360
# 5 -3.3145 -6.1483 -4.9587 0.0000 43.0073 0.0000
# 6 0.0000 0.0000 0.0000 7.1360 0.0000 14.0637
#
#
#
# Elastic Compliance Matrix: (Units=1/GPa)
#
#
# Indices 1 2 3 4 5 6 
#
# 1 0.010556 -0.005945 -0.003129 0.000000 -0.000397 0.000000
# 2 -0.005945 0.140899 -0.005313 0.000000 0.019072 0.000000
# 3 -0.003129 -0.005313 0.007796 0.000000 -0.000102 0.000000
# 4 0.000000 0.000000 0.000000 0.067241 0.000000 -0.034119
# 5 -0.000397 0.019072 -0.000102 0.000000 0.025936 0.000000
# 6 0.000000 0.000000 0.000000 -0.034119 0.000000 0.088417
#
#
# Mechanical properties :
#
#
# Convention : Reuss Voigt Hill
#
# Bulk Modulus (GPa) = 7.66432 45.42319 26.54375
# Shear Modulus (GPa) = 12.10329 29.13166 20.61748
#
# Velocity S-wave (km/s) = 2.44853 3.79871 3.19574
# Velocity P-wave (km/s) = 3.43368 6.46068 5.17352
#
# Compressibility (1/GPa) = 0.13047479
#
# Stress axis : x y z
#
# Youngs Moduli (GPa) = 94.73727 7.09729 128.27778
#
# Poissons Ratio (x) = 0.04219 0.40139
# Poissons Ratio (y) = 0.56323 0.68158
# Poissons Ratio (z) = 0.29644 0.03771
#
# Static dielectric constant tensor:
#      x y z
#    x 3.699560 0.000000 0.104750 
#    y 0.000000 3.510140 0.000000 
#    z 0.104750 0.000000 4.001860 
# 
# 
# High freq. dielectric constant tensor:
#      x y z
#    x 1.804060 0.000000 0.002110 
#    y 0.000000 1.763640 0.000000 
#    z 0.002110 0.000000 1.812030 
# 
# From -- ./inp_files/37243.got.cif
#   From: 2010.06.25/outbox.cif.g09.slc.cpg/sg10_19_cif.got.tgz:37243.got - 2010.06.27 22:07:45.
