data_PCOD8065939
_publ_section_title
;
Structure prediction by ZEFSAII (Michael W. Deem and Ramdas Pophale) SiO2 
 PCOD8065939
Probable space group: P 2/M
;
_chemical_formula_sum "Si O2"
_cell_formula_units_Z 32
_cell_length_a 32.032658
_cell_length_b 9.006069
_cell_length_c 13.594200
_cell_angle_alpha 90.000000
_cell_angle_beta 154.643409
_cell_angle_gamma 90.000000
_cell_volume 1679.499577
_symmetry_space_group_name_H-M "P 2/M"
_symmetry_group_IT_number 10
_symmetry_cell_setting 'monoclinic'
loop_
_space_group_symop_operation_xyz
x,y,z
-x,y,-z
-x,-y,-z
x,-y,z
loop_
_atom_site_type_symbol
_atom_site_label
_atom_site_fract_x
_atom_site_fract_y
_atom_site_fract_z
Si Si1 0.175304 0.823611 0.296478
Si Si2 0.151948 0.664359 0.941519
Si Si3 0.665665 0.174580 0.021837
Si Si4 0.315142 0.332988 0.455499
Si Si5 0.441942 0.173421 0.581096
Si Si6 0.285131 0.825370 0.089674
Si Si7 0.816187 0.327325 0.478227
Si Si8 0.022549 0.327814 0.834489
O O1 0.275250 0.758926 0.463532
O O2 0.163762 0.764490 0.381438
O O3 0.181470 0.000000 0.309352
O O4 0.079905 0.773161 0.034041
O O5 0.139935 0.500000 0.871644
O O6 0.233637 0.668704 0.198798
O O7 0.182345 0.769216 0.915777
O O8 0.052644 0.715516 0.785887
O O9 0.552189 0.211426 0.789798
O O10 0.701003 0.234432 0.991072
O O11 0.686204 0.000000 0.078750
O O12 0.720433 0.265711 0.222052
O O13 0.340293 0.500000 0.542872
O O14 0.412237 0.257025 0.618378
O O15 0.375725 0.229864 0.348995
O O16 0.425275 0.000000 0.563595
O O17 0.282247 0.000000 0.081524
O O18 0.802227 0.500000 0.474419
O O19 0.907729 0.302039 0.600680
O O20 0.051681 0.500000 0.916326
#
# Coordination Sequence:
#
# PCOD8065939 Si02
#       8
#     4   4   4   4   4   4   4   4
#     4  11  21  34  56  83 107 133 169 213 260 311
#     4   8  15  29  50  76 103 130 165 211 257 301
#     4  10  21  36  52  74 107 141 175 218 262 307
#     4   9  17  31  52  79 109 136 167 211 258 306
#     4   9  17  32  55  80 105 136 174 215 261 310
#     4   9  17  31  53  79 105 136 172 211 259 310
#     4  11  23  38  54  73 103 142 179 215 258 309
#     4   9  19  36  56  78 105 137 173 214 259 307
#
# _framework density 19.053294000000001
#
# number of rings (size 3 to 8) (size 9 to 14) (size 15 to 20)
#    0.000    2.500    0.000    3.375    0.000    8.000 
#    0.000    1.250    0.000   11.250    0.000    0.000 
#    0.000    0.000    0.000    0.000    0.000    0.000 
#
# Total GULP energy -396764.255392 kJ/mol
# GULP energy per Si atom -12398.882981 kJ/mol
# Density = 1.900993 g / cm^3
# Si number density = 19.053294 Si / 1000 Ang^3
#
#
#
# Elastic Constant Matrix: (Units=GPa)
#
#
# Indices 1 2 3 4 5 6 
#
# 1 91.6330 30.2709 7.4790 0.0000 18.1070 0.0000
# 2 30.2709 77.2962 17.6176 0.0000 5.2529 0.0000
# 3 7.4790 17.6176 30.2396 0.0000 -0.2427 0.0000
# 4 0.0000 0.0000 0.0000 16.8497 0.0000 4.4965
# 5 18.1070 5.2529 -0.2427 0.0000 8.0302 0.0000
# 6 0.0000 0.0000 0.0000 4.4965 0.0000 34.4942
#
#
#
# Elastic Compliance Matrix: (Units=1/GPa)
#
#
# Indices 1 2 3 4 5 6 
#
# 1 0.021877 -0.004729 -0.003027 0.000000 -0.046327 0.000000
# 2 -0.004729 0.016793 -0.008619 0.000000 -0.000582 0.000000
# 3 -0.003027 -0.008619 0.038949 0.000000 0.013641 0.000000
# 4 0.000000 0.000000 0.000000 0.061487 0.000000 -0.008015
# 5 -0.046327 -0.000582 0.013641 0.000000 0.229785 0.000000
# 6 0.000000 0.000000 0.000000 -0.008015 0.000000 0.030035
#
#
# Mechanical properties :
#
#
# Convention : Reuss Voigt Hill
#
# Bulk Modulus (GPa) = 22.28745 34.43376 28.36060
# Shear Modulus (GPa) = 11.19487 21.46158 16.32823
#
# Velocity S-wave (km/s) = 2.42658 3.35983 2.93059
# Velocity P-wave (km/s) = 4.42424 5.75872 5.13501
#
# Compressibility (1/GPa) = 0.04486830
#
# Stress axis : x y z
#
# Youngs Moduli (GPa) = 45.71030 59.54764 25.67478
#
# Poissons Ratio (x) = 0.28161 0.07773
# Poissons Ratio (y) = 0.21617 0.22129
# Poissons Ratio (z) = 0.13838 0.51323
#
# Static dielectric constant tensor:
#      x y z
#    x 3.872360 0.000000 0.141640 
#    y 0.000000 3.489260 0.000000 
#    z 0.141640 0.000000 3.149480 
# 
# 
# High freq. dielectric constant tensor:
#      x y z
#    x 1.758570 0.000000 0.012270 
#    y 0.000000 1.736960 0.000000 
#    z 0.012270 0.000000 1.703480 
# 
# From -- ./inp_files/49904.got.cif
#   From: 2010.06.25/outbox.cif.g09.slc.cpg/sg10_25_cif.got.tgz:49904.got - 2010.06.27 22:07:45.
