data_PCOD8065238
_publ_section_title
;
Structure prediction by ZEFSAII (Michael W. Deem and Ramdas Pophale) SiO2 
 PCOD8065238
Probable space group: P 2/M
;
_chemical_formula_sum "Si O2"
_cell_formula_units_Z 28
_cell_length_a 10.104717
_cell_length_b 9.264804
_cell_length_c 27.425331
_cell_angle_alpha 90.000000
_cell_angle_beta 34.910508
_cell_angle_gamma 90.000000
_cell_volume 1469.376842
_symmetry_space_group_name_H-M "P 2/M"
_symmetry_group_IT_number 10
_symmetry_cell_setting 'monoclinic'
loop_
_space_group_symop_operation_xyz
x,y,z
-x,y,-z
-x,-y,-z
x,-y,z
loop_
_atom_site_type_symbol
_atom_site_label
_atom_site_fract_x
_atom_site_fract_y
_atom_site_fract_z
Si Si1 0.137918 0.834447 0.330810
Si Si2 0.379894 0.167374 0.486154
Si Si3 0.005661 0.833677 0.053470
Si Si4 0.155590 0.329558 0.225856
Si Si5 0.680673 0.328697 0.319769
Si Si6 0.570881 0.329942 0.032369
Si Si7 0.406642 0.835209 0.751139
O O1 0.176153 0.736268 0.272711
O O2 0.331882 0.798479 0.312235
O O3 0.892087 0.801921 0.429486
O O4 0.154220 0.000000 0.308616
O O5 0.500000 0.217862 0.500000
O O6 0.472953 0.262054 0.413700
O O7 0.435569 0.000000 0.459176
O O8 0.754878 0.810780 0.153052
O O9 0.082405 0.000000 0.030866
O O10 0.188006 0.743889 0.029061
O O11 0.000000 0.774660 0.000000
O O12 0.155403 0.500000 0.231222
O O13 0.373079 0.275391 0.128840
O O14 0.922241 0.277130 0.269977
O O15 0.656566 0.500000 0.326478
O O16 0.670023 0.271938 0.268090
O O17 0.606848 0.500000 0.024993
O O18 0.500000 0.281758 0.000000
O O19 0.387625 0.000000 0.738144
#
# Coordination Sequence:
#
# PCOD8065238 Si02
#       7
#     4   4   4   4   4   4   4
#     4  10  21  38  61  85 111 147 188 233 281 335
#     4  10  20  37  61  88 115 146 188 234 283 337
#     4  10  21  38  59  84 114 148 190 238 284 334
#     4  10  21  36  56  83 112 147 189 234 282 333
#     4  11  23  38  59  85 117 154 189 232 283 335
#     4  10  21  37  56  80 113 149 188 233 281 336
#     4  10  22  39  58  83 116 152 189 232 284 338
#
# _framework density 19.055698
#
# number of rings (size 3 to 8) (size 9 to 14) (size 15 to 20)
#    0.000    1.857    1.429    2.143    0.000    6.571 
#    0.000    2.857    0.000    0.000    0.000    0.000 
#    0.000    0.000    0.000    0.000    0.000    0.000 
#
# Total GULP energy -347360.610541 kJ/mol
# GULP energy per Si atom -12405.736091 kJ/mol
# Density = 1.901233 g / cm^3
# Si number density = 19.055698 Si / 1000 Ang^3
#
#
#
# Elastic Constant Matrix: (Units=GPa)
#
#
# Indices 1 2 3 4 5 6 
#
# 1 82.6405 26.9438 28.8669 0.0000 -2.9101 0.0000
# 2 26.9438 39.3381 26.1781 0.0000 2.3742 0.0000
# 3 28.8669 26.1781 91.0818 0.0000 -5.7875 0.0000
# 4 0.0000 0.0000 0.0000 26.8678 0.0000 4.5718
# 5 -2.9101 2.3742 -5.7875 0.0000 38.3384 0.0000
# 6 0.0000 0.0000 0.0000 4.5718 0.0000 34.9735
#
#
#
# Elastic Compliance Matrix: (Units=1/GPa)
#
#
# Indices 1 2 3 4 5 6 
#
# 1 0.016065 -0.009604 -0.002238 0.000000 0.001476 0.000000
# 2 -0.009604 0.037604 -0.008035 0.000000 -0.004271 0.000000
# 3 -0.002238 -0.008035 0.014154 0.000000 0.002464 0.000000
# 4 0.000000 0.000000 0.000000 0.038066 0.000000 -0.004976
# 5 0.001476 -0.004271 0.002464 0.000000 0.026832 0.000000
# 6 0.000000 0.000000 0.000000 -0.004976 0.000000 0.029244
#
#
# Mechanical properties :
#
#
# Convention : Reuss Voigt Hill
#
# Bulk Modulus (GPa) = 35.62536 41.89312 38.75924
# Shear Modulus (GPa) = 23.68827 28.77403 26.23115
#
# Velocity S-wave (km/s) = 3.52960 3.89008 3.71422
# Velocity P-wave (km/s) = 5.94531 6.49687 6.22720
#
# Compressibility (1/GPa) = 0.02806989
#
# Stress axis : x y z
#
# Youngs Moduli (GPa) = 62.24570 26.59327 70.64942
#
# Poissons Ratio (x) = 0.25539 0.15809
# Poissons Ratio (y) = 0.59779 0.56769
# Poissons Ratio (z) = 0.13928 0.21369
#
# Static dielectric constant tensor:
#      x y z
#    x 3.478070 0.000000 -0.082480 
#    y 0.000000 3.382520 0.000000 
#    z -0.082480 0.000000 3.657320 
# 
# 
# High freq. dielectric constant tensor:
#      x y z
#    x 1.745790 0.000000 -0.003660 
#    y 0.000000 1.732660 0.000000 
#    z -0.003660 0.000000 1.755580 
# 
# From -- ./inp_files/37012.got.cif
#   From: 2010.06.25/outbox.cif.g09.slc.cpg/sg10_19_cif.got.tgz:37012.got - 2010.06.27 22:07:45.
