data_PCOD8065641
_publ_section_title
;
Structure prediction by ZEFSAII (Michael W. Deem and Ramdas Pophale) SiO2 
 PCOD8065641
Probable space group: P 2/M
;
_chemical_formula_sum "Si O2"
_cell_formula_units_Z 24
_cell_length_a 12.345839
_cell_length_b 11.388479
_cell_length_c 11.200537
_cell_angle_alpha 90.000000
_cell_angle_beta 48.892168
_cell_angle_gamma 90.000000
_cell_volume 1186.569489
_symmetry_space_group_name_H-M "P 2/M"
_symmetry_group_IT_number 10
_symmetry_cell_setting 'monoclinic'
loop_
_space_group_symop_operation_xyz
x,y,z
-x,y,-z
-x,-y,-z
x,-y,z
loop_
_atom_site_type_symbol
_atom_site_label
_atom_site_fract_x
_atom_site_fract_y
_atom_site_fract_z
Si Si1 0.702642 0.253031 0.693768
Si Si2 0.408155 0.500000 0.688943
Si Si3 0.819678 0.138904 0.382260
Si Si4 0.415706 0.500000 0.189501
Si Si5 0.360070 0.753229 0.681580
Si Si6 0.414907 0.136269 0.888425
Si Si7 0.864131 0.862824 0.770490
O O1 0.723398 0.215956 0.541653
O O2 0.692695 0.391155 0.722028
O O3 0.552165 0.198454 0.849991
O O4 0.842422 0.202688 0.660505
O O5 0.500000 0.500000 0.500000
O O6 0.487719 0.500000 0.760435
O O7 0.314843 0.620428 0.754426
O O8 0.773463 0.181828 0.284824
O O9 0.986806 0.171241 0.275695
O O10 0.791005 0.000000 0.420846
O O11 0.500000 0.500000 0.000000
O O12 0.500000 0.744975 0.500000
O O13 0.406084 0.834683 0.756586
O O14 0.437383 0.000000 0.892951
O O15 0.266174 0.181259 0.052583
O O16 0.857968 0.000000 0.748057
#
# Coordination Sequence:
#
# PCOD8065641 Si02
#       7
#     4   2   4   2   4   4   4
#     4  12  22  39  64  91 121 164 213 257 308 378
#     4  10  20  40  61  92 130 169 212 269 324 371
#     4  11  23  40  63  92 128 168 205 257 322 382
#     4  12  24  40  66  97 131 170 213 270 330 373
#     4  11  21  37  62  90 121 161 214 261 310 371
#     4  11  21  35  61  92 121 157 206 259 310 373
#     4  10  23  40  59  89 131 167 200 253 325 384
#
# _framework density 20.226375000000001
#
# number of rings (size 3 to 8) (size 9 to 14) (size 15 to 20)
#    0.000    1.000    3.333    5.000    0.000    4.000 
#    0.000    5.000    0.000    1.000    0.000    0.000 
#    0.000    0.000    0.000    0.000    0.000    0.000 
#
# Total GULP energy -297541.047959 kJ/mol
# GULP energy per Si atom -12397.543665 kJ/mol
# Density = 2.018034 g / cm^3
# Si number density = 20.226375 Si / 1000 Ang^3
#
#
#
# Elastic Constant Matrix: (Units=GPa)
#
#
# Indices 1 2 3 4 5 6 
#
# 1 130.4180 41.5146 16.3464 0.0000 -7.7565 0.0000
# 2 41.5146 87.4590 19.7640 0.0000 -12.7681 0.0000
# 3 16.3464 19.7640 48.1652 0.0000 -4.3023 0.0000
# 4 0.0000 0.0000 0.0000 9.6919 0.0000 -5.0136
# 5 -7.7565 -12.7681 -4.3023 0.0000 35.0096 0.0000
# 6 0.0000 0.0000 0.0000 -5.0136 0.0000 7.1878
#
#
#
# Elastic Compliance Matrix: (Units=1/GPa)
#
#
# Indices 1 2 3 4 5 6 
#
# 1 0.009129 -0.003948 -0.001442 0.000000 0.000405 0.000000
# 2 -0.003948 0.014891 -0.004412 0.000000 0.004014 0.000000
# 3 -0.001442 -0.004412 0.023143 0.000000 0.000916 0.000000
# 4 0.000000 0.000000 0.000000 0.161425 0.000000 0.112597
# 5 0.000405 0.004014 0.000916 0.000000 0.030230 0.000000
# 6 0.000000 0.000000 0.000000 0.112597 0.000000 0.217665
#
#
# Mechanical properties :
#
#
# Convention : Reuss Voigt Hill
#
# Bulk Modulus (GPa) = 36.28520 46.81024 41.54772
# Shear Modulus (GPa) = 10.30345 22.93900 16.62122
#
# Velocity S-wave (km/s) = 2.25945 3.37131 2.86975
# Velocity P-wave (km/s) = 4.97849 6.19256 5.61841
#
# Compressibility (1/GPa) = 0.02755945
#
# Stress axis : x y z
#
# Youngs Moduli (GPa) = 109.53669 67.15415 43.20894
#
# Poissons Ratio (x) = 0.26515 0.06230
# Poissons Ratio (y) = 0.43250 0.19063
# Poissons Ratio (z) = 0.15795 0.29627
#
# Static dielectric constant tensor:
#      x y z
#    x 3.857360 0.000000 0.192010 
#    y 0.000000 3.895280 0.000000 
#    z 0.192010 0.000000 3.755390 
# 
# 
# High freq. dielectric constant tensor:
#      x y z
#    x 1.798160 0.000000 0.016820 
#    y 0.000000 1.792630 0.000000 
#    z 0.016820 0.000000 1.777520 
# 
# From -- ./inp_files/46533.got.cif
#   From: 2010.06.25/outbox.cif.g09.slc.cpg/sg10_24_cif.got.tgz:46533.got - 2010.06.27 22:07:45.
