data_PCOD8065778
_publ_section_title
;
Structure prediction by ZEFSAII (Michael W. Deem and Ramdas Pophale) SiO2 
 PCOD8065778
Probable space group: P 2/M
;
_chemical_formula_sum "Si O2"
_cell_formula_units_Z 28
_cell_length_a 22.600826
_cell_length_b 13.978345
_cell_length_c 9.950584
_cell_angle_alpha 90.000000
_cell_angle_beta 152.008854
_cell_angle_gamma 90.000000
_cell_volume 1475.406474
_symmetry_space_group_name_H-M "P 2/M"
_symmetry_group_IT_number 10
_symmetry_cell_setting 'monoclinic'
loop_
_space_group_symop_operation_xyz
x,y,z
-x,y,-z
-x,-y,-z
x,-y,z
loop_
_atom_site_type_symbol
_atom_site_label
_atom_site_fract_x
_atom_site_fract_y
_atom_site_fract_z
Si Si1 0.799822 0.768566 0.346206
Si Si2 0.014304 0.389381 0.185669
Si Si3 0.381530 0.000000 0.358137
Si Si4 0.980937 0.111148 0.119178
Si Si5 0.209667 0.270846 0.190457
Si Si6 0.351993 0.801618 0.705719
Si Si7 0.349048 0.793958 0.220484
Si Si8 0.378037 0.000000 0.663747
O O1 0.685185 0.783533 0.217255
O O2 0.871374 0.669862 0.521222
O O3 0.892598 0.859354 0.546887
O O4 0.734739 0.761360 0.072133
O O5 0.043267 0.500000 0.267574
O O6 0.884763 0.361114 0.001821
O O7 0.000000 0.363482 0.000000
O O8 0.500000 0.000000 0.500000
O O9 0.308172 0.902634 0.175533
O O10 0.419816 0.000000 0.591838
O O11 0.950212 0.000000 0.081233
O O12 0.869400 0.172579 0.959962
O O13 0.000000 0.136461 0.000000
O O14 0.295779 0.279828 0.496332
O O15 0.302782 0.273071 0.249712
O O16 0.299536 0.904713 0.544749
O O17 0.500000 0.798868 0.000000
O O18 0.500000 0.782211 0.500000
O O19 0.500000 0.000000 0.000000
#
# Coordination Sequence:
#
# PCOD8065778 Si02
#       8
#     4   4   2   4   4   4   4   2
#     4  11  22  39  59  90 118 160 205 247 309 365
#     4  10  21  42  71  98 118 145 197 265 318 365
#     4  10  22  36  48  77 124 174 206 242 286 337
#     4  10  21  34  55  83 115 154 200 260 300 337
#     4  11  20  39  60  87 119 160 199 246 307 359
#     4  11  21  33  57  84 120 162 214 249 285 354
#     4  11  25  39  58  84 132 170 203 246 297 359
#     4  10  22  32  52  83 113 171 223 239 273 344
#
# _framework density 18.977820999999999
#
# number of rings (size 3 to 8) (size 9 to 14) (size 15 to 20)
#    0.000    1.429    4.286    1.714   10.000    2.286 
#    0.000    2.143    0.000    5.143    0.000    0.000 
#    0.000    0.000    0.000    0.000    0.000    0.000 
#
# Total GULP energy -347117.952660 kJ/mol
# GULP energy per Si atom -12397.069738 kJ/mol
# Density = 1.893463 g / cm^3
# Si number density = 18.977821 Si / 1000 Ang^3
#
#
#
# Elastic Constant Matrix: (Units=GPa)
#
#
# Indices 1 2 3 4 5 6 
#
# 1 112.8391 21.2652 26.5671 0.0000 -0.8126 0.0000
# 2 21.2652 88.7088 30.4967 0.0000 -2.9535 0.0000
# 3 26.5671 30.4967 98.0918 0.0000 -7.7982 0.0000
# 4 0.0000 0.0000 0.0000 17.6754 0.0000 1.9125
# 5 -0.8126 -2.9535 -7.7982 0.0000 33.5616 0.0000
# 6 0.0000 0.0000 0.0000 1.9125 0.0000 17.9820
#
#
#
# Elastic Compliance Matrix: (Units=1/GPa)
#
#
# Indices 1 2 3 4 5 6 
#
# 1 0.009666 -0.001590 -0.002156 0.000000 -0.000407 0.000000
# 2 -0.001590 0.012885 -0.003554 0.000000 0.000270 0.000000
# 3 -0.002156 -0.003554 0.012077 0.000000 0.002441 0.000000
# 4 0.000000 0.000000 0.000000 0.057235 0.000000 -0.006087
# 5 -0.000407 0.000270 0.002441 0.000000 0.030377 0.000000
# 6 0.000000 0.000000 0.000000 -0.006087 0.000000 0.056259
#
#
# Mechanical properties :
#
#
# Convention : Reuss Voigt Hill
#
# Bulk Modulus (GPa) = 49.92671 50.69974 50.31322
# Shear Modulus (GPa) = 25.02822 28.59785 26.81303
#
# Velocity S-wave (km/s) = 3.63549 3.88610 3.76288
# Velocity P-wave (km/s) = 6.63230 6.84901 6.74153
#
# Compressibility (1/GPa) = 0.02002936
#
# Stress axis : x y z
#
# Youngs Moduli (GPa) = 103.45045 77.61188 82.79864
#
# Poissons Ratio (x) = 0.12336 0.17853
# Poissons Ratio (y) = 0.16444 0.29426
# Poissons Ratio (z) = 0.22306 0.27582
#
# Static dielectric constant tensor:
#      x y z
#    x 3.515070 0.000000 0.270940 
#    y 0.000000 3.485100 0.000000 
#    z 0.270940 0.000000 2.653680 
# 
# 
# High freq. dielectric constant tensor:
#      x y z
#    x 1.743430 0.000000 0.004540 
#    y 0.000000 1.706300 0.000000 
#    z 0.004540 0.000000 1.741590 
# 
# From -- ./inp_files/29459.got.cif
#   From: 2010.06.25/outbox.cif.g09.slc.cpg/sg10_15_cif.got.tgz:29459.got - 2010.06.27 22:07:45.
