data_PCOD8065961
_publ_section_title
;
Structure prediction by ZEFSAII (Michael W. Deem and Ramdas Pophale) SiO2 
 PCOD8065961
Probable space group: P 2/M
;
_chemical_formula_sum "Si O2"
_cell_formula_units_Z 32
_cell_length_a 20.887644
_cell_length_b 9.062386
_cell_length_c 27.440906
_cell_angle_alpha 90.000000
_cell_angle_beta 160.975470
_cell_angle_gamma 90.000000
_cell_volume 1693.214559
_symmetry_space_group_name_H-M "P 2/M"
_symmetry_group_IT_number 10
_symmetry_cell_setting 'monoclinic'
loop_
_space_group_symop_operation_xyz
x,y,z
-x,y,-z
-x,-y,-z
x,-y,z
loop_
_atom_site_type_symbol
_atom_site_label
_atom_site_fract_x
_atom_site_fract_y
_atom_site_fract_z
Si Si1 0.909979 0.172966 0.345880
Si Si2 0.611352 0.328327 0.686535
Si Si3 0.324688 0.162667 0.912026
Si Si4 0.070221 0.672295 0.162381
Si Si5 0.358615 0.173850 0.687453
Si Si6 0.573940 0.325059 0.164322
Si Si7 0.359029 0.327669 0.180198
Si Si8 0.665972 0.833884 0.578619
O O1 0.864957 0.212409 0.256502
O O2 0.772685 0.265212 0.283171
O O3 0.131556 0.216081 0.517214
O O4 0.867722 0.000000 0.324885
O O5 0.570153 0.500000 0.649911
O O6 0.800373 0.278648 0.791114
O O7 0.655480 0.286798 0.773647
O O8 0.414478 0.244845 0.527713
O O9 0.290776 0.000000 0.910706
O O10 0.500000 0.155001 0.000000
O O11 0.379330 0.277132 0.993972
O O12 0.094860 0.500000 0.189386
O O13 0.139371 0.754514 0.261147
O O14 0.846510 0.716385 0.992091
O O15 0.447121 0.259497 0.797090
O O16 0.471641 0.228349 0.721061
O O17 0.386423 0.000000 0.714592
O O18 0.581243 0.500000 0.172042
O O19 0.406582 0.500000 0.206798
O O20 0.500000 0.824222 0.500000
O O21 0.722160 0.000000 0.605419
#
# Coordination Sequence:
#
# PCOD8065961 Si02
#       8
#     4   4   4   4   4   4   4   4
#     4   9  19  36  57  79 103 135 174 212 253 306
#     4   9  17  32  55  79 103 135 171 209 259 313
#     4   8  15  31  54  78 104 133 167 209 255 303
#     4   9  17  32  55  79 103 134 171 210 257 312
#     4  11  23  38  54  73 103 142 178 211 254 308
#     4  11  21  33  54  83 109 134 169 213 258 303
#     4  10  21  36  53  76 105 134 171 218 260 303
#     4   9  17  29  48  77 108 134 167 213 256 298
#
# _framework density 18.898962000000001
#
# number of rings (size 3 to 8) (size 9 to 14) (size 15 to 20)
#    0.000    2.500    0.000    3.375    0.000    8.750 
#    0.000    1.250    0.000    6.750    0.000    0.000 
#    0.000    0.000    0.000    0.000    0.000    0.000 
#
# Total GULP energy -396793.133550 kJ/mol
# GULP energy per Si atom -12399.785423 kJ/mol
# Density = 1.885595 g / cm^3
# Si number density = 18.898962 Si / 1000 Ang^3
#
#
#
# Elastic Constant Matrix: (Units=GPa)
#
#
# Indices 1 2 3 4 5 6 
#
# 1 39.6323 29.5665 26.7201 0.0000 -0.9221 0.0000
# 2 29.5665 83.5431 38.9753 0.0000 -7.0959 0.0000
# 3 26.7201 38.9753 78.2689 0.0000 -23.7022 0.0000
# 4 0.0000 0.0000 0.0000 19.7688 0.0000 -2.1957
# 5 -0.9221 -7.0959 -23.7022 0.0000 21.0701 0.0000
# 6 0.0000 0.0000 0.0000 -2.1957 0.0000 26.6286
#
#
#
# Elastic Compliance Matrix: (Units=1/GPa)
#
#
# Indices 1 2 3 4 5 6 
#
# 1 0.042103 -0.009312 -0.015361 0.000000 -0.018573 0.000000
# 2 -0.009312 0.018049 -0.006206 0.000000 -0.001310 0.000000
# 3 -0.015361 -0.006206 0.030749 0.000000 0.031828 0.000000
# 4 0.000000 0.000000 0.000000 0.051052 0.000000 0.004210
# 5 -0.018573 -0.001310 0.031828 0.000000 0.082011 0.000000
# 6 0.000000 0.000000 0.000000 0.004210 0.000000 0.037901
#
#
# Mechanical properties :
#
#
# Convention : Reuss Voigt Hill
#
# Bulk Modulus (GPa) = 34.31173 43.55202 38.93187
# Shear Modulus (GPa) = 14.99983 20.57234 17.78609
#
# Velocity S-wave (km/s) = 2.82030 3.30289 3.07109
# Velocity P-wave (km/s) = 5.36658 6.13515 5.76369
#
# Compressibility (1/GPa) = 0.02914455
#
# Stress axis : x y z
#
# Youngs Moduli (GPa) = 23.75129 55.40405 32.52103
#
# Poissons Ratio (x) = 0.51591 0.49956
# Poissons Ratio (y) = 0.22117 0.20181
# Poissons Ratio (z) = 0.36485 0.34382
#
# Static dielectric constant tensor:
#      x y z
#    x 3.255470 0.000000 -0.277210 
#    y 0.000000 3.407000 0.000000 
#    z -0.277210 0.000000 3.733870 
# 
# 
# High freq. dielectric constant tensor:
#      x y z
#    x 1.709100 0.000000 -0.023680 
#    y 0.000000 1.728760 0.000000 
#    z -0.023680 0.000000 1.741130 
# 
# From -- ./inp_files/93743.got.cif
#   From: 2010.06.25/outbox.cif.g09.slc.cpg/sg10_47_cif.got.tgz:93743.got - 2010.06.27 22:07:45.
