data_PCOD8065476
_publ_section_title
;
Structure prediction by ZEFSAII (Michael W. Deem and Ramdas Pophale) SiO2 
 PCOD8065476
Probable space group: P 2/M
;
_chemical_formula_sum "Si O2"
_cell_formula_units_Z 14
_cell_length_a 14.600331
_cell_length_b 10.155246
_cell_length_c 12.754020
_cell_angle_alpha 90.000000
_cell_angle_beta 19.858929
_cell_angle_gamma 90.000000
_cell_volume 642.395880
_symmetry_space_group_name_H-M "P 2/M"
_symmetry_group_IT_number 10
_symmetry_cell_setting 'monoclinic'
loop_
_space_group_symop_operation_xyz
x,y,z
-x,y,-z
-x,-y,-z
x,-y,z
loop_
_atom_site_type_symbol
_atom_site_label
_atom_site_fract_x
_atom_site_fract_y
_atom_site_fract_z
Si Si1 0.053049 0.146939 0.704369
Si Si2 0.789835 0.351241 0.637411
Si Si3 0.709754 0.500000 0.365105
Si Si4 0.471462 0.225235 0.406731
O O1 0.195904 0.244176 0.469410
O O2 0.246541 0.130529 0.598264
O O3 0.015545 0.000000 0.697789
O O4 0.763123 0.206970 0.043208
O O5 0.846546 0.500000 0.533600
O O6 0.000000 0.311320 0.500000
O O7 0.500000 0.342311 0.000000
O O8 0.500000 0.500000 0.500000
O O9 0.648584 0.368849 0.496854
O O10 0.000000 0.500000 0.000000
O O11 0.500000 0.199794 0.500000
#
# Coordination Sequence:
#
# PCOD8065476 Si02
#       4
#     4   4   2   4
#     4  12  26  41  65  99 133 176 218 261 328 391
#     4  10  23  44  69  95 125 165 215 274 333 386
#     4  10  20  38  62  90 120 164 224 270 312 356
#     4  11  24  41  64  94 135 178 219 268 315 381
#
# _framework density 21.793416000000001
#
# number of rings (size 3 to 8) (size 9 to 14) (size 15 to 20)
#    0.000    1.143    0.000    6.857    4.000    4.571 
#    0.000    0.000    0.000    0.000    0.000    0.000 
#    0.000    0.000    0.000    0.000    0.000    0.000 
#
# Total GULP energy -173572.705151 kJ/mol
# GULP energy per Si atom -12398.050368 kJ/mol
# Density = 2.174381 g / cm^3
# Si number density = 21.793416 Si / 1000 Ang^3
#
#
#
# Elastic Constant Matrix: (Units=GPa)
#
#
# Indices 1 2 3 4 5 6 
#
# 1 94.1519 47.7020 39.9417 0.0000 -16.2215 0.0000
# 2 47.7020 150.2234 58.2943 0.0000 20.1143 0.0000
# 3 39.9417 58.2943 130.6550 0.0000 -23.7544 0.0000
# 4 0.0000 0.0000 0.0000 -193.9606 0.0000 -0.5768
# 5 -16.2215 20.1143 -23.7544 0.0000 41.6496 0.0000
# 6 0.0000 0.0000 0.0000 -0.5768 0.0000 26.5709
#
#
#
# Elastic Compliance Matrix: (Units=1/GPa)
#
#
# Indices 1 2 3 4 5 6 
#
# 1 0.015205 -0.005725 -0.000574 0.000000 0.008359 0.000000
# 2 -0.005725 0.012262 -0.005805 0.000000 -0.011462 0.000000
# 3 -0.000574 -0.005805 0.012148 0.000000 0.009508 0.000000
# 4 0.000000 0.000000 0.000000 -0.005155 0.000000 -0.000112
# 5 0.008359 -0.011462 0.009508 0.000000 0.038224 0.000000
# 6 0.000000 0.000000 0.000000 -0.000112 0.000000 0.037633
#
#
# Mechanical properties :
#
#
# Convention : Reuss Voigt Hill
#
# Bulk Modulus (GPa) = 64.90318 74.10070 69.50194
# Shear Modulus (GPa) = 35.80128 -9.87520 12.96304
#
# Velocity S-wave (km/s) = 4.05749 -2.13099 2.44153
# Velocity P-wave (km/s) = 7.19699 5.29343 6.31732
#
# Compressibility (1/GPa) = 0.01540757
#
# Stress axis : x y z
#
# Youngs Moduli (GPa) = 65.76583 81.55395 82.31901
#
# Poissons Ratio (x) = 0.46688 0.04728
# Poissons Ratio (y) = 0.37649 0.47784
# Poissons Ratio (z) = 0.03777 0.47340
#
# Static dielectric constant tensor:
#      x y z
#    x 3.918160 0.000000 -0.192530 
#    y 0.000000 3.177180 0.000000 
#    z -0.192530 0.000000 3.837920 
# 
# 
# High freq. dielectric constant tensor:
#      x y z
#    x 1.857660 0.000000 -0.023030 
#    y 0.000000 1.868680 0.000000 
#    z -0.023030 0.000000 1.864180 
# 
# From -- ./inp_files/50922.got.cif
#   From: 2010.06.25/outbox.cif.g09.slc.cpg/sg10_26_cif.got.tgz:50922.got - 2010.06.27 22:07:45.
