data_PCOD8065844
_publ_section_title
;
Structure prediction by ZEFSAII (Michael W. Deem and Ramdas Pophale) SiO2 
 PCOD8065844
Probable space group: P 2/M
;
_chemical_formula_sum "Si O2"
_cell_formula_units_Z 28
_cell_length_a 22.786043
_cell_length_b 9.405641
_cell_length_c 19.976817
_cell_angle_alpha 90.000000
_cell_angle_beta 160.508544
_cell_angle_gamma 90.000000
_cell_volume 1428.551600
_symmetry_space_group_name_H-M "P 2/M"
_symmetry_group_IT_number 10
_symmetry_cell_setting 'monoclinic'
loop_
_space_group_symop_operation_xyz
x,y,z
-x,y,-z
-x,-y,-z
x,-y,z
loop_
_atom_site_type_symbol
_atom_site_label
_atom_site_fract_x
_atom_site_fract_y
_atom_site_fract_z
Si Si1 0.150198 0.347427 0.347165
Si Si2 0.040326 0.163245 0.621005
Si Si3 0.777266 0.668260 0.430116
Si Si4 0.624443 0.331742 0.971590
Si Si5 0.546780 0.347429 0.743745
Si Si6 0.012439 0.841009 0.939799
Si Si7 0.414922 0.158989 0.342282
O O1 0.053569 0.500000 0.231282
O O2 0.118263 0.292556 0.388364
O O3 0.355118 0.375474 0.565343
O O4 0.099805 0.239015 0.235590
O O5 0.000000 0.166772 0.500000
O O6 0.877411 0.242395 0.481518
O O7 0.053657 0.000000 0.661005
O O8 0.226670 0.242389 0.830785
O O9 0.794348 0.500000 0.434067
O O10 0.570071 0.711748 0.210242
O O11 0.654661 0.500000 0.014941
O O12 0.651855 0.292555 0.921953
O O13 0.624150 0.500000 0.801857
O O14 0.535981 0.239014 0.671764
O O15 0.934641 0.000000 0.861572
O O16 0.208379 0.841340 0.125137
O O17 0.000000 0.768441 0.000000
O O18 0.500000 0.231564 0.500000
O O19 0.492296 0.000000 0.419228
#
# Coordination Sequence:
#
# PCOD8065844 Si02
#       7
#     4   4   4   4   4   4   4
#     4   9  19  36  57  81 108 139 180 232 285 336
#     4  11  25  41  59  89 127 161 195 241 297 359
#     4   9  20  40  64  89 118 155 200 247 294 350
#     4   9  20  40  64  89 118 155 200 247 294 350
#     4   9  19  36  57  81 108 139 180 232 285 336
#     4  10  21  35  51  74 106 145 187 229 276 333
#     4  10  21  35  51  74 106 145 187 229 276 333
#
# _framework density 19.600272
#
# number of rings (size 3 to 8) (size 9 to 14) (size 15 to 20)
#    0.000    2.429    0.000    3.000    2.000    6.286 
#    0.000    5.714    0.000    0.000    0.000    0.000 
#    0.000    0.000    0.000    0.000    0.000    0.000 
#
# Total GULP energy -346976.295914 kJ/mol
# GULP energy per Si atom -12392.010568 kJ/mol
# Density = 1.955566 g / cm^3
# Si number density = 19.600272 Si / 1000 Ang^3
#
#
#
# Elastic Constant Matrix: (Units=GPa)
#
#
# Indices 1 2 3 4 5 6 
#
# 1 107.4436 51.6266 30.0395 0.0000 -6.5631 0.0000
# 2 51.6266 87.6398 42.8078 0.0000 -8.3556 0.0000
# 3 30.0395 42.8078 89.6895 0.0000 -10.2608 0.0000
# 4 0.0000 0.0000 0.0000 25.9692 0.0000 -6.9417
# 5 -6.5631 -8.3556 -10.2608 0.0000 31.7352 0.0000
# 6 0.0000 0.0000 0.0000 -6.9417 0.0000 33.2927
#
#
#
# Elastic Compliance Matrix: (Units=1/GPa)
#
#
# Indices 1 2 3 4 5 6 
#
# 1 0.013047 -0.007212 -0.000868 0.000000 0.000519 0.000000
# 2 -0.007212 0.018953 -0.006470 0.000000 0.001407 0.000000
# 3 -0.000868 -0.006470 0.014863 0.000000 0.002922 0.000000
# 4 0.000000 0.000000 0.000000 0.040780 0.000000 0.008503
# 5 0.000519 0.001407 0.002922 0.000000 0.032933 0.000000
# 6 0.000000 0.000000 0.000000 0.008503 0.000000 0.031810
#
#
# Mechanical properties :
#
#
# Convention : Reuss Voigt Hill
#
# Bulk Modulus (GPa) = 56.29753 59.30230 57.79991
# Shear Modulus (GPa) = 26.67996 28.88602 27.78299
#
# Velocity S-wave (km/s) = 3.69345 3.84312 3.76903
# Velocity P-wave (km/s) = 6.85376 7.07208 6.96377
#
# Compressibility (1/GPa) = 0.01776277
#
# Stress axis : x y z
#
# Youngs Moduli (GPa) = 76.64536 52.76176 67.28318
#
# Poissons Ratio (x) = 0.38053 0.05841
# Poissons Ratio (y) = 0.55279 0.43529
# Poissons Ratio (z) = 0.06654 0.34135
#
# Static dielectric constant tensor:
#      x y z
#    x 3.216270 0.000000 -0.041740 
#    y 0.000000 3.718310 0.000000 
#    z -0.041740 0.000000 3.172130 
# 
# 
# High freq. dielectric constant tensor:
#      x y z
#    x 1.768470 0.000000 -0.001200 
#    y 0.000000 1.752040 0.000000 
#    z -0.001200 0.000000 1.767200 
# 
# From -- ./inp_files/86544.got.cif
#   From: 2010.06.25/outbox.cif.g09.slc.cpg/sg10_44_cif.got.tgz:86544.got - 2010.06.27 22:07:45.
