data_PCOD8065363
_publ_section_title
;
Structure prediction by ZEFSAII (Michael W. Deem and Ramdas Pophale) SiO2 
 PCOD8065363
Probable space group: P 2/M
;
_chemical_formula_sum "Si O2"
_cell_formula_units_Z 28
_cell_length_a 8.911665
_cell_length_b 13.644012
_cell_length_c 12.195911
_cell_angle_alpha 90.000000
_cell_angle_beta 110.097470
_cell_angle_gamma 90.000000
_cell_volume 1392.616035
_symmetry_space_group_name_H-M "P 2/M"
_symmetry_group_IT_number 10
_symmetry_cell_setting 'monoclinic'
loop_
_space_group_symop_operation_xyz
x,y,z
-x,y,-z
-x,-y,-z
x,-y,z
loop_
_atom_site_type_symbol
_atom_site_label
_atom_site_fract_x
_atom_site_fract_y
_atom_site_fract_z
Si Si1 0.355507 0.388559 0.653181
Si Si2 0.429699 0.773430 0.215593
Si Si3 0.905872 0.612271 0.227139
Si Si4 0.129806 0.721520 0.441553
Si Si5 0.157772 0.242792 0.973734
Si Si6 0.354751 0.108867 0.879912
Si Si7 0.666685 0.887825 0.603241
O O1 0.408394 0.500000 0.646423
O O2 0.515091 0.324158 0.707239
O O3 0.248972 0.379216 0.735306
O O4 0.261400 0.352543 0.522412
O O5 0.588968 0.825734 0.208361
O O6 0.344877 0.848957 0.275768
O O7 0.306508 0.740699 0.091514
O O8 0.956595 0.500000 0.224024
O O9 0.868603 0.656328 0.098341
O O10 0.054621 0.670125 0.316426
O O11 0.202065 0.825977 0.428361
O O12 0.000000 0.745232 0.500000
O O13 0.199469 0.156782 0.897654
O O14 0.000000 0.211445 0.000000
O O15 0.307098 0.000000 0.827356
O O16 0.500000 0.101791 0.000000
O O17 0.500000 0.876132 0.500000
O O18 0.723791 0.000000 0.621115
#
# Coordination Sequence:
#
# PCOD8065363 Si02
#       7
#     4   4   4   4   4   4   4
#     4  10  20  37  65  94 119 159 209 255 305 362
#     4  11  21  40  62  89 125 160 205 258 302 364
#     4  10  21  39  63  91 125 166 205 249 309 366
#     4  10  21  41  65  91 127 161 202 256 304 365
#     4  11  23  38  59  88 126 161 201 255 308 363
#     4   9  19  37  61  85 114 160 208 250 304 363
#     4  11  23  40  64  92 124 164 203 254 314 362
#
# _framework density 20.106044000000001
#
# number of rings (size 3 to 8) (size 9 to 14) (size 15 to 20)
#    0.000    1.714    2.857    1.714    0.000    3.714 
#    0.000    7.143    0.000    0.000    0.000    0.000 
#    0.000    0.000    0.000    0.000    0.000    0.000 
#
# Total GULP energy -347321.678258 kJ/mol
# GULP energy per Si atom -12404.345652 kJ/mol
# Density = 2.006028 g / cm^3
# Si number density = 20.106044 Si / 1000 Ang^3
#
#
#
# Elastic Constant Matrix: (Units=GPa)
#
#
# Indices 1 2 3 4 5 6 
#
# 1 81.1887 62.7302 28.4307 0.0000 -1.8429 0.0000
# 2 62.7302 185.2530 59.4516 0.0000 3.3257 0.0000
# 3 28.4307 59.4516 108.3051 0.0000 4.3838 0.0000
# 4 0.0000 0.0000 0.0000 26.7053 0.0000 -6.9554
# 5 -1.8429 3.3257 4.3838 0.0000 29.2519 0.0000
# 6 0.0000 0.0000 0.0000 -6.9554 0.0000 20.0027
#
#
#
# Elastic Compliance Matrix: (Units=1/GPa)
#
#
# Indices 1 2 3 4 5 6 
#
# 1 0.017005 -0.005262 -0.001653 0.000000 0.001917 0.000000
# 2 -0.005262 0.008182 -0.003078 0.000000 -0.000801 0.000000
# 3 -0.001653 -0.003078 0.011416 0.000000 -0.001465 0.000000
# 4 0.000000 0.000000 0.000000 0.041175 0.000000 0.014317
# 5 0.001917 -0.000801 -0.001465 0.000000 0.034617 0.000000
# 6 0.000000 0.000000 0.000000 0.014317 0.000000 0.054972
#
#
# Mechanical properties :
#
#
# Convention : Reuss Voigt Hill
#
# Bulk Modulus (GPa) = 60.17792 75.10797 67.64294
# Shear Modulus (GPa) = 25.92136 30.13427 28.02782
#
# Velocity S-wave (km/s) = 3.59448 3.87559 3.73768
# Velocity P-wave (km/s) = 6.87185 7.58050 7.23486
#
# Compressibility (1/GPa) = 0.01661739
#
# Stress axis : x y z
#
# Youngs Moduli (GPa) = 58.80559 122.22069 87.59847
#
# Poissons Ratio (x) = 0.64315 0.14480
# Poissons Ratio (y) = 0.30945 0.26959
# Poissons Ratio (z) = 0.09720 0.37614
#
# Static dielectric constant tensor:
#      x y z
#    x 3.536850 0.000000 -0.051580 
#    y 0.000000 3.752040 0.000000 
#    z -0.051580 0.000000 3.646780 
# 
# 
# High freq. dielectric constant tensor:
#      x y z
#    x 1.775620 0.000000 -0.004630 
#    y 0.000000 1.789070 0.000000 
#    z -0.004630 0.000000 1.786550 
# 
# From -- ./inp_files/25225.got.cif
#   From: 2010.06.25/outbox.cif.g09.slc.cpg/sg10_13_cif.got.tgz:25225.got - 2010.06.27 22:07:45.
