data_PCOD8065543
_publ_section_title
;
Structure prediction by ZEFSAII (Michael W. Deem and Ramdas Pophale) SiO2 
 PCOD8065543
Probable space group: P 2/M
;
_chemical_formula_sum "Si O2"
_cell_formula_units_Z 20
_cell_length_a 13.451583
_cell_length_b 12.133557
_cell_length_c 9.942995
_cell_angle_alpha 90.000000
_cell_angle_beta 32.198816
_cell_angle_gamma 90.000000
_cell_volume 864.750627
_symmetry_space_group_name_H-M "P 2/M"
_symmetry_group_IT_number 10
_symmetry_cell_setting 'monoclinic'
loop_
_space_group_symop_operation_xyz
x,y,z
-x,y,-z
-x,-y,-z
x,-y,z
loop_
_atom_site_type_symbol
_atom_site_label
_atom_site_fract_x
_atom_site_fract_y
_atom_site_fract_z
Si Si1 0.460193 0.000000 0.706864
Si Si2 0.059357 0.767763 0.713255
Si Si3 0.041082 0.000000 0.290910
Si Si4 0.287648 0.377355 0.251455
Si Si5 0.588482 0.772247 0.544698
Si Si6 0.729397 0.376485 0.028787
O O1 0.500000 0.000000 0.500000
O O2 0.549647 0.888465 0.664593
O O3 0.253624 0.000000 0.001727
O O4 0.172994 0.707868 0.467738
O O5 0.186364 0.757530 0.703947
O O6 0.860950 0.706705 0.964218
O O7 0.043415 0.892954 0.683780
O O8 0.000000 0.000000 0.500000
O O9 0.277876 0.500000 0.326652
O O10 0.195464 0.379996 0.208804
O O11 0.500000 0.336793 0.000000
O O12 0.500000 0.778677 0.500000
O O13 0.482868 0.669105 0.734092
O O14 0.731120 0.500000 0.089906
#
# Coordination Sequence:
#
# PCOD8065543 Si02
#       6
#     2   4   2   4   4   4
#     4  10  23  50  71  92 139 192 231 277 342 426
#     4  12  24  41  67 101 136 177 222 290 349 413
#     4  12  25  42  74 114 144 174 229 298 361 408
#     4  10  20  38  66  95 132 183 222 267 347 434
#     4  11  25  46  67  93 131 181 234 285 336 410
#     4  11  23  41  66  97 134 174 225 281 346 418
#
# _framework density 23.128053999999999
#
# number of rings (size 3 to 8) (size 9 to 14) (size 15 to 20)
#    0.000    1.000    4.000    3.000    0.000    3.600 
#    0.000    4.500    0.000    0.000    0.000    0.000 
#    0.000    0.000    0.000    0.000    0.000    0.000 
#
# Total GULP energy -247804.629150 kJ/mol
# GULP energy per Si atom -12390.231458 kJ/mol
# Density = 2.307541 g / cm^3
# Si number density = 23.128054 Si / 1000 Ang^3
#
#
#
# Elastic Constant Matrix: (Units=GPa)
#
#
# Indices 1 2 3 4 5 6 
#
# 1 97.1919 25.0137 3.4587 0.0000 -26.8412 0.0000
# 2 25.0137 151.8863 16.2801 0.0000 -16.0735 0.0000
# 3 3.4587 16.2801 59.9131 0.0000 -22.1701 0.0000
# 4 0.0000 0.0000 0.0000 43.2581 0.0000 -10.0157
# 5 -26.8412 -16.0735 -22.1701 0.0000 40.9972 0.0000
# 6 0.0000 0.0000 0.0000 -10.0157 0.0000 24.7319
#
#
#
# Elastic Compliance Matrix: (Units=1/GPa)
#
#
# Indices 1 2 3 4 5 6 
#
# 1 0.013291 -0.001495 0.003303 0.000000 0.009901 0.000000
# 2 -0.001495 0.007094 -0.001468 0.000000 0.001009 0.000000
# 3 0.003303 -0.001468 0.021861 0.000000 0.013409 0.000000
# 4 0.000000 0.000000 0.000000 0.025509 0.000000 0.010330
# 5 0.009901 0.001009 0.013409 0.000000 0.038521 0.000000
# 6 0.000000 0.000000 0.000000 0.010330 0.000000 0.044617
#
#
# Mechanical properties :
#
#
# Convention : Reuss Voigt Hill
#
# Bulk Modulus (GPa) = 23.29639 44.27736 33.78687
# Shear Modulus (GPa) = 30.39124 39.41338 34.90231
#
# Velocity S-wave (km/s) = 3.62890 4.13260 3.88891
# Velocity P-wave (km/s) = 5.25864 6.47743 5.89959
#
# Compressibility (1/GPa) = 0.04292511
#
# Stress axis : x y z
#
# Youngs Moduli (GPa) = 75.24107 140.96060 45.74407
#
# Poissons Ratio (x) = 0.21073 -0.15109
# Poissons Ratio (y) = 0.11248 0.06716
# Poissons Ratio (z) = -0.24851 0.20695
#
# Static dielectric constant tensor:
#      x y z
#    x 4.362000 0.000000 -0.473770 
#    y 0.000000 5.064650 0.000000 
#    z -0.473770 0.000000 4.509490 
# 
# 
# High freq. dielectric constant tensor:
#      x y z
#    x 1.902900 0.000000 -0.019430 
#    y 0.000000 1.933420 0.000000 
#    z -0.019430 0.000000 1.912980 
# 
# From -- ./inp_files/50994.got.cif
#   From: 2010.06.25/outbox.cif.g09.slc.cpg/sg10_26_cif.got.tgz:50994.got - 2010.06.27 22:07:45.
