data_PCOD8065088
_publ_section_title
;
Structure prediction by ZEFSAII (Michael W. Deem and Ramdas Pophale) SiO2 
 PCOD8065088
Probable space group: P 2/M
;
_chemical_formula_sum "Si O2"
_cell_formula_units_Z 26
_cell_length_a 12.822812
_cell_length_b 13.018122
_cell_length_c 9.679840
_cell_angle_alpha 90.000000
_cell_angle_beta 121.006080
_cell_angle_gamma 90.000000
_cell_volume 1384.961472
_symmetry_space_group_name_H-M "P 2/M"
_symmetry_group_IT_number 10
_symmetry_cell_setting 'monoclinic'
loop_
_space_group_symop_operation_xyz
x,y,z
-x,y,-z
-x,-y,-z
x,-y,z
loop_
_atom_site_type_symbol
_atom_site_label
_atom_site_fract_x
_atom_site_fract_y
_atom_site_fract_z
Si Si1 0.990771 0.619381 0.774820
Si Si2 0.220708 0.882771 0.700322
Si Si3 0.812206 0.684835 0.877326
Si Si4 0.273184 0.884403 0.053867
Si Si5 0.459691 0.382945 0.322146
Si Si6 0.000000 0.740861 0.500000
Si Si7 0.525112 0.791632 0.174042
O O1 0.962132 0.500000 0.734762
O O2 0.876343 0.671951 0.773295
O O3 0.011534 0.669581 0.641082
O O4 0.110770 0.632636 0.948634
O O5 0.349882 0.852757 0.722519
O O6 0.118037 0.811798 0.563885
O O7 0.192642 0.000000 0.641426
O O8 0.222182 0.867921 0.865663
O O9 0.797328 0.806766 0.893366
O O10 0.684323 0.627615 0.792416
O O11 0.417666 0.864126 0.157448
O O12 0.248502 0.000000 0.088915
O O13 0.500000 0.344991 0.500000
O O14 0.499177 0.500000 0.323260
O O15 0.532320 0.314509 0.262077
O O16 0.500000 0.760572 0.000000
#
# Coordination Sequence:
#
# PCOD8065088 Si02
#       7
#     4   4   4   4   4   2   4
#     4  11  23  40  61  82 112 155 196 238 283 334
#     4  10  20  37  58  84 118 153 185 233 293 337
#     4  10  20  40  61  84 114 152 195 232 282 348
#     4   9  17  35  62  88 113 147 190 237 281 338
#     4  10  21  36  57  85 118 152 184 232 290 337
#     4  12  24  38  58  88 116 148 194 244 280 336
#     4   9  19  35  59  85 113 148 192 232 277 344
#
# _framework density 18.773084000000001
#
# number of rings (size 3 to 8) (size 9 to 14) (size 15 to 20)
#    0.000    2.000    1.538    2.769    2.154    2.154 
#    0.000    3.846    0.000    2.308    0.000    0.000 
#    0.000    0.000    0.000    0.000    0.000    0.000 
#
# Total GULP energy -322493.177389 kJ/mol
# GULP energy per Si atom -12403.583746 kJ/mol
# Density = 1.873036 g / cm^3
# Si number density = 18.773084 Si / 1000 Ang^3
#
#
#
# Elastic Constant Matrix: (Units=GPa)
#
#
# Indices 1 2 3 4 5 6 
#
# 1 81.7363 47.7644 28.0112 0.0000 -2.5887 0.0000
# 2 47.7644 130.2945 35.6297 0.0000 -8.1820 0.0000
# 3 28.0112 35.6297 60.4595 0.0000 -2.5704 0.0000
# 4 0.0000 0.0000 0.0000 9.1597 0.0000 1.0220
# 5 -2.5887 -8.1820 -2.5704 0.0000 27.6398 0.0000
# 6 0.0000 0.0000 0.0000 1.0220 0.0000 27.0830
#
#
#
# Elastic Compliance Matrix: (Units=1/GPa)
#
#
# Indices 1 2 3 4 5 6 
#
# 1 0.016720 -0.004801 -0.004931 0.000000 -0.000314 0.000000
# 2 -0.004801 0.010665 -0.003961 0.000000 0.002339 0.000000
# 3 -0.004931 -0.003961 0.021173 0.000000 0.000335 0.000000
# 4 0.000000 0.000000 0.000000 0.109635 0.000000 -0.004137
# 5 -0.000314 0.002339 0.000335 0.000000 0.036874 0.000000
# 6 0.000000 0.000000 0.000000 -0.004137 0.000000 0.037080
#
#
# Mechanical properties :
#
#
# Convention : Reuss Voigt Hill
#
# Bulk Modulus (GPa) = 47.23115 55.03344 51.13230
# Shear Modulus (GPa) = 18.75548 23.51550 21.13549
#
# Velocity S-wave (km/s) = 3.16422 3.54307 3.35899
# Velocity P-wave (km/s) = 6.20994 6.79092 6.50692
#
# Compressibility (1/GPa) = 0.02117247
#
# Stress axis : x y z
#
# Youngs Moduli (GPa) = 59.81003 93.76532 47.22975
#
# Poissons Ratio (x) = 0.45013 0.23287
# Poissons Ratio (y) = 0.28713 0.18710
# Poissons Ratio (z) = 0.29490 0.37144
#
# Static dielectric constant tensor:
#      x y z
#    x 3.418160 0.000000 0.081770 
#    y 0.000000 3.500380 0.000000 
#    z 0.081770 0.000000 3.403640 
# 
# 
# High freq. dielectric constant tensor:
#      x y z
#    x 1.725730 0.000000 0.010020 
#    y 0.000000 1.737840 0.000000 
#    z 0.010020 0.000000 1.723840 
# 
# From -- ./inp_files/25111.got.cif
#   From: 2010.06.25/outbox.cif.g09.slc.cpg/sg10_13_cif.got.tgz:25111.got - 2010.06.27 22:07:45.
