data_PCOD8065072
_publ_section_title
;
Structure prediction by ZEFSAII (Michael W. Deem and Ramdas Pophale) SiO2 
 PCOD8065072
Probable space group: P 2/M
;
_chemical_formula_sum "Si O2"
_cell_formula_units_Z 32
_cell_length_a 12.592153
_cell_length_b 8.798085
_cell_length_c 19.247199
_cell_angle_alpha 90.000000
_cell_angle_beta 48.185528
_cell_angle_gamma 90.000000
_cell_volume 1589.246427
_symmetry_space_group_name_H-M "P 2/M"
_symmetry_group_IT_number 10
_symmetry_cell_setting 'monoclinic'
loop_
_space_group_symop_operation_xyz
x,y,z
-x,y,-z
-x,-y,-z
x,-y,z
loop_
_atom_site_type_symbol
_atom_site_label
_atom_site_fract_x
_atom_site_fract_y
_atom_site_fract_z
Si Si1 0.573179 0.820253 0.319802
Si Si2 0.181443 0.320530 0.714001
Si Si3 0.556862 0.180464 0.769678
Si Si4 0.412553 0.822398 0.973062
Si Si5 0.197683 0.670545 0.266054
Si Si6 0.875784 0.175687 0.837998
Si Si7 0.327066 0.681560 0.507948
Si Si8 0.074709 0.670683 0.531447
O O1 0.733196 0.756503 0.259443
O O2 0.515868 0.763665 0.270042
O O3 0.479566 0.753924 0.424725
O O4 0.574202 0.000000 0.324058
O O5 0.188581 0.500000 0.718109
O O6 0.259873 0.263380 0.609755
O O7 0.016678 0.273106 0.789613
O O8 0.711532 0.259306 0.709713
O O9 0.574480 0.000000 0.761335
O O10 0.465685 0.241084 0.875571
O O11 0.242153 0.791790 0.051121
O O12 0.444054 0.000000 0.960902
O O13 0.500000 0.748054 0.000000
O O14 0.250498 0.500000 0.225780
O O15 0.209206 0.779043 0.194697
O O16 0.031481 0.666279 0.357373
O O17 0.919805 0.000000 0.815155
O O18 0.340360 0.500000 0.501902
O O19 0.221418 0.744952 0.493514
O O20 0.111154 0.500000 0.489846
O O21 0.000000 0.760669 0.500000
#
# Coordination Sequence:
#
# PCOD8065072 Si02
#       8
#     4   4   4   4   4   4   4   4
#     4  11  24  39  58  86 117 149 193 247 293 333
#     4  11  23  41  62  83 114 155 198 239 283 343
#     4  10  21  39  59  84 118 153 192 238 287 345
#     4   9  17  34  61  87 113 152 192 226 280 351
#     4  11  20  33  55  84 118 153 190 232 283 342
#     4  11  21  36  61  88 115 147 189 240 289 335
#     4  10  20  37  58  81 112 154 197 232 278 343
#     4   9  17  30  49  75 110 150 188 222 267 336
#
# _framework density 20.135327
#
# number of rings (size 3 to 8) (size 9 to 14) (size 15 to 20)
#    0.000    1.750    2.500    2.625    0.000    4.500 
#    0.000    2.500    0.000    6.375    0.000    0.000 
#    0.000    0.000    0.000    0.000    0.000    0.000 
#
# Total GULP energy -396693.837348 kJ/mol
# GULP energy per Si atom -12396.682417 kJ/mol
# Density = 2.008950 g / cm^3
# Si number density = 20.135327 Si / 1000 Ang^3
#
#
#
# Elastic Constant Matrix: (Units=GPa)
#
#
# Indices 1 2 3 4 5 6 
#
# 1 117.9543 25.2233 21.0007 0.0000 -15.6041 0.0000
# 2 25.2233 45.1253 16.6866 0.0000 -4.3484 0.0000
# 3 21.0007 16.6866 67.0224 0.0000 -7.6112 0.0000
# 4 0.0000 0.0000 0.0000 16.8694 0.0000 -2.5858
# 5 -15.6041 -4.3484 -7.6112 0.0000 22.4778 0.0000
# 6 0.0000 0.0000 0.0000 -2.5858 0.0000 29.0242
#
#
#
# Elastic Compliance Matrix: (Units=1/GPa)
#
#
# Indices 1 2 3 4 5 6 
#
# 1 0.010539 -0.004790 -0.001440 0.000000 0.005902 0.000000
# 2 -0.004790 0.026752 -0.005147 0.000000 0.000107 0.000000
# 3 -0.001440 -0.005147 0.017083 0.000000 0.003789 0.000000
# 4 0.000000 0.000000 0.000000 0.060100 0.000000 0.005354
# 5 0.005902 0.000107 0.003789 0.000000 0.049890 0.000000
# 6 0.000000 0.000000 0.000000 0.005354 0.000000 0.034931
#
#
# Mechanical properties :
#
#
# Convention : Reuss Voigt Hill
#
# Bulk Modulus (GPa) = 31.62497 39.54703 35.58600
# Shear Modulus (GPa) = 21.49719 24.82036 23.15878
#
# Velocity S-wave (km/s) = 3.27101 3.51476 3.39507
# Velocity P-wave (km/s) = 5.47781 6.01287 5.75156
#
# Compressibility (1/GPa) = 0.03162058
#
# Stress axis : x y z
#
# Youngs Moduli (GPa) = 94.88334 37.38083 58.53667
#
# Poissons Ratio (x) = 0.17905 0.08426
# Poissons Ratio (y) = 0.45449 0.30131
# Poissons Ratio (z) = 0.13659 0.19241
#
# Static dielectric constant tensor:
#      x y z
#    x 3.837680 0.000000 0.035240 
#    y 0.000000 3.329160 0.000000 
#    z 0.035240 0.000000 3.667990 
# 
# 
# High freq. dielectric constant tensor:
#      x y z
#    x 1.794540 0.000000 -0.008720 
#    y 0.000000 1.758950 0.000000 
#    z -0.008720 0.000000 1.779640 
# 
# From -- ./inp_files/83548.got.cif
#   From: 2010.06.25/outbox.cif.g09.slc.cpg/sg10_42_cif.got.tgz:83548.got - 2010.06.27 22:07:45.
