data_PCOD8065553
_publ_section_title
;
Structure prediction by ZEFSAII (Michael W. Deem and Ramdas Pophale) SiO2 
 PCOD8065553
Probable space group: P 2/M
;
_chemical_formula_sum "Si O2"
_cell_formula_units_Z 18
_cell_length_a 24.431727
_cell_length_b 8.457506
_cell_length_c 5.080153
_cell_angle_alpha 90.000000
_cell_angle_beta 59.347641
_cell_angle_gamma 90.000000
_cell_volume 903.049022
_symmetry_space_group_name_H-M "P 2/M"
_symmetry_group_IT_number 10
_symmetry_cell_setting 'monoclinic'
loop_
_space_group_symop_operation_xyz
x,y,z
-x,y,-z
-x,-y,-z
x,-y,z
loop_
_atom_site_type_symbol
_atom_site_label
_atom_site_fract_x
_atom_site_fract_y
_atom_site_fract_z
Si Si1 0.544190 0.000000 0.641531
Si Si2 0.333943 0.175428 0.691791
Si Si3 0.272948 0.683770 0.341336
Si Si4 0.929243 0.683936 0.748887
Si Si5 0.864146 0.182662 0.409797
O O1 0.500000 0.000000 0.500000
O O2 0.589593 0.844075 0.528913
O O3 0.500000 0.000000 0.000000
O O4 0.305460 0.289721 0.542433
O O5 0.301837 0.000000 0.753740
O O6 0.321107 0.252026 0.005170
O O7 0.259026 0.500000 0.334639
O O8 0.207343 0.777600 0.494771
O O9 0.926124 0.500000 0.827975
O O10 0.882117 0.717614 0.623336
O O11 0.000000 0.738023 0.500000
O O12 0.910279 0.779535 0.054408
O O13 0.870464 0.000000 0.467377
#
# Coordination Sequence:
#
# PCOD8065553 Si02
#       5
#     2   4   4   4   4
#     4  10  20  38  68  96 122 162 207 246 287 352
#     4  10  22  38  64  92 122 159 206 250 287 363
#     4  12  23  40  61  90 128 162 201 251 318 365
#     4  11  24  43  63  87 120 162 208 254 313 377
#     4  12  25  40  63  90 123 159 206 261 308 369
#
# _framework density 19.932472000000001
#
# number of rings (size 3 to 8) (size 9 to 14) (size 15 to 20)
#    0.667    0.222    0.000    8.667    0.000    4.444 
#    0.000    0.000    0.000   13.333    0.000    0.000 
#    0.000    0.000    0.000    0.000    0.000    0.000 
#
# Total GULP energy -223277.860968 kJ/mol
# GULP energy per Si atom -12404.325609 kJ/mol
# Density = 1.988710 g / cm^3
# Si number density = 19.932472 Si / 1000 Ang^3
#
#
#
# Elastic Constant Matrix: (Units=GPa)
#
#
# Indices 1 2 3 4 5 6 
#
# 1 79.9552 17.7387 7.3035 0.0000 -2.7565 0.0000
# 2 17.7387 72.4726 27.8562 0.0000 -5.9181 0.0000
# 3 7.3035 27.8562 89.9601 0.0000 1.4433 0.0000
# 4 0.0000 0.0000 0.0000 19.6553 0.0000 10.6027
# 5 -2.7565 -5.9181 1.4433 0.0000 36.2534 0.0000
# 6 0.0000 0.0000 0.0000 10.6027 0.0000 31.8264
#
#
#
# Elastic Compliance Matrix: (Units=1/GPa)
#
#
# Indices 1 2 3 4 5 6 
#
# 1 0.013234 -0.003159 -0.000104 0.000000 0.000495 0.000000
# 2 -0.003159 0.016696 -0.004956 0.000000 0.002683 0.000000
# 3 -0.000104 -0.004956 0.012680 0.000000 -0.001322 0.000000
# 4 0.000000 0.000000 0.000000 0.062023 0.000000 -0.020662
# 5 0.000495 0.002683 -0.001322 0.000000 0.028112 0.000000
# 6 0.000000 0.000000 0.000000 -0.020662 0.000000 0.038304
#
#
# Mechanical properties :
#
#
# Convention : Reuss Voigt Hill
#
# Bulk Modulus (GPa) = 38.20947 38.68719 38.44833
# Shear Modulus (GPa) = 25.48268 30.17966 27.83117
#
# Velocity S-wave (km/s) = 3.57942 3.89536 3.74073
# Velocity P-wave (km/s) = 6.02446 6.29945 6.16349
#
# Compressibility (1/GPa) = 0.02617153
#
# Stress axis : x y z
#
# Youngs Moduli (GPa) = 75.56067 59.89593 78.86146
#
# Poissons Ratio (x) = 0.18920 0.00822
# Poissons Ratio (y) = 0.23868 0.39087
# Poissons Ratio (z) = 0.00788 0.29687
#
# Static dielectric constant tensor:
#      x y z
#    x 3.610100 0.000000 -0.037060 
#    y 0.000000 3.546250 0.000000 
#    z -0.037060 0.000000 3.701650 
# 
# 
# High freq. dielectric constant tensor:
#      x y z
#    x 1.781160 0.000000 0.006750 
#    y 0.000000 1.774570 0.000000 
#    z 0.006750 0.000000 1.794230 
# 
# From -- ./inp_files/12961.got.cif
#   From: 2010.06.25/outbox.cif.g09.slc.cpg/sg10_7_cif.got.tgz:12961.got - 2010.06.27 22:07:45.
