data_PCOD8065035
_publ_section_title
;
Structure prediction by ZEFSAII (Michael W. Deem and Ramdas Pophale) SiO2 
 PCOD8065035
Probable space group: P 2/M
;
_chemical_formula_sum "Si O2"
_cell_formula_units_Z 28
_cell_length_a 14.990574
_cell_length_b 12.547610
_cell_length_c 9.743581
_cell_angle_alpha 90.000000
_cell_angle_beta 119.861084
_cell_angle_gamma 90.000000
_cell_volume 1589.405586
_symmetry_space_group_name_H-M "P 2/M"
_symmetry_group_IT_number 10
_symmetry_cell_setting 'monoclinic'
loop_
_space_group_symop_operation_xyz
x,y,z
-x,y,-z
-x,-y,-z
x,-y,z
loop_
_atom_site_type_symbol
_atom_site_label
_atom_site_fract_x
_atom_site_fract_y
_atom_site_fract_z
Si Si1 0.362231 0.875316 0.268521
Si Si2 0.190202 0.196140 0.941247
Si Si3 0.097414 0.000000 0.476338
Si Si4 0.763810 0.804264 0.333995
Si Si5 0.041264 0.000000 0.879024
Si Si6 0.407277 0.875535 0.611143
Si Si7 0.037453 0.377477 0.881347
Si Si8 0.093181 0.621961 0.476973
O O1 0.355622 0.849056 0.424793
O O2 0.473762 0.841254 0.297062
O O3 0.342530 0.000000 0.226512
O O4 0.276495 0.807533 0.124579
O O5 0.244863 0.183917 0.836091
O O6 0.106996 0.104278 0.898010
O O7 0.134735 0.309977 0.905608
O O8 0.163800 0.895294 0.549729
O O9 0.000000 0.000000 0.500000
O O10 0.060312 0.000000 0.291573
O O11 0.650364 0.812812 0.311974
O O12 0.806713 0.690091 0.412644
O O13 0.000000 0.000000 0.000000
O O14 0.397537 0.000000 0.633334
O O15 0.074114 0.500000 0.914438
O O16 0.940411 0.363608 0.706244
O O17 0.000000 0.336138 0.000000
O O18 0.119997 0.500000 0.532832
O O19 0.000000 0.663428 0.500000
#
# Coordination Sequence:
#
# PCOD8065035 Si02
#       8
#     4   4   2   4   2   4   4   4
#     4   9  20  38  57  77 109 139 182 224 267 325
#     4  12  22  35  53  81 109 142 178 222 266 317
#     4  12  22  36  47  74 119 143 166 215 268 320
#     4  12  22  33  55  81 107 144 180 215 269 320
#     4  12  26  34  47  78 113 145 176 211 268 324
#     4   9  20  38  57  79 104 144 181 221 270 324
#     4  10  22  38  55  79 109 144 186 223 260 309
#     4  10  20  37  56  76 108 148 183 217 255 313
#
# _framework density 17.616648999999999
#
# number of rings (size 3 to 8) (size 9 to 14) (size 15 to 20)
#    0.000    1.429    4.286    2.571    4.000    0.571 
#    0.000    1.429    0.000    0.857    0.000    4.000 
#    0.000    0.000    0.000    0.000    0.000    0.000 
#
# Total GULP energy -347316.771906 kJ/mol
# GULP energy per Si atom -12404.170425 kJ/mol
# Density = 1.757655 g / cm^3
# Si number density = 17.616649 Si / 1000 Ang^3
#
#
#
# Elastic Constant Matrix: (Units=GPa)
#
#
# Indices 1 2 3 4 5 6 
#
# 1 85.7132 25.7082 15.2652 0.0000 -20.1200 0.0000
# 2 25.7082 64.6942 15.4130 0.0000 1.9763 0.0000
# 3 15.2652 15.4130 80.8420 0.0000 -9.3334 0.0000
# 4 0.0000 0.0000 0.0000 22.1659 0.0000 -0.2758
# 5 -20.1200 1.9763 -9.3334 0.0000 35.3287 0.0000
# 6 0.0000 0.0000 0.0000 -0.2758 0.0000 18.0703
#
#
#
# Elastic Compliance Matrix: (Units=1/GPa)
#
#
# Indices 1 2 3 4 5 6 
#
# 1 0.015884 -0.006424 -0.000710 0.000000 0.009218 0.000000
# 2 -0.006424 0.018900 -0.003027 0.000000 -0.005516 0.000000
# 3 -0.000710 -0.003027 0.013465 0.000000 0.003322 0.000000
# 4 0.000000 0.000000 0.000000 0.045123 0.000000 0.000689
# 5 0.009218 -0.005516 0.003322 0.000000 0.034741 0.000000
# 6 0.000000 0.000000 0.000000 0.000689 0.000000 0.055350
#
#
# Mechanical properties :
#
#
# Convention : Reuss Voigt Hill
#
# Bulk Modulus (GPa) = 35.81013 38.22468 37.01741
# Shear Modulus (GPa) = 23.46378 26.77052 25.11715
#
# Velocity S-wave (km/s) = 3.65349 3.90245 3.78002
# Velocity P-wave (km/s) = 6.17810 6.48465 6.33323
#
# Compressibility (1/GPa) = 0.02792506
#
# Stress axis : x y z
#
# Youngs Moduli (GPa) = 62.95668 52.91033 74.26883
#
# Poissons Ratio (x) = 0.33991 0.05275
# Poissons Ratio (y) = 0.40445 0.22482
# Poissons Ratio (z) = 0.04472 0.16016
#
# Static dielectric constant tensor:
#      x y z
#    x 3.394600 0.000000 -0.119730 
#    y 0.000000 3.344460 0.000000 
#    z -0.119730 0.000000 3.400510 
# 
# 
# High freq. dielectric constant tensor:
#      x y z
#    x 1.675010 0.000000 -0.015610 
#    y 0.000000 1.665380 0.000000 
#    z -0.015610 0.000000 1.689640 
# 
# From -- ./inp_files/29233.got.cif
#   From: 2010.06.25/outbox.cif.g09.slc.cpg/sg10_15_cif.got.tgz:29233.got - 2010.06.27 22:07:45.
