data_PCOD8065515
_publ_section_title
;
Structure prediction by ZEFSAII (Michael W. Deem and Ramdas Pophale) SiO2 
 PCOD8065515
Probable space group: P 2/M
;
_chemical_formula_sum "Si O2"
_cell_formula_units_Z 28
_cell_length_a 13.173542
_cell_length_b 22.600799
_cell_length_c 7.801154
_cell_angle_alpha 90.000000
_cell_angle_beta 32.255856
_cell_angle_gamma 90.000000
_cell_volume 1239.604608
_symmetry_space_group_name_H-M "P 2/M"
_symmetry_group_IT_number 10
_symmetry_cell_setting 'monoclinic'
loop_
_space_group_symop_operation_xyz
x,y,z
-x,y,-z
-x,-y,-z
x,-y,z
loop_
_atom_site_type_symbol
_atom_site_label
_atom_site_fract_x
_atom_site_fract_y
_atom_site_fract_z
Si Si1 0.856046 0.829677 0.854957
Si Si2 0.361876 0.564924 0.855124
Si Si3 0.971474 0.432237 0.242409
Si Si4 0.631139 0.351921 0.676021
Si Si5 0.682185 0.249313 0.360747
Si Si6 0.176913 0.064327 0.864552
Si Si7 0.458717 0.857291 0.255819
O O1 0.000000 0.812878 0.500000
O O2 0.852256 0.774239 0.994251
O O3 0.908002 0.891019 0.872553
O O4 0.650496 0.842065 0.076459
O O5 0.500000 0.557906 0.500000
O O6 0.329178 0.500000 0.984035
O O7 0.465534 0.606240 0.841034
O O8 0.157347 0.590115 0.081413
O O9 0.924359 0.500000 0.360125
O O10 0.794734 0.389510 0.539466
O O11 0.000000 0.427739 0.000000
O O12 0.725927 0.311116 0.393132
O O13 0.500000 0.314852 0.000000
O O14 0.500000 0.257818 0.500000
O O15 0.666136 0.201703 0.538654
O O16 0.356839 0.088912 0.499942
O O17 0.237196 0.000000 0.856978
O O18 0.000000 0.052232 0.000000
O O19 0.500000 0.873253 0.000000
#
# Coordination Sequence:
#
# PCOD8065515 Si02
#       7
#     4   4   4   4   4   4   4
#     4  10  21  40  67  93 122 165 214 263 319 380
#     4  10  20  38  67  91 123 172 211 263 323 383
#     4  10  21  39  63  95 125 164 221 259 317 398
#     4  12  24  39  64  94 132 168 212 267 325 385
#     4   9  21  41  64  85 121 162 207 266 321 376
#     4  10  21  37  60  95 134 170 211 260 313 369
#     4  10  20  38  64  89 125 169 215 259 311 373
#
# _framework density 22.587845999999999
#
# number of rings (size 3 to 8) (size 9 to 14) (size 15 to 20)
#    0.000    1.857    1.429    3.429    0.000    3.429 
#    0.000    8.571    0.000    0.000    0.000    0.000 
#    0.000    0.000    0.000    0.000    0.000    0.000 
#
# Total GULP energy -346907.149945 kJ/mol
# GULP energy per Si atom -12389.541069 kJ/mol
# Density = 2.253644 g / cm^3
# Si number density = 22.587846 Si / 1000 Ang^3
#
#
#
# Elastic Constant Matrix: (Units=GPa)
#
#
# Indices 1 2 3 4 5 6 
#
# 1 70.6404 37.4202 33.2187 0.0000 -14.2761 0.0000
# 2 37.4202 121.4108 54.5308 0.0000 -5.8708 0.0000
# 3 33.2187 54.5308 144.0621 0.0000 3.8891 0.0000
# 4 0.0000 0.0000 0.0000 11.0858 0.0000 -0.7781
# 5 -14.2761 -5.8708 3.8891 0.0000 38.6490 0.0000
# 6 0.0000 0.0000 0.0000 -0.7781 0.0000 16.2882
#
#
#
# Elastic Compliance Matrix: (Units=1/GPa)
#
#
# Indices 1 2 3 4 5 6 
#
# 1 0.019173 -0.004236 -0.002999 0.000000 0.006740 0.000000
# 2 -0.004236 0.010999 -0.003198 0.000000 0.000428 0.000000
# 3 -0.002999 -0.003198 0.008911 0.000000 -0.002490 0.000000
# 4 0.000000 0.000000 0.000000 0.090509 0.000000 0.004324
# 5 0.006740 0.000428 -0.002490 0.000000 0.028679 0.000000
# 6 0.000000 0.000000 0.000000 0.004324 0.000000 0.061601
#
#
# Mechanical properties :
#
#
# Convention : Reuss Voigt Hill
#
# Bulk Modulus (GPa) = 54.89874 65.16142 60.03008
# Shear Modulus (GPa) = 20.25840 27.26752 23.76296
#
# Velocity S-wave (km/s) = 2.99803 3.47821 3.24701
# Velocity P-wave (km/s) = 6.02840 6.71128 6.37898
#
# Compressibility (1/GPa) = 0.01821535
#
# Stress axis : x y z
#
# Youngs Moduli (GPa) = 52.15679 90.91488 112.22178
#
# Poissons Ratio (x) = 0.38513 0.33661
# Poissons Ratio (y) = 0.22095 0.35891
# Poissons Ratio (z) = 0.15644 0.29077
#
# Static dielectric constant tensor:
#      x y z
#    x 4.170770 0.000000 0.065920 
#    y 0.000000 4.546130 0.000000 
#    z 0.065920 0.000000 4.196680 
# 
# 
# High freq. dielectric constant tensor:
#      x y z
#    x 1.890620 0.000000 0.000720 
#    y 0.000000 1.881290 0.000000 
#    z 0.000720 0.000000 1.893180 
# 
# From -- ./inp_files/30404.got.cif
#   From: 2010.06.25/outbox.cif.g09.slc.cpg/sg10_16_cif.got.tgz:30404.got - 2010.06.27 22:07:45.
