data_PCOD8065916
_publ_section_title
;
Structure prediction by ZEFSAII (Michael W. Deem and Ramdas Pophale) SiO2 
 PCOD8065916
Probable space group: P 2/M
;
_chemical_formula_sum "Si O2"
_cell_formula_units_Z 28
_cell_length_a 11.873243
_cell_length_b 9.203057
_cell_length_c 14.223159
_cell_angle_alpha 90.000000
_cell_angle_beta 107.693362
_cell_angle_gamma 90.000000
_cell_volume 1480.649258
_symmetry_space_group_name_H-M "P 2/M"
_symmetry_group_IT_number 10
_symmetry_cell_setting 'monoclinic'
loop_
_space_group_symop_operation_xyz
x,y,z
-x,y,-z
-x,-y,-z
x,-y,z
loop_
_atom_site_type_symbol
_atom_site_label
_atom_site_fract_x
_atom_site_fract_y
_atom_site_fract_z
Si Si1 0.381285 0.826597 0.421649
Si Si2 0.649068 0.169535 0.798173
Si Si3 0.205529 0.331450 0.851120
Si Si4 0.919624 0.828831 0.341078
Si Si5 0.834025 0.828359 0.515501
Si Si6 0.527284 0.667959 0.110754
Si Si7 0.864595 0.169306 0.982238
O O1 0.500000 0.766877 0.500000
O O2 0.363066 0.769448 0.310882
O O3 0.277542 0.760068 0.459776
O O4 0.379114 0.000000 0.421719
O O5 0.547912 0.244471 0.833299
O O6 0.782511 0.199028 0.869772
O O7 0.620519 0.000000 0.793742
O O8 0.176173 0.500000 0.855992
O O9 0.110657 0.257941 0.759774
O O10 0.333697 0.307896 0.836846
O O11 0.196652 0.258689 0.950517
O O12 0.830898 0.787942 0.404134
O O13 0.048190 0.772351 0.403989
O O14 0.916671 0.000000 0.318136
O O15 0.833992 0.000000 0.524747
O O16 0.490326 0.500000 0.109227
O O17 0.500000 0.727521 0.000000
O O18 0.864042 0.000000 0.009397
O O19 0.000000 0.221521 0.000000
#
# Coordination Sequence:
#
# PCOD8065916 Si02
#       7
#     4   4   4   4   4   4   4
#     4   9  18  31  50  80 115 141 170 222 278 327
#     4  10  21  35  57  86 109 140 186 230 273 324
#     4  11  23  37  56  82 110 147 187 224 274 330
#     4   9  18  33  57  83 107 141 182 228 273 322
#     4   8  16  32  53  79 110 143 179 219 277 334
#     4  10  21  39  57  74 107 149 182 220 273 326
#     4  10  22  38  57  84 115 146 181 227 277 324
#
# _framework density 18.910623000000001
#
# number of rings (size 3 to 8) (size 9 to 14) (size 15 to 20)
#    0.000    2.429    1.429    1.286    4.000    1.714 
#    0.000    1.429    0.000    1.286    0.000    0.000 
#    0.000    0.000    0.000    0.000    0.000    0.000 
#
# Total GULP energy -347141.404127 kJ/mol
# GULP energy per Si atom -12397.907290 kJ/mol
# Density = 1.886758 g / cm^3
# Si number density = 18.910623 Si / 1000 Ang^3
#
#
#
# Elastic Constant Matrix: (Units=GPa)
#
#
# Indices 1 2 3 4 5 6 
#
# 1 127.8731 31.0000 54.6115 0.0000 -8.6426 0.0000
# 2 31.0000 43.7760 32.4641 0.0000 0.0386 0.0000
# 3 54.6115 32.4641 135.8385 0.0000 2.0688 0.0000
# 4 0.0000 0.0000 0.0000 4.0267 0.0000 1.1953
# 5 -8.6426 0.0386 2.0688 0.0000 29.2955 0.0000
# 6 0.0000 0.0000 0.0000 1.1953 0.0000 17.0860
#
#
#
# Elastic Compliance Matrix: (Units=1/GPa)
#
#
# Indices 1 2 3 4 5 6 
#
# 1 0.010633 -0.005256 -0.003070 0.000000 0.003360 0.000000
# 2 -0.005256 0.030368 -0.005126 0.000000 -0.001229 0.000000
# 3 -0.003070 -0.005126 0.009845 0.000000 -0.001594 0.000000
# 4 0.000000 0.000000 0.000000 0.253606 0.000000 -0.017741
# 5 0.003360 -0.001229 -0.001594 0.000000 0.035241 0.000000
# 6 0.000000 0.000000 0.000000 -0.017741 0.000000 0.059769
#
#
# Mechanical properties :
#
#
# Convention : Reuss Voigt Hill
#
# Bulk Modulus (GPa) = 41.76651 60.40429 51.08540
# Shear Modulus (GPa) = 11.51158 22.70910 17.11034
#
# Velocity S-wave (km/s) = 2.46993 3.46911 3.01125
# Velocity P-wave (km/s) = 5.50167 6.93236 6.25803
#
# Compressibility (1/GPa) = 0.02394263
#
# Stress axis : x y z
#
# Youngs Moduli (GPa) = 94.05068 32.92937 101.57323
#
# Poissons Ratio (x) = 0.17308 0.31180
# Poissons Ratio (y) = 0.49433 0.52065
# Poissons Ratio (z) = 0.28871 0.16879
#
# Static dielectric constant tensor:
#      x y z
#    x 3.753080 0.000000 0.021620 
#    y 0.000000 3.067890 0.000000 
#    z 0.021620 0.000000 3.595940 
# 
# 
# High freq. dielectric constant tensor:
#      x y z
#    x 1.743640 0.000000 0.002670 
#    y 0.000000 1.693150 0.000000 
#    z 0.002670 0.000000 1.744850 
# 
# From -- ./inp_files/63390.got.cif
#   From: 2010.06.25/outbox.cif.g09.slc.cpg/sg10_32_cif.got.tgz:63390.got - 2010.06.27 22:07:45.
