data_PCOD8065807
_publ_section_title
;
Structure prediction by ZEFSAII (Michael W. Deem and Ramdas Pophale) SiO2 
 PCOD8065807
Probable space group: P 2/M
;
_chemical_formula_sum "Si O2"
_cell_formula_units_Z 28
_cell_length_a 29.917828
_cell_length_b 9.177108
_cell_length_c 9.496905
_cell_angle_alpha 90.000000
_cell_angle_beta 37.478435
_cell_angle_gamma 90.000000
_cell_volume 1586.543621
_symmetry_space_group_name_H-M "P 2/M"
_symmetry_group_IT_number 10
_symmetry_cell_setting 'monoclinic'
loop_
_space_group_symop_operation_xyz
x,y,z
-x,y,-z
-x,-y,-z
x,-y,z
loop_
_atom_site_type_symbol
_atom_site_label
_atom_site_fract_x
_atom_site_fract_y
_atom_site_fract_z
Si Si1 0.500000 0.668590 0.836000
Si Si2 0.930024 0.331347 0.587968
Si Si3 0.341098 0.670541 0.230877
Si Si4 0.658902 0.670541 0.436366
Si Si5 0.069976 0.331347 0.738089
Si Si6 0.216435 0.170671 0.371697
Si Si7 0.783565 0.170671 0.953872
O O1 0.500000 0.500000 0.801735
O O2 0.578271 0.729301 0.583137
O O3 0.500000 0.697029 0.000000
O O4 0.421729 0.729301 0.974492
O O5 0.913612 0.500000 0.660644
O O6 0.947250 0.303486 0.381874
O O7 0.859789 0.240668 0.814558
O O8 0.000000 0.275497 0.500000
O O9 0.331171 0.500000 0.220053
O O10 0.332636 0.695820 0.418409
O O11 0.281693 0.764362 0.299200
O O12 0.668829 0.500000 0.375906
O O13 0.718307 0.764362 0.207663
O O14 0.086388 0.500000 0.728704
O O15 0.140210 0.240668 0.613506
O O16 0.000000 0.275496 0.000000
O O17 0.230841 0.208864 0.172899
O O18 0.211841 0.000000 0.410061
O O19 0.788159 0.000000 0.969265
#
# Coordination Sequence:
#
# PCOD8065807 Si02
#       7
#     4   4   4   4   4   4   4
#     4   7  12  26  48  73  98 122 154 201 250 289
#     4   9  18  33  52  72  94 122 158 200 243 286
#     4   9  17  31  53  77  98 124 162 206 248 290
#     4   9  17  31  53  77  98 124 162 206 248 290
#     4   9  18  33  52  72  94 122 158 200 243 286
#     4  10  21  35  49  69 101 137 167 196 236 287
#     4  10  21  35  49  69 101 137 167 196 236 287
#
# _framework density 17.648427000000002
#
# number of rings (size 3 to 8) (size 9 to 14) (size 15 to 20)
#    0.000    3.000    0.000    2.571    0.000    4.000 
#    0.000    4.286    0.000    6.857    0.000    0.000 
#    0.000    0.000    0.000    0.000    0.000    0.000 
#
# Total GULP energy -346988.489525 kJ/mol
# GULP energy per Si atom -12392.446054 kJ/mol
# Density = 1.760826 g / cm^3
# Si number density = 17.648427 Si / 1000 Ang^3
#
#
#
# Elastic Constant Matrix: (Units=GPa)
#
#
# Indices 1 2 3 4 5 6 
#
# 1 119.8313 51.6187 65.3356 0.0000 -38.6757 0.0000
# 2 51.6187 66.8059 57.1044 0.0000 -18.3727 0.0000
# 3 65.3356 57.1044 142.4992 0.0000 -37.2458 0.0000
# 4 0.0000 0.0000 0.0000 6.0927 0.0000 14.8981
# 5 -38.6757 -18.3727 -37.2458 0.0000 28.2320 0.0000
# 6 0.0000 0.0000 0.0000 14.8981 0.0000 10.5406
#
#
#
# Elastic Compliance Matrix: (Units=1/GPa)
#
#
# Indices 1 2 3 4 5 6 
#
# 1 0.018497 -0.009151 0.000386 0.000000 0.019894 0.000000
# 2 -0.009151 0.027633 -0.008325 0.000000 -0.005536 0.000000
# 3 0.000386 -0.008325 0.013582 0.000000 0.013030 0.000000
# 4 0.000000 0.000000 0.000000 -0.066826 0.000000 0.094452
# 5 0.019894 -0.005536 0.013030 0.000000 0.076262 0.000000
# 6 0.000000 0.000000 0.000000 0.094452 0.000000 -0.038627
#
#
# Mechanical properties :
#
#
# Convention : Reuss Voigt Hill
#
# Bulk Modulus (GPa) = 39.16513 75.25042 57.20777
# Shear Modulus (GPa) = 68.29600 19.31156 43.80378
#
# Velocity S-wave (km/s) = 6.22753 3.31151 4.98739
# Velocity P-wave (km/s) = 8.59939 7.57315 8.10253
#
# Compressibility (1/GPa) = 0.02553291
#
# Stress axis : x y z
#
# Youngs Moduli (GPa) = 54.06195 36.18908 73.62479
#
# Poissons Ratio (x) = 0.33116 -0.02841
# Poissons Ratio (y) = 0.49472 0.61290
# Poissons Ratio (z) = -0.02086 0.30126
#
# Static dielectric constant tensor:
#      x y z
#    x 3.329920 0.000000 -0.294520 
#    y 0.000000 3.089820 0.000000 
#    z -0.294520 0.000000 3.417850 
# 
# 
# High freq. dielectric constant tensor:
#      x y z
#    x 1.679260 0.000000 -0.022250 
#    y 0.000000 1.662770 0.000000 
#    z -0.022250 0.000000 1.685900 
# 
# From -- ./inp_files/37968.got.cif
#   From: 2010.06.25/outbox.cif.g09.slc.cpg/sg10_19_cif.got.tgz:37968.got - 2010.06.27 22:07:45.
