data_PCOD8065038
_publ_section_title
;
Structure prediction by ZEFSAII (Michael W. Deem and Ramdas Pophale) SiO2 
 PCOD8065038
Probable space group: P 2/M
;
_chemical_formula_sum "Si O2"
_cell_formula_units_Z 28
_cell_length_a 13.376348
_cell_length_b 13.088356
_cell_length_c 8.797153
_cell_angle_alpha 90.000000
_cell_angle_beta 62.984340
_cell_angle_gamma 90.000000
_cell_volume 1372.098173
_symmetry_space_group_name_H-M "P 2/M"
_symmetry_group_IT_number 10
_symmetry_cell_setting 'monoclinic'
loop_
_space_group_symop_operation_xyz
x,y,z
-x,y,-z
-x,-y,-z
x,-y,z
loop_
_atom_site_type_symbol
_atom_site_label
_atom_site_fract_x
_atom_site_fract_y
_atom_site_fract_z
Si Si1 0.797661 0.785232 0.343224
Si Si2 0.112942 0.383337 0.507831
Si Si3 0.589973 0.194697 0.052132
Si Si4 0.339012 0.614772 0.189273
Si Si5 0.187461 0.118385 0.986511
Si Si6 0.559665 0.718959 0.606517
Si Si7 0.994887 0.115509 0.338786
O O1 0.864460 0.683983 0.355810
O O2 0.801589 0.801624 0.159573
O O3 0.669752 0.784728 0.487200
O O4 0.867120 0.879121 0.367617
O O5 0.109113 0.500000 0.567639
O O6 0.209046 0.366614 0.315830
O O7 0.000000 0.351175 0.500000
O O8 0.699303 0.124241 0.991109
O O9 0.530377 0.204260 0.256708
O O10 0.500000 0.142696 0.000000
O O11 0.622252 0.307197 0.966806
O O12 0.361136 0.500000 0.114756
O O13 0.408643 0.630094 0.297583
O O14 0.169600 0.000000 0.946897
O O15 0.083215 0.161690 0.156807
O O16 0.500000 0.669821 0.500000
O O17 0.000000 0.171424 0.500000
O O18 0.033750 0.000000 0.334108
#
# Coordination Sequence:
#
# PCOD8065038 Si02
#       7
#     4   4   4   4   4   4   4
#     4  11  21  37  64  86 122 163 196 239 312 353
#     4   9  19  36  61  95 128 159 202 248 295 362
#     4  10  22  38  61  85 122 157 202 251 296 356
#     4   9  20  37  60  88 119 160 201 244 298 354
#     4  11  24  42  62  89 122 156 201 255 306 358
#     4  10  20  37  56  87 120 155 197 244 287 362
#     4  10  23  40  62  91 116 150 206 255 298 359
#
# _framework density 20.406703
#
# number of rings (size 3 to 8) (size 9 to 14) (size 15 to 20)
#    0.000    2.000    1.429    1.286    8.000    4.286 
#    0.000    2.857    0.000    1.714    0.000    0.000 
#    0.000    0.000    0.000    0.000    0.000    0.000 
#
# Total GULP energy -347039.830672 kJ/mol
# GULP energy per Si atom -12394.279667 kJ/mol
# Density = 2.036026 g / cm^3
# Si number density = 20.406703 Si / 1000 Ang^3
#
#
#
# Elastic Constant Matrix: (Units=GPa)
#
#
# Indices 1 2 3 4 5 6 
#
# 1 131.4989 23.9342 49.9496 0.0000 -7.9754 0.0000
# 2 23.9342 66.1709 42.4279 0.0000 -2.8018 0.0000
# 3 49.9496 42.4279 131.1811 0.0000 -4.9533 0.0000
# 4 0.0000 0.0000 0.0000 24.9915 0.0000 4.4375
# 5 -7.9754 -2.8018 -4.9533 0.0000 35.3031 0.0000
# 6 0.0000 0.0000 0.0000 4.4375 0.0000 23.7762
#
#
#
# Elastic Compliance Matrix: (Units=1/GPa)
#
#
# Indices 1 2 3 4 5 6 
#
# 1 0.009064 -0.001309 -0.002970 0.000000 0.001527 0.000000
# 2 -0.001309 0.019270 -0.005718 0.000000 0.000431 0.000000
# 3 -0.002970 -0.005718 0.010617 0.000000 0.000365 0.000000
# 4 0.000000 0.000000 0.000000 0.041385 0.000000 -0.007724
# 5 0.001527 0.000431 0.000365 0.000000 0.028757 0.000000
# 6 0.000000 0.000000 0.000000 -0.007724 0.000000 0.043500
#
#
# Mechanical properties :
#
#
# Convention : Reuss Voigt Hill
#
# Bulk Modulus (GPa) = 52.75151 62.38602 57.56877
# Shear Modulus (GPa) = 27.94755 30.98344 29.46549
#
# Velocity S-wave (km/s) = 3.70473 3.90076 3.80401
# Velocity P-wave (km/s) = 6.64878 7.13622 6.89680
#
# Compressibility (1/GPa) = 0.01895680
#
# Stress axis : x y z
#
# Youngs Moduli (GPa) = 110.33007 51.89298 94.18834
#
# Poissons Ratio (x) = 0.06795 0.27974
# Poissons Ratio (y) = 0.14446 0.53855
# Poissons Ratio (z) = 0.32768 0.29671
#
# Static dielectric constant tensor:
#      x y z
#    x 3.936310 0.000000 -0.136710 
#    y 0.000000 3.413790 0.000000 
#    z -0.136710 0.000000 3.833510 
# 
# 
# High freq. dielectric constant tensor:
#      x y z
#    x 1.813620 0.000000 -0.012850 
#    y 0.000000 1.769930 0.000000 
#    z -0.012850 0.000000 1.800060 
# 
# From -- ./inp_files/25187.got.cif
#   From: 2010.06.25/outbox.cif.g09.slc.cpg/sg10_13_cif.got.tgz:25187.got - 2010.06.27 22:07:45.
