data_PCOD8065021
_publ_section_title
;
Structure prediction by ZEFSAII (Michael W. Deem and Ramdas Pophale) SiO2 
 PCOD8065021
Probable space group: P 2/M
;
_chemical_formula_sum "Si O2"
_cell_formula_units_Z 32
_cell_length_a 9.987169
_cell_length_b 14.182772
_cell_length_c 26.226124
_cell_angle_alpha 90.000000
_cell_angle_beta 25.366766
_cell_angle_gamma 90.000000
_cell_volume 1591.469549
_symmetry_space_group_name_H-M "P 2/M"
_symmetry_group_IT_number 10
_symmetry_cell_setting 'monoclinic'
loop_
_space_group_symop_operation_xyz
x,y,z
-x,y,-z
-x,-y,-z
x,-y,z
loop_
_atom_site_type_symbol
_atom_site_label
_atom_site_fract_x
_atom_site_fract_y
_atom_site_fract_z
Si Si1 0.329500 0.890803 0.360189
Si Si2 0.332494 0.252508 0.267228
Si Si3 0.434851 0.897762 0.080784
Si Si4 0.222029 0.235478 0.970056
Si Si5 0.334355 0.392435 0.406719
Si Si6 0.611415 0.725884 0.515112
Si Si7 0.731729 0.109955 0.319561
Si Si8 0.775541 0.608411 0.161530
O O1 0.414314 0.827229 0.281622
O O2 0.605782 0.872223 0.305487
O O3 0.000000 0.861446 0.500000
O O4 0.314488 0.000000 0.347937
O O5 0.436662 0.233445 0.173403
O O6 0.502506 0.351650 0.219928
O O7 0.974597 0.266035 0.387751
O O8 0.725070 0.838054 0.002904
O O9 0.086666 0.854277 0.204398
O O10 0.439989 0.000000 0.106288
O O11 0.500000 0.911997 0.000000
O O12 0.000000 0.201477 0.000000
O O13 0.092076 0.331562 0.041142
O O14 0.265221 0.500000 0.444525
O O15 0.466746 0.341373 0.410908
O O16 0.631912 0.381516 0.267289
O O17 0.000000 0.350136 0.500000
O O18 0.500000 0.681329 0.500000
O O19 0.469000 0.829797 0.571462
O O20 0.691824 0.000000 0.347061
O O21 0.849865 0.500000 0.122478
#
# Coordination Sequence:
#
# PCOD8065021 Si02
#       8
#     4   4   4   4   4   4   4   4
#     4  10  20  36  63  98 130 166 217 272 312 368
#     4  11  22  37  60  95 129 166 209 261 325 379
#     4  10  23  42  62  87 124 171 216 257 313 379
#     4  10  24  41  63  94 124 165 214 266 321 371
#     4  10  21  40  67  94 120 160 209 261 323 391
#     4  12  24  36  61  96 134 166 201 260 325 380
#     4  10  22  39  61  90 128 176 217 253 312 378
#     4  10  22  42  69  95 121 162 218 268 317 383
#
# _framework density 20.107202999999998
#
# number of rings (size 3 to 8) (size 9 to 14) (size 15 to 20)
#    0.000    1.625    2.500    1.500    5.250    3.500 
#    0.000    0.000    0.000    2.625    0.000    0.000 
#    0.000    0.000    0.000    0.000    0.000    0.000 
#
# Total GULP energy -396473.445264 kJ/mol
# GULP energy per Si atom -12389.795165 kJ/mol
# Density = 2.006144 g / cm^3
# Si number density = 20.107203 Si / 1000 Ang^3
#
#
#
# Elastic Constant Matrix: (Units=GPa)
#
#
# Indices 1 2 3 4 5 6 
#
# 1 -226.5453 -57.0481 -421.3850 0.0000 187.8765 0.0000
# 2 -57.0481 65.1650 -103.8461 0.0000 61.8832 0.0000
# 3 -421.3850 -103.8461 -480.6947 0.0000 249.5460 0.0000
# 4 0.0000 0.0000 0.0000 46.4623 0.0000 4.3471
# 5 187.8765 61.8832 249.5460 0.0000 -72.9033 0.0000
# 6 0.0000 0.0000 0.0000 4.3471 0.0000 19.3336
#
#
#
# Elastic Compliance Matrix: (Units=1/GPa)
#
#
# Indices 1 2 3 4 5 6 
#
# 1 0.009172 -0.004066 -0.004269 0.000000 0.005573 0.000000
# 2 -0.004066 0.013366 -0.001451 0.000000 -0.004098 0.000000
# 3 -0.004269 -0.001451 0.005631 0.000000 0.007041 0.000000
# 4 0.000000 0.000000 0.000000 0.021985 0.000000 -0.004943
# 5 0.005573 -0.004098 0.007041 0.000000 0.021268 0.000000
# 6 0.000000 0.000000 0.000000 -0.004943 0.000000 0.052835
#
#
# Mechanical properties :
#
#
# Convention : Reuss Voigt Hill
#
# Bulk Modulus (GPa) = 116.30797 -200.73703 -42.21453
# Shear Modulus (GPa) = 34.08420 -5.40787 14.33817
#
# Velocity S-wave (km/s) = 4.12166 -1.64175 2.67326
# Velocity P-wave (km/s) = 8.97888 10.18057 3.39291
#
# Compressibility (1/GPa) = 0.00859786
#
# Stress axis : x y z
#
# Youngs Moduli (GPa) = 109.02322 74.81719 177.58224
#
# Poissons Ratio (x) = 0.30418 0.75817
# Poissons Ratio (y) = 0.44326 0.25761
# Poissons Ratio (z) = 0.46547 0.10854
#
# Static dielectric constant tensor:
#      x y z
#    x 2.955870 0.000000 -0.101550 
#    y 0.000000 3.826770 0.000000 
#    z -0.101550 0.000000 3.880180 
# 
# 
# High freq. dielectric constant tensor:
#      x y z
#    x 1.775140 0.000000 0.004920 
#    y 0.000000 1.776550 0.000000 
#    z 0.004920 0.000000 1.797960 
# 
# From -- ./inp_files/88243.got.cif
#   From: 2010.06.25/outbox.cif.g09.slc.cpg/sg10_45_cif.got.tgz:88243.got - 2010.06.27 22:07:45.
