data_PCOD8065258
_publ_section_title
;
Structure prediction by ZEFSAII (Michael W. Deem and Ramdas Pophale) SiO2 
 PCOD8065258
Probable space group: P 2/M
;
_chemical_formula_sum "Si O2"
_cell_formula_units_Z 20
_cell_length_a 10.288134
_cell_length_b 13.688259
_cell_length_c 15.322121
_cell_angle_alpha 90.000000
_cell_angle_beta 155.909955
_cell_angle_gamma 90.000000
_cell_volume 880.738062
_symmetry_space_group_name_H-M "P 2/M"
_symmetry_group_IT_number 10
_symmetry_cell_setting 'monoclinic'
loop_
_space_group_symop_operation_xyz
x,y,z
-x,y,-z
-x,-y,-z
x,-y,z
loop_
_atom_site_type_symbol
_atom_site_label
_atom_site_fract_x
_atom_site_fract_y
_atom_site_fract_z
Si Si1 0.156144 0.888906 0.325448
Si Si2 0.365036 0.611366 0.820658
Si Si3 0.181810 0.244401 0.499163
Si Si4 0.725470 0.888391 0.898467
Si Si5 0.667732 0.610005 0.824974
O O1 0.500000 0.856193 0.500000
O O2 0.055627 0.819125 0.342182
O O3 0.182771 0.000000 0.375457
O O4 0.870155 0.877839 0.082705
O O5 0.219749 0.500000 0.728024
O O6 0.630050 0.620254 0.907137
O O7 0.117173 0.697428 0.641959
O O8 0.500000 0.631033 0.000000
O O9 0.399633 0.174904 0.695417
O O10 0.408757 0.332720 0.608863
O O11 0.632949 0.000000 0.819762
O O12 0.000000 0.852783 0.000000
O O13 0.644008 0.500000 0.777979
O O14 0.000000 0.656770 0.000000
#
# Coordination Sequence:
#
# PCOD8065258 Si02
#       5
#     4   4   4   4   4
#     4  10  21  37  60  97 143 183 228 284 341 404
#     4  10  24  46  69  98 140 185 225 280 351 412
#     4  12  22  35  69 102 133 172 231 274 341 408
#     4  10  20  37  61  96 141 186 230 282 343 407
#     4  10  23  44  69  98 134 176 227 283 336 404
#
# _framework density 22.708227999999998
#
# number of rings (size 3 to 8) (size 9 to 14) (size 15 to 20)
#    0.000    1.600    2.000    2.400    2.800    1.600 
#    0.000    0.000    0.000   18.000    0.000    0.000 
#    0.000    0.000    0.000    0.000    0.000    0.000 
#
# Total GULP energy -247807.951691 kJ/mol
# GULP energy per Si atom -12390.397585 kJ/mol
# Density = 2.265654 g / cm^3
# Si number density = 22.708228 Si / 1000 Ang^3
#
#
#
# Elastic Constant Matrix: (Units=GPa)
#
#
# Indices 1 2 3 4 5 6 
#
# 1 101.2709 46.7338 48.2164 0.0000 2.1615 0.0000
# 2 46.7338 125.5680 54.0794 0.0000 3.5938 0.0000
# 3 48.2164 54.0794 114.4088 0.0000 -0.7915 0.0000
# 4 0.0000 0.0000 0.0000 40.9275 0.0000 25.0999
# 5 2.1615 3.5938 -0.7915 0.0000 39.4921 0.0000
# 6 0.0000 0.0000 0.0000 25.0999 0.0000 -52.8765
#
#
#
# Elastic Compliance Matrix: (Units=1/GPa)
#
#
# Indices 1 2 3 4 5 6 
#
# 1 0.013305 -0.003165 -0.004115 0.000000 -0.000523 0.000000
# 2 -0.003165 0.010792 -0.003774 0.000000 -0.000885 0.000000
# 3 -0.004115 -0.003774 0.012264 0.000000 0.000814 0.000000
# 4 0.000000 0.000000 0.000000 0.018924 0.000000 0.008983
# 5 -0.000523 -0.000885 0.000814 0.000000 0.025447 0.000000
# 6 0.000000 0.000000 0.000000 0.008983 0.000000 -0.014648
#
#
# Mechanical properties :
#
#
# Convention : Reuss Voigt Hill
#
# Bulk Modulus (GPa) = 70.15197 71.03413 70.59305
# Shear Modulus (GPa) = 53.79589 18.32317 36.05953
#
# Velocity S-wave (km/s) = 4.87252 2.84367 3.98923
# Velocity P-wave (km/s) = 7.91297 6.49085 7.23693
#
# Compressibility (1/GPa) = 0.01425477
#
# Stress axis : x y z
#
# Youngs Moduli (GPa) = 75.15777 92.65927 81.53777
#
# Poissons Ratio (x) = 0.29324 0.33553
# Poissons Ratio (y) = 0.23785 0.30770
# Poissons Ratio (z) = 0.30928 0.34967
#
# Static dielectric constant tensor:
#      x y z
#    x 3.894290 0.000000 -0.028400 
#    y 0.000000 4.532160 0.000000 
#    z -0.028400 0.000000 4.087180 
# 
# 
# High freq. dielectric constant tensor:
#      x y z
#    x 1.875260 0.000000 -0.006810 
#    y 0.000000 1.922690 0.000000 
#    z -0.006810 0.000000 1.889840 
# 
# From -- ./inp_files/76861.got.cif
#   From: 2010.06.25/outbox.cif.g09.slc.cpg/sg10_39_cif.got.tgz:76861.got - 2010.06.27 22:07:45.
