data_PCOD8065816
_publ_section_title
;
Structure prediction by ZEFSAII (Michael W. Deem and Ramdas Pophale) SiO2 
 PCOD8065816
Probable space group: P 2/M
;
_chemical_formula_sum "Si O2"
_cell_formula_units_Z 26
_cell_length_a 14.925995
_cell_length_b 12.364569
_cell_length_c 8.388418
_cell_angle_alpha 90.000000
_cell_angle_beta 86.314444
_cell_angle_gamma 90.000000
_cell_volume 1544.910140
_symmetry_space_group_name_H-M "P 2/M"
_symmetry_group_IT_number 10
_symmetry_cell_setting 'monoclinic'
loop_
_space_group_symop_operation_xyz
x,y,z
-x,y,-z
-x,-y,-z
x,-y,z
loop_
_atom_site_type_symbol
_atom_site_label
_atom_site_fract_x
_atom_site_fract_y
_atom_site_fract_z
Si Si1 0.119935 0.122828 0.822601
Si Si2 0.423501 0.500000 0.882253
Si Si3 0.090606 0.877803 0.183816
Si Si4 0.588083 0.377951 0.411591
Si Si5 0.913514 0.686831 0.609235
Si Si6 0.225203 0.500000 0.901632
Si Si7 0.781896 0.684924 0.353853
Si Si8 0.066252 0.500000 0.144927
O O1 0.181844 0.198789 0.706482
O O2 0.015395 0.145983 0.808156
O O3 0.143846 0.000000 0.772790
O O4 0.137902 0.142029 0.008186
O O5 0.433038 0.391618 0.773939
O O6 0.324086 0.500000 0.967443
O O7 0.500000 0.500000 0.000000
O O8 0.131048 0.792944 0.304832
O O9 0.109125 0.000000 0.239553
O O10 0.500000 0.322319 0.500000
O O11 0.604632 0.500000 0.482033
O O12 0.677871 0.306462 0.422969
O O13 0.838861 0.639534 0.497466
O O14 0.946328 0.603898 0.741717
O O15 0.000000 0.722213 0.500000
O O16 0.207205 0.603808 0.794379
O O17 0.165538 0.500000 0.064642
O O18 0.000000 0.500000 0.000000
#
# Coordination Sequence:
#
# PCOD8065816 Si02
#       8
#     4   2   4   4   4   2   4   2
#     4   9  18  33  54  72  98 135 170 212 255 296
#     4   8  15  28  51  74  91 114 158 209 244 284
#     4   9  19  35  52  72  97 134 178 216 250 284
#     4   8  17  33  52  70  99 135 154 202 255 299
#     4  12  23  33  48  72 101 139 170 210 245 296
#     4  10  21  35  50  69  99 138 164 206 243 304
#     4  11  19  34  53  75 104 127 174 207 252 300
#     4  12  26  35  44  61 102 146 174 194 238 307
#
# _framework density 16.829457999999999
#
# number of rings (size 3 to 8) (size 9 to 14) (size 15 to 20)
#    0.462    1.692    2.308    3.462    2.154    2.154 
#    0.000    0.000    0.000    0.462    0.000    0.000 
#    0.000   12.308    0.000    0.000    0.000    0.000 
#
# Total GULP energy -322198.361605 kJ/mol
# GULP energy per Si atom -12392.244677 kJ/mol
# Density = 1.679115 g / cm^3
# Si number density = 16.829458 Si / 1000 Ang^3
#
#
#
# Elastic Constant Matrix: (Units=GPa)
#
#
# Indices 1 2 3 4 5 6 
#
# 1 93.9476 19.9098 38.9599 0.0000 0.7949 0.0000
# 2 19.9098 79.1605 30.9951 0.0000 -0.5924 0.0000
# 3 38.9599 30.9951 72.3812 0.0000 2.5915 0.0000
# 4 0.0000 0.0000 0.0000 23.8208 0.0000 -7.0825
# 5 0.7949 -0.5924 2.5915 0.0000 35.6341 0.0000
# 6 0.0000 0.0000 0.0000 -7.0825 0.0000 15.0739
#
#
#
# Elastic Compliance Matrix: (Units=1/GPa)
#
#
# Indices 1 2 3 4 5 6 
#
# 1 0.013734 -0.000667 -0.007114 0.000000 0.000200 0.000000
# 2 -0.000667 0.015229 -0.006188 0.000000 0.000718 0.000000
# 3 -0.007114 -0.006188 0.020345 0.000000 -0.001424 0.000000
# 4 0.000000 0.000000 0.000000 0.048797 0.000000 0.022927
# 5 0.000200 0.000718 -0.001424 0.000000 0.028174 0.000000
# 6 0.000000 0.000000 0.000000 0.022927 0.000000 0.077112
#
#
# Mechanical properties :
#
#
# Convention : Reuss Voigt Hill
#
# Bulk Modulus (GPa) = 46.79385 47.24653 47.02019
# Shear Modulus (GPa) = 20.96852 25.28074 23.12463
#
# Velocity S-wave (km/s) = 3.53362 3.87999 3.71085
# Velocity P-wave (km/s) = 6.67186 6.94313 6.80885
#
# Compressibility (1/GPa) = 0.02137033
#
# Stress axis : x y z
#
# Youngs Moduli (GPa) = 72.81158 65.66612 49.15093
#
# Poissons Ratio (x) = 0.04382 0.34965
# Poissons Ratio (y) = 0.04859 0.30413
# Poissons Ratio (z) = 0.51797 0.40632
#
# Static dielectric constant tensor:
#      x y z
#    x 2.975950 0.000000 -0.069740 
#    y 0.000000 3.032550 0.000000 
#    z -0.069740 0.000000 3.413470 
# 
# 
# High freq. dielectric constant tensor:
#      x y z
#    x 1.621070 0.000000 -0.004970 
#    y 0.000000 1.628150 0.000000 
#    z -0.004970 0.000000 1.655270 
# 
# From -- ./inp_files/27873.got.cif
#   From: 2010.06.25/outbox.cif.g09.slc.cpg/sg10_14_cif.got.tgz:27873.got - 2010.06.27 22:07:45.
