data_PCOD8065249
_publ_section_title
;
Structure prediction by ZEFSAII (Michael W. Deem and Ramdas Pophale) SiO2 
 PCOD8065249
Probable space group: P 2/M
;
_chemical_formula_sum "Si O2"
_cell_formula_units_Z 32
_cell_length_a 28.041167
_cell_length_b 8.634425
_cell_length_c 21.645521
_cell_angle_alpha 90.000000
_cell_angle_beta 162.030296
_cell_angle_gamma 90.000000
_cell_volume 1616.860377
_symmetry_space_group_name_H-M "P 2/M"
_symmetry_group_IT_number 10
_symmetry_cell_setting 'monoclinic'
loop_
_space_group_symop_operation_xyz
x,y,z
-x,y,-z
-x,-y,-z
x,-y,z
loop_
_atom_site_type_symbol
_atom_site_label
_atom_site_fract_x
_atom_site_fract_y
_atom_site_fract_z
Si Si1 0.673222 0.819589 0.225331
Si Si2 0.036264 0.319365 0.474821
Si Si3 0.912201 0.679431 0.101741
Si Si4 0.234238 0.822206 0.521637
Si Si5 0.451070 0.821599 0.677459
Si Si6 0.792240 0.319533 0.705696
Si Si7 0.200430 0.180267 0.912696
Si Si8 0.103811 0.818936 0.044748
O O1 0.711446 0.783961 0.343021
O O2 0.786663 0.723407 0.321007
O O3 0.690552 0.000000 0.230345
O O4 0.500000 0.761158 0.000000
O O5 0.007738 0.500000 0.428667
O O6 0.925230 0.225363 0.292756
O O7 0.000000 0.270233 0.500000
O O8 0.886283 0.500000 0.057314
O O9 0.822242 0.728008 0.052033
O O10 0.093774 0.711249 0.331880
O O11 0.842121 0.772130 0.957122
O O12 0.376618 0.785525 0.652045
O O13 0.178798 0.000000 0.446986
O O14 0.372836 0.718973 0.527643
O O15 0.429538 0.000000 0.632173
O O16 0.630561 0.777722 0.904644
O O17 0.829555 0.500000 0.745764
O O18 0.790923 0.271194 0.775895
O O19 0.923704 0.224520 0.831252
O O20 0.180222 0.000000 0.902247
O O21 0.126013 0.000000 0.082479
#
# Coordination Sequence:
#
# PCOD8065249 Si02
#       8
#     4   4   4   4   4   4   4   4
#     4  10  22  39  64  94 122 155 202 254 302 358
#     4  11  25  43  61  87 124 164 202 248 306 366
#     4  12  23  38  61  91 123 160 202 251 306 360
#     4  10  20  37  61  89 121 156 201 254 301 358
#     4  10  22  39  61  89 123 160 203 251 304 361
#     4  11  21  35  57  90 126 157 199 251 308 363
#     4  11  24  42  65  90 119 162 208 251 299 363
#     4  11  21  36  60  87 121 162 205 250 299 357
#
# _framework density 19.791443999999998
#
# number of rings (size 3 to 8) (size 9 to 14) (size 15 to 20)
#    0.000    1.250    2.500    4.875    1.750    2.250 
#    0.000    0.625    0.000    3.750    0.000    0.000 
#    0.000    0.000    0.000    0.000    0.000    0.000 
#
# Total GULP energy -396996.654790 kJ/mol
# GULP energy per Si atom -12406.145462 kJ/mol
# Density = 1.974640 g / cm^3
# Si number density = 19.791444 Si / 1000 Ang^3
#
#
#
# Elastic Constant Matrix: (Units=GPa)
#
#
# Indices 1 2 3 4 5 6 
#
# 1 128.4615 29.4837 40.2977 0.0000 3.9734 0.0000
# 2 29.4837 78.3866 20.9817 0.0000 1.2225 0.0000
# 3 40.2977 20.9817 82.3727 0.0000 8.5361 0.0000
# 4 0.0000 0.0000 0.0000 13.9618 0.0000 -5.1579
# 5 3.9734 1.2225 8.5361 0.0000 33.0397 0.0000
# 6 0.0000 0.0000 0.0000 -5.1579 0.0000 26.8182
#
#
#
# Elastic Compliance Matrix: (Units=1/GPa)
#
#
# Indices 1 2 3 4 5 6 
#
# 1 0.009644 -0.002538 -0.004070 0.000000 -0.000014 0.000000
# 2 -0.002538 0.014364 -0.002460 0.000000 0.000409 0.000000
# 3 -0.004070 -0.002460 0.015102 0.000000 -0.003321 0.000000
# 4 0.000000 0.000000 0.000000 0.077102 0.000000 0.014829
# 5 -0.000014 0.000409 -0.003321 0.000000 0.031111 0.000000
# 6 0.000000 0.000000 0.000000 0.014829 0.000000 0.040140
#
#
# Mechanical properties :
#
#
# Convention : Reuss Voigt Hill
#
# Bulk Modulus (GPa) = 47.67648 52.30521 49.99085
# Shear Modulus (GPa) = 23.51948 27.99446 25.75697
#
# Velocity S-wave (km/s) = 3.45101 3.76503 3.61143
# Velocity P-wave (km/s) = 6.32622 6.73692 6.53480
#
# Compressibility (1/GPa) = 0.02097470
#
# Stress axis : x y z
#
# Youngs Moduli (GPa) = 103.69033 69.61949 66.21752
#
# Poissons Ratio (x) = 0.17668 0.26951
# Poissons Ratio (y) = 0.26314 0.16287
# Poissons Ratio (z) = 0.42203 0.17123
#
# Static dielectric constant tensor:
#      x y z
#    x 3.775430 0.000000 -0.081670 
#    y 0.000000 3.571810 0.000000 
#    z -0.081670 0.000000 3.581960 
# 
# 
# High freq. dielectric constant tensor:
#      x y z
#    x 1.781480 0.000000 -0.010640 
#    y 0.000000 1.773980 0.000000 
#    z -0.010640 0.000000 1.762770 
# 
# From -- ./inp_files/86955.got.cif
#   From: 2010.06.25/outbox.cif.g09.slc.cpg/sg10_44_cif.got.tgz:86955.got - 2010.06.27 22:07:45.
