data_PCOD8065194
_publ_section_title
;
Structure prediction by ZEFSAII (Michael W. Deem and Ramdas Pophale) SiO2 
 PCOD8065194
Probable space group: P 2/M
;
_chemical_formula_sum "Si O2"
_cell_formula_units_Z 32
_cell_length_a 20.573072
_cell_length_b 14.163197
_cell_length_c 14.643306
_cell_angle_alpha 90.000000
_cell_angle_beta 159.825384
_cell_angle_gamma 90.000000
_cell_volume 1471.534970
_symmetry_space_group_name_H-M "P 2/M"
_symmetry_group_IT_number 10
_symmetry_cell_setting 'monoclinic'
loop_
_space_group_symop_operation_xyz
x,y,z
-x,y,-z
-x,-y,-z
x,-y,z
loop_
_atom_site_type_symbol
_atom_site_label
_atom_site_fract_x
_atom_site_fract_y
_atom_site_fract_z
Si Si1 0.121952 0.338724 0.871405
Si Si2 0.994624 0.170343 0.809052
Si Si3 0.839087 0.295546 0.362067
Si Si4 0.275456 0.894330 0.700709
Si Si5 0.736422 0.734602 0.608265
Si Si6 0.347460 0.105402 0.371508
Si Si7 0.577419 0.388386 0.884784
Si Si8 0.301260 0.396386 0.277709
O O1 0.122799 0.230146 0.907017
O O2 0.918462 0.353215 0.554735
O O3 0.289663 0.359912 0.023423
O O4 0.149991 0.405296 0.996073
O O5 0.820209 0.120026 0.526004
O O6 0.916844 0.238022 0.786750
O O7 0.139612 0.100614 0.050635
O O8 0.795281 0.186325 0.324284
O O9 0.000000 0.293861 0.500000
O O10 0.661881 0.355142 0.093051
O O11 0.218209 0.000000 0.658749
O O12 0.500000 0.885521 0.000000
O O13 0.641454 0.829651 0.523420
O O14 0.608960 0.672837 0.372709
O O15 0.787536 0.670949 0.763454
O O16 0.500000 0.142795 0.500000
O O17 0.398583 0.000000 0.471538
O O18 0.538054 0.500000 0.834423
O O19 0.500000 0.356400 0.500000
O O20 0.335319 0.500000 0.365342
#
# Coordination Sequence:
#
# PCOD8065194 Si02
#       8
#     4   4   4   4   4   4   4   4
#     4  10  20  37  60  87 122 166 212 261 317 371
#     4  11  23  40  63  92 133 170 205 259 320 378
#     4   9  21  38  61  93 123 158 210 267 319 371
#     4  10  21  40  66  94 126 167 210 253 315 388
#     4  12  23  38  62  91 129 164 209 259 315 372
#     4  11  24  42  65  92 124 165 210 257 317 384
#     4  11  22  40  64  89 124 170 215 263 319 378
#     4  11  21  36  60  89 124 170 218 262 315 376
#
# _framework density 21.745999999999999
#
# number of rings (size 3 to 8) (size 9 to 14) (size 15 to 20)
#    0.000    1.375    2.500    3.375    0.000    4.500 
#    0.000    3.750    0.000    7.875    0.000    0.000 
#    0.000    0.000    0.000    0.000    0.000    0.000 
#
# Total GULP energy -396544.512840 kJ/mol
# GULP energy per Si atom -12392.016026 kJ/mol
# Density = 2.169651 g / cm^3
# Si number density = 21.746000 Si / 1000 Ang^3
#
#
#
# Elastic Constant Matrix: (Units=GPa)
#
#
# Indices 1 2 3 4 5 6 
#
# 1 62.0505 32.5609 38.2047 0.0000 -16.2887 0.0000
# 2 32.5609 121.5953 39.0001 0.0000 -2.4671 0.0000
# 3 38.2047 39.0001 121.9362 0.0000 -18.0182 0.0000
# 4 0.0000 0.0000 0.0000 20.3191 0.0000 -3.4362
# 5 -16.2887 -2.4671 -18.0182 0.0000 32.0415 0.0000
# 6 0.0000 0.0000 0.0000 -3.4362 0.0000 11.4750
#
#
#
# Elastic Compliance Matrix: (Units=1/GPa)
#
#
# Indices 1 2 3 4 5 6 
#
# 1 0.023832 -0.004719 -0.004604 0.000000 0.009163 0.000000
# 2 -0.004719 0.010130 -0.002182 0.000000 -0.002846 0.000000
# 3 -0.004604 -0.002182 0.010874 0.000000 0.003607 0.000000
# 4 0.000000 0.000000 0.000000 0.051840 0.000000 0.015524
# 5 0.009163 -0.002846 0.003607 0.000000 0.037677 0.000000
# 6 0.000000 0.000000 0.000000 0.015524 0.000000 0.091794
#
#
# Mechanical properties :
#
#
# Convention : Reuss Voigt Hill
#
# Bulk Modulus (GPa) = 45.81545 58.34592 52.08069
# Shear Modulus (GPa) = 19.49830 25.82155 22.65993
#
# Velocity S-wave (km/s) = 2.99764 3.44963 3.23155
# Velocity P-wave (km/s) = 5.75285 6.53877 6.15836
#
# Compressibility (1/GPa) = 0.02182670
#
# Stress axis : x y z
#
# Youngs Moduli (GPa) = 41.95995 98.71868 91.96097
#
# Poissons Ratio (x) = 0.46589 0.42335
# Poissons Ratio (y) = 0.19802 0.20064
# Poissons Ratio (z) = 0.19317 0.21539
#
# Static dielectric constant tensor:
#      x y z
#    x 3.916190 0.000000 -0.360180 
#    y 0.000000 3.909280 0.000000 
#    z -0.360180 0.000000 4.300960 
# 
# 
# High freq. dielectric constant tensor:
#      x y z
#    x 1.838790 0.000000 -0.016240 
#    y 0.000000 1.853840 0.000000 
#    z -0.016240 0.000000 1.864810 
# 
# From -- ./inp_files/70801.got.cif
#   From: 2010.06.25/outbox.cif.g09.slc.cpg/sg10_36_cif.got.tgz:70801.got - 2010.06.27 22:07:45.
