data_PCOD8065001
_publ_section_title
;
Structure prediction by ZEFSAII (Michael W. Deem and Ramdas Pophale) SiO2 
 PCOD8065001
Probable space group: P 2/M
;
_chemical_formula_sum "Si O2"
_cell_formula_units_Z 32
_cell_length_a 12.775408
_cell_length_b 9.082517
_cell_length_c 26.768888
_cell_angle_alpha 90.000000
_cell_angle_beta 33.386400
_cell_angle_gamma 90.000000
_cell_volume 1709.216508
_symmetry_space_group_name_H-M "P 2/M"
_symmetry_group_IT_number 10
_symmetry_cell_setting 'monoclinic'
loop_
_space_group_symop_operation_xyz
x,y,z
-x,y,-z
-x,-y,-z
x,-y,z
loop_
_atom_site_type_symbol
_atom_site_label
_atom_site_fract_x
_atom_site_fract_y
_atom_site_fract_z
Si Si1 0.779295 0.827968 0.579461
Si Si2 0.130471 0.168418 0.803530
Si Si3 0.249867 0.326773 0.512536
Si Si4 0.602060 0.164580 0.387966
Si Si5 0.137447 0.328141 0.281105
Si Si6 0.564240 0.674951 0.755080
Si Si7 0.982622 0.170136 0.763086
Si Si8 0.177827 0.173522 0.894340
O O1 0.723986 0.763194 0.548427
O O2 0.658644 0.744101 0.668940
O O3 0.000000 0.796502 0.500000
O O4 0.729697 0.000000 0.601492
O O5 0.338847 0.182123 0.694574
O O6 0.974129 0.228712 0.824765
O O7 0.132011 0.243071 0.857512
O O8 0.076450 0.000000 0.834282
O O9 0.246825 0.500000 0.503430
O O10 0.438090 0.280490 0.469169
O O11 0.057459 0.273933 0.615705
O O12 0.204257 0.190660 0.657094
O O13 0.524005 0.000000 0.428861
O O14 0.132919 0.500000 0.274513
O O15 0.313810 0.279343 0.244853
O O16 0.156618 0.256998 0.218455
O O17 0.556982 0.500000 0.751536
O O18 0.355633 0.740649 0.846720
O O19 0.923959 0.000000 0.784458
O O20 0.225349 0.000000 0.872768
O O21 0.000000 0.207146 0.000000
#
# Coordination Sequence:
#
# PCOD8065001 Si02
#       8
#     4   4   4   4   4   4   4   4
#     4  11  22  35  53  78 107 146 192 233 273 325
#     4   7  14  32  53  76 106 135 167 217 273 319
#     4  11  21  32  47  70 105 144 184 230 278 328
#     4   8  16  31  49  71  99 136 181 228 269 317
#     4  10  22  36  49  71 107 145 183 231 275 323
#     4  11  23  39  57  79 114 152 184 226 281 338
#     4   8  17  33  53  73  99 141 186 229 271 323
#     4  10  20  36  62  92 117 140 175 227 283 339
#
# _framework density 18.722028999999999
#
# number of rings (size 3 to 8) (size 9 to 14) (size 15 to 20)
#    0.750    1.750    1.250    1.875    0.000    4.750 
#    0.000    3.125    0.000    0.750    0.000    5.250 
#    0.000    0.000    0.000    0.000    0.000    0.000 
#
# Total GULP energy -396443.181174 kJ/mol
# GULP energy per Si atom -12388.849412 kJ/mol
# Density = 1.867942 g / cm^3
# Si number density = 18.722029 Si / 1000 Ang^3
#
#
#
# Elastic Constant Matrix: (Units=GPa)
#
#
# Indices 1 2 3 4 5 6 
#
# 1 112.0086 30.9583 37.7247 0.0000 10.8369 0.0000
# 2 30.9583 47.5111 23.7391 0.0000 -3.4414 0.0000
# 3 37.7247 23.7391 65.4323 0.0000 -1.9842 0.0000
# 4 0.0000 0.0000 0.0000 16.9613 0.0000 5.3423
# 5 10.8369 -3.4414 -1.9842 0.0000 18.4794 0.0000
# 6 0.0000 0.0000 0.0000 5.3423 0.0000 -51.7182
#
#
#
# Elastic Compliance Matrix: (Units=1/GPa)
#
#
# Indices 1 2 3 4 5 6 
#
# 1 0.013690 -0.006772 -0.005736 0.000000 -0.009905 0.000000
# 2 -0.006772 0.029326 -0.006471 0.000000 0.008738 0.000000
# 3 -0.005736 -0.006471 0.021072 0.000000 0.004422 0.000000
# 4 0.000000 0.000000 0.000000 0.057100 0.000000 0.005898
# 5 -0.009905 0.008738 0.004422 0.000000 0.062025 0.000000
# 6 0.000000 0.000000 0.000000 0.005898 0.000000 -0.018726
#
#
# Mechanical properties :
#
#
# Convention : Reuss Voigt Hill
#
# Bulk Modulus (GPa) = 38.26916 45.53293 41.90104
# Shear Modulus (GPa) = 23.67944 5.57982 14.62963
#
# Velocity S-wave (km/s) = 3.56025 1.72824 2.79841
# Velocity P-wave (km/s) = 6.11437 5.32501 5.73329
#
# Compressibility (1/GPa) = 0.02613070
#
# Stress axis : x y z
#
# Youngs Moduli (GPa) = 73.04664 34.09948 47.45651
#
# Poissons Ratio (x) = 0.23091 0.27223
# Poissons Ratio (y) = 0.49464 0.30707
# Poissons Ratio (z) = 0.41903 0.22064
#
# Static dielectric constant tensor:
#      x y z
#    x 3.593510 0.000000 0.070760 
#    y 0.000000 3.216530 0.000000 
#    z 0.070760 0.000000 3.153030 
# 
# 
# High freq. dielectric constant tensor:
#      x y z
#    x 1.738970 0.000000 0.008870 
#    y 0.000000 1.709140 0.000000 
#    z 0.008870 0.000000 1.690010 
# 
# From -- ./inp_files/93107.got.cif
#   From: 2010.06.25/outbox.cif.g09.slc.cpg/sg10_47_cif.got.tgz:93107.got - 2010.06.27 22:07:45.
