data_PCOD8065974
_publ_section_title
;
Structure prediction by ZEFSAII (Michael W. Deem and Ramdas Pophale) SiO2 
 PCOD8065974
Probable space group: P 2/M
;
_chemical_formula_sum "Si O2"
_cell_formula_units_Z 28
_cell_length_a 13.813901
_cell_length_b 8.988900
_cell_length_c 19.126816
_cell_angle_alpha 90.000000
_cell_angle_beta 140.781821
_cell_angle_gamma 90.000000
_cell_volume 1501.660233
_symmetry_space_group_name_H-M "P 2/M"
_symmetry_group_IT_number 10
_symmetry_cell_setting 'monoclinic'
loop_
_space_group_symop_operation_xyz
x,y,z
-x,y,-z
-x,-y,-z
x,-y,z
loop_
_atom_site_type_symbol
_atom_site_label
_atom_site_fract_x
_atom_site_fract_y
_atom_site_fract_z
Si Si1 0.875636 0.676691 0.124313
Si Si2 0.745303 0.827272 0.297477
Si Si3 0.437570 0.328769 0.115415
Si Si4 0.987168 0.676577 0.336872
Si Si5 0.918637 0.322966 0.885439
Si Si6 0.585170 0.329080 0.734265
Si Si7 0.721329 0.172568 0.447281
O O1 0.880567 0.500000 0.123195
O O2 0.919581 0.734348 0.225546
O O3 0.996816 0.741349 0.135873
O O4 0.704096 0.730625 0.010076
O O5 0.585208 0.767604 0.177302
O O6 0.754749 0.795666 0.384920
O O7 0.886109 0.741023 0.342700
O O8 0.760428 0.000000 0.288142
O O9 0.476208 0.500000 0.120192
O O10 0.391309 0.308218 0.169947
O O11 0.987960 0.500000 0.342001
O O12 0.159322 0.736032 0.439494
O O13 0.929811 0.500000 0.894296
O O14 0.740727 0.274882 0.783842
O O15 0.000000 0.256621 0.000000
O O16 0.547150 0.500000 0.695403
O O17 0.448350 0.228131 0.628350
O O18 0.735450 0.000000 0.473514
#
# Coordination Sequence:
#
# PCOD8065974 Si02
#       7
#     4   4   4   4   4   4   4
#     4   9  18  31  49  78 112 138 164 206 259 306
#     4  10  21  36  54  75 100 133 174 216 259 303
#     4   9  16  30  52  79 107 133 166 208 254 303
#     4  11  22  35  52  75 104 137 173 213 255 303
#     4   9  14  26  52  84 110 132 163 207 255 300
#     4   9  16  28  54  85 105 128 168 213 253 297
#     4  10  21  37  55  73 100 136 174 216 259 301
#
# _framework density 18.646028999999999
#
# number of rings (size 3 to 8) (size 9 to 14) (size 15 to 20)
#    0.000    2.429    1.429    1.714    0.000    4.000 
#    0.000    5.000    0.000    7.286    0.000    0.000 
#    0.000    0.000    0.000    0.000    0.000    0.000 
#
# Total GULP energy -347237.339827 kJ/mol
# GULP energy per Si atom -12401.333565 kJ/mol
# Density = 1.860359 g / cm^3
# Si number density = 18.646029 Si / 1000 Ang^3
#
#
#
# Elastic Constant Matrix: (Units=GPa)
#
#
# Indices 1 2 3 4 5 6 
#
# 1 40.4140 18.4744 25.6154 0.0000 13.8277 0.0000
# 2 18.4744 57.3006 40.2429 0.0000 3.0733 0.0000
# 3 25.6154 40.2429 133.1424 0.0000 13.8627 0.0000
# 4 0.0000 0.0000 0.0000 5.7551 0.0000 -2.9862
# 5 13.8277 3.0733 13.8627 0.0000 23.5773 0.0000
# 6 0.0000 0.0000 0.0000 -2.9862 0.0000 10.7999
#
#
#
# Elastic Compliance Matrix: (Units=1/GPa)
#
#
# Indices 1 2 3 4 5 6 
#
# 1 0.036998 -0.009270 -0.002325 0.000000 -0.019124 0.000000
# 2 -0.009270 0.024505 -0.006239 0.000000 0.005911 0.000000
# 3 -0.002325 -0.006239 0.010244 0.000000 -0.003846 0.000000
# 4 0.000000 0.000000 0.000000 0.202866 0.000000 0.056093
# 5 -0.019124 0.005911 -0.003846 0.000000 0.055121 0.000000
# 6 0.000000 0.000000 0.000000 0.056093 0.000000 0.108103
#
#
# Mechanical properties :
#
#
# Convention : Reuss Voigt Hill
#
# Bulk Modulus (GPa) = 27.71625 44.39136 36.05381
# Shear Modulus (GPa) = 10.29799 17.79473 14.04636
#
# Velocity S-wave (km/s) = 2.35263 3.09260 2.74764
# Velocity P-wave (km/s) = 4.71980 6.05073 5.42622
#
# Compressibility (1/GPa) = 0.03607992
#
# Stress axis : x y z
#
# Youngs Moduli (GPa) = 27.02824 40.80775 97.61572
#
# Poissons Ratio (x) = 0.37829 0.22696
# Poissons Ratio (y) = 0.25055 0.60900
# Poissons Ratio (z) = 0.06284 0.25459
#
# Static dielectric constant tensor:
#      x y z
#    x 3.417100 0.000000 0.108460 
#    y 0.000000 3.129620 0.000000 
#    z 0.108460 0.000000 3.554960 
# 
# 
# High freq. dielectric constant tensor:
#      x y z
#    x 1.713060 0.000000 0.017320 
#    y 0.000000 1.692930 0.000000 
#    z 0.017320 0.000000 1.731290 
# 
# From -- ./inp_files/57438.got.cif
#   From: 2010.06.25/outbox.cif.g09.slc.cpg/sg10_29_cif.got.tgz:57438.got - 2010.06.27 22:07:45.
