data_PCOD8065202
_publ_section_title
;
Structure prediction by ZEFSAII (Michael W. Deem and Ramdas Pophale) SiO2 
 PCOD8065202
Probable space group: P 2/M
;
_chemical_formula_sum "Si O2"
_cell_formula_units_Z 28
_cell_length_a 9.375947
_cell_length_b 12.511857
_cell_length_c 13.908149
_cell_angle_alpha 90.000000
_cell_angle_beta 123.146234
_cell_angle_gamma 90.000000
_cell_volume 1366.078995
_symmetry_space_group_name_H-M "P 2/M"
_symmetry_group_IT_number 10
_symmetry_cell_setting 'monoclinic'
loop_
_space_group_symop_operation_xyz
x,y,z
-x,y,-z
-x,-y,-z
x,-y,z
loop_
_atom_site_type_symbol
_atom_site_label
_atom_site_fract_x
_atom_site_fract_y
_atom_site_fract_z
Si Si1 0.439315 0.736218 0.868220
Si Si2 0.250321 0.381082 0.074722
Si Si3 0.963752 0.684621 0.840385
Si Si4 0.133032 0.195980 0.478110
Si Si5 0.796222 0.119126 0.704756
Si Si6 0.917320 0.378321 0.306305
Si Si7 0.454195 0.125681 0.694977
O O1 0.552378 0.638606 0.870547
O O2 0.247795 0.693129 0.783814
O O3 0.482490 0.839224 0.816799
O O4 0.500000 0.762765 0.000000
O O5 0.202732 0.500000 0.026476
O O6 0.203030 0.360476 0.167780
O O7 0.132523 0.306208 0.966364
O O8 0.939895 0.807023 0.802121
O O9 0.982272 0.607543 0.756100
O O10 0.192033 0.130863 0.406131
O O11 0.306523 0.205564 0.602868
O O12 0.000000 0.133547 0.500000
O O13 0.042418 0.311221 0.423200
O O14 0.613018 0.147565 0.682764
O O15 0.845806 0.000000 0.751749
O O16 0.879569 0.500000 0.331411
O O17 0.404335 0.000000 0.674176
#
# Coordination Sequence:
#
# PCOD8065202 Si02
#       7
#     4   4   4   4   4   4   4
#     4  12  24  41  63  96 130 166 215 260 311 379
#     4  11  21  36  61  87 123 170 215 257 307 371
#     4  10  20  37  60  91 126 159 214 258 305 376
#     4  11  23  42  66  99 125 161 210 265 307 382
#     4  10  22  41  67  93 123 165 207 261 320 376
#     4  11  23  41  64  92 132 170 205 259 320 371
#     4  11  24  46  67  89 126 170 213 262 322 372
#
# _framework density 20.496618999999999
#
# number of rings (size 3 to 8) (size 9 to 14) (size 15 to 20)
#    0.000    1.143    4.286    3.000    0.000    3.429 
#    0.000    2.143    0.000    1.714    0.000    0.000 
#    0.000    0.000    0.000    0.000    0.000    0.000 
#
# Total GULP energy -346877.659453 kJ/mol
# GULP energy per Si atom -12388.487838 kJ/mol
# Density = 2.044997 g / cm^3
# Si number density = 20.496619 Si / 1000 Ang^3
#
#
#
# Elastic Constant Matrix: (Units=GPa)
#
#
# Indices 1 2 3 4 5 6 
#
# 1 126.3270 39.0423 50.4345 0.0000 -21.4484 0.0000
# 2 39.0423 96.4738 50.1207 0.0000 4.2026 0.0000
# 3 50.4345 50.1207 98.3555 0.0000 -10.6209 0.0000
# 4 0.0000 0.0000 0.0000 15.5996 0.0000 1.0300
# 5 -21.4484 4.2026 -10.6209 0.0000 30.7186 0.0000
# 6 0.0000 0.0000 0.0000 1.0300 0.0000 18.5169
#
#
#
# Elastic Compliance Matrix: (Units=1/GPa)
#
#
# Indices 1 2 3 4 5 6 
#
# 1 0.011529 -0.003153 -0.003521 0.000000 0.007264 0.000000
# 2 -0.003153 0.015610 -0.007070 0.000000 -0.006782 0.000000
# 3 -0.003521 -0.007070 0.016012 0.000000 0.004045 0.000000
# 4 0.000000 0.000000 0.000000 0.064341 0.000000 -0.003579
# 5 0.007264 -0.006782 0.004045 0.000000 0.039952 0.000000
# 6 0.000000 0.000000 0.000000 -0.003579 0.000000 0.054204
#
#
# Mechanical properties :
#
#
# Convention : Reuss Voigt Hill
#
# Bulk Modulus (GPa) = 63.84244 66.70569 65.27406
# Shear Modulus (GPa) = 21.33487 25.07092 23.20290
#
# Velocity S-wave (km/s) = 3.22979 3.50118 3.36822
# Velocity P-wave (km/s) = 6.71745 6.99713 6.85871
#
# Compressibility (1/GPa) = 0.01566356
#
# Stress axis : x y z
#
# Youngs Moduli (GPa) = 86.73427 64.06076 62.45200
#
# Poissons Ratio (x) = 0.20200 0.21988
# Poissons Ratio (y) = 0.27349 0.44155
# Poissons Ratio (z) = 0.30537 0.45292
#
# Static dielectric constant tensor:
#      x y z
#    x 4.111680 0.000000 -0.271940 
#    y 0.000000 3.526480 0.000000 
#    z -0.271940 0.000000 3.722790 
# 
# 
# High freq. dielectric constant tensor:
#      x y z
#    x 1.825480 0.000000 -0.014630 
#    y 0.000000 1.784350 0.000000 
#    z -0.014630 0.000000 1.796650 
# 
# From -- ./inp_files/61270.got.cif
#   From: 2010.06.25/outbox.cif.g09.slc.cpg/sg10_31_cif.got.tgz:61270.got - 2010.06.27 22:07:45.
