data_PCOD8065545
_publ_section_title
;
Structure prediction by ZEFSAII (Michael W. Deem and Ramdas Pophale) SiO2 
 PCOD8065545
Probable space group: P 2/M
;
_chemical_formula_sum "Si O2"
_cell_formula_units_Z 28
_cell_length_a 21.767646
_cell_length_b 7.715974
_cell_length_c 16.192022
_cell_angle_alpha 90.000000
_cell_angle_beta 150.133656
_cell_angle_gamma 90.000000
_cell_volume 1354.296762
_symmetry_space_group_name_H-M "P 2/M"
_symmetry_group_IT_number 10
_symmetry_cell_setting 'monoclinic'
loop_
_space_group_symop_operation_xyz
x,y,z
-x,y,-z
-x,-y,-z
x,-y,z
loop_
_atom_site_type_symbol
_atom_site_label
_atom_site_fract_x
_atom_site_fract_y
_atom_site_fract_z
Si Si1 0.944051 0.794928 0.196554
Si Si2 0.269856 0.297667 0.938867
Si Si3 0.359497 0.000000 0.737713
Si Si4 0.556064 0.303258 0.712796
Si Si5 0.715379 0.702675 0.616136
Si Si6 0.214616 0.696859 0.482727
Si Si7 0.764093 0.802955 0.847483
Si Si8 0.351431 0.000000 0.920485
O O1 0.867877 0.727922 0.186621
O O2 0.077152 0.707643 0.357335
O O3 0.961151 0.000000 0.218876
O O4 0.877444 0.729724 0.034293
O O5 0.290348 0.500000 0.939317
O O6 0.288680 0.175448 0.881806
O O7 0.365009 0.225755 0.119279
O O8 0.305503 0.174784 0.635756
O O9 0.325060 0.000000 0.793155
O O10 0.504478 0.000000 0.890962
O O11 0.529582 0.500000 0.704659
O O12 0.422423 0.212684 0.548254
O O13 0.635417 0.290822 0.721099
O O14 0.707909 0.500000 0.623769
O O15 0.787475 0.748973 0.616567
O O16 0.790209 0.782627 0.780616
O O17 0.264361 0.500000 0.551749
O O18 0.746003 0.000000 0.852027
#
# Coordination Sequence:
#
# PCOD8065545 Si02
#       8
#     4   4   2   4   4   4   4   2
#     4  10  20  40  63  88 125 166 209 256 303 353
#     4  10  20  38  66  96 125 161 205 251 300 364
#     4  11  26  45  67  95 130 159 189 248 307 367
#     4   9  18  33  53  79 117 160 199 249 305 353
#     4  10  21  35  52  79 117 160 207 254 299 355
#     4  11  24  43  65  89 121 168 212 247 302 364
#     4  10  21  32  51  84 117 156 206 256 302 348
#     4  11  24  43  69 100 126 156 192 239 312 374
#
# _framework density 20.674937
#
# number of rings (size 3 to 8) (size 9 to 14) (size 15 to 20)
#    0.000    1.857    1.429    2.143    2.000    6.857 
#    0.000    5.714    0.000    1.714    0.000    0.000 
#    0.000    0.000    0.000    0.000    0.000    0.000 
#
# Total GULP energy -347204.056752 kJ/mol
# GULP energy per Si atom -12400.144884 kJ/mol
# Density = 2.062788 g / cm^3
# Si number density = 20.674937 Si / 1000 Ang^3
#
#
#
# Elastic Constant Matrix: (Units=GPa)
#
#
# Indices 1 2 3 4 5 6 
#
# 1 115.9959 43.6871 29.1306 0.0000 -8.7011 0.0000
# 2 43.6871 99.4367 30.7125 0.0000 -8.0134 0.0000
# 3 29.1306 30.7125 45.9805 0.0000 0.5172 0.0000
# 4 0.0000 0.0000 0.0000 20.6129 0.0000 -1.2369
# 5 -8.7011 -8.0134 0.5172 0.0000 28.8726 0.0000
# 6 0.0000 0.0000 0.0000 -1.2369 0.0000 29.1792
#
#
#
# Elastic Compliance Matrix: (Units=1/GPa)
#
#
# Indices 1 2 3 4 5 6 
#
# 1 0.011285 -0.003189 -0.005049 0.000000 0.002607 0.000000
# 2 -0.003189 0.013972 -0.007347 0.000000 0.003049 0.000000
# 3 -0.005049 -0.007347 0.029901 0.000000 -0.004096 0.000000
# 4 0.000000 0.000000 0.000000 0.048637 0.000000 0.002062
# 5 0.002607 0.003049 -0.004096 0.000000 0.036340 0.000000
# 6 0.000000 0.000000 0.000000 0.002062 0.000000 0.034358
#
#
# Mechanical properties :
#
#
# Convention : Reuss Voigt Hill
#
# Bulk Modulus (GPa) = 41.68605 52.05259 46.86932
# Shear Modulus (GPa) = 23.40161 26.25846 24.83004
#
# Velocity S-wave (km/s) = 3.36800 3.56766 3.46927
# Velocity P-wave (km/s) = 5.94398 6.49633 6.22628
#
# Compressibility (1/GPa) = 0.02398884
#
# Stress axis : x y z
#
# Youngs Moduli (GPa) = 88.60931 71.56924 33.44388
#
# Poissons Ratio (x) = 0.22821 0.16887
# Poissons Ratio (y) = 0.28254 0.24571
# Poissons Ratio (z) = 0.44742 0.52582
#
# Static dielectric constant tensor:
#      x y z
#    x 3.687130 0.000000 0.075810 
#    y 0.000000 3.648820 0.000000 
#    z 0.075810 0.000000 3.666020 
# 
# 
# High freq. dielectric constant tensor:
#      x y z
#    x 1.804770 0.000000 0.008600 
#    y 0.000000 1.811050 0.000000 
#    z 0.008600 0.000000 1.790590 
# 
# From -- ./inp_files/70347.got.cif
#   From: 2010.06.25/outbox.cif.g09.slc.cpg/sg10_36_cif.got.tgz:70347.got - 2010.06.27 22:07:45.
