data_PCOD8065513
_publ_section_title
;
Structure prediction by ZEFSAII (Michael W. Deem and Ramdas Pophale) SiO2 
 PCOD8065513
Probable space group: P 2/M
;
_chemical_formula_sum "Si O2"
_cell_formula_units_Z 28
_cell_length_a 9.207292
_cell_length_b 8.079384
_cell_length_c 31.777378
_cell_angle_alpha 90.000000
_cell_angle_beta 36.185128
_cell_angle_gamma 90.000000
_cell_volume 1395.634742
_symmetry_space_group_name_H-M "P 2/M"
_symmetry_group_IT_number 10
_symmetry_cell_setting 'monoclinic'
loop_
_space_group_symop_operation_xyz
x,y,z
-x,y,-z
-x,-y,-z
x,-y,z
loop_
_atom_site_type_symbol
_atom_site_label
_atom_site_fract_x
_atom_site_fract_y
_atom_site_fract_z
Si Si1 0.742781 0.500000 0.538841
Si Si2 0.712612 0.193227 0.068890
Si Si3 0.842635 0.808826 0.207750
Si Si4 0.213899 0.500000 0.565509
Si Si5 0.291129 0.680477 0.671746
Si Si6 0.615150 0.691035 0.929616
Si Si7 0.984255 0.186790 0.338724
Si Si8 0.445445 0.192091 0.804605
O O1 0.855378 0.500000 0.466278
O O2 0.576768 0.662742 0.589192
O O3 0.000000 0.500000 0.500000
O O4 0.579430 0.287361 0.062194
O O5 0.621602 0.270174 0.134503
O O6 0.648537 0.000000 0.079457
O O7 0.000000 0.227771 0.000000
O O8 0.715633 0.728902 0.278034
O O9 0.717718 0.729130 0.195067
O O10 0.135332 0.787690 0.139168
O O11 0.775003 0.000000 0.225423
O O12 0.500000 0.500000 0.500000
O O13 0.127185 0.329775 0.606706
O O14 0.162853 0.500000 0.696661
O O15 0.138655 0.808529 0.678916
O O16 0.683940 0.500000 0.918858
O O17 0.500000 0.760883 0.000000
O O18 0.270852 0.225262 0.269977
O O19 0.939081 0.000000 0.367093
O O20 0.378833 0.000000 0.823101
#
# Coordination Sequence:
#
# PCOD8065513 Si02
#       8
#     2   4   4   2   4   4   4   4
#     4  10  24  42  66  92 131 166 203 256 312 384
#     4  10  20  38  64  89 117 158 206 256 309 363
#     4  11  22  39  62  89 123 161 210 260 309 371
#     4  12  22  46  64  98 127 162 215 254 314 384
#     4  10  21  40  61  91 125 163 206 250 311 378
#     4  11  24  40  58  86 125 164 206 254 313 377
#     4  11  22  40  67  94 127 167 210 261 315 374
#     4   9  21  38  58  91 124 157 206 258 308 371
#
# _framework density 20.062557000000002
#
# number of rings (size 3 to 8) (size 9 to 14) (size 15 to 20)
#    0.429    1.143    2.143    3.000    2.000    4.000 
#    2.571    0.000    0.000    2.143    0.000    0.000 
#    0.000    0.000    0.000    0.000    0.000    0.000 
#
# Total GULP energy -347085.298996 kJ/mol
# GULP energy per Si atom -12395.903536 kJ/mol
# Density = 2.001689 g / cm^3
# Si number density = 20.062557 Si / 1000 Ang^3
#
#
#
# Elastic Constant Matrix: (Units=GPa)
#
#
# Indices 1 2 3 4 5 6 
#
# 1 157.3956 22.3757 63.9029 0.0000 10.1646 0.0000
# 2 22.3757 77.7684 47.2467 0.0000 2.5509 0.0000
# 3 63.9029 47.2467 121.4858 0.0000 19.3211 0.0000
# 4 0.0000 0.0000 0.0000 27.1531 0.0000 -2.1379
# 5 10.1646 2.5509 19.3211 0.0000 44.3478 0.0000
# 6 0.0000 0.0000 0.0000 -2.1379 0.0000 2.4651
#
#
#
# Elastic Compliance Matrix: (Units=1/GPa)
#
#
# Indices 1 2 3 4 5 6 
#
# 1 0.008086 0.000341 -0.004392 0.000000 0.000041 0.000000
# 2 0.000341 0.017022 -0.007125 0.000000 0.002047 0.000000
# 3 -0.004392 -0.007125 0.014062 0.000000 -0.004710 0.000000
# 4 0.000000 0.000000 0.000000 0.039527 0.000000 0.034281
# 5 0.000041 0.002047 -0.004710 0.000000 0.024474 0.000000
# 6 0.000000 0.000000 0.000000 0.034281 0.000000 0.435390
#
#
# Mechanical properties :
#
#
# Convention : Reuss Voigt Hill
#
# Bulk Modulus (GPa) = 59.46405 69.30004 64.38204
# Shear Modulus (GPa) = 8.82584 29.66816 19.24700
#
# Velocity S-wave (km/s) = 2.09969 3.84967 3.10070
# Velocity P-wave (km/s) = 5.96506 7.37407 6.70667
#
# Compressibility (1/GPa) = 0.01681688
#
# Stress axis : x y z
#
# Youngs Moduli (GPa) = 123.67771 58.74742 71.11607
#
# Poissons Ratio (x) = -0.02001 0.31234
# Poissons Ratio (y) = -0.04212 0.50668
# Poissons Ratio (z) = 0.54319 0.41856
#
# Static dielectric constant tensor:
#      x y z
#    x 3.466850 0.000000 -0.179550 
#    y 0.000000 3.359700 0.000000 
#    z -0.179550 0.000000 3.283630 
# 
# 
# High freq. dielectric constant tensor:
#      x y z
#    x 1.798310 0.000000 0.005590 
#    y 0.000000 1.766350 0.000000 
#    z 0.005590 0.000000 1.787840 
# 
# From -- ./inp_files/94516.got.cif
#   From: 2010.06.25/outbox.cif.g09.slc.cpg/sg10_48_cif.got.tgz:94516.got - 2010.06.27 22:07:45.
