data_PCOD8065214
_publ_section_title
;
Structure prediction by ZEFSAII (Michael W. Deem and Ramdas Pophale) SiO2 
 PCOD8065214
Probable space group: P 2/M
;
_chemical_formula_sum "Si O2"
_cell_formula_units_Z 28
_cell_length_a 12.560944
_cell_length_b 8.934421
_cell_length_c 16.030596
_cell_angle_alpha 90.000000
_cell_angle_beta 56.071091
_cell_angle_gamma 90.000000
_cell_volume 1492.710388
_symmetry_space_group_name_H-M "P 2/M"
_symmetry_group_IT_number 10
_symmetry_cell_setting 'monoclinic'
loop_
_space_group_symop_operation_xyz
x,y,z
-x,y,-z
-x,-y,-z
x,-y,z
loop_
_atom_site_type_symbol
_atom_site_label
_atom_site_fract_x
_atom_site_fract_y
_atom_site_fract_z
Si Si1 0.172826 0.826070 0.014850
Si Si2 0.813668 0.824038 0.583952
Si Si3 0.525602 0.826864 0.746810
Si Si4 0.999313 0.322093 0.376129
Si Si5 0.261083 0.828252 0.790806
Si Si6 0.050209 0.675332 0.791563
Si Si7 0.575054 0.673403 0.050892
O O1 0.041573 0.751769 0.101134
O O2 0.164355 0.000000 0.038037
O O3 0.193216 0.793918 0.908551
O O4 0.290901 0.759276 0.014940
O O5 0.662034 0.793419 0.645214
O O6 0.875481 0.743690 0.477280
O O7 0.872020 0.752459 0.642842
O O8 0.845006 0.000000 0.568883
O O9 0.412203 0.786646 0.731035
O O10 0.512998 0.728558 0.834874
O O11 0.511182 0.000000 0.779921
O O12 0.004395 0.500000 0.386645
O O13 0.988822 0.276278 0.284388
O O14 0.195391 0.727882 0.748107
O O15 0.242784 0.000000 0.773183
O O16 0.040346 0.500000 0.806913
O O17 0.605609 0.500000 0.049840
O O18 0.500000 0.707457 0.000000
#
# Coordination Sequence:
#
# PCOD8065214 Si02
#       7
#     4   4   4   4   4   4   4
#     4  10  21  36  55  78 108 147 186 225 272 319
#     4  10  20  37  61  85 107 137 182 226 271 328
#     4   9  20  37  57  81 108 141 180 224 273 324
#     4  10  22  38  55  80 113 144 176 223 277 325
#     4   9  19  37  56  78 109 144 182 223 271 324
#     4  11  23  36  54  81 112 144 185 228 270 324
#     4  10  21  34  50  78 113 145 181 221 263 322
#
# _framework density 18.757825
#
# number of rings (size 3 to 8) (size 9 to 14) (size 15 to 20)
#    0.000    2.143    0.000    4.286    2.000    9.143 
#    0.000    0.714    0.000    4.286    0.000    0.000 
#    0.000    0.000    0.000    0.000    0.000    0.000 
#
# Total GULP energy -347258.746628 kJ/mol
# GULP energy per Si atom -12402.098094 kJ/mol
# Density = 1.871513 g / cm^3
# Si number density = 18.757825 Si / 1000 Ang^3
#
#
#
# Elastic Constant Matrix: (Units=GPa)
#
#
# Indices 1 2 3 4 5 6 
#
# 1 117.1812 57.7267 53.4155 0.0000 -14.9281 0.0000
# 2 57.7267 73.9531 26.0360 0.0000 9.0125 0.0000
# 3 53.4155 26.0360 50.6149 0.0000 -9.7146 0.0000
# 4 0.0000 0.0000 0.0000 10.4388 0.0000 6.0776
# 5 -14.9281 9.0125 -9.7146 0.0000 26.0733 0.0000
# 6 0.0000 0.0000 0.0000 6.0776 0.0000 31.8225
#
#
#
# Elastic Compliance Matrix: (Units=1/GPa)
#
#
# Indices 1 2 3 4 5 6 
#
# 1 0.025510 -0.016028 -0.015951 0.000000 0.014202 0.000000
# 2 -0.016028 0.029135 -0.001903 0.000000 -0.019956 0.000000
# 3 -0.015951 -0.001903 0.038711 0.000000 0.005948 0.000000
# 4 0.000000 0.000000 0.000000 0.107781 0.000000 -0.020585
# 5 0.014202 -0.019956 0.005948 0.000000 0.055599 0.000000
# 6 0.000000 0.000000 0.000000 -0.020585 0.000000 0.035356
#
#
# Mechanical properties :
#
#
# Convention : Reuss Voigt Hill
#
# Bulk Modulus (GPa) = 39.07265 57.34506 48.20885
# Shear Modulus (GPa) = 13.57278 20.63833 17.10556
#
# Velocity S-wave (km/s) = 2.69286 3.32060 3.02307
# Velocity P-wave (km/s) = 5.52666 6.73346 6.15969
#
# Compressibility (1/GPa) = 0.02559335
#
# Stress axis : x y z
#
# Youngs Moduli (GPa) = 39.20085 34.32317 25.83269
#
# Poissons Ratio (x) = 0.55012 0.41205
# Poissons Ratio (y) = 0.62830 0.04915
# Poissons Ratio (z) = 0.62528 0.06530
#
# Static dielectric constant tensor:
#      x y z
#    x 3.639500 0.000000 -0.099450 
#    y 0.000000 3.517000 0.000000 
#    z -0.099450 0.000000 3.288870 
# 
# 
# High freq. dielectric constant tensor:
#      x y z
#    x 1.740340 0.000000 -0.006740 
#    y 0.000000 1.738790 0.000000 
#    z -0.006740 0.000000 1.708670 
# 
# From -- ./inp_files/63647.got.cif
#   From: 2010.06.25/outbox.cif.g09.slc.cpg/sg10_32_cif.got.tgz:63647.got - 2010.06.27 22:07:45.
