data_PCOD8065529
_publ_section_title
;
Structure prediction by ZEFSAII (Michael W. Deem and Ramdas Pophale) SiO2 
 PCOD8065529
Probable space group: P 2/M
;
_chemical_formula_sum "Si O2"
_cell_formula_units_Z 24
_cell_length_a 9.703329
_cell_length_b 13.905518
_cell_length_c 16.815907
_cell_angle_alpha 90.000000
_cell_angle_beta 148.873797
_cell_angle_gamma 90.000000
_cell_volume 1172.885595
_symmetry_space_group_name_H-M "P 2/M"
_symmetry_group_IT_number 10
_symmetry_cell_setting 'monoclinic'
loop_
_space_group_symop_operation_xyz
x,y,z
-x,y,-z
-x,-y,-z
x,-y,z
loop_
_atom_site_type_symbol
_atom_site_label
_atom_site_fract_x
_atom_site_fract_y
_atom_site_fract_z
Si Si1 0.494805 0.814349 0.656185
Si Si2 0.810219 0.000000 0.169104
Si Si3 0.140850 0.000000 0.487440
Si Si4 0.751668 0.336854 0.578138
Si Si5 0.976154 0.197174 0.170913
Si Si6 0.181938 0.500000 0.509648
Si Si7 0.282043 0.291751 0.093773
Si Si8 0.686212 0.500000 0.861454
O O1 0.334591 0.911008 0.579478
O O2 0.355736 0.753573 0.520801
O O3 0.793710 0.833249 0.776097
O O4 0.497097 0.760437 0.742426
O O5 0.917795 0.099136 0.186923
O O6 0.500000 0.000000 0.000000
O O7 0.904190 0.000000 0.306314
O O8 0.000000 0.000000 0.500000
O O9 0.500000 0.386244 0.500000
O O10 0.963185 0.290468 0.744043
O O11 0.884284 0.409462 0.580289
O O12 0.730070 0.232859 0.994536
O O13 0.496880 0.500000 0.688793
O O14 0.000000 0.500000 0.500000
O O15 0.379888 0.401453 0.123794
O O16 0.000000 0.297284 0.000000
O O17 0.000000 0.500000 0.000000
#
# Coordination Sequence:
#
# PCOD8065529 Si02
#       8
#     4   2   2   4   4   2   4   2
#     4  10  20  40  67  95 119 163 220 264 318 371
#     4  12  27  45  58  90 130 171 208 255 345 383
#     4  12  27  41  62  92 128 169 214 261 323 405
#     4  10  21  40  68  98 125 166 225 273 320 377
#     4  10  22  41  68  94 124 163 214 277 314 378
#     4  12  25  42  64 101 140 176 215 275 335 402
#     4   9  19  36  64  97 126 158 208 262 320 371
#     4  10  20  38  64  93 129 170 222 261 317 382
#
# _framework density 20.462354000000001
#
# number of rings (size 3 to 8) (size 9 to 14) (size 15 to 20)
#    0.000    1.667    3.333    0.750    4.667    2.000 
#    3.000    2.500    0.000    1.000    0.000    0.000 
#    0.000    0.000    0.000    0.000    0.000    0.000 
#
# Total GULP energy -297378.578194 kJ/mol
# GULP energy per Si atom -12390.774091 kJ/mol
# Density = 2.041578 g / cm^3
# Si number density = 20.462354 Si / 1000 Ang^3
#
#
#
# Elastic Constant Matrix: (Units=GPa)
#
#
# Indices 1 2 3 4 5 6 
#
# 1 91.7718 54.2624 31.5706 0.0000 -18.0271 0.0000
# 2 54.2624 122.1534 41.2782 0.0000 -7.8565 0.0000
# 3 31.5706 41.2782 116.2989 0.0000 -21.1970 0.0000
# 4 0.0000 0.0000 0.0000 40.8687 0.0000 -22.0512
# 5 -18.0271 -7.8565 -21.1970 0.0000 30.4080 0.0000
# 6 0.0000 0.0000 0.0000 -22.0512 0.0000 2.3828
#
#
#
# Elastic Compliance Matrix: (Units=1/GPa)
#
#
# Indices 1 2 3 4 5 6 
#
# 1 0.016555 -0.006607 -0.000769 0.000000 0.007571 0.000000
# 2 -0.006607 0.011939 -0.002974 0.000000 -0.002905 0.000000
# 3 -0.000769 -0.002974 0.011043 0.000000 0.006473 0.000000
# 4 0.000000 0.000000 0.000000 -0.006127 0.000000 -0.056705
# 5 0.007571 -0.002905 0.006473 0.000000 0.041137 0.000000
# 6 0.000000 0.000000 0.000000 -0.056705 0.000000 -0.105095
#
#
# Mechanical properties :
#
#
# Convention : Reuss Voigt Hill
#
# Bulk Modulus (GPa) = 53.08531 64.93850 59.01191
# Shear Modulus (GPa) = -1400.58990 28.27277 -686.15857
#
# Velocity S-wave (km/s) = -26.19079 3.72115 -18.33181
# Velocity P-wave (km/s) = 29.80957 7.08993 20.47369
#
# Compressibility (1/GPa) = 0.01883760
#
# Stress axis : x y z
#
# Youngs Moduli (GPa) = 60.40435 83.75600 90.55863
#
# Poissons Ratio (x) = 0.55339 0.06964
# Poissons Ratio (y) = 0.39910 0.26928
# Poissons Ratio (z) = 0.04645 0.24905
#
# Static dielectric constant tensor:
#      x y z
#    x 2.336880 0.000000 -0.430330 
#    y 0.000000 3.369070 0.000000 
#    z -0.430330 0.000000 3.962530 
# 
# 
# High freq. dielectric constant tensor:
#      x y z
#    x 1.765720 0.000000 -0.018810 
#    y 0.000000 1.816410 0.000000 
#    z -0.018810 0.000000 1.810530 
# 
# From -- ./inp_files/62019.got.cif
#   From: 2010.06.25/outbox.cif.g09.slc.cpg/sg10_32_cif.got.tgz:62019.got - 2010.06.27 22:07:45.
