data_PCOD8065175
_publ_section_title
;
Structure prediction by ZEFSAII (Michael W. Deem and Ramdas Pophale) SiO2 
 PCOD8065175
Probable space group: P 2/M
;
_chemical_formula_sum "Si O2"
_cell_formula_units_Z 26
_cell_length_a 18.627230
_cell_length_b 10.367799
_cell_length_c 8.462489
_cell_angle_alpha 90.000000
_cell_angle_beta 51.079483
_cell_angle_gamma 90.000000
_cell_volume 1271.518658
_symmetry_space_group_name_H-M "P 2/M"
_symmetry_group_IT_number 10
_symmetry_cell_setting 'monoclinic'
loop_
_space_group_symop_operation_xyz
x,y,z
-x,y,-z
-x,-y,-z
x,-y,z
loop_
_atom_site_type_symbol
_atom_site_label
_atom_site_fract_x
_atom_site_fract_y
_atom_site_fract_z
Si Si1 0.687385 0.852381 0.709274
Si Si2 0.188504 0.735107 0.894421
Si Si3 0.500000 0.272767 0.500000
Si Si4 0.351314 0.361213 0.476115
Si Si5 0.112323 0.855261 0.697900
Si Si6 0.012013 0.646810 0.300319
Si Si7 0.659967 0.851119 0.093454
O O1 0.634866 0.760111 0.658409
O O2 0.796270 0.846013 0.532845
O O3 0.651612 0.000000 0.734743
O O4 0.667454 0.790216 0.908160
O O5 0.252714 0.641941 0.701123
O O6 0.132943 0.830412 0.854186
O O7 0.253963 0.816802 0.917002
O O8 0.118819 0.654010 0.100207
O O9 0.434412 0.362262 0.486114
O O10 0.437498 0.182853 0.696084
O O11 0.354714 0.500000 0.382379
O O12 0.043333 0.746795 0.730659
O O13 0.070107 0.000000 0.740887
O O14 0.976706 0.500000 0.321150
O O15 0.000000 0.685256 0.500000
O O16 0.665282 0.000000 0.054453
#
# Coordination Sequence:
#
# PCOD8065175 Si02
#       7
#     4   4   2   4   4   4   4
#     4   9  20  38  59  85 115 148 186 230 279 331
#     4  10  21  37  59  84 111 148 189 232 279 331
#     4  10  22  36  56  86 113 146 187 232 279 334
#     4  10  21  39  60  82 112 149 189 231 279 334
#     4  10  21  37  59  86 114 146 188 234 279 329
#     4  11  24  39  56  82 116 152 190 231 277 331
#     4  10  20  37  60  85 115 148 184 229 282 337
#
# _framework density 20.447990000000001
#
# number of rings (size 3 to 8) (size 9 to 14) (size 15 to 20)
#    0.000    2.000    0.000    2.769    0.000   10.769 
#    0.000    6.923    0.000    0.000    0.000    0.000 
#    0.000    0.000    0.000    0.000    0.000    0.000 
#
# Total GULP energy -322335.578574 kJ/mol
# GULP energy per Si atom -12397.522253 kJ/mol
# Density = 2.040145 g / cm^3
# Si number density = 20.447990 Si / 1000 Ang^3
#
#
#
# Elastic Constant Matrix: (Units=GPa)
#
#
# Indices 1 2 3 4 5 6 
#
# 1 95.5311 55.9245 55.0472 0.0000 2.9975 0.0000
# 2 55.9245 119.8435 40.2542 0.0000 6.8144 0.0000
# 3 55.0472 40.2542 125.6408 0.0000 22.6783 0.0000
# 4 0.0000 0.0000 0.0000 16.7526 0.0000 5.3665
# 5 2.9975 6.8144 22.6783 0.0000 23.4085 0.0000
# 6 0.0000 0.0000 0.0000 5.3665 0.0000 3.2150
#
#
#
# Elastic Compliance Matrix: (Units=1/GPa)
#
#
# Indices 1 2 3 4 5 6 
#
# 1 0.018074 -0.006444 -0.006999 0.000000 0.006342 0.000000
# 2 -0.006444 0.011649 -0.000540 0.000000 -0.002043 0.000000
# 3 -0.006999 -0.000540 0.013342 0.000000 -0.011872 0.000000
# 4 0.000000 0.000000 0.000000 0.128291 0.000000 -0.214146
# 5 0.006342 -0.002043 -0.011872 0.000000 0.054004 0.000000
# 6 0.000000 0.000000 0.000000 -0.214146 0.000000 0.668498
#
#
# Mechanical properties :
#
#
# Convention : Reuss Voigt Hill
#
# Bulk Modulus (GPa) = 66.23262 71.49633 68.86447
# Shear Modulus (GPa) = 5.39458 21.32785 13.36121
#
# Velocity S-wave (km/s) = 1.62601 3.23310 2.55899
# Velocity P-wave (km/s) = 5.99886 6.99844 6.51784
#
# Compressibility (1/GPa) = 0.01509830
#
# Stress axis : x y z
#
# Youngs Moduli (GPa) = 55.32775 85.84549 74.95307
#
# Poissons Ratio (x) = 0.55318 0.52460
# Poissons Ratio (y) = 0.35653 0.04049
# Poissons Ratio (z) = 0.38724 0.04637
#
# Static dielectric constant tensor:
#      x y z
#    x 3.619870 0.000000 0.021350 
#    y 0.000000 3.602230 0.000000 
#    z 0.021350 0.000000 3.934920 
# 
# 
# High freq. dielectric constant tensor:
#      x y z
#    x 1.794160 0.000000 0.000770 
#    y 0.000000 1.796300 0.000000 
#    z 0.000770 0.000000 1.809720 
# 
# From -- ./inp_files/34177.got.cif
#   From: 2010.06.25/outbox.cif.g09.slc.cpg/sg10_18_cif.got.tgz:34177.got - 2010.06.27 22:07:45.
