data_PCOD8065428
_publ_section_title
;
Structure prediction by ZEFSAII (Michael W. Deem and Ramdas Pophale) SiO2 
 PCOD8065428
Probable space group: P 2/M
;
_chemical_formula_sum "Si O2"
_cell_formula_units_Z 32
_cell_length_a 12.625233
_cell_length_b 18.363800
_cell_length_c 9.174586
_cell_angle_alpha 90.000000
_cell_angle_beta 49.982073
_cell_angle_gamma 90.000000
_cell_volume 1629.027223
_symmetry_space_group_name_H-M "P 2/M"
_symmetry_group_IT_number 10
_symmetry_cell_setting 'monoclinic'
loop_
_space_group_symop_operation_xyz
x,y,z
-x,y,-z
-x,-y,-z
x,-y,z
loop_
_atom_site_type_symbol
_atom_site_label
_atom_site_fract_x
_atom_site_fract_y
_atom_site_fract_z
Si Si1 0.638617 0.839998 0.786218
Si Si2 0.889503 0.580767 0.720443
Si Si3 0.646483 0.325903 0.796474
Si Si4 0.364477 0.664001 0.530424
Si Si5 0.117166 0.084938 0.290051
Si Si6 0.089024 0.420098 0.781965
Si Si7 0.147550 0.918948 0.938778
Si Si8 0.639675 0.834512 0.447675
O O1 0.695257 0.757998 0.756831
O O2 0.738672 0.900472 0.761159
O O3 0.626989 0.858689 0.626335
O O4 0.500000 0.849362 0.000000
O O5 0.834475 0.500000 0.816699
O O6 0.760614 0.629170 0.783837
O O7 0.000000 0.570228 0.500000
O O8 0.981677 0.619358 0.765550
O O9 0.623403 0.352957 0.651936
O O10 0.500000 0.337209 0.000000
O O11 0.500000 0.635374 0.500000
O O12 0.225121 0.624696 0.705405
O O13 0.344170 0.748407 0.582016
O O14 0.000000 0.120438 0.500000
O O15 0.086008 0.000000 0.301750
O O16 0.126859 0.117964 0.117407
O O17 0.133471 0.500000 0.679695
O O18 0.000000 0.433070 0.000000
O O19 0.235687 0.869897 0.751365
O O20 0.214576 0.000000 0.893763
O O21 0.000000 0.926601 0.000000
O O22 0.500000 0.863051 0.500000
#
# Coordination Sequence:
#
# PCOD8065428 Si02
#       8
#     4   4   4   4   4   4   4   4
#     4  10  21  38  57  82 115 150 188 237 286 336
#     4  10  20  38  61  83 115 153 191 240 287 340
#     4  10  22  38  58  86 116 150 193 237 286 343
#     4  10  22  39  58  84 117 152 191 238 288 341
#     4  10  21  38  59  85 116 149 187 233 285 339
#     4  10  22  40  59  84 117 152 193 238 288 343
#     4  10  21  38  59  84 115 149 189 235 281 337
#     4  10  21  38  58  82 114 150 192 235 281 340
#
# _framework density 19.643623999999999
#
# number of rings (size 3 to 8) (size 9 to 14) (size 15 to 20)
#    0.000    2.000    1.250    1.500    1.750    4.500 
#    2.250    0.000    0.000    0.000    0.000    0.000 
#    0.000    0.000    0.000    0.000    0.000    0.000 
#
# Total GULP energy -396553.566002 kJ/mol
# GULP energy per Si atom -12392.298938 kJ/mol
# Density = 1.959891 g / cm^3
# Si number density = 19.643624 Si / 1000 Ang^3
#
#
#
# Elastic Constant Matrix: (Units=GPa)
#
#
# Indices 1 2 3 4 5 6 
#
# 1 151.9383 34.2916 52.0486 0.0000 6.6014 0.0000
# 2 34.2916 34.5474 35.4803 0.0000 -2.9772 0.0000
# 3 52.0486 35.4803 132.5732 0.0000 9.5847 0.0000
# 4 0.0000 0.0000 0.0000 22.7917 0.0000 -9.4996
# 5 6.6014 -2.9772 9.5847 0.0000 33.3991 0.0000
# 6 0.0000 0.0000 0.0000 -9.4996 0.0000 42.0485
#
#
#
# Elastic Compliance Matrix: (Units=1/GPa)
#
#
# Indices 1 2 3 4 5 6 
#
# 1 0.008831 -0.007633 -0.001275 0.000000 -0.002060 0.000000
# 2 -0.007633 0.048070 -0.010505 0.000000 0.008808 0.000000
# 3 -0.001275 -0.010505 0.011136 0.000000 -0.003880 0.000000
# 4 0.000000 0.000000 0.000000 0.048437 0.000000 0.010943
# 5 -0.002060 0.008808 -0.003880 0.000000 0.032247 0.000000
# 6 0.000000 0.000000 0.000000 0.010943 0.000000 0.026254
#
#
# Mechanical properties :
#
#
# Convention : Reuss Voigt Hill
#
# Bulk Modulus (GPa) = 34.23517 62.52221 48.37869
# Shear Modulus (GPa) = 22.36768 32.79709 27.58238
#
# Velocity S-wave (km/s) = 3.37808 4.09051 3.75125
# Velocity P-wave (km/s) = 5.71675 7.36255 6.59122
#
# Compressibility (1/GPa) = 0.02920972
#
# Stress axis : x y z
#
# Youngs Moduli (GPa) = 113.24103 20.80301 89.80263
#
# Poissons Ratio (x) = 0.15879 0.11451
# Poissons Ratio (y) = 0.86440 0.94336
# Poissons Ratio (z) = 0.14440 0.21853
#
# Static dielectric constant tensor:
#      x y z
#    x 3.583420 0.000000 0.181940 
#    y 0.000000 3.486470 0.000000 
#    z 0.181940 0.000000 3.657490 
# 
# 
# High freq. dielectric constant tensor:
#      x y z
#    x 1.777830 0.000000 0.010040 
#    y 0.000000 1.746460 0.000000 
#    z 0.010040 0.000000 1.776840 
# 
# From -- ./inp_files/26044.got.cif
#   From: 2010.06.25/outbox.cif.g09.slc.cpg/sg10_14_cif.got.tgz:26044.got - 2010.06.27 22:07:45.
