data_PCOD8065220
_publ_section_title
;
Structure prediction by ZEFSAII (Michael W. Deem and Ramdas Pophale) SiO2 
 PCOD8065220
Probable space group: P 2/M
;
_chemical_formula_sum "Si O2"
_cell_formula_units_Z 32
_cell_length_a 12.235926
_cell_length_b 14.081345
_cell_length_c 17.996818
_cell_angle_alpha 90.000000
_cell_angle_beta 33.173363
_cell_angle_gamma 90.000000
_cell_volume 1696.689129
_symmetry_space_group_name_H-M "P 2/M"
_symmetry_group_IT_number 10
_symmetry_cell_setting 'monoclinic'
loop_
_space_group_symop_operation_xyz
x,y,z
-x,y,-z
-x,-y,-z
x,-y,z
loop_
_atom_site_type_symbol
_atom_site_label
_atom_site_fract_x
_atom_site_fract_y
_atom_site_fract_z
Si Si1 0.296246 0.610098 0.155026
Si Si2 0.420524 0.107578 0.298821
Si Si3 0.170120 0.400869 0.844437
Si Si4 0.915864 0.893319 0.390945
Si Si5 0.829980 0.759317 0.657389
Si Si6 0.087772 0.605966 0.726163
Si Si7 0.787527 0.801152 0.160704
Si Si8 0.269810 0.199131 0.637925
O O1 0.314671 0.500000 0.166386
O O2 0.257996 0.665101 0.254258
O O3 0.117072 0.628375 0.199507
O O4 0.500000 0.645848 0.000000
O O5 0.285384 0.118659 0.447916
O O6 0.349979 0.181587 0.276801
O O7 0.644875 0.130084 0.196190
O O8 0.411037 0.000000 0.272811
O O9 0.299228 0.500000 0.770489
O O10 0.049716 0.390719 0.835711
O O11 0.301412 0.307614 0.788225
O O12 0.000000 0.411645 0.000000
O O13 0.865537 0.868763 0.335176
O O14 0.084319 0.824428 0.326137
O O15 0.999267 0.000000 0.348682
O O16 0.000000 0.732697 0.500000
O O17 0.168840 0.500000 0.656439
O O18 0.245242 0.691425 0.622356
O O19 0.807330 0.827160 0.235960
O O20 0.000000 0.805624 0.000000
O O21 0.500000 0.171751 0.500000
#
# Coordination Sequence:
#
# PCOD8065220 Si02
#       8
#     4   4   4   4   4   4   4   4
#     4  10  21  37  60  88 118 155 191 226 283 344
#     4  10  21  38  59  82 113 151 191 239 292 346
#     4   8  15  29  50  76 107 144 185 221 265 328
#     4  10  20  37  61  86 108 144 196 245 291 340
#     4  10  21  39  63  85 112 148 195 243 287 335
#     4   9  18  33  53  79 116 151 183 231 282 336
#     4  10  21  35  54  82 117 151 184 228 290 341
#     4  11  20  34  59  84 111 146 192 234 283 342
#
# _framework density 18.860261000000001
#
# number of rings (size 3 to 8) (size 9 to 14) (size 15 to 20)
#    0.000    2.250    2.500    0.375    0.000    6.000 
#    0.000    1.875    0.000    1.500    0.000    0.000 
#    0.000    0.000    0.000    0.000    0.000    0.000 
#
# Total GULP energy -396532.257680 kJ/mol
# GULP energy per Si atom -12391.633052 kJ/mol
# Density = 1.881733 g / cm^3
# Si number density = 18.860261 Si / 1000 Ang^3
#
#
#
# Elastic Constant Matrix: (Units=GPa)
#
#
# Indices 1 2 3 4 5 6 
#
# 1 94.0043 40.9624 36.5953 0.0000 4.8168 0.0000
# 2 40.9624 88.4186 35.6225 0.0000 7.5952 0.0000
# 3 36.5953 35.6225 68.2692 0.0000 8.0012 0.0000
# 4 0.0000 0.0000 0.0000 19.9554 0.0000 -1.0218
# 5 4.8168 7.5952 8.0012 0.0000 25.7850 0.0000
# 6 0.0000 0.0000 0.0000 -1.0218 0.0000 28.1114
#
#
#
# Elastic Compliance Matrix: (Units=1/GPa)
#
#
# Indices 1 2 3 4 5 6 
#
# 1 0.014809 -0.004653 -0.005548 0.000000 0.000326 0.000000
# 2 -0.004653 0.015880 -0.005547 0.000000 -0.002087 0.000000
# 3 -0.005548 -0.005547 0.020966 0.000000 -0.003835 0.000000
# 4 0.000000 0.000000 0.000000 0.050205 0.000000 0.001825
# 5 0.000326 -0.002087 -0.003835 0.000000 0.040526 0.000000
# 6 0.000000 0.000000 0.000000 0.001825 0.000000 0.035639
#
#
# Mechanical properties :
#
#
# Convention : Reuss Voigt Hill
#
# Bulk Modulus (GPa) = 49.60987 53.00582 51.30785
# Shear Modulus (GPa) = 23.12235 23.93780 23.53007
#
# Velocity S-wave (km/s) = 3.50520 3.56647 3.53597
# Velocity P-wave (km/s) = 6.53781 6.71753 6.62828
#
# Compressibility (1/GPa) = 0.02015728
#
# Stress axis : x y z
#
# Youngs Moduli (GPa) = 67.52803 62.97376 47.69642
#
# Poissons Ratio (x) = 0.29303 0.26463
# Poissons Ratio (y) = 0.31422 0.26457
# Poissons Ratio (z) = 0.37467 0.34931
#
# Static dielectric constant tensor:
#      x y z
#    x 3.521890 0.000000 0.080450 
#    y 0.000000 3.916990 0.000000 
#    z 0.080450 0.000000 3.165760 
# 
# 
# High freq. dielectric constant tensor:
#      x y z
#    x 1.735980 0.000000 0.010290 
#    y 0.000000 1.745380 0.000000 
#    z 0.010290 0.000000 1.701060 
# 
# From -- ./inp_files/76982.got.cif
#   From: 2010.06.25/outbox.cif.g09.slc.cpg/sg10_39_cif.got.tgz:76982.got - 2010.06.27 22:07:45.
