data_PCOD8065548
_publ_section_title
;
Structure prediction by ZEFSAII (Michael W. Deem and Ramdas Pophale) SiO2 
 PCOD8065548
Probable space group: P 2/M
;
_chemical_formula_sum "Si O2"
_cell_formula_units_Z 32
_cell_length_a 13.684839
_cell_length_b 17.630882
_cell_length_c 11.276882
_cell_angle_alpha 90.000000
_cell_angle_beta 32.928840
_cell_angle_gamma 90.000000
_cell_volume 1479.039673
_symmetry_space_group_name_H-M "P 2/M"
_symmetry_group_IT_number 10
_symmetry_cell_setting 'monoclinic'
loop_
_space_group_symop_operation_xyz
x,y,z
-x,y,-z
-x,-y,-z
x,-y,z
loop_
_atom_site_type_symbol
_atom_site_label
_atom_site_fract_x
_atom_site_fract_y
_atom_site_fract_z
Si Si1 0.980910 0.177334 0.156868
Si Si2 0.593462 0.587704 0.521051
Si Si3 0.902560 0.662046 0.330200
Si Si4 0.205359 0.087213 0.289236
Si Si5 0.696515 0.352347 0.012352
Si Si6 0.673017 0.913311 0.568012
Si Si7 0.796774 0.415237 0.667794
Si Si8 0.668261 0.174706 0.061642
O O1 0.907368 0.247870 0.308734
O O2 0.843673 0.108195 0.313639
O O3 0.170387 0.150746 0.016407
O O4 0.000000 0.199636 0.000000
O O5 0.500000 0.623613 0.500000
O O6 0.633672 0.500000 0.461578
O O7 0.789127 0.626380 0.337660
O O8 0.455465 0.599107 0.768932
O O9 0.787600 0.640607 0.564377
O O10 0.106477 0.629901 0.131402
O O11 0.287638 0.099376 0.333966
O O12 0.310955 0.139281 0.089790
O O13 0.000000 0.114043 0.500000
O O14 0.222053 0.000000 0.230647
O O15 0.683183 0.377776 0.889257
O O16 0.649307 0.264430 0.070834
O O17 0.623485 0.000000 0.591710
O O18 0.509201 0.859418 0.696993
O O19 0.723985 0.500000 0.710381
O O20 0.000000 0.422607 0.500000
#
# Coordination Sequence:
#
# PCOD8065548 Si02
#       8
#     4   4   4   4   4   4   4   4
#     4  11  26  44  66  94 126 173 225 272 323 388
#     4  11  25  42  63  93 128 170 223 269 309 376
#     4  10  23  42  67  89 126 171 210 263 328 384
#     4  10  20  38  67  98 135 173 209 262 325 391
#     4  10  23  40  64  96 130 170 208 267 325 384
#     4  11  24  43  68  98 132 172 213 267 329 388
#     4   9  18  36  64  95 126 160 205 259 323 391
#     4  11  23  40  66  97 131 172 218 268 325 390
#
# _framework density 21.635659
#
# number of rings (size 3 to 8) (size 9 to 14) (size 15 to 20)
#    0.000    1.625    1.250    2.250    5.250    4.750 
#    2.250    3.125    0.000    0.000    0.000    0.000 
#    0.000    0.000    0.000    0.000    0.000    0.000 
#
# Total GULP energy -396912.392934 kJ/mol
# GULP energy per Si atom -12403.512279 kJ/mol
# Density = 2.158642 g / cm^3
# Si number density = 21.635659 Si / 1000 Ang^3
#
#
#
# Elastic Constant Matrix: (Units=GPa)
#
#
# Indices 1 2 3 4 5 6 
#
# 1 101.2820 47.2911 37.5613 0.0000 -7.6255 0.0000
# 2 47.2911 90.1330 35.1130 0.0000 -5.0677 0.0000
# 3 37.5613 35.1130 70.3755 0.0000 -4.9882 0.0000
# 4 0.0000 0.0000 0.0000 18.8524 0.0000 -5.1666
# 5 -7.6255 -5.0677 -4.9882 0.0000 38.0326 0.0000
# 6 0.0000 0.0000 0.0000 -5.1666 0.0000 30.1916
#
#
#
# Elastic Compliance Matrix: (Units=1/GPa)
#
#
# Indices 1 2 3 4 5 6 
#
# 1 0.014369 -0.005596 -0.004770 0.000000 0.001510 0.000000
# 2 -0.005596 0.015984 -0.004963 0.000000 0.000357 0.000000
# 3 -0.004770 -0.004963 0.019296 0.000000 0.000913 0.000000
# 4 0.000000 0.000000 0.000000 0.055654 0.000000 0.009524
# 5 0.001510 0.000357 0.000913 0.000000 0.026763 0.000000
# 6 0.000000 0.000000 0.000000 0.009524 0.000000 0.034752
#
#
# Mechanical properties :
#
#
# Convention : Reuss Voigt Hill
#
# Bulk Modulus (GPa) = 52.65553 55.74681 54.20117
# Shear Modulus (GPa) = 24.53294 26.87032 25.70163
#
# Velocity S-wave (km/s) = 3.37101 3.52795 3.45037
# Velocity P-wave (km/s) = 6.28823 6.51286 6.40153
#
# Compressibility (1/GPa) = 0.01899136
#
# Stress axis : x y z
#
# Youngs Moduli (GPa) = 69.59415 62.56100 51.82301
#
# Poissons Ratio (x) = 0.35009 0.24720
# Poissons Ratio (y) = 0.38945 0.25721
# Poissons Ratio (z) = 0.33197 0.31050
#
# Static dielectric constant tensor:
#      x y z
#    x 4.101640 0.000000 -0.124440 
#    y 0.000000 3.815350 0.000000 
#    z -0.124440 0.000000 3.839560 
# 
# 
# High freq. dielectric constant tensor:
#      x y z
#    x 1.852390 0.000000 -0.013490 
#    y 0.000000 1.847360 0.000000 
#    z -0.013490 0.000000 1.848900 
# 
# From -- ./inp_files/51930.got.cif
#   From: 2010.06.25/outbox.cif.g09.slc.cpg/sg10_26_cif.got.tgz:51930.got - 2010.06.27 22:07:45.
