data_PCOD8065622
_publ_section_title
;
Structure prediction by ZEFSAII (Michael W. Deem and Ramdas Pophale) SiO2 
 PCOD8065622
Probable space group: P 2/M
;
_chemical_formula_sum "Si O2"
_cell_formula_units_Z 28
_cell_length_a 9.499957
_cell_length_b 18.417954
_cell_length_c 15.705480
_cell_angle_alpha 90.000000
_cell_angle_beta 29.529733
_cell_angle_gamma 90.000000
_cell_volume 1354.413158
_symmetry_space_group_name_H-M "P 2/M"
_symmetry_group_IT_number 10
_symmetry_cell_setting 'monoclinic'
loop_
_space_group_symop_operation_xyz
x,y,z
-x,y,-z
-x,-y,-z
x,-y,z
loop_
_atom_site_type_symbol
_atom_site_label
_atom_site_fract_x
_atom_site_fract_y
_atom_site_fract_z
Si Si1 0.301512 0.083199 0.029866
Si Si2 0.809537 0.583819 0.677830
Si Si3 0.231640 0.651239 0.948632
Si Si4 0.664123 0.081191 0.669610
Si Si5 0.296465 0.794521 0.818443
Si Si6 0.172532 0.316934 0.169369
Si Si7 0.806990 0.805070 0.307853
O O1 0.005562 0.126223 0.182289
O O2 0.216661 0.000000 0.090346
O O3 0.500000 0.113747 0.000000
O O4 0.496701 0.093322 0.844841
O O5 0.870716 0.500000 0.665028
O O6 0.486287 0.593590 0.816475
O O7 0.885089 0.626042 0.725092
O O8 0.000000 0.613301 0.500000
O O9 0.358512 0.730784 0.854537
O O10 0.106431 0.650595 0.110522
O O11 0.000000 0.626528 0.000000
O O12 0.543998 0.145468 0.673892
O O13 0.000000 0.093245 0.500000
O O14 0.604531 0.000000 0.664660
O O15 0.244033 0.759547 0.752934
O O16 0.000000 0.834707 0.000000
O O17 0.961454 0.248297 0.294097
O O18 0.500000 0.289922 0.000000
O O19 0.500000 0.833492 0.500000
#
# Coordination Sequence:
#
# PCOD8065622 Si02
#       7
#     4   4   4   4   4   4   4
#     4  10  22  41  60  83 122 166 210 264 320 376
#     4  10  24  43  65  96 129 164 205 253 308 378
#     4  10  20  39  65  93 126 163 206 258 317 371
#     4  10  22  39  62  88 118 164 216 264 321 383
#     4  11  21  40  60  89 127 159 207 269 320 375
#     4  10  21  40  66  90 125 167 210 261 307 379
#     4  12  25  38  60  93 125 165 212 263 322 382
#
# _framework density 20.673162000000001
#
# number of rings (size 3 to 8) (size 9 to 14) (size 15 to 20)
#    0.000    1.571    4.286    0.429    4.000    5.714 
#    0.000    0.000    0.000    2.143    0.000    0.000 
#    0.000    0.000    0.000    0.000    0.000    0.000 
#
# Total GULP energy -346974.127783 kJ/mol
# GULP energy per Si atom -12391.933135 kJ/mol
# Density = 2.062611 g / cm^3
# Si number density = 20.673162 Si / 1000 Ang^3
#
#
#
# Elastic Constant Matrix: (Units=GPa)
#
#
# Indices 1 2 3 4 5 6 
#
# 1 124.4713 41.7613 44.3395 0.0000 11.9715 0.0000
# 2 41.7613 86.2868 44.7830 0.0000 2.0049 0.0000
# 3 44.3395 44.7830 132.9897 0.0000 -3.3762 0.0000
# 4 0.0000 0.0000 0.0000 74.1092 0.0000 36.5255
# 5 11.9715 2.0049 -3.3762 0.0000 26.4060 0.0000
# 6 0.0000 0.0000 0.0000 36.5255 0.0000 48.5425
#
#
#
# Elastic Compliance Matrix: (Units=1/GPa)
#
#
# Indices 1 2 3 4 5 6 
#
# 1 0.010620 -0.003789 -0.002388 0.000000 -0.004833 0.000000
# 2 -0.003789 0.015469 -0.003945 0.000000 0.000039 0.000000
# 3 -0.002388 -0.003945 0.009711 0.000000 0.002624 0.000000
# 4 0.000000 0.000000 0.000000 0.021447 0.000000 -0.016138
# 5 -0.004833 0.000039 0.002624 0.000000 0.040394 0.000000
# 6 0.000000 0.000000 0.000000 -0.016138 0.000000 0.032743
#
#
# Mechanical properties :
#
#
# Convention : Reuss Voigt Hill
#
# Bulk Modulus (GPa) = 64.27751 67.27951 65.77851
# Shear Modulus (GPa) = 32.08960 44.00246 38.04603
#
# Velocity S-wave (km/s) = 3.94412 4.61855 4.29459
# Velocity P-wave (km/s) = 7.20424 7.81386 7.51524
#
# Compressibility (1/GPa) = 0.01555754
#
# Stress axis : x y z
#
# Youngs Moduli (GPa) = 94.15770 64.64355 102.98049
#
# Poissons Ratio (x) = 0.24490 0.24590
# Poissons Ratio (y) = 0.35672 0.40627
# Poissons Ratio (z) = 0.22484 0.25502
#
# Static dielectric constant tensor:
#      x y z
#    x 3.972490 0.000000 0.033990 
#    y 0.000000 3.533100 0.000000 
#    z 0.033990 0.000000 3.874480 
# 
# 
# High freq. dielectric constant tensor:
#      x y z
#    x 1.816870 0.000000 0.002710 
#    y 0.000000 1.789130 0.000000 
#    z 0.002710 0.000000 1.810900 
# 
# From -- ./inp_files/62539.got.cif
#   From: 2010.06.25/outbox.cif.g09.slc.cpg/sg10_32_cif.got.tgz:62539.got - 2010.06.27 22:07:45.
