data_PCOD8065260
_publ_section_title
;
Structure prediction by ZEFSAII (Michael W. Deem and Ramdas Pophale) SiO2 
 PCOD8065260
Probable space group: P 2/M
;
_chemical_formula_sum "Si O2"
_cell_formula_units_Z 28
_cell_length_a 9.262410
_cell_length_b 13.956700
_cell_length_c 12.443777
_cell_angle_alpha 90.000000
_cell_angle_beta 65.070699
_cell_angle_gamma 90.000000
_cell_volume 1458.761063
_symmetry_space_group_name_H-M "P 2/M"
_symmetry_group_IT_number 10
_symmetry_cell_setting 'monoclinic'
loop_
_space_group_symop_operation_xyz
x,y,z
-x,y,-z
-x,-y,-z
x,-y,z
loop_
_atom_site_type_symbol
_atom_site_label
_atom_site_fract_x
_atom_site_fract_y
_atom_site_fract_z
Si Si1 0.670121 0.756788 0.751009
Si Si2 0.818642 0.110499 0.529555
Si Si3 0.930694 0.389500 0.190511
Si Si4 0.692001 0.244404 0.167311
Si Si5 0.833917 0.887164 0.278376
Si Si6 0.147150 0.221212 0.100657
Si Si7 0.066940 0.391162 0.370175
O O1 0.704734 0.829889 0.643412
O O2 0.486010 0.728070 0.809100
O O3 0.717577 0.799340 0.852542
O O4 0.769969 0.660239 0.709746
O O5 0.799087 0.141235 0.412066
O O6 0.000000 0.131097 0.500000
O O7 0.773445 0.000000 0.561048
O O8 0.940844 0.500000 0.148777
O O9 0.774544 0.339996 0.189516
O O10 0.089927 0.332171 0.105472
O O11 0.931086 0.382427 0.320784
O O12 0.690169 0.160036 0.256606
O O13 0.783144 0.196870 0.037504
O O14 0.997327 0.843313 0.181377
O O15 0.839679 0.000000 0.260438
O O16 0.115560 0.500000 0.376051
O O17 0.000000 0.343537 0.500000
#
# Coordination Sequence:
#
# PCOD8065260 Si02
#       7
#     4   4   4   4   4   4   4
#     4  11  22  36  58  82 117 150 177 227 286 327
#     4  10  20  37  62  85 105 140 192 233 268 329
#     4   9  19  37  59  82 109 147 191 230 269 318
#     4  11  24  36  52  87 120 146 181 225 281 337
#     4  10  21  39  61  83 108 144 189 234 275 322
#     4  10  21  38  59  81 109 150 195 226 264 327
#     4   9  19  36  59  83 108 146 192 228 266 327
#
# _framework density 19.194369999999999
#
# number of rings (size 3 to 8) (size 9 to 14) (size 15 to 20)
#    0.000    2.000    1.429    2.571    4.000    4.000 
#    0.000    1.429    0.000    9.429    0.000    0.000 
#    0.000    0.000    0.000    0.000    0.000    0.000 
#
# Total GULP energy -347085.840093 kJ/mol
# GULP energy per Si atom -12395.922860 kJ/mol
# Density = 1.915068 g / cm^3
# Si number density = 19.194370 Si / 1000 Ang^3
#
#
#
# Elastic Constant Matrix: (Units=GPa)
#
#
# Indices 1 2 3 4 5 6 
#
# 1 113.9443 27.4315 33.5658 0.0000 8.4687 0.0000
# 2 27.4315 89.5599 40.0162 0.0000 12.8806 0.0000
# 3 33.5658 40.0162 65.2700 0.0000 13.1018 0.0000
# 4 0.0000 0.0000 0.0000 18.0685 0.0000 7.6956
# 5 8.4687 12.8806 13.1018 0.0000 25.9396 0.0000
# 6 0.0000 0.0000 0.0000 7.6956 0.0000 21.5623
#
#
#
# Elastic Compliance Matrix: (Units=1/GPa)
#
#
# Indices 1 2 3 4 5 6 
#
# 1 0.010428 -0.001058 -0.004603 0.000000 -0.000554 0.000000
# 2 -0.001058 0.015728 -0.008458 0.000000 -0.003193 0.000000
# 3 -0.004603 -0.008458 0.024180 0.000000 -0.006511 0.000000
# 4 0.000000 0.000000 0.000000 0.065266 0.000000 -0.023293
# 5 -0.000554 -0.003193 -0.006511 0.000000 0.043606 0.000000
# 6 0.000000 0.000000 0.000000 -0.023293 0.000000 0.054690
#
#
# Mechanical properties :
#
#
# Convention : Reuss Voigt Hill
#
# Bulk Modulus (GPa) = 45.25009 52.31124 48.78067
# Shear Modulus (GPa) = 20.03993 24.29812 22.16903
#
# Velocity S-wave (km/s) = 3.23469 3.56181 3.40218
# Velocity P-wave (km/s) = 6.12999 6.65040 6.39549
#
# Compressibility (1/GPa) = 0.02209940
#
# Stress axis : x y z
#
# Youngs Moduli (GPa) = 95.89566 63.58151 41.35580
#
# Poissons Ratio (x) = 0.06724 0.19036
# Poissons Ratio (y) = 0.10142 0.34978
# Poissons Ratio (z) = 0.44141 0.53776
#
# Static dielectric constant tensor:
#      x y z
#    x 3.515980 0.000000 0.374990 
#    y 0.000000 3.526700 0.000000 
#    z 0.374990 0.000000 3.632190 
# 
# 
# High freq. dielectric constant tensor:
#      x y z
#    x 1.738740 0.000000 0.027760 
#    y 0.000000 1.744970 0.000000 
#    z 0.027760 0.000000 1.750510 
# 
# From -- ./inp_files/25166.got.cif
#   From: 2010.06.25/outbox.cif.g09.slc.cpg/sg10_13_cif.got.tgz:25166.got - 2010.06.27 22:07:45.
