data_PCOD8065839
_publ_section_title
;
Structure prediction by ZEFSAII (Michael W. Deem and Ramdas Pophale) SiO2 
 PCOD8065839
Probable space group: P 2/M
;
_chemical_formula_sum "Si O2"
_cell_formula_units_Z 26
_cell_length_a 13.958487
_cell_length_b 7.446755
_cell_length_c 24.356596
_cell_angle_alpha 90.000000
_cell_angle_beta 146.338443
_cell_angle_gamma 90.000000
_cell_volume 1403.317659
_symmetry_space_group_name_H-M "P 2/M"
_symmetry_group_IT_number 10
_symmetry_cell_setting 'monoclinic'
loop_
_space_group_symop_operation_xyz
x,y,z
-x,y,-z
-x,-y,-z
x,-y,z
loop_
_atom_site_type_symbol
_atom_site_label
_atom_site_fract_x
_atom_site_fract_y
_atom_site_fract_z
Si Si1 0.939444 0.293950 0.339575
Si Si2 0.913413 0.000000 0.664676
Si Si3 0.425846 0.000000 0.564391
Si Si4 0.743506 0.287930 0.902674
Si Si5 0.181888 0.000000 0.259189
Si Si6 0.362091 0.712991 0.728881
Si Si7 0.080810 0.287473 0.124602
Si Si8 0.279136 0.705207 0.568479
O O1 0.923274 0.500000 0.312323
O O2 0.988279 0.176616 0.310195
O O3 0.082479 0.273631 0.455236
O O4 0.761478 0.218588 0.281107
O O5 0.925417 0.000000 0.735770
O O6 0.714038 0.000000 0.550952
O O7 0.405916 0.822095 0.591573
O O8 0.615788 0.000000 0.629391
O O9 0.738215 0.500000 0.899059
O O10 0.555977 0.208838 0.829628
O O11 0.793362 0.226227 0.864951
O O12 0.886275 0.227623 0.015000
O O13 0.133390 0.180395 0.203693
O O14 0.362068 0.500000 0.730441
O O15 0.288734 0.776684 0.635250
O O16 0.092809 0.500000 0.142173
O O17 0.343975 0.500000 0.594706
#
# Coordination Sequence:
#
# PCOD8065839 Si02
#       8
#     4   2   2   4   2   4   4   4
#     4   9  18  33  51  71 100 136 167 201 245 287
#     4  10  23  39  50  68  98 129 170 215 245 279
#     4  10  21  35  51  72  99 129 162 203 250 294
#     4   8  15  30  52  79 109 133 153 190 245 302
#     4  12  23  35  55  74  91 129 175 209 244 285
#     4   9  15  26  50  79 104 132 164 195 237 298
#     4   9  19  35  53  76 106 132 157 196 247 299
#     4   9  17  30  49  76 107 132 157 194 242 299
#
# _framework density 18.527524
#
# number of rings (size 3 to 8) (size 9 to 14) (size 15 to 20)
#    0.000    2.769    0.000    2.538    0.000    6.154 
#    0.000    4.615    0.000    6.462    0.000    4.308 
#    0.000    0.000    0.000    0.000    0.000    0.000 
#
# Total GULP energy -322328.067291 kJ/mol
# GULP energy per Si atom -12397.233357 kJ/mol
# Density = 1.848535 g / cm^3
# Si number density = 18.527524 Si / 1000 Ang^3
#
#
#
# Elastic Constant Matrix: (Units=GPa)
#
#
# Indices 1 2 3 4 5 6 
#
# 1 133.8057 41.0615 68.9888 0.0000 7.1835 0.0000
# 2 41.0615 77.8159 29.2235 0.0000 -3.1369 0.0000
# 3 68.9888 29.2235 80.4711 0.0000 9.2779 0.0000
# 4 0.0000 0.0000 0.0000 14.8288 0.0000 -13.4703
# 5 7.1835 -3.1369 9.2779 0.0000 31.3223 0.0000
# 6 0.0000 0.0000 0.0000 -13.4703 0.0000 -5.8559
#
#
#
# Elastic Compliance Matrix: (Units=1/GPa)
#
#
# Indices 1 2 3 4 5 6 
#
# 1 0.014119 -0.003399 -0.010827 0.000000 -0.000371 0.000000
# 2 -0.003399 0.016015 -0.003289 0.000000 0.003358 0.000000
# 3 -0.010827 -0.003289 0.023456 0.000000 -0.004794 0.000000
# 4 0.000000 0.000000 0.000000 0.021827 0.000000 -0.050209
# 5 -0.000371 0.003358 -0.004794 0.000000 0.033768 0.000000
# 6 0.000000 0.000000 0.000000 -0.050209 0.000000 -0.055272
#
#
# Mechanical properties :
#
#
# Convention : Reuss Voigt Hill
#
# Bulk Modulus (GPa) = 53.88004 63.40450 58.64227
# Shear Modulus (GPa) = 52.56014 18.24697 35.40355
#
# Velocity S-wave (km/s) = 5.33200 3.14165 4.37608
# Velocity P-wave (km/s) = 8.18848 6.88883 7.56661
#
# Compressibility (1/GPa) = 0.01855975
#
# Stress axis : x y z
#
# Youngs Moduli (GPa) = 70.82723 62.44163 42.63277
#
# Poissons Ratio (x) = 0.21224 0.46159
# Poissons Ratio (y) = 0.24075 0.14022
# Poissons Ratio (z) = 0.76685 0.20537
#
# Static dielectric constant tensor:
#      x y z
#    x 3.386060 0.000000 0.413880 
#    y 0.000000 3.379220 0.000000 
#    z 0.413880 0.000000 3.527110 
# 
# 
# High freq. dielectric constant tensor:
#      x y z
#    x 1.697780 0.000000 0.022290 
#    y 0.000000 1.718830 0.000000 
#    z 0.022290 0.000000 1.704540 
# 
# From -- ./inp_files/70099.got.cif
#   From: 2010.06.25/outbox.cif.g09.slc.cpg/sg10_36_cif.got.tgz:70099.got - 2010.06.27 22:07:45.
