data_PCOD8065052
_publ_section_title
;
Structure prediction by ZEFSAII (Michael W. Deem and Ramdas Pophale) SiO2 
 PCOD8065052
Probable space group: P 2/M
;
_chemical_formula_sum "Si O2"
_cell_formula_units_Z 32
_cell_length_a 26.194323
_cell_length_b 9.134050
_cell_length_c 20.916619
_cell_angle_alpha 90.000000
_cell_angle_beta 159.423325
_cell_angle_gamma 90.000000
_cell_volume 1758.889817
_symmetry_space_group_name_H-M "P 2/M"
_symmetry_group_IT_number 10
_symmetry_cell_setting 'monoclinic'
loop_
_space_group_symop_operation_xyz
x,y,z
-x,y,-z
-x,-y,-z
x,-y,z
loop_
_atom_site_type_symbol
_atom_site_label
_atom_site_fract_x
_atom_site_fract_y
_atom_site_fract_z
Si Si1 0.143712 0.670109 0.335248
Si Si2 0.664858 0.826686 0.691010
Si Si3 0.854840 0.173277 0.033438
Si Si4 0.162502 0.332269 0.213169
Si Si5 0.552084 0.831483 0.992079
Si Si6 0.454486 0.329307 0.755561
Si Si7 0.718082 0.174093 0.007282
Si Si8 0.139190 0.168400 0.697012
O O1 0.100344 0.500000 0.283958
O O2 0.171955 0.725099 0.296503
O O3 0.288298 0.702432 0.544007
O O4 0.013526 0.758013 0.214983
O O5 0.500000 0.769862 0.500000
O O6 0.732157 0.765722 0.705278
O O7 0.671225 0.000000 0.695478
O O8 0.752579 0.769231 0.855951
O O9 0.871303 0.000000 0.050289
O O10 0.784523 0.223855 0.017876
O O11 0.213036 0.500000 0.266458
O O12 0.000000 0.309986 0.000000
O O13 0.473115 0.729164 0.848804
O O14 0.509113 0.000000 0.928226
O O15 0.500000 0.779032 0.000000
O O16 0.725260 0.811039 0.191454
O O17 0.491875 0.500000 0.796131
O O18 0.559629 0.246116 0.829152
O O19 0.697303 0.000000 0.987598
O O20 0.821480 0.232363 0.186496
O O21 0.000000 0.246640 0.500000
O O22 0.099427 0.000000 0.661254
#
# Coordination Sequence:
#
# PCOD8065052 Si02
#       8
#     4   4   4   4   4   4   4   4
#     4  10  22  38  54  77 108 141 180 223 266 317
#     4  10  22  37  53  79 110 136 170 220 276 326
#     4  10  21  36  54  78 106 138 177 220 269 323
#     4  10  20  37  58  77 102 139 182 225 266 314
#     4   9  18  33  54  79 106 137 176 219 259 306
#     4  10  21  36  54  78 109 144 179 216 265 319
#     4   9  19  35  54  77 106 138 176 219 261 313
#     4   8  14  27  48  73  99 128 163 206 252 294
#
# _framework density 18.193294000000002
#
# number of rings (size 3 to 8) (size 9 to 14) (size 15 to 20)
#    0.000    2.500    1.250    1.125    1.750    3.750 
#    0.000    2.500    0.000    6.000    0.000    0.000 
#    0.000    0.000    0.000    0.000    0.000    0.000 
#
# Total GULP energy -396808.458246 kJ/mol
# GULP energy per Si atom -12400.264320 kJ/mol
# Density = 1.815188 g / cm^3
# Si number density = 18.193294 Si / 1000 Ang^3
#
#
#
# Elastic Constant Matrix: (Units=GPa)
#
#
# Indices 1 2 3 4 5 6 
#
# 1 155.2506 36.6665 64.1587 0.0000 9.7227 0.0000
# 2 36.6665 33.4503 36.8837 0.0000 2.1034 0.0000
# 3 64.1587 36.8837 114.5403 0.0000 0.1522 0.0000
# 4 0.0000 0.0000 0.0000 27.2148 0.0000 2.0848
# 5 9.7227 2.1034 0.1522 0.0000 18.0728 0.0000
# 6 0.0000 0.0000 0.0000 2.0848 0.0000 25.2027
#
#
#
# Elastic Compliance Matrix: (Units=1/GPa)
#
#
# Indices 1 2 3 4 5 6 
#
# 1 0.009638 -0.006735 -0.003224 0.000000 -0.004374 0.000000
# 2 -0.006735 0.051567 -0.012830 0.000000 -0.002270 0.000000
# 3 -0.003224 -0.012830 0.014664 0.000000 0.003104 0.000000
# 4 0.000000 0.000000 0.000000 0.036979 0.000000 -0.003059
# 5 -0.004374 -0.002270 0.003104 0.000000 0.057923 0.000000
# 6 0.000000 0.000000 0.000000 -0.003059 0.000000 0.039931
#
#
# Mechanical properties :
#
#
# Convention : Reuss Voigt Hill
#
# Bulk Modulus (GPa) = 33.01286 64.29546 48.65416
# Shear Modulus (GPa) = 18.77042 25.13355 21.95198
#
# Velocity S-wave (km/s) = 3.21553 3.72085 3.47738
# Velocity P-wave (km/s) = 5.65431 7.34006 6.55163
#
# Compressibility (1/GPa) = 0.03029122
#
# Stress axis : x y z
#
# Youngs Moduli (GPa) = 103.75449 19.39237 68.19475
#
# Poissons Ratio (x) = 0.13060 0.21988
# Poissons Ratio (y) = 0.69874 0.87493
# Poissons Ratio (z) = 0.33453 0.24880
#
# Static dielectric constant tensor:
#      x y z
#    x 3.416010 0.000000 -0.113150 
#    y 0.000000 3.140420 0.000000 
#    z -0.113150 0.000000 3.509050 
# 
# 
# High freq. dielectric constant tensor:
#      x y z
#    x 1.712940 0.000000 -0.002260 
#    y 0.000000 1.682440 0.000000 
#    z -0.002260 0.000000 1.711980 
# 
# From -- ./inp_files/87063.got.cif
#   From: 2010.06.25/outbox.cif.g09.slc.cpg/sg10_44_cif.got.tgz:87063.got - 2010.06.27 22:07:45.
