data_PCOD8065994
_publ_section_title
;
Structure prediction by ZEFSAII (Michael W. Deem and Ramdas Pophale) SiO2 
 PCOD8065994
Probable space group: P 2/M
;
_chemical_formula_sum "Si O2"
_cell_formula_units_Z 26
_cell_length_a 31.074862
_cell_length_b 8.223366
_cell_length_c 5.168271
_cell_angle_alpha 90.000000
_cell_angle_beta 120.422950
_cell_angle_gamma 90.000000
_cell_volume 1138.853828
_symmetry_space_group_name_H-M "P 2/M"
_symmetry_group_IT_number 10
_symmetry_cell_setting 'monoclinic'
loop_
_space_group_symop_operation_xyz
x,y,z
-x,y,-z
-x,-y,-z
x,-y,z
loop_
_atom_site_type_symbol
_atom_site_label
_atom_site_fract_x
_atom_site_fract_y
_atom_site_fract_z
Si Si1 0.441766 0.322403 0.770967
Si Si2 0.303158 0.813526 0.188407
Si Si3 0.534345 0.000000 0.357628
Si Si4 0.030918 0.190656 0.844089
Si Si5 0.634655 0.187543 0.106200
Si Si6 0.858567 0.310154 0.820440
Si Si7 0.806319 0.310462 0.161249
O O1 0.425282 0.500000 0.607116
O O2 0.413928 0.291665 0.959864
O O3 0.431133 0.165635 0.546331
O O4 0.500000 0.328221 0.000000
O O5 0.340916 0.743881 0.083463
O O6 0.252630 0.713544 0.019634
O O7 0.291327 0.000000 0.085810
O O8 0.325779 0.792094 0.540871
O O9 0.500000 0.000000 0.500000
O O10 0.500000 0.000000 0.000000
O O11 0.000000 0.245232 0.500000
O O12 0.041962 0.000000 0.877410
O O13 0.082691 0.283938 0.002005
O O14 0.000000 0.244997 0.000000
O O15 0.617555 0.000000 0.020270
O O16 0.846931 0.500000 0.785898
O O17 0.832202 0.229031 0.490576
O O18 0.832580 0.228677 0.991813
O O19 0.818278 0.500000 0.197988
#
# Coordination Sequence:
#
# PCOD8065994 Si02
#       7
#     4   4   2   4   4   4   4
#     4  10  22  41  65  94 124 161 207 249 300 369
#     4  10  22  38  60  86 115 151 194 240 292 354
#     4  10  22  40  62  86 120 158 192 244 298 340
#     4  10  21  36  54  80 113 147 186 233 283 335
#     4  10  21  39  59  85 118 153 192 240 296 352
#     4  10  21  36  56  82 111 149 191 233 283 341
#     4  10  21  37  56  81 113 145 187 238 287 339
#
# _framework density 22.829972000000001
#
# number of rings (size 3 to 8) (size 9 to 14) (size 15 to 20)
#    0.000    2.000    0.769    1.846    0.000    5.846 
#    0.000    3.077    0.000    0.000    0.000    0.000 
#    0.000    0.000    0.000    0.000    0.000    0.000 
#
# Total GULP energy -322384.125594 kJ/mol
# GULP energy per Si atom -12399.389446 kJ/mol
# Density = 2.277801 g / cm^3
# Si number density = 22.829972 Si / 1000 Ang^3
#
#
#
# Elastic Constant Matrix: (Units=GPa)
#
#
# Indices 1 2 3 4 5 6 
#
# 1 160.2065 22.4543 37.9438 0.0000 -14.2368 0.0000
# 2 22.4543 87.4977 7.2828 0.0000 -11.7264 0.0000
# 3 37.9438 7.2828 60.9412 0.0000 -14.4658 0.0000
# 4 0.0000 0.0000 0.0000 15.4979 0.0000 12.5341
# 5 -14.2368 -11.7264 -14.4658 0.0000 45.9947 0.0000
# 6 0.0000 0.0000 0.0000 12.5341 0.0000 31.3155
#
#
#
# Elastic Compliance Matrix: (Units=1/GPa)
#
#
# Indices 1 2 3 4 5 6 
#
# 1 0.007540 -0.001493 -0.004379 0.000000 0.000576 0.000000
# 2 -0.001493 0.012161 0.000111 0.000000 0.002673 0.000000
# 3 -0.004379 0.000111 0.020325 0.000000 0.005065 0.000000
# 4 0.000000 0.000000 0.000000 0.095410 0.000000 -0.038188
# 5 0.000576 0.002673 0.005065 0.000000 0.024194 0.000000
# 6 0.000000 0.000000 0.000000 -0.038188 0.000000 0.047218
#
#
# Mechanical properties :
#
#
# Convention : Reuss Voigt Hill
#
# Bulk Modulus (GPa) = 35.08452 49.33414 42.20933
# Shear Modulus (GPa) = 21.94218 34.62593 28.28405
#
# Velocity S-wave (km/s) = 3.10355 3.89869 3.52362
# Velocity P-wave (km/s) = 5.31449 6.47477 5.92311
#
# Compressibility (1/GPa) = 0.02850260
#
# Stress axis : x y z
#
# Youngs Moduli (GPa) = 132.63320 82.22946 49.20055
#
# Poissons Ratio (x) = 0.12279 0.21546
# Poissons Ratio (y) = 0.19805 -0.00546
# Poissons Ratio (z) = 0.58084 -0.00912
#
# Static dielectric constant tensor:
#      x y z
#    x 4.238240 0.000000 -0.407490 
#    y 0.000000 4.754880 0.000000 
#    z -0.407490 0.000000 4.488010 
# 
# 
# High freq. dielectric constant tensor:
#      x y z
#    x 1.915530 0.000000 -0.006610 
#    y 0.000000 1.880480 0.000000 
#    z -0.006610 0.000000 1.906190 
# 
# From -- ./inp_files/13576.got.cif
#   From: 2010.06.25/outbox.cif.g09.slc.cpg/sg10_7_cif.got.tgz:13576.got - 2010.06.27 22:07:45.
