data_PCOD8065491
_publ_section_title
;
Structure prediction by ZEFSAII (Michael W. Deem and Ramdas Pophale) SiO2 
 PCOD8065491
Probable space group: P 2/M
;
_chemical_formula_sum "Si O2"
_cell_formula_units_Z 32
_cell_length_a 15.183955
_cell_length_b 8.966088
_cell_length_c 12.055323
_cell_angle_alpha 90.000000
_cell_angle_beta 90.755703
_cell_angle_gamma 90.000000
_cell_volume 1641.077078
_symmetry_space_group_name_H-M "P 2/M"
_symmetry_group_IT_number 10
_symmetry_cell_setting 'monoclinic'
loop_
_space_group_symop_operation_xyz
x,y,z
-x,y,-z
-x,-y,-z
x,-y,z
loop_
_atom_site_type_symbol
_atom_site_label
_atom_site_fract_x
_atom_site_fract_y
_atom_site_fract_z
Si Si1 0.009064 0.176826 0.875806
Si Si2 0.857116 0.827981 0.708757
Si Si3 0.657747 0.828603 0.767441
Si Si4 0.350736 0.324187 0.774429
Si Si5 0.487483 0.323327 0.373893
Si Si6 0.103146 0.333697 0.511875
Si Si7 0.396571 0.833382 0.995603
Si Si8 0.832497 0.175504 0.274283
O O1 0.102552 0.226813 0.824527
O O2 0.928709 0.234666 0.797820
O O3 0.003516 0.000000 0.881892
O O4 0.000000 0.244494 0.000000
O O5 0.761420 0.809322 0.758719
O O6 0.855998 0.728637 0.599713
O O7 0.878022 0.000000 0.679026
O O8 0.604572 0.739672 0.672942
O O9 0.628058 0.000000 0.757690
O O10 0.635168 0.765346 0.888508
O O11 0.344087 0.500000 0.766149
O O12 0.430735 0.264542 0.698944
O O13 0.364589 0.277684 0.900923
O O14 0.260367 0.255840 0.731307
O O15 0.500000 0.266765 0.500000
O O16 0.481745 0.500000 0.369143
O O17 0.141847 0.500000 0.535080
O O18 0.123713 0.219367 0.609660
O O19 0.000000 0.343226 0.500000
O O20 0.356980 0.000000 0.974952
O O21 0.500000 0.842373 0.000000
O O22 0.817374 0.000000 0.270357
#
# Coordination Sequence:
#
# PCOD8065491 Si02
#       8
#     4   4   4   4   4   4   4   4
#     4   9  19  36  60  88 119 155 194 240 293 349
#     4  10  21  38  61  90 121 153 198 246 293 350
#     4  10  22  38  61  92 120 151 196 251 295 344
#     4  11  24  40  60  88 122 158 200 247 298 358
#     4  10  23  42  60  81 117 161 198 239 297 361
#     4  11  23  40  62  86 120 158 198 247 297 352
#     4  10  20  38  63  88 118 154 198 249 297 348
#     4  11  23  39  64  90 118 157 201 249 298 350
#
# _framework density 19.499388
#
# number of rings (size 3 to 8) (size 9 to 14) (size 15 to 20)
#    0.000    1.750    2.500    1.125    3.500    2.500 
#    0.000    0.000    0.000    1.875    0.000    0.000 
#    0.000    0.000    0.000    0.000    0.000    0.000 
#
# Total GULP energy -396864.983481 kJ/mol
# GULP energy per Si atom -12402.030734 kJ/mol
# Density = 1.945501 g / cm^3
# Si number density = 19.499388 Si / 1000 Ang^3
#
#
#
# Elastic Constant Matrix: (Units=GPa)
#
#
# Indices 1 2 3 4 5 6 
#
# 1 75.5979 23.8786 18.6473 0.0000 0.9536 0.0000
# 2 23.8786 45.1693 23.3394 0.0000 0.4453 0.0000
# 3 18.6473 23.3394 122.2725 0.0000 -5.1808 0.0000
# 4 0.0000 0.0000 0.0000 56.0894 0.0000 -13.8182
# 5 0.9536 0.4453 -5.1808 0.0000 31.3577 0.0000
# 6 0.0000 0.0000 0.0000 -13.8182 0.0000 38.5270
#
#
#
# Elastic Compliance Matrix: (Units=1/GPa)
#
#
# Indices 1 2 3 4 5 6 
#
# 1 0.015980 -0.007956 -0.000941 0.000000 -0.000528 0.000000
# 2 -0.007956 0.028563 -0.004276 0.000000 -0.000870 0.000000
# 3 -0.000941 -0.004276 0.009206 0.000000 0.001610 0.000000
# 4 0.000000 0.000000 0.000000 0.019557 0.000000 0.007014
# 5 -0.000528 -0.000870 0.001610 0.000000 0.032185 0.000000
# 6 0.000000 0.000000 0.000000 0.007014 0.000000 0.028472
#
#
# Mechanical properties :
#
#
# Convention : Reuss Voigt Hill
#
# Bulk Modulus (GPa) = 36.49152 41.64114 39.06633
# Shear Modulus (GPa) = 29.50874 37.00645 33.25760
#
# Velocity S-wave (km/s) = 3.89436 4.36113 4.13434
# Velocity P-wave (km/s) = 6.24309 6.83818 6.54740
#
# Compressibility (1/GPa) = 0.02740363
#
# Stress axis : x y z
#
# Youngs Moduli (GPa) = 62.57945 35.01056 108.62171
#
# Poissons Ratio (x) = 0.27856 0.10218
# Poissons Ratio (y) = 0.49790 0.46442
# Poissons Ratio (z) = 0.05887 0.14969
#
# Static dielectric constant tensor:
#      x y z
#    x 3.645050 0.000000 -0.090640 
#    y 0.000000 3.591290 0.000000 
#    z -0.090640 0.000000 3.734540 
# 
# 
# High freq. dielectric constant tensor:
#      x y z
#    x 1.769130 0.000000 -0.003270 
#    y 0.000000 1.741440 0.000000 
#    z -0.003270 0.000000 1.771340 
# 
# From -- ./inp_files/49883.got.cif
#   From: 2010.06.25/outbox.cif.g09.slc.cpg/sg10_25_cif.got.tgz:49883.got - 2010.06.27 22:07:45.
