data_PCOD8065383
_publ_section_title
;
Structure prediction by ZEFSAII (Michael W. Deem and Ramdas Pophale) SiO2 
 PCOD8065383
Probable space group: P 2/M
;
_chemical_formula_sum "Si O2"
_cell_formula_units_Z 32
_cell_length_a 24.159170
_cell_length_b 9.335944
_cell_length_c 15.672909
_cell_angle_alpha 90.000000
_cell_angle_beta 152.125885
_cell_angle_gamma 90.000000
_cell_volume 1652.721999
_symmetry_space_group_name_H-M "P 2/M"
_symmetry_group_IT_number 10
_symmetry_cell_setting 'monoclinic'
loop_
_space_group_symop_operation_xyz
x,y,z
-x,y,-z
-x,-y,-z
x,-y,z
loop_
_atom_site_type_symbol
_atom_site_label
_atom_site_fract_x
_atom_site_fract_y
_atom_site_fract_z
Si Si1 0.757168 0.160869 0.482877
Si Si2 0.864008 0.164077 0.812415
Si Si3 0.410807 0.335272 0.309089
Si Si4 0.471963 0.329929 0.867156
Si Si5 0.828218 0.335446 0.918574
Si Si6 0.640482 0.330261 0.946870
Si Si7 0.909714 0.337247 0.299655
Si Si8 0.000207 0.165405 0.735618
O O1 0.812918 0.190322 0.650208
O O2 0.657326 0.277158 0.332738
O O3 0.858694 0.181414 0.550096
O O4 0.704730 0.000000 0.406009
O O5 0.790836 0.264861 0.777717
O O6 0.850623 0.000000 0.823417
O O7 0.000000 0.212194 0.000000
O O8 0.500000 0.260805 0.500000
O O9 0.449684 0.500000 0.355020
O O10 0.276983 0.318696 0.157591
O O11 0.412947 0.268054 0.215934
O O12 0.472231 0.500000 0.866412
O O13 0.566373 0.269333 0.926428
O O14 0.500000 0.271438 0.000000
O O15 0.862136 0.500000 0.950583
O O16 0.941296 0.250190 0.106825
O O17 0.629708 0.500000 0.929268
O O18 0.777937 0.286965 0.147186
O O19 0.904838 0.500000 0.256427
O O20 0.000000 0.328719 0.500000
O O21 0.958655 0.229366 0.297046
O O22 0.038657 0.000000 0.794271
#
# Coordination Sequence:
#
# PCOD8065383 Si02
#       8
#     4   4   4   4   4   4   4   4
#     4  10  23  41  60  82 116 163 203 239 293 355
#     4  10  20  38  57  78 117 160 189 227 292 355
#     4   9  18  32  53  80 113 150 185 228 288 350
#     4  10  23  40  62  89 117 153 199 251 298 347
#     4  11  21  34  57  87 115 148 196 244 291 348
#     4   9  18  36  56  82 121 153 184 234 300 352
#     4  10  21  37  62  90 116 149 188 241 300 352
#     4  11  22  39  60  84 119 158 195 241 299 353
#
# _framework density 19.361999000000001
#
# number of rings (size 3 to 8) (size 9 to 14) (size 15 to 20)
#    0.000    2.000    2.500    0.750    3.500    2.250 
#    0.000    0.625    0.000    1.500    0.000    0.000 
#    0.000    0.000    0.000    0.000    0.000    0.000 
#
# Total GULP energy -396754.211067 kJ/mol
# GULP energy per Si atom -12398.569096 kJ/mol
# Density = 1.931793 g / cm^3
# Si number density = 19.361999 Si / 1000 Ang^3
#
#
#
# Elastic Constant Matrix: (Units=GPa)
#
#
# Indices 1 2 3 4 5 6 
#
# 1 142.0616 45.2528 53.2556 0.0000 -6.2556 0.0000
# 2 45.2528 62.6648 25.7202 0.0000 0.5474 0.0000
# 3 53.2556 25.7202 112.1568 0.0000 -1.7938 0.0000
# 4 0.0000 0.0000 0.0000 18.6259 0.0000 -4.0551
# 5 -6.2556 0.5474 -1.7938 0.0000 22.9628 0.0000
# 6 0.0000 0.0000 0.0000 -4.0551 0.0000 23.1674
#
#
#
# Elastic Compliance Matrix: (Units=1/GPa)
#
#
# Indices 1 2 3 4 5 6 
#
# 1 0.010417 -0.006109 -0.003502 0.000000 0.002710 0.000000
# 2 -0.006109 0.021211 -0.002001 0.000000 -0.002326 0.000000
# 3 -0.003502 -0.002001 0.011037 0.000000 -0.000044 0.000000
# 4 0.000000 0.000000 0.000000 0.055816 0.000000 0.009770
# 5 0.002710 -0.002326 -0.000044 0.000000 0.044339 0.000000
# 6 0.000000 0.000000 0.000000 0.009770 0.000000 0.044874
#
#
# Mechanical properties :
#
#
# Convention : Reuss Voigt Hill
#
# Bulk Modulus (GPa) = 51.43570 62.81559 57.12564
# Shear Modulus (GPa) = 22.99921 25.79485 24.39703
#
# Velocity S-wave (km/s) = 3.45026 3.65395 3.55357
# Velocity P-wave (km/s) = 6.51885 7.09330 6.81213
#
# Compressibility (1/GPa) = 0.01944175
#
# Stress axis : x y z
#
# Youngs Moduli (GPa) = 95.99282 47.14535 90.60317
#
# Poissons Ratio (x) = 0.28801 0.31731
# Poissons Ratio (y) = 0.58643 0.18126
# Poissons Ratio (z) = 0.33619 0.09432
#
# Static dielectric constant tensor:
#      x y z
#    x 3.812730 0.000000 -0.166400 
#    y 0.000000 3.287820 0.000000 
#    z -0.166400 0.000000 3.728170 
# 
# 
# High freq. dielectric constant tensor:
#      x y z
#    x 1.765410 0.000000 -0.006130 
#    y 0.000000 1.722430 0.000000 
#    z -0.006130 0.000000 1.755750 
# 
# From -- ./inp_files/71574.got.cif
#   From: 2010.06.25/outbox.cif.g09.slc.cpg/sg10_36_cif.got.tgz:71574.got - 2010.06.27 22:07:45.
