data_PCOD8065601
_publ_section_title
;
Structure prediction by ZEFSAII (Michael W. Deem and Ramdas Pophale) SiO2 
 PCOD8065601
Probable space group: P 2/M
;
_chemical_formula_sum "Si O2"
_cell_formula_units_Z 24
_cell_length_a 9.639122
_cell_length_b 13.926634
_cell_length_c 14.155773
_cell_angle_alpha 90.000000
_cell_angle_beta 149.464894
_cell_angle_gamma 90.000000
_cell_volume 965.467221
_symmetry_space_group_name_H-M "P 2/M"
_symmetry_group_IT_number 10
_symmetry_cell_setting 'monoclinic'
loop_
_space_group_symop_operation_xyz
x,y,z
-x,y,-z
-x,-y,-z
x,-y,z
loop_
_atom_site_type_symbol
_atom_site_label
_atom_site_fract_x
_atom_site_fract_y
_atom_site_fract_z
Si Si1 0.759551 0.607537 0.719353
Si Si2 0.842009 0.889291 0.683449
Si Si3 0.710721 0.201039 0.791511
Si Si4 0.823338 0.607415 0.195679
Si Si5 0.438616 0.112232 0.112966
Si Si6 0.949285 0.206568 0.363547
O O1 0.500000 0.614056 0.500000
O O2 0.783265 0.500000 0.776589
O O3 0.722152 0.683752 0.782195
O O4 0.033571 0.633742 0.820583
O O5 0.810975 0.830625 0.566584
O O6 0.640273 0.852738 0.649666
O O7 0.787026 0.000000 0.631808
O O8 0.146027 0.865386 0.897086
O O9 0.507121 0.171763 0.756718
O O10 0.000000 0.162025 0.000000
O O11 0.912995 0.500000 0.277680
O O12 0.926356 0.679033 0.337083
O O13 0.500000 0.616380 0.000000
O O14 0.667088 0.150136 0.173289
O O15 0.476842 0.000000 0.155973
O O16 0.000000 0.178365 0.500000
#
# Coordination Sequence:
#
# PCOD8065601 Si02
#       6
#     4   4   4   4   4   4
#     4  10  22  41  66  95 131 171 210 261 326 388
#     4  10  20  39  63  87 121 167 216 264 320 381
#     4  10  21  37  64  94 123 164 214 267 318 382
#     4  10  22  43  70  95 125 170 220 266 318 387
#     4  10  22  39  61  91 126 166 216 269 321 382
#     4  12  25  38  60  92 128 168 212 268 325 383
#
# _framework density 24.858432000000001
#
# number of rings (size 3 to 8) (size 9 to 14) (size 15 to 20)
#    0.000    1.667    1.667    2.500    4.667    5.333 
#    0.000    0.833    0.000    3.000    0.000    0.000 
#    0.000    0.000    0.000    0.000    0.000    0.000 
#
# Total GULP energy -297634.067954 kJ/mol
# GULP energy per Si atom -12401.419498 kJ/mol
# Density = 2.480185 g / cm^3
# Si number density = 24.858432 Si / 1000 Ang^3
#
#
#
# Elastic Constant Matrix: (Units=GPa)
#
#
# Indices 1 2 3 4 5 6 
#
# 1 149.8946 53.1962 29.1350 0.0000 8.7803 0.0000
# 2 53.1962 157.5602 1.2511 0.0000 -12.9716 0.0000
# 3 29.1350 1.2511 30.3629 0.0000 -0.9606 0.0000
# 4 0.0000 0.0000 0.0000 18.1081 0.0000 -12.8603
# 5 8.7803 -12.9716 -0.9606 0.0000 46.5496 0.0000
# 6 0.0000 0.0000 0.0000 -12.8603 0.0000 33.4154
#
#
#
# Elastic Compliance Matrix: (Units=1/GPa)
#
#
# Indices 1 2 3 4 5 6 
#
# 1 0.009952 -0.003537 -0.009501 0.000000 -0.003059 0.000000
# 2 -0.003537 0.007754 0.003166 0.000000 0.002893 0.000000
# 3 -0.009501 0.003166 0.042033 0.000000 0.003542 0.000000
# 4 0.000000 0.000000 0.000000 0.075995 0.000000 0.029248
# 5 -0.003059 0.002893 0.003542 0.000000 0.022939 0.000000
# 6 0.000000 0.000000 0.000000 0.029248 0.000000 0.041183
#
#
# Mechanical properties :
#
#
# Convention : Reuss Voigt Hill
#
# Bulk Modulus (GPa) = 25.00278 56.10914 40.55596
# Shear Modulus (GPa) = 21.46554 36.56364 29.01459
#
# Velocity S-wave (km/s) = 2.94174 3.83936 3.42013
# Velocity P-wave (km/s) = 4.64956 6.50190 5.65213
#
# Compressibility (1/GPa) = 0.03999556
#
# Stress axis : x y z
#
# Youngs Moduli (GPa) = 100.47946 128.96828 23.79077
#
# Poissons Ratio (x) = 0.45610 0.22603
# Poissons Ratio (y) = 0.35535 -0.07531
# Poissons Ratio (z) = 0.95464 -0.40825
#
# Static dielectric constant tensor:
#      x y z
#    x 4.850080 0.000000 0.245580 
#    y 0.000000 4.489780 0.000000 
#    z 0.245580 0.000000 4.434550 
# 
# 
# High freq. dielectric constant tensor:
#      x y z
#    x 2.002970 0.000000 0.022550 
#    y 0.000000 1.987750 0.000000 
#    z 0.022550 0.000000 2.005430 
# 
# From -- ./inp_files/29263.got.cif
#   From: 2010.06.25/outbox.cif.g09.slc.cpg/sg10_15_cif.got.tgz:29263.got - 2010.06.27 22:07:45.
