data_PCOD8065881
_publ_section_title
;
Structure prediction by ZEFSAII (Michael W. Deem and Ramdas Pophale) SiO2 
 PCOD8065881
Probable space group: P 2/M
;
_chemical_formula_sum "Si O2"
_cell_formula_units_Z 32
_cell_length_a 14.201647
_cell_length_b 9.164939
_cell_length_c 14.179580
_cell_angle_alpha 90.000000
_cell_angle_beta 64.965750
_cell_angle_gamma 90.000000
_cell_volume 1672.192295
_symmetry_space_group_name_H-M "P 2/M"
_symmetry_group_IT_number 10
_symmetry_cell_setting 'monoclinic'
loop_
_space_group_symop_operation_xyz
x,y,z
-x,y,-z
-x,-y,-z
x,-y,z
loop_
_atom_site_type_symbol
_atom_site_label
_atom_site_fract_x
_atom_site_fract_y
_atom_site_fract_z
Si Si1 0.629000 0.827482 0.764770
Si Si2 0.945389 0.158733 0.219402
Si Si3 0.127703 0.332820 0.058372
Si Si4 0.825037 0.659833 0.616760
Si Si5 0.028859 0.769814 0.584229
Si Si6 0.426927 0.329850 0.819409
Si Si7 0.341277 0.335944 0.061271
Si Si8 0.772190 0.168738 0.152584
O O1 0.737181 0.780105 0.672179
O O2 0.534452 0.750625 0.748780
O O3 0.624026 0.779907 0.875948
O O4 0.617347 0.000000 0.762332
O O5 0.939903 0.145824 0.335197
O O6 0.829822 0.187967 0.228557
O O7 0.021331 0.284565 0.152171
O O8 0.984156 0.000000 0.166454
O O9 0.117987 0.500000 0.028358
O O10 0.218983 0.316498 0.095800
O O11 0.150125 0.232499 0.958931
O O12 0.775356 0.500000 0.652751
O O13 0.871180 0.672770 0.490291
O O14 0.922779 0.676966 0.648370
O O15 0.000000 0.865712 0.500000
O O16 0.433297 0.500000 0.790802
O O17 0.334991 0.258055 0.797251
O O18 0.404317 0.305407 0.939435
O O19 0.365136 0.500000 0.087796
O O20 0.748088 0.000000 0.139545
#
# Coordination Sequence:
#
# PCOD8065881 Si02
#       8
#     4   4   4   4   4   4   4   4
#     4  12  23  32  51  82 110 142 181 222 274 330
#     4  11  22  35  55  83 113 148 183 224 280 330
#     4  10  21  35  53  80 114 151 191 229 265 318
#     4   9  19  37  57  79 109 141 176 219 269 321
#     4   8  20  37  59  85 110 142 179 223 269 327
#     4  10  21  38  56  74 103 144 187 230 272 319
#     4   9  19  34  51  74 106 144 183 225 271 320
#     4  10  21  37  55  78 112 148 185 230 277 324
#
# _framework density 19.136555000000001
#
# number of rings (size 3 to 8) (size 9 to 14) (size 15 to 20)
#    0.750    1.250    0.000    5.250    0.000   11.250 
#    0.000    0.000    0.000    0.750    0.000    4.375 
#    0.000    0.000    0.000    0.000    0.000    0.000 
#
# Total GULP energy -396510.727171 kJ/mol
# GULP energy per Si atom -12390.960224 kJ/mol
# Density = 1.909300 g / cm^3
# Si number density = 19.136555 Si / 1000 Ang^3
#
#
#
# Elastic Constant Matrix: (Units=GPa)
#
#
# Indices 1 2 3 4 5 6 
#
# 1 116.8800 64.6674 53.7873 0.0000 -4.8101 0.0000
# 2 64.6674 141.9218 29.6782 0.0000 -5.5879 0.0000
# 3 53.7873 29.6782 52.4414 0.0000 -3.1576 0.0000
# 4 0.0000 0.0000 0.0000 19.1631 0.0000 -1.1470
# 5 -4.8101 -5.5879 -3.1576 0.0000 30.3527 0.0000
# 6 0.0000 0.0000 0.0000 -1.1470 0.0000 28.5823
#
#
#
# Elastic Compliance Matrix: (Units=1/GPa)
#
#
# Indices 1 2 3 4 5 6 
#
# 1 0.019106 -0.005216 -0.016624 0.000000 0.000338 0.000000
# 2 -0.005216 0.009447 0.000059 0.000000 0.000919 0.000000
# 3 -0.016624 0.000059 0.036155 0.000000 0.001138 0.000000
# 4 0.000000 0.000000 0.000000 0.052309 0.000000 0.002099
# 5 0.000338 0.000919 0.001138 0.000000 0.033287 0.000000
# 6 0.000000 0.000000 0.000000 0.002099 0.000000 0.035071
#
#
# Mechanical properties :
#
#
# Convention : Reuss Voigt Hill
#
# Bulk Modulus (GPa) = 47.29194 67.50102 57.39648
# Shear Modulus (GPa) = 21.18784 26.49364 23.84074
#
# Velocity S-wave (km/s) = 3.33106 3.72486 3.53345
# Velocity P-wave (km/s) = 6.28976 7.33821 6.83412
#
# Compressibility (1/GPa) = 0.02114525
#
# Stress axis : x y z
#
# Youngs Moduli (GPa) = 52.34005 105.85749 27.65903
#
# Poissons Ratio (x) = 0.55215 0.45980
# Poissons Ratio (y) = 0.27301 -0.00163
# Poissons Ratio (z) = 0.87010 -0.00625
#
# Static dielectric constant tensor:
#      x y z
#    x 3.565650 0.000000 -0.076470 
#    y 0.000000 3.422130 0.000000 
#    z -0.076470 0.000000 3.184400 
# 
# 
# High freq. dielectric constant tensor:
#      x y z
#    x 1.744230 0.000000 -0.012370 
#    y 0.000000 1.745270 0.000000 
#    z -0.012370 0.000000 1.710940 
# 
# From -- ./inp_files/66536.got.cif
#   From: 2010.06.25/outbox.cif.g09.slc.cpg/sg10_34_cif.got.tgz:66536.got - 2010.06.27 22:07:45.
