data_PCOD8065746
_publ_section_title
;
Structure prediction by ZEFSAII (Michael W. Deem and Ramdas Pophale) SiO2 
 PCOD8065746
Probable space group: P 2/M
;
_chemical_formula_sum "Si O2"
_cell_formula_units_Z 22
_cell_length_a 9.327096
_cell_length_b 13.894455
_cell_length_c 9.191382
_cell_angle_alpha 90.000000
_cell_angle_beta 84.428056
_cell_angle_gamma 90.000000
_cell_volume 1185.528237
_symmetry_space_group_name_H-M "P 2/M"
_symmetry_group_IT_number 10
_symmetry_cell_setting 'monoclinic'
loop_
_space_group_symop_operation_xyz
x,y,z
-x,y,-z
-x,-y,-z
x,-y,z
loop_
_atom_site_type_symbol
_atom_site_label
_atom_site_fract_x
_atom_site_fract_y
_atom_site_fract_z
Si Si1 0.773182 0.892275 0.481648
Si Si2 0.049009 0.108121 0.256835
Si Si3 0.141262 0.386789 0.801714
Si Si4 0.000000 0.752172 0.000000
Si Si5 0.117415 0.604230 0.364285
Si Si6 0.338629 0.695945 0.534958
O O1 0.816894 0.880226 0.646212
O O2 0.656129 0.811763 0.448068
O O3 0.907160 0.870932 0.364205
O O4 0.711595 0.000000 0.460525
O O5 0.060787 0.180924 0.122503
O O6 0.046200 0.000000 0.194185
O O7 0.156632 0.500000 0.839276
O O8 0.268174 0.358871 0.678569
O O9 0.978135 0.361377 0.762074
O O10 0.138365 0.315658 0.940882
O O11 0.188623 0.500000 0.327095
O O12 0.244822 0.675836 0.398357
O O13 0.000000 0.592868 0.500000
O O14 0.500000 0.656452 0.500000
#
# Coordination Sequence:
#
# PCOD8065746 Si02
#       6
#     4   4   4   2   4   4
#     4   9  18  34  51  75 107 138 171 213 262 311
#     4   9  18  31  54  81 105 133 172 218 262 307
#     4  10  21  34  50  76 107 141 175 212 262 311
#     4  12  18  30  54  82 112 134 166 220 264 310
#     4   8  16  31  50  70  97 132 172 213 253 298
#     4  11  20  31  52  80 105 138 175 221 261 302
#
# _framework density 18.557130999999998
#
# number of rings (size 3 to 8) (size 9 to 14) (size 15 to 20)
#    0.000    2.364    1.818    4.364    5.091    1.818 
#    0.000    0.000    0.000    4.364    0.000   10.182 
#    0.000    0.000    0.000    0.000    0.000    0.000 
#
# Total GULP energy -272538.633792 kJ/mol
# GULP energy per Si atom -12388.119718 kJ/mol
# Density = 1.851489 g / cm^3
# Si number density = 18.557131 Si / 1000 Ang^3
#
#
#
# Elastic Constant Matrix: (Units=GPa)
#
#
# Indices 1 2 3 4 5 6 
#
# 1 73.3571 33.4782 18.3844 0.0000 -12.5821 0.0000
# 2 33.4782 132.7424 53.7339 0.0000 -7.4402 0.0000
# 3 18.3844 53.7339 83.7919 0.0000 -6.8370 0.0000
# 4 0.0000 0.0000 0.0000 41.0384 0.0000 8.0168
# 5 -12.5821 -7.4402 -6.8370 0.0000 13.7358 0.0000
# 6 0.0000 0.0000 0.0000 8.0168 0.0000 18.4926
#
#
#
# Elastic Compliance Matrix: (Units=1/GPa)
#
#
# Indices 1 2 3 4 5 6 
#
# 1 0.017775 -0.003483 -0.000513 0.000000 0.014141 0.000000
# 2 -0.003483 0.010931 -0.006278 0.000000 -0.000394 0.000000
# 3 -0.000513 -0.006278 0.016424 0.000000 0.004305 0.000000
# 4 0.000000 0.000000 0.000000 0.026622 0.000000 -0.011541
# 5 0.014141 -0.000394 0.004305 0.000000 0.087684 0.000000
# 6 0.000000 0.000000 0.000000 -0.011541 0.000000 0.059079
#
#
# Mechanical properties :
#
#
# Convention : Reuss Voigt Hill
#
# Bulk Modulus (GPa) = 40.67787 55.67604 48.17695
# Shear Modulus (GPa) = 20.22192 26.93970 23.58081
#
# Velocity S-wave (km/s) = 3.30466 3.81427 3.56857
# Velocity P-wave (km/s) = 6.04392 7.03320 6.55724
#
# Compressibility (1/GPa) = 0.02458339
#
# Stress axis : x y z
#
# Youngs Moduli (GPa) = 56.25788 91.48362 60.88699
#
# Poissons Ratio (x) = 0.31863 0.03122
# Poissons Ratio (y) = 0.19594 0.38223
# Poissons Ratio (z) = 0.02884 0.57431
#
# Static dielectric constant tensor:
#      x y z
#    x 3.082390 0.000000 0.288300 
#    y 0.000000 3.770770 0.000000 
#    z 0.288300 0.000000 3.658640 
# 
# 
# High freq. dielectric constant tensor:
#      x y z
#    x 1.658950 0.000000 0.003820 
#    y 0.000000 1.754310 0.000000 
#    z 0.003820 0.000000 1.702810 
# 
# From -- ./inp_files/18779.got.cif
#   From: 2010.06.25/outbox.cif.g09.slc.cpg/sg10_10_cif.got.tgz:18779.got - 2010.06.27 22:07:45.
