data_PCOD8065205
_publ_section_title
;
Structure prediction by ZEFSAII (Michael W. Deem and Ramdas Pophale) SiO2 
 PCOD8065205
Probable space group: P 2/M
;
_chemical_formula_sum "Si O2"
_cell_formula_units_Z 18
_cell_length_a 11.497709
_cell_length_b 9.919232
_cell_length_c 18.220008
_cell_angle_alpha 90.000000
_cell_angle_beta 26.483193
_cell_angle_gamma 90.000000
_cell_volume 926.637247
_symmetry_space_group_name_H-M "P 2/M"
_symmetry_group_IT_number 10
_symmetry_cell_setting 'monoclinic'
loop_
_space_group_symop_operation_xyz
x,y,z
-x,y,-z
-x,-y,-z
x,-y,z
loop_
_atom_site_type_symbol
_atom_site_label
_atom_site_fract_x
_atom_site_fract_y
_atom_site_fract_z
Si Si1 0.559458 0.000000 0.239724
Si Si2 0.528082 0.500000 0.170221
Si Si3 0.997043 0.500000 0.616625
Si Si4 0.995611 0.000000 0.117915
Si Si5 0.264984 0.250265 0.682510
Si Si6 0.561430 0.291243 0.662252
Si Si7 0.045628 0.500000 0.194985
O O1 0.383387 0.865284 0.347357
O O2 0.780823 0.000000 0.175841
O O3 0.707520 0.000000 0.078108
O O4 0.580733 0.366846 0.189525
O O5 0.225430 0.500000 0.318777
O O6 0.708709 0.500000 0.997386
O O7 0.169372 0.365192 0.509490
O O8 0.861406 0.500000 0.773106
O O9 0.951630 0.133500 0.190686
O O10 0.500000 0.194231 0.500000
O O11 0.363005 0.299529 0.706478
O O12 0.135615 0.372416 0.713638
#
# Coordination Sequence:
#
# PCOD8065205 Si02
#       7
#     2   2   2   2   4   4   2
#     4   9  18  34  55  87 111 141 180 224 276 330
#     4  11  24  38  57  80 109 152 190 229 279 315
#     4  11  22  41  55  79 112 150 192 229 268 325
#     4   9  19  32  52  83 125 144 165 216 285 346
#     4  11  20  34  57  86 117 144 179 222 283 334
#     4  10  20  37  61  82 113 143 183 229 273 333
#     4  12  22  36  58  83 114 145 184 235 272 325
#
# _framework density 19.425077999999999
#
# number of rings (size 3 to 8) (size 9 to 14) (size 15 to 20)
#    0.000    1.556    2.222    5.000    0.000    3.556 
#    0.000    2.222    0.000    0.000    0.000    6.222 
#    0.000    0.000    0.000    0.000    0.000    0.000 
#
# Total GULP energy -223214.426572 kJ/mol
# GULP energy per Si atom -12400.801476 kJ/mol
# Density = 1.938087 g / cm^3
# Si number density = 19.425078 Si / 1000 Ang^3
#
#
#
# Elastic Constant Matrix: (Units=GPa)
#
#
# Indices 1 2 3 4 5 6 
#
# 1 61.7768 31.8133 16.1510 0.0000 8.0262 0.0000
# 2 31.8133 148.6960 35.7842 0.0000 11.3901 0.0000
# 3 16.1510 35.7842 104.2360 0.0000 23.3984 0.0000
# 4 0.0000 0.0000 0.0000 27.8723 0.0000 -1.2678
# 5 8.0262 11.3901 23.3984 0.0000 29.1621 0.0000
# 6 0.0000 0.0000 0.0000 -1.2678 0.0000 -92.3249
#
#
#
# Elastic Compliance Matrix: (Units=1/GPa)
#
#
# Indices 1 2 3 4 5 6 
#
# 1 0.018648 -0.003519 -0.001022 0.000000 -0.002938 0.000000
# 2 -0.003519 0.008020 -0.002101 0.000000 -0.000479 0.000000
# 3 -0.001022 -0.002101 0.012472 0.000000 -0.008905 0.000000
# 4 0.000000 0.000000 0.000000 0.035855 0.000000 -0.000492
# 5 -0.002938 -0.000479 -0.008905 0.000000 0.042432 0.000000
# 6 0.000000 0.000000 0.000000 -0.000492 0.000000 -0.010825
#
#
# Mechanical properties :
#
#
# Convention : Reuss Voigt Hill
#
# Bulk Modulus (GPa) = 38.67305 53.57843 46.12574
# Shear Modulus (GPa) = 38.90886 8.33926 23.62406
#
# Velocity S-wave (km/s) = 4.48037 2.07421 3.49114
# Velocity P-wave (km/s) = 6.83498 5.77741 6.32833
#
# Compressibility (1/GPa) = 0.02585780
#
# Stress axis : x y z
#
# Youngs Moduli (GPa) = 53.62427 124.68585 80.17866
#
# Poissons Ratio (x) = 0.43874 0.08194
# Poissons Ratio (y) = 0.18869 0.16843
# Poissons Ratio (z) = 0.05480 0.26192
#
# Static dielectric constant tensor:
#      x y z
#    x 3.353730 0.000000 0.307260 
#    y 0.000000 4.098710 0.000000 
#    z 0.307260 0.000000 3.547360 
# 
# 
# High freq. dielectric constant tensor:
#      x y z
#    x 1.731390 0.000000 0.027990 
#    y 0.000000 1.766760 0.000000 
#    z 0.027990 0.000000 1.756210 
# 
# From -- ./inp_files/44964.got.cif
#   From: 2010.06.25/outbox.cif.g09.slc.cpg/sg10_23_cif.got.tgz:44964.got - 2010.06.27 22:07:45.
