data_PCOD8065180
_publ_section_title
;
Structure prediction by ZEFSAII (Michael W. Deem and Ramdas Pophale) SiO2 
 PCOD8065180
Probable space group: P 2/M
;
_chemical_formula_sum "Si O2"
_cell_formula_units_Z 32
_cell_length_a 28.148247
_cell_length_b 9.042035
_cell_length_c 11.750221
_cell_angle_alpha 90.000000
_cell_angle_beta 32.989446
_cell_angle_gamma 90.000000
_cell_volume 1628.355126
_symmetry_space_group_name_H-M "P 2/M"
_symmetry_group_IT_number 10
_symmetry_cell_setting 'monoclinic'
loop_
_space_group_symop_operation_xyz
x,y,z
-x,y,-z
-x,-y,-z
x,-y,z
loop_
_atom_site_type_symbol
_atom_site_label
_atom_site_fract_x
_atom_site_fract_y
_atom_site_fract_z
Si Si1 0.749436 0.328129 0.891820
Si Si2 0.402545 0.667680 0.973052
Si Si3 0.084402 0.170822 0.071194
Si Si4 0.911518 0.673154 0.409553
Si Si5 0.600335 0.330343 0.574779
Si Si6 0.652400 0.827026 0.693910
Si Si7 0.745242 0.175280 0.138686
Si Si8 0.853749 0.830507 0.303337
O O1 0.754385 0.500000 0.917208
O O2 0.830437 0.281115 0.650632
O O3 0.660456 0.291763 0.004489
O O4 0.752464 0.225538 0.995083
O O5 0.383307 0.500000 0.053863
O O6 0.501111 0.682860 0.730149
O O7 0.386575 0.780208 0.107406
O O8 0.999256 0.257114 0.285873
O O9 0.070896 0.000000 0.127492
O O10 0.169335 0.231747 0.965731
O O11 0.094186 0.196873 0.917135
O O12 0.924233 0.500000 0.379514
O O13 0.895916 0.728682 0.313595
O O14 0.630878 0.500000 0.518720
O O15 0.603573 0.261837 0.693766
O O16 0.659826 0.243761 0.366739
O O17 0.753905 0.786716 0.483607
O O18 0.636054 0.000000 0.707675
O O19 0.736775 0.000000 0.163770
O O20 0.861739 0.000000 0.327435
#
# Coordination Sequence:
#
# PCOD8065180 Si02
#       8
#     4   4   4   4   4   4   4   4
#     4  10  23  43  62  84 119 158 200 249 299 353
#     4  10  22  41  62  88 123 162 201 240 297 364
#     4  10  22  41  61  85 121 159 193 239 300 362
#     4  11  23  38  61  92 121 153 198 248 292 348
#     4  11  23  39  63  90 121 161 199 243 300 359
#     4  11  21  36  61  92 125 158 198 247 296 351
#     4  11  24  43  64  87 117 155 204 252 298 354
#     4  10  20  37  60  86 121 161 194 235 299 359
#
# _framework density 19.651733
#
# number of rings (size 3 to 8) (size 9 to 14) (size 15 to 20)
#    0.000    1.500    2.500    2.250    0.000    8.500 
#    0.000    5.000    0.000    0.000    0.000    0.000 
#    0.000    0.000    0.000    0.000    0.000    0.000 
#
# Total GULP energy -396990.588154 kJ/mol
# GULP energy per Si atom -12405.955880 kJ/mol
# Density = 1.960701 g / cm^3
# Si number density = 19.651733 Si / 1000 Ang^3
#
#
#
# Elastic Constant Matrix: (Units=GPa)
#
#
# Indices 1 2 3 4 5 6 
#
# 1 102.7091 45.4003 81.0900 0.0000 -6.4576 0.0000
# 2 45.4003 89.2476 40.4881 0.0000 -3.4053 0.0000
# 3 81.0900 40.4881 123.0910 0.0000 -29.9294 0.0000
# 4 0.0000 0.0000 0.0000 35.5834 0.0000 2.2553
# 5 -6.4576 -3.4053 -29.9294 0.0000 31.8602 0.0000
# 6 0.0000 0.0000 0.0000 2.2553 0.0000 32.7156
#
#
#
# Elastic Compliance Matrix: (Units=1/GPa)
#
#
# Indices 1 2 3 4 5 6 
#
# 1 0.025639 -0.005268 -0.018185 0.000000 -0.012449 0.000000
# 2 -0.005268 0.014552 -0.001552 0.000000 -0.000970 0.000000
# 3 -0.018185 -0.001552 0.025503 0.000000 0.020106 0.000000
# 4 0.000000 0.000000 0.000000 0.028226 0.000000 -0.001946
# 5 -0.012449 -0.000970 0.020106 0.000000 0.047648 0.000000
# 6 0.000000 0.000000 0.000000 -0.001946 0.000000 0.030701
#
#
# Mechanical properties :
#
#
# Convention : Reuss Voigt Hill
#
# Bulk Modulus (GPa) = 63.75742 72.11163 67.93452
# Shear Modulus (GPa) = 21.97743 29.90312 25.94028
#
# Velocity S-wave (km/s) = 3.34780 3.90507 3.63712
# Velocity P-wave (km/s) = 6.88896 7.55693 7.23066
#
# Compressibility (1/GPa) = 0.01568445
#
# Stress axis : x y z
#
# Youngs Moduli (GPa) = 39.00271 68.72078 39.21095
#
# Poissons Ratio (x) = 0.36202 0.71305
# Poissons Ratio (y) = 0.20546 0.06085
# Poissons Ratio (z) = 0.70926 0.10665
#
# Static dielectric constant tensor:
#      x y z
#    x 3.599010 0.000000 -0.194390 
#    y 0.000000 3.596270 0.000000 
#    z -0.194390 0.000000 3.666560 
# 
# 
# High freq. dielectric constant tensor:
#      x y z
#    x 1.767760 0.000000 -0.013400 
#    y 0.000000 1.767240 0.000000 
#    z -0.013400 0.000000 1.774590 
# 
# From -- ./inp_files/49836.got.cif
#   From: 2010.06.25/outbox.cif.g09.slc.cpg/sg10_25_cif.got.tgz:49836.got - 2010.06.27 22:07:45.
