data_PCOD8065856
_publ_section_title
;
Structure prediction by ZEFSAII (Michael W. Deem and Ramdas Pophale) SiO2 
 PCOD8065856
Probable space group: P 2/M
;
_chemical_formula_sum "Si O2"
_cell_formula_units_Z 32
_cell_length_a 9.037782
_cell_length_b 13.597496
_cell_length_c 23.028171
_cell_angle_alpha 90.000000
_cell_angle_beta 147.426233
_cell_angle_gamma 90.000000
_cell_volume 1523.607867
_symmetry_space_group_name_H-M "P 2/M"
_symmetry_group_IT_number 10
_symmetry_cell_setting 'monoclinic'
loop_
_space_group_symop_operation_xyz
x,y,z
-x,y,-z
-x,-y,-z
x,-y,z
loop_
_atom_site_type_symbol
_atom_site_label
_atom_site_fract_x
_atom_site_fract_y
_atom_site_fract_z
Si Si1 0.202027 0.704730 0.615695
Si Si2 0.779329 0.212049 0.628947
Si Si3 0.250853 0.608493 0.051639
Si Si4 0.182353 0.111044 0.681199
Si Si5 0.817355 0.886750 0.885622
Si Si6 0.802465 0.391702 0.095835
Si Si7 0.230991 0.764158 0.245105
Si Si8 0.154697 0.613761 0.720635
O O1 0.103762 0.813494 0.603850
O O2 0.504192 0.706348 0.689132
O O3 0.186224 0.626942 0.662258
O O4 0.000000 0.665364 0.500000
O O5 0.500000 0.204639 0.500000
O O6 0.713673 0.182033 0.674573
O O7 0.000882 0.133554 0.678019
O O8 0.904716 0.321848 0.663209
O O9 0.282947 0.500000 0.091114
O O10 0.556867 0.654970 0.156024
O O11 0.126197 0.598127 0.947258
O O12 0.000000 0.668011 0.000000
O O13 0.503156 0.127495 0.801810
O O14 0.127080 0.000000 0.641483
O O15 0.878010 0.832919 0.843724
O O16 0.889282 0.000000 0.897566
O O17 0.000000 0.846428 0.000000
O O18 0.816197 0.500000 0.131298
O O19 0.009515 0.316013 0.192966
O O20 0.500000 0.346738 0.000000
O O21 0.097013 0.500000 0.716623
#
# Coordination Sequence:
#
# PCOD8065856 Si02
#       8
#     4   4   4   4   4   4   4   4
#     4  10  21  38  57  83 114 143 191 252 293 335
#     4  11  24  41  57  82 119 153 196 250 290 333
#     4   9  17  31  52  77 103 134 179 231 275 322
#     4   9  20  40  63  84 111 149 188 231 290 350
#     4   9  20  40  64  91 122 151 183 229 285 353
#     4  10  21  35  51  77 113 147 183 229 276 329
#     4  11  22  35  60  88 114 154 195 236 292 346
#     4  10  21  38  58  79 112 159 199 235 290 351
#
# _framework density 21.002777999999999
#
# number of rings (size 3 to 8) (size 9 to 14) (size 15 to 20)
#    0.000    2.125    0.000    3.000    0.000    9.000 
#    0.000    3.750    0.000    2.625    0.000    0.000 
#    0.000    0.000    0.000    0.000    0.000    0.000 
#
# Total GULP energy -396543.669804 kJ/mol
# GULP energy per Si atom -12391.989681 kJ/mol
# Density = 2.095497 g / cm^3
# Si number density = 21.002778 Si / 1000 Ang^3
#
#
#
# Elastic Constant Matrix: (Units=GPa)
#
#
# Indices 1 2 3 4 5 6 
#
# 1 115.3436 13.3470 40.2367 0.0000 -7.2400 0.0000
# 2 13.3470 71.3685 22.1923 0.0000 5.2474 0.0000
# 3 40.2367 22.1923 104.6625 0.0000 -14.0709 0.0000
# 4 0.0000 0.0000 0.0000 -21.3991 0.0000 58.2981
# 5 -7.2400 5.2474 -14.0709 0.0000 41.8255 0.0000
# 6 0.0000 0.0000 0.0000 58.2981 0.0000 -54.5190
#
#
#
# Elastic Compliance Matrix: (Units=1/GPa)
#
#
# Indices 1 2 3 4 5 6 
#
# 1 0.010063 -0.000804 -0.003614 0.000000 0.000627 0.000000
# 2 -0.000804 0.015457 -0.003401 0.000000 -0.003223 0.000000
# 3 -0.003614 -0.003401 0.012190 0.000000 0.003902 0.000000
# 4 0.000000 0.000000 0.000000 0.024426 0.000000 0.026119
# 5 0.000627 -0.003223 0.003902 0.000000 0.025734 0.000000
# 6 0.000000 0.000000 0.000000 0.026119 0.000000 0.009587
#
#
# Mechanical properties :
#
#
# Convention : Reuss Voigt Hill
#
# Bulk Modulus (GPa) = 45.30986 49.21408 47.26197
# Shear Modulus (GPa) = 41.51004 7.55471 24.53238
#
# Velocity S-wave (km/s) = 4.45050 1.89863 3.42139
# Velocity P-wave (km/s) = 6.93033 5.31878 6.17733
#
# Compressibility (1/GPa) = 0.02207025
#
# Stress axis : x y z
#
# Youngs Moduli (GPa) = 99.37594 64.69619 82.03703
#
# Poissons Ratio (x) = 0.05204 0.29646
# Poissons Ratio (y) = 0.07993 0.27905
# Poissons Ratio (z) = 0.35912 0.22006
#
# Static dielectric constant tensor:
#      x y z
#    x 3.897500 0.000000 0.001630 
#    y 0.000000 3.722660 0.000000 
#    z 0.001630 0.000000 3.833870 
# 
# 
# High freq. dielectric constant tensor:
#      x y z
#    x 1.833280 0.000000 0.001760 
#    y 0.000000 1.802110 0.000000 
#    z 0.001760 0.000000 1.821630 
# 
# From -- ./inp_files/88272.got.cif
#   From: 2010.06.25/outbox.cif.g09.slc.cpg/sg10_45_cif.got.tgz:88272.got - 2010.06.27 22:07:45.
