data_PCOD8065483
_publ_section_title
;
Structure prediction by ZEFSAII (Michael W. Deem and Ramdas Pophale) SiO2 
 PCOD8065483
Probable space group: P 2/M
;
_chemical_formula_sum "Si O2"
_cell_formula_units_Z 26
_cell_length_a 11.496886
_cell_length_b 12.181762
_cell_length_c 9.347325
_cell_angle_alpha 90.000000
_cell_angle_beta 83.310028
_cell_angle_gamma 90.000000
_cell_volume 1300.200946
_symmetry_space_group_name_H-M "P 2/M"
_symmetry_group_IT_number 10
_symmetry_cell_setting 'monoclinic'
loop_
_space_group_symop_operation_xyz
x,y,z
-x,y,-z
-x,-y,-z
x,-y,z
loop_
_atom_site_type_symbol
_atom_site_label
_atom_site_fract_x
_atom_site_fract_y
_atom_site_fract_z
Si Si1 0.222914 0.877320 0.226140
Si Si2 0.292094 0.683632 0.406114
Si Si3 0.862790 0.500000 0.535057
Si Si4 0.747638 0.735244 0.261504
Si Si5 0.268910 0.500000 0.747252
Si Si6 0.029943 0.873176 0.837062
Si Si7 0.382109 0.874131 0.939480
Si Si8 0.469702 0.500000 0.342752
O O1 0.288408 0.798157 0.325252
O O2 0.083682 0.857971 0.245972
O O3 0.252153 0.000000 0.274957
O O4 0.270602 0.861216 0.058979
O O5 0.174180 0.613622 0.383300
O O6 0.303206 0.710915 0.573298
O O7 0.398188 0.612285 0.324882
O O8 0.777359 0.500000 0.409260
O O9 0.000000 0.500000 0.500000
O O10 0.775665 0.616304 0.180739
O O11 0.866982 0.803881 0.250246
O O12 0.644923 0.799670 0.194086
O O13 0.408370 0.500000 0.758258
O O14 0.070361 0.000000 0.838343
O O15 0.000000 0.830195 0.000000
O O16 0.398610 0.000000 0.887319
O O17 0.500000 0.832331 0.000000
O O18 0.500000 0.500000 0.500000
#
# Coordination Sequence:
#
# PCOD8065483 Si02
#       8
#     4   4   2   4   2   4   4   2
#     4  10  22  39  58  90 125 153 194 244 301 355
#     4  10  23  35  64  91 116 153 196 251 295 347
#     4   9  19  36  55  81 118 155 192 232 295 351
#     4  11  21  38  61  88 115 155 199 247 293 352
#     4  10  23  37  60  90 119 156 199 248 292 355
#     4  10  20  38  63  83 115 167 204 233 290 367
#     4  10  22  40  61  84 116 158 199 242 295 357
#     4  11  18  44  61  83 118 165 201 229 300 370
#
# _framework density 19.996908999999999
#
# number of rings (size 3 to 8) (size 9 to 14) (size 15 to 20)
#    0.000    1.846    4.615    0.462    6.462    1.231 
#    0.000    3.846    0.000    3.231    0.000    0.000 
#    0.000    0.000    0.000    0.000    0.000    0.000 
#
# Total GULP energy -322197.117948 kJ/mol
# GULP energy per Si atom -12392.196844 kJ/mol
# Density = 1.995139 g / cm^3
# Si number density = 19.996909 Si / 1000 Ang^3
#
#
#
# Elastic Constant Matrix: (Units=GPa)
#
#
# Indices 1 2 3 4 5 6 
#
# 1 117.7868 50.1936 13.7589 0.0000 0.4769 0.0000
# 2 50.1936 146.1731 44.5098 0.0000 13.6671 0.0000
# 3 13.7589 44.5098 49.2525 0.0000 10.7250 0.0000
# 4 0.0000 0.0000 0.0000 12.1642 0.0000 0.9512
# 5 0.4769 13.6671 10.7250 0.0000 21.6453 0.0000
# 6 0.0000 0.0000 0.0000 0.9512 0.0000 27.0461
#
#
#
# Elastic Compliance Matrix: (Units=1/GPa)
#
#
# Indices 1 2 3 4 5 6 
#
# 1 0.010032 -0.003653 0.000050 0.000000 0.002061 0.000000
# 2 -0.003653 0.010842 -0.008188 0.000000 -0.002708 0.000000
# 3 0.000050 -0.008188 0.029776 0.000000 -0.009585 0.000000
# 4 0.000000 0.000000 0.000000 0.082435 0.000000 -0.002899
# 5 0.002061 -0.002708 -0.009585 0.000000 0.052613 0.000000
# 6 0.000000 0.000000 0.000000 -0.002899 0.000000 0.037076
#
#
# Mechanical properties :
#
#
# Convention : Reuss Voigt Hill
#
# Bulk Modulus (GPa) = 36.94284 58.90413 47.92348
# Shear Modulus (GPa) = 19.57875 25.82114 22.69995
#
# Velocity S-wave (km/s) = 3.13243 3.59730 3.37289
# Velocity P-wave (km/s) = 5.62114 6.83920 6.25987
#
# Compressibility (1/GPa) = 0.02706884
#
# Stress axis : x y z
#
# Youngs Moduli (GPa) = 99.67745 92.23459 33.58386
#
# Poissons Ratio (x) = 0.33691 -0.00167
# Poissons Ratio (y) = 0.36410 0.27498
# Poissons Ratio (z) = -0.00496 0.75519
#
# Static dielectric constant tensor:
#      x y z
#    x 3.281190 0.000000 0.070570 
#    y 0.000000 4.094010 0.000000 
#    z 0.070570 0.000000 3.159610 
# 
# 
# High freq. dielectric constant tensor:
#      x y z
#    x 1.788430 0.000000 0.008200 
#    y 0.000000 1.799200 0.000000 
#    z 0.008200 0.000000 1.733300 
# 
# From -- ./inp_files/24121.got.cif
#   From: 2010.06.25/outbox.cif.g09.slc.cpg/sg10_13_cif.got.tgz:24121.got - 2010.06.27 22:07:45.
