data_PCOD8065129
_publ_section_title
;
Structure prediction by ZEFSAII (Michael W. Deem and Ramdas Pophale) SiO2 
 PCOD8065129
Probable space group: P 2/M
;
_chemical_formula_sum "Si O2"
_cell_formula_units_Z 32
_cell_length_a 14.779535
_cell_length_b 8.631410
_cell_length_c 24.407459
_cell_angle_alpha 90.000000
_cell_angle_beta 152.008045
_cell_angle_gamma 90.000000
_cell_volume 1461.368258
_symmetry_space_group_name_H-M "P 2/M"
_symmetry_group_IT_number 10
_symmetry_cell_setting 'monoclinic'
loop_
_space_group_symop_operation_xyz
x,y,z
-x,y,-z
-x,-y,-z
x,-y,z
loop_
_atom_site_type_symbol
_atom_site_label
_atom_site_fract_x
_atom_site_fract_y
_atom_site_fract_z
Si Si1 0.207970 0.178985 0.351231
Si Si2 0.325177 0.817286 0.534577
Si Si3 0.057029 0.817814 0.969489
Si Si4 0.553432 0.320672 0.108513
Si Si5 0.227177 0.822674 0.865753
Si Si6 0.501306 0.181852 0.809315
Si Si7 0.809790 0.682561 0.431366
Si Si8 0.714750 0.318645 0.719537
O O1 0.268246 0.239090 0.443274
O O2 0.310670 0.274791 0.358139
O O3 0.982235 0.206516 0.222554
O O4 0.266537 0.000000 0.375168
O O5 0.179923 0.732656 0.499395
O O6 0.546611 0.767655 0.663746
O O7 0.299466 0.000000 0.527788
O O8 0.921839 0.732509 0.853392
O O9 0.030225 0.000000 0.946406
O O10 0.277131 0.765501 0.077974
O O11 0.000000 0.766874 0.000000
O O12 0.502150 0.500000 0.076364
O O13 0.737080 0.282576 0.168712
O O14 0.599802 0.273744 0.195138
O O15 0.372331 0.219899 0.991869
O O16 0.256808 0.000000 0.863943
O O17 0.380149 0.229262 0.691536
O O18 0.486796 0.000000 0.811483
O O19 0.782562 0.500000 0.410956
O O20 0.000000 0.737391 0.500000
O O21 0.688244 0.500000 0.712870
#
# Coordination Sequence:
#
# PCOD8065129 Si02
#       8
#     4   4   4   4   4   4   4   4
#     4  10  23  41  64  92 124 166 217 267 316 376
#     4  11  24  44  68  93 125 171 221 270 317 377
#     4  10  22  41  66  94 125 165 213 264 318 377
#     4  11  22  36  56  86 124 164 204 257 321 378
#     4  10  20  37  59  87 120 160 211 262 312 376
#     4  11  23  40  65  93 123 164 212 259 310 377
#     4  11  26  46  67  97 133 168 208 265 328 384
#     4  12  25  40  64  98 134 172 211 263 327 388
#
# _framework density 21.897286999999999
#
# number of rings (size 3 to 8) (size 9 to 14) (size 15 to 20)
#    0.000    1.250    0.000    6.375    1.750    9.750 
#    0.000    0.000    0.000    0.000    0.000    0.000 
#    0.000    0.000    0.000    0.000    0.000    0.000 
#
# Total GULP energy -396971.783045 kJ/mol
# GULP energy per Si atom -12405.368220 kJ/mol
# Density = 2.184745 g / cm^3
# Si number density = 21.897287 Si / 1000 Ang^3
#
#
#
# Elastic Constant Matrix: (Units=GPa)
#
#
# Indices 1 2 3 4 5 6 
#
# 1 128.1761 40.1789 34.6135 0.0000 -5.0895 0.0000
# 2 40.1789 74.9849 24.7378 0.0000 7.3595 0.0000
# 3 34.6135 24.7378 71.4669 0.0000 -0.6609 0.0000
# 4 0.0000 0.0000 0.0000 18.7436 0.0000 -5.0928
# 5 -5.0895 7.3595 -0.6609 0.0000 35.3524 0.0000
# 6 0.0000 0.0000 0.0000 -5.0928 0.0000 30.0563
#
#
#
# Elastic Compliance Matrix: (Units=1/GPa)
#
#
# Indices 1 2 3 4 5 6 
#
# 1 0.010247 -0.004621 -0.003341 0.000000 0.002375 0.000000
# 2 -0.004621 0.017518 -0.003866 0.000000 -0.004384 0.000000
# 3 -0.003341 -0.003866 0.016955 0.000000 0.000641 0.000000
# 4 0.000000 0.000000 0.000000 0.055926 0.000000 0.009476
# 5 0.002375 -0.004384 0.000641 0.000000 0.029553 0.000000
# 6 0.000000 0.000000 0.000000 0.009476 0.000000 0.034877
#
#
# Mechanical properties :
#
#
# Convention : Reuss Voigt Hill
#
# Bulk Modulus (GPa) = 47.47773 52.63202 50.05488
# Shear Modulus (GPa) = 25.54222 28.50365 27.02293
#
# Velocity S-wave (km/s) = 3.41905 3.61182 3.51675
# Velocity P-wave (km/s) = 6.10865 6.44063 6.27683
#
# Compressibility (1/GPa) = 0.02106251
#
# Stress axis : x y z
#
# Youngs Moduli (GPa) = 97.58933 57.08407 58.97999
#
# Poissons Ratio (x) = 0.26381 0.19707
# Poissons Ratio (y) = 0.45100 0.22802
# Poissons Ratio (z) = 0.32607 0.22069
#
# Static dielectric constant tensor:
#      x y z
#    x 4.112510 0.000000 -0.015900 
#    y 0.000000 3.792940 0.000000 
#    z -0.015900 0.000000 4.003670 
# 
# 
# High freq. dielectric constant tensor:
#      x y z
#    x 1.876230 0.000000 -0.000320 
#    y 0.000000 1.854400 0.000000 
#    z -0.000320 0.000000 1.861650 
# 
# From -- ./inp_files/89604.got.cif
#   From: 2010.06.25/outbox.cif.g09.slc.cpg/sg10_45_cif.got.tgz:89604.got - 2010.06.27 22:07:45.
