data_PCOD8065373
_publ_section_title
;
Structure prediction by ZEFSAII (Michael W. Deem and Ramdas Pophale) SiO2 
 PCOD8065373
Probable space group: P 2/M
;
_chemical_formula_sum "Si O2"
_cell_formula_units_Z 32
_cell_length_a 20.617217
_cell_length_b 14.389917
_cell_length_c 14.778700
_cell_angle_alpha 90.000000
_cell_angle_beta 19.557569
_cell_angle_gamma 90.000000
_cell_volume 1467.743329
_symmetry_space_group_name_H-M "P 2/M"
_symmetry_group_IT_number 10
_symmetry_cell_setting 'monoclinic'
loop_
_space_group_symop_operation_xyz
x,y,z
-x,y,-z
-x,-y,-z
x,-y,z
loop_
_atom_site_type_symbol
_atom_site_label
_atom_site_fract_x
_atom_site_fract_y
_atom_site_fract_z
Si Si1 0.583641 0.106112 0.709892
Si Si2 0.273134 0.400644 0.069897
Si Si3 0.690214 0.704808 0.351372
Si Si4 0.799596 0.782547 0.733703
Si Si5 0.270073 0.394337 0.519967
Si Si6 0.780087 0.098603 0.262476
Si Si7 0.749429 0.317347 0.080640
Si Si8 0.855874 0.758969 0.452582
O O1 0.635632 0.112644 0.536816
O O2 0.763180 0.152536 0.525972
O O3 0.563035 0.000000 0.770518
O O4 0.383516 0.159533 0.990957
O O5 0.197460 0.500000 0.206530
O O6 0.178436 0.316703 0.247138
O O7 0.501336 0.396284 0.783662
O O8 0.213021 0.397767 0.042422
O O9 0.792227 0.659533 0.305238
O O10 0.766580 0.807563 0.222459
O O11 0.462592 0.721217 0.664620
O O12 0.746935 0.643721 0.187801
O O13 0.774844 0.761854 0.660566
O O14 0.000000 0.835133 0.500000
O O15 0.186868 0.500000 0.628894
O O16 0.195738 0.338007 0.530374
O O17 0.721026 0.000000 0.291444
O O18 0.000000 0.087049 0.000000
O O19 0.910042 0.235991 0.855521
#
# Coordination Sequence:
#
# PCOD8065373 Si02
#       8
#     4   4   4   4   4   4   4   4
#     4  11  24  44  69  98 132 171 218 271 329 392
#     4  10  21  42  64  91 129 172 222 269 323 388
#     4  10  20  40  65  90 134 171 216 262 332 389
#     4  12  25  43  67  91 130 178 221 275 328 381
#     4  10  22  39  64  94 127 165 215 272 331 395
#     4  10  20  37  68 100 128 167 212 263 326 389
#     4  10  22  38  62  93 127 182 211 264 325 392
#     4  12  23  40  65  91 133 165 219 273 329 385
#
# _framework density 21.802178000000001
#
# number of rings (size 3 to 8) (size 9 to 14) (size 15 to 20)
#    0.000    1.375    3.750    1.875    0.000    3.000 
#    0.000    6.250    0.000    0.750    0.000    0.000 
#    0.000    0.000    0.000    0.000    0.000    0.000 
#
# Total GULP energy -396444.747401 kJ/mol
# GULP energy per Si atom -12388.898356 kJ/mol
# Density = 2.175256 g / cm^3
# Si number density = 21.802178 Si / 1000 Ang^3
#
#
#
# Elastic Constant Matrix: (Units=GPa)
#
#
# Indices 1 2 3 4 5 6 
#
# 1 72.5479 22.9353 -5.2743 0.0000 9.0228 0.0000
# 2 22.9353 128.7444 17.0005 0.0000 -0.0897 0.0000
# 3 -5.2743 17.0005 81.3414 0.0000 1.3227 0.0000
# 4 0.0000 0.0000 0.0000 25.1062 0.0000 4.1716
# 5 9.0228 -0.0897 1.3227 0.0000 28.5650 0.0000
# 6 0.0000 0.0000 0.0000 4.1716 0.0000 13.7131
#
#
#
# Elastic Compliance Matrix: (Units=1/GPa)
#
#
# Indices 1 2 3 4 5 6 
#
# 1 0.015471 -0.002985 0.001708 0.000000 -0.004975 0.000000
# 2 -0.002985 0.008564 -0.002001 0.000000 0.001062 0.000000
# 3 0.001708 -0.002001 0.012841 0.000000 -0.001140 0.000000
# 4 0.000000 0.000000 0.000000 0.041951 0.000000 -0.012762
# 5 -0.004975 0.001062 -0.001140 0.000000 0.036636 0.000000
# 6 0.000000 0.000000 0.000000 -0.012762 0.000000 0.076805
#
#
# Mechanical properties :
#
#
# Convention : Reuss Voigt Hill
#
# Bulk Modulus (GPa) = 32.98124 39.10629 36.04377
# Shear Modulus (GPa) = 23.93141 30.00834 26.96988
#
# Velocity S-wave (km/s) = 3.31669 3.71400 3.52095
# Velocity P-wave (km/s) = 5.46146 6.03055 5.75305
#
# Compressibility (1/GPa) = 0.03032027
#
# Stress axis : x y z
#
# Youngs Moduli (GPa) = 64.63876 116.76750 77.87369
#
# Poissons Ratio (x) = 0.34855 -0.13300
# Poissons Ratio (y) = 0.19295 0.15580
# Poissons Ratio (z) = -0.11040 0.23362
#
# Static dielectric constant tensor:
#      x y z
#    x 4.005470 0.000000 0.012960 
#    y 0.000000 4.294900 0.000000 
#    z 0.012960 0.000000 4.059790 
# 
# 
# High freq. dielectric constant tensor:
#      x y z
#    x 1.850900 0.000000 0.000500 
#    y 0.000000 1.842060 0.000000 
#    z 0.000500 0.000000 1.873300 
# 
# From -- ./inp_files/70753.got.cif
#   From: 2010.06.25/outbox.cif.g09.slc.cpg/sg10_36_cif.got.tgz:70753.got - 2010.06.27 22:07:45.
