data_PCOD8065420
_publ_section_title
;
Structure prediction by ZEFSAII (Michael W. Deem and Ramdas Pophale) SiO2 
 PCOD8065420
Probable space group: P 2/M
;
_chemical_formula_sum "Si O2"
_cell_formula_units_Z 18
_cell_length_a 9.064209
_cell_length_b 21.134753
_cell_length_c 7.868112
_cell_angle_alpha 90.000000
_cell_angle_beta 34.047769
_cell_angle_gamma 90.000000
_cell_volume 843.908963
_symmetry_space_group_name_H-M "P 2/M"
_symmetry_group_IT_number 10
_symmetry_cell_setting 'monoclinic'
loop_
_space_group_symop_operation_xyz
x,y,z
-x,y,-z
-x,-y,-z
x,-y,z
loop_
_atom_site_type_symbol
_atom_site_label
_atom_site_fract_x
_atom_site_fract_y
_atom_site_fract_z
Si Si1 0.732641 0.430201 0.157114
Si Si2 0.423582 0.808022 0.880676
Si Si3 0.246323 0.326583 0.139750
Si Si4 0.922237 0.873135 0.376451
Si Si5 0.232478 0.000000 0.647537
O O1 0.500000 0.402784 0.500000
O O2 0.645194 0.500000 0.171993
O O3 0.809969 0.383339 0.932804
O O4 0.000000 0.438530 0.000000
O O5 0.703515 0.821118 0.522082
O O6 0.500000 0.825631 0.000000
O O7 0.316974 0.736690 0.966922
O O8 0.196863 0.854742 0.020941
O O9 0.000000 0.313852 0.500000
O O10 0.500000 0.348580 0.000000
O O11 0.799284 0.940271 0.445648
O O12 0.000000 0.870221 0.500000
O O13 0.500000 0.000000 0.500000
O O14 0.000000 0.000000 0.000000
#
# Coordination Sequence:
#
# PCOD8065420 Si02
#       5
#     4   4   4   4   2
#     4  10  22  40  58  81 119 162 198 235 284 345
#     4   9  18  34  58  85 111 140 182 236 282 331
#     4  11  21  36  61  91 118 147 191 247 296 336
#     4  10  20  38  61  80 105 148 191 220 270 349
#     4  12  25  40  55  82 118 144 180 240 292 324
#
# _framework density 21.329315999999999
#
# number of rings (size 3 to 8) (size 9 to 14) (size 15 to 20)
#    0.000    1.778    0.000    6.333    0.000    0.889 
#    0.000   11.111    0.000    0.000    0.000    0.000 
#    0.000    0.000    0.000    0.000    0.000    0.000 
#
# Total GULP energy -223006.550239 kJ/mol
# GULP energy per Si atom -12389.252791 kJ/mol
# Density = 2.128077 g / cm^3
# Si number density = 21.329316 Si / 1000 Ang^3
#
#
#
# Elastic Constant Matrix: (Units=GPa)
#
#
# Indices 1 2 3 4 5 6 
#
# 1 52.4973 49.9360 32.4428 0.0000 -24.9241 0.0000
# 2 49.9360 143.5799 41.4694 0.0000 -11.1826 0.0000
# 3 32.4428 41.4694 130.5614 0.0000 -26.1433 0.0000
# 4 0.0000 0.0000 0.0000 33.4004 0.0000 -16.0954
# 5 -24.9241 -11.1826 -26.1433 0.0000 32.5329 0.0000
# 6 0.0000 0.0000 0.0000 -16.0954 0.0000 15.9003
#
#
#
# Elastic Compliance Matrix: (Units=1/GPa)
#
#
# Indices 1 2 3 4 5 6 
#
# 1 0.047442 -0.013743 -0.001301 0.000000 0.030577 0.000000
# 2 -0.013743 0.011667 -0.001902 0.000000 -0.008047 0.000000
# 3 -0.001301 -0.001902 0.009839 0.000000 0.006256 0.000000
# 4 0.000000 0.000000 0.000000 0.058454 0.000000 0.059171
# 5 0.030577 -0.008047 0.006256 0.000000 0.056425 0.000000
# 6 0.000000 0.000000 0.000000 0.059171 0.000000 0.122788
#
#
# Mechanical properties :
#
#
# Convention : Reuss Voigt Hill
#
# Bulk Modulus (GPa) = 28.52540 63.81503 46.17021
# Shear Modulus (GPa) = 14.19679 29.88609 22.04144
#
# Velocity S-wave (km/s) = 2.58272 3.74729 3.21812
# Velocity P-wave (km/s) = 4.72195 6.97902 5.95834
#
# Compressibility (1/GPa) = 0.03505648
#
# Stress axis : x y z
#
# Youngs Moduli (GPa) = 21.07855 85.71175 101.63182
#
# Poissons Ratio (x) = 1.17790 0.13223
# Poissons Ratio (y) = 0.28967 0.19331
# Poissons Ratio (z) = 0.02742 0.16303
#
# Static dielectric constant tensor:
#      x y z
#    x 3.471210 0.000000 -0.526150 
#    y 0.000000 5.965120 0.000000 
#    z -0.526150 0.000000 4.153220 
# 
# 
# High freq. dielectric constant tensor:
#      x y z
#    x 1.813000 0.000000 -0.034390 
#    y 0.000000 1.839350 0.000000 
#    z -0.034390 0.000000 1.852980 
# 
# From -- ./inp_files/15344.got.cif
#   From: 2010.06.25/outbox.cif.g09.slc.cpg/sg10_8_cif.got.tgz:15344.got - 2010.06.27 22:07:45.
