data_PCOD8065133
_publ_section_title
;
Structure prediction by ZEFSAII (Michael W. Deem and Ramdas Pophale) SiO2 
 PCOD8065133
Probable space group: P 2/M
;
_chemical_formula_sum "Si O2"
_cell_formula_units_Z 28
_cell_length_a 26.853036
_cell_length_b 9.070738
_cell_length_c 9.689352
_cell_angle_alpha 90.000000
_cell_angle_beta 38.569780
_cell_angle_gamma 90.000000
_cell_volume 1471.446360
_symmetry_space_group_name_H-M "P 2/M"
_symmetry_group_IT_number 10
_symmetry_cell_setting 'monoclinic'
loop_
_space_group_symop_operation_xyz
x,y,z
-x,y,-z
-x,-y,-z
x,-y,z
loop_
_atom_site_type_symbol
_atom_site_label
_atom_site_fract_x
_atom_site_fract_y
_atom_site_fract_z
Si Si1 0.427033 0.168047 0.252011
Si Si2 0.729491 0.671491 0.497986
Si Si3 0.471292 0.831527 0.709375
Si Si4 0.310942 0.671638 0.105605
Si Si5 0.811572 0.824044 0.821761
Si Si6 0.978981 0.839543 0.386803
Si Si7 0.852214 0.824043 0.041052
O O1 0.351593 0.270907 0.393975
O O2 0.452606 0.179825 0.355547
O O3 0.404393 0.000000 0.260887
O O4 0.500000 0.224005 0.000000
O O5 0.735811 0.500000 0.450897
O O6 0.731732 0.702908 0.656294
O O7 0.804868 0.753641 0.269574
O O8 0.500000 0.770984 0.500000
O O9 0.440829 0.000000 0.764439
O O10 0.400368 0.732422 0.921717
O O11 0.314096 0.500000 0.064634
O O12 0.265155 0.752828 0.081783
O O13 0.892019 0.760158 0.570126
O O14 0.808414 0.000000 0.814000
O O15 0.812084 0.779079 0.981998
O O16 0.000000 0.862577 0.500000
O O17 0.969413 0.000000 0.337829
O O18 0.055897 0.760810 0.149415
O O19 0.852598 0.000000 0.054666
#
# Coordination Sequence:
#
# PCOD8065133 Si02
#       7
#     4   4   4   4   4   4   4
#     4  10  20  37  60  81 102 136 181 224 268 317
#     4  11  24  38  53  77 113 151 184 219 263 318
#     4  10  22  39  59  82 107 135 175 226 274 321
#     4  11  24  39  53  76 113 152 184 216 264 321
#     4   9  18  34  59  85 109 139 178 226 275 320
#     4   7  12  28  54  83 109 134 171 222 274 319
#     4   9  18  34  59  86 109 137 179 227 272 321
#
# _framework density 19.028896
#
# number of rings (size 3 to 8) (size 9 to 14) (size 15 to 20)
#    0.000    2.429    1.429    2.571    2.000    3.429 
#    0.000    1.429    0.000    6.857    0.000    0.000 
#    0.000    0.000    0.000    0.000    0.000    0.000 
#
# Total GULP energy -347059.499216 kJ/mol
# GULP energy per Si atom -12394.982115 kJ/mol
# Density = 1.898559 g / cm^3
# Si number density = 19.028896 Si / 1000 Ang^3
#
#
#
# Elastic Constant Matrix: (Units=GPa)
#
#
# Indices 1 2 3 4 5 6 
#
# 1 37.6044 15.1757 -2.3278 0.0000 4.3383 0.0000
# 2 15.1757 51.3498 30.8032 0.0000 2.7192 0.0000
# 3 -2.3278 30.8032 94.8877 0.0000 4.2402 0.0000
# 4 0.0000 0.0000 0.0000 17.3626 0.0000 9.6493
# 5 4.3383 2.7192 4.2402 0.0000 26.5978 0.0000
# 6 0.0000 0.0000 0.0000 9.6493 0.0000 0.5556
#
#
#
# Elastic Compliance Matrix: (Units=1/GPa)
#
#
# Indices 1 2 3 4 5 6 
#
# 1 0.032441 -0.012342 0.005018 0.000000 -0.004830 0.000000
# 2 -0.012342 0.028919 -0.009718 0.000000 0.000606 0.000000
# 3 0.005018 -0.009718 0.013908 0.000000 -0.002042 0.000000
# 4 0.000000 0.000000 0.000000 -0.006657 0.000000 0.115613
# 5 -0.004830 0.000606 -0.002042 0.000000 0.038649 0.000000
# 6 0.000000 0.000000 0.000000 0.115613 0.000000 -0.208029
#
#
# Mechanical properties :
#
#
# Convention : Reuss Voigt Hill
#
# Bulk Modulus (GPa) = 24.28075 30.12712 27.20394
# Shear Modulus (GPa) = -94.41517 18.24925 -38.08296
#
# Velocity S-wave (km/s) = -7.05156 3.10018 -4.47847
# Velocity P-wave (km/s) = 7.31516 5.35551 3.52350
#
# Compressibility (1/GPa) = 0.04118489
#
# Stress axis : x y z
#
# Youngs Moduli (GPa) = 30.82501 34.57920 71.90216
#
# Poissons Ratio (x) = 0.42678 -0.36082
# Poissons Ratio (y) = 0.38044 0.69873
# Poissons Ratio (z) = -0.15469 0.33603
#
# Static dielectric constant tensor:
#      x y z
#    x 3.421640 0.000000 -0.138020 
#    y 0.000000 3.222710 0.000000 
#    z -0.138020 0.000000 3.701010 
# 
# 
# High freq. dielectric constant tensor:
#      x y z
#    x 1.730810 0.000000 -0.008060 
#    y 0.000000 1.711140 0.000000 
#    z -0.008060 0.000000 1.749080 
# 
# From -- ./inp_files/36999.got.cif
#   From: 2010.06.25/outbox.cif.g09.slc.cpg/sg10_19_cif.got.tgz:36999.got - 2010.06.27 22:07:45.
