data_PCOD8065189
_publ_section_title
;
Structure prediction by ZEFSAII (Michael W. Deem and Ramdas Pophale) SiO2 
 PCOD8065189
Probable space group: P 2/M
;
_chemical_formula_sum "Si O2"
_cell_formula_units_Z 32
_cell_length_a 15.152487
_cell_length_b 8.885173
_cell_length_c 24.122664
_cell_angle_alpha 90.000000
_cell_angle_beta 151.129063
_cell_angle_gamma 90.000000
_cell_volume 1568.110777
_symmetry_space_group_name_H-M "P 2/M"
_symmetry_group_IT_number 10
_symmetry_cell_setting 'monoclinic'
loop_
_space_group_symop_operation_xyz
x,y,z
-x,y,-z
-x,-y,-z
x,-y,z
loop_
_atom_site_type_symbol
_atom_site_label
_atom_site_fract_x
_atom_site_fract_y
_atom_site_fract_z
Si Si1 0.989309 0.829877 0.053318
Si Si2 0.346174 0.336178 0.371866
Si Si3 0.406111 0.831016 0.301421
Si Si4 0.012860 0.178388 0.248298
Si Si5 0.676039 0.678438 0.375628
Si Si6 0.269683 0.178815 0.995645
Si Si7 0.021782 0.824160 0.379909
Si Si8 0.662679 0.175516 0.250192
O O1 0.189290 0.828756 0.188392
O O2 0.850646 0.751289 0.019975
O O3 0.917980 0.000000 0.003372
O O4 0.000000 0.744116 0.000000
O O5 0.500000 0.366818 0.500000
O O6 0.273820 0.500000 0.310998
O O7 0.463674 0.249896 0.389452
O O8 0.179114 0.242485 0.304475
O O9 0.480607 0.741432 0.288967
O O10 0.484482 0.000000 0.341907
O O11 0.821417 0.229059 0.113102
O O12 0.017816 0.236327 0.314441
O O13 0.030479 0.000000 0.256851
O O14 0.675463 0.500000 0.374850
O O15 0.709883 0.736176 0.332250
O O16 0.830079 0.735149 0.502787
O O17 0.261277 0.000000 0.994031
O O18 0.477520 0.235038 0.118317
O O19 0.822418 0.792717 0.294757
O O20 0.071285 0.000000 0.409673
O O21 0.646241 0.000000 0.256398
#
# Coordination Sequence:
#
# PCOD8065189 Si02
#       8
#     4   4   4   4   4   4   4   4
#     4   9  16  28  52  84 114 146 184 226 280 343
#     4  11  23  37  54  81 119 159 197 238 287 345
#     4  11  21  36  60  86 114 151 192 237 289 346
#     4  10  20  37  60  87 120 157 200 246 296 356
#     4  12  25  40  59  86 122 159 199 249 303 362
#     4   9  17  33  58  89 122 154 194 244 298 354
#     4  10  22  39  62  91 118 152 202 255 303 353
#     4  10  21  39  64  90 118 154 198 251 305 357
#
# _framework density 20.406721999999998
#
# number of rings (size 3 to 8) (size 9 to 14) (size 15 to 20)
#    0.000    1.750    1.250    3.750    0.000    8.000 
#    0.000    3.125    0.000    1.500    0.000    2.625 
#    0.000    0.000    0.000    0.000    0.000    0.000 
#
# Total GULP energy -396644.388722 kJ/mol
# GULP energy per Si atom -12395.137148 kJ/mol
# Density = 2.036028 g / cm^3
# Si number density = 20.406722 Si / 1000 Ang^3
#
#
#
# Elastic Constant Matrix: (Units=GPa)
#
#
# Indices 1 2 3 4 5 6 
#
# 1 106.9610 32.9892 34.0661 0.0000 -6.5945 0.0000
# 2 32.9892 71.7530 23.0775 0.0000 -6.6276 0.0000
# 3 34.0661 23.0775 96.6831 0.0000 -9.2784 0.0000
# 4 0.0000 0.0000 0.0000 -5.3368 0.0000 -3.2966
# 5 -6.5945 -6.6276 -9.2784 0.0000 38.9553 0.0000
# 6 0.0000 0.0000 0.0000 -3.2966 0.0000 9.0236
#
#
#
# Elastic Compliance Matrix: (Units=1/GPa)
#
#
# Indices 1 2 3 4 5 6 
#
# 1 0.011688 -0.004352 -0.003030 0.000000 0.000517 0.000000
# 2 -0.004352 0.016833 -0.002334 0.000000 0.001571 0.000000
# 3 -0.003030 -0.002334 0.012158 0.000000 0.001986 0.000000
# 4 0.000000 0.000000 0.000000 -0.152878 0.000000 -0.055851
# 5 0.000517 0.001571 0.001986 0.000000 0.026498 0.000000
# 6 0.000000 0.000000 0.000000 -0.055851 0.000000 0.090417
#
#
# Mechanical properties :
#
#
# Convention : Reuss Voigt Hill
#
# Bulk Modulus (GPa) = 47.06160 50.62920 48.84540
# Shear Modulus (GPa) = 160.09554 20.87935 90.48744
#
# Velocity S-wave (km/s) = 8.86694 3.20216 6.66620
# Velocity P-wave (km/s) = 11.31115 6.20771 9.12353
#
# Compressibility (1/GPa) = 0.02124874
#
# Stress axis : x y z
#
# Youngs Moduli (GPa) = 85.55636 59.40663 82.24788
#
# Poissons Ratio (x) = 0.25851 0.24922
# Poissons Ratio (y) = 0.37230 0.19196
# Poissons Ratio (z) = 0.25924 0.13865
#
# Static dielectric constant tensor:
#      x y z
#    x 3.945320 0.000000 -0.046560 
#    y 0.000000 3.524920 0.000000 
#    z -0.046560 0.000000 3.904940 
# 
# 
# High freq. dielectric constant tensor:
#      x y z
#    x 1.808600 0.000000 -0.004490 
#    y 0.000000 1.761100 0.000000 
#    z -0.004490 0.000000 1.806070 
# 
# From -- ./inp_files/89611.got.cif
#   From: 2010.06.25/outbox.cif.g09.slc.cpg/sg10_45_cif.got.tgz:89611.got - 2010.06.27 22:07:45.
