data_PCOD8065315
_publ_section_title
;
Structure prediction by ZEFSAII (Michael W. Deem and Ramdas Pophale) SiO2 
 PCOD8065315
Probable space group: P 2/M
;
_chemical_formula_sum "Si O2"
_cell_formula_units_Z 24
_cell_length_a 11.464292
_cell_length_b 7.762623
_cell_length_c 12.370096
_cell_angle_alpha 90.000000
_cell_angle_beta 87.040605
_cell_angle_gamma 90.000000
_cell_volume 1099.383541
_symmetry_space_group_name_H-M "P 2/M"
_symmetry_group_IT_number 10
_symmetry_cell_setting 'monoclinic'
loop_
_space_group_symop_operation_xyz
x,y,z
-x,y,-z
-x,-y,-z
x,-y,z
loop_
_atom_site_type_symbol
_atom_site_label
_atom_site_fract_x
_atom_site_fract_y
_atom_site_fract_z
Si Si1 0.327119 0.305438 0.579775
Si Si2 0.380698 0.500000 0.932927
Si Si3 0.444390 0.192028 0.780543
Si Si4 0.936989 0.296431 0.396593
Si Si5 0.333032 0.800846 0.346672
Si Si6 0.114195 0.803390 0.224234
Si Si7 0.875795 0.500000 0.942711
O O1 0.337179 0.500000 0.621344
O O2 0.395886 0.187512 0.660415
O O3 0.195435 0.237741 0.587698
O O4 0.372392 0.297741 0.453763
O O5 0.382098 0.327595 0.861057
O O6 0.500000 0.500000 0.000000
O O7 0.250772 0.500000 0.990995
O O8 0.580501 0.240856 0.757815
O O9 0.429876 0.000000 0.831027
O O10 0.952860 0.500000 0.385031
O O11 0.000000 0.224241 0.500000
O O12 0.988010 0.208783 0.286229
O O13 0.206387 0.741832 0.311259
O O14 0.335197 0.000000 0.376675
O O15 0.122871 0.676572 0.123490
O O16 0.138388 0.000000 0.184309
O O17 0.000000 0.500000 0.000000
#
# Coordination Sequence:
#
# PCOD8065315 Si02
#       7
#     4   2   4   4   4   4   2
#     4  11  22  35  63 100 141 179 214 255 317 400
#     4  12  28  52  76  97 121 174 236 286 342 401
#     4  11  25  44  68  98 135 170 215 275 333 391
#     4  10  20  37  62  98 139 179 214 257 311 388
#     4  10  22  39  62 100 139 175 216 261 314 396
#     4  11  24  43  70  97 130 176 222 265 331 404
#     4  12  30  50  72  97 135 164 222 304 350 383
#
# _framework density 21.830414999999999
#
# number of rings (size 3 to 8) (size 9 to 14) (size 15 to 20)
#    0.000    1.167    3.333    2.000    4.667    5.000 
#    0.000    0.000    0.000    0.000    0.000    0.000 
#    0.000    0.000    0.000    0.000    0.000    0.000 
#
# Total GULP energy -297539.455172 kJ/mol
# GULP energy per Si atom -12397.477299 kJ/mol
# Density = 2.178073 g / cm^3
# Si number density = 21.830415 Si / 1000 Ang^3
#
#
#
# Elastic Constant Matrix: (Units=GPa)
#
#
# Indices 1 2 3 4 5 6 
#
# 1 85.6720 30.1223 33.5683 0.0000 -11.3062 0.0000
# 2 30.1223 101.4208 51.3280 0.0000 -10.3894 0.0000
# 3 33.5683 51.3280 104.7818 0.0000 -11.9246 0.0000
# 4 0.0000 0.0000 0.0000 24.2838 0.0000 3.7248
# 5 -11.3062 -10.3894 -11.9246 0.0000 43.1545 0.0000
# 6 0.0000 0.0000 0.0000 3.7248 0.0000 21.5214
#
#
#
# Elastic Compliance Matrix: (Units=1/GPa)
#
#
# Indices 1 2 3 4 5 6 
#
# 1 0.014007 -0.002378 -0.003067 0.000000 0.002250 0.000000
# 2 -0.002378 0.013599 -0.005780 0.000000 0.001054 0.000000
# 3 -0.003067 -0.005780 0.013533 0.000000 0.001545 0.000000
# 4 0.000000 0.000000 0.000000 0.042303 0.000000 -0.007322
# 5 0.002250 0.001054 0.001545 0.000000 0.024443 0.000000
# 6 0.000000 0.000000 0.000000 -0.007322 0.000000 0.047733
#
#
# Mechanical properties :
#
#
# Convention : Reuss Voigt Hill
#
# Bulk Modulus (GPa) = 53.50195 57.99020 55.74607
# Shear Modulus (GPa) = 27.13030 29.58236 28.35633
#
# Velocity S-wave (km/s) = 3.52913 3.68516 3.60799
# Velocity P-wave (km/s) = 6.41619 6.68796 6.55348
#
# Compressibility (1/GPa) = 0.01869091
#
# Stress axis : x y z
#
# Youngs Moduli (GPa) = 71.39354 73.53351 73.89244
#
# Poissons Ratio (x) = 0.17484 0.22659
# Poissons Ratio (y) = 0.16975 0.42710
# Poissons Ratio (z) = 0.21893 0.42502
#
# Static dielectric constant tensor:
#      x y z
#    x 4.254660 0.000000 -0.004000 
#    y 0.000000 3.817460 0.000000 
#    z -0.004000 0.000000 3.726390 
# 
# 
# High freq. dielectric constant tensor:
#      x y z
#    x 1.873990 0.000000 -0.005180 
#    y 0.000000 1.860930 0.000000 
#    z -0.005180 0.000000 1.839080 
# 
# From -- ./inp_files/45193.got.cif
#   From: 2010.06.25/outbox.cif.g09.slc.cpg/sg10_23_cif.got.tgz:45193.got - 2010.06.27 22:07:45.
