data_PCOD8065754
_publ_section_title
;
Structure prediction by ZEFSAII (Michael W. Deem and Ramdas Pophale) SiO2 
 PCOD8065754
Probable space group: P 2/M
;
_chemical_formula_sum "Si O2"
_cell_formula_units_Z 32
_cell_length_a 18.758212
_cell_length_b 14.377481
_cell_length_c 11.897087
_cell_angle_alpha 90.000000
_cell_angle_beta 147.205806
_cell_angle_gamma 90.000000
_cell_volume 1737.848854
_symmetry_space_group_name_H-M "P 2/M"
_symmetry_group_IT_number 10
_symmetry_cell_setting 'monoclinic'
loop_
_space_group_symop_operation_xyz
x,y,z
-x,y,-z
-x,-y,-z
x,-y,z
loop_
_atom_site_type_symbol
_atom_site_label
_atom_site_fract_x
_atom_site_fract_y
_atom_site_fract_z
Si Si1 0.715370 0.394966 0.049395
Si Si2 0.346069 0.607073 0.784819
Si Si3 0.073409 0.395058 0.844661
Si Si4 0.579501 0.100691 0.488444
Si Si5 0.507935 0.295433 0.377358
Si Si6 0.775466 0.606392 0.732277
Si Si7 0.160365 0.714681 0.385997
Si Si8 0.856780 0.104824 0.762406
O O1 0.660240 0.500000 0.967751
O O2 0.622789 0.330221 0.853251
O O3 0.722455 0.364913 0.188387
O O4 0.860635 0.387267 0.190139
O O5 0.314760 0.500000 0.711147
O O6 0.293737 0.676038 0.619274
O O7 0.500000 0.624047 0.000000
O O8 0.016004 0.500000 0.785252
O O9 0.960922 0.316953 0.696727
O O10 0.184199 0.374430 0.085865
O O11 0.500000 0.099130 0.500000
O O12 0.530953 0.191459 0.356357
O O13 0.740946 0.112702 0.704978
O O14 0.550446 0.000000 0.390786
O O15 0.500000 0.286907 0.500000
O O16 0.625976 0.365308 0.508113
O O17 0.793805 0.500000 0.723579
O O18 0.866879 0.666603 0.770955
O O19 0.170614 0.825472 0.379039
O O20 0.860031 0.000000 0.717932
O O21 0.000000 0.131354 0.000000
#
# Coordination Sequence:
#
# PCOD8065754 Si02
#       8
#     4   4   4   4   4   4   4   4
#     4  10  21  36  53  79 113 148 191 234 276 336
#     4  10  22  39  57  77 107 149 196 237 274 327
#     4  10  21  34  51  79 113 144 182 232 283 337
#     4   9  19  34  53  79 111 144 184 233 281 334
#     4  11  19  30  53  78 107 146 180 224 284 344
#     4  11  20  30  47  77 112 143 175 218 271 335
#     4  12  22  35  56  78 108 148 189 229 279 338
#     4  10  21  37  59  86 117 151 187 233 293 354
#
# _framework density 18.41357
#
# number of rings (size 3 to 8) (size 9 to 14) (size 15 to 20)
#    0.000    1.625    2.500    3.375    0.000    3.000 
#    0.000    1.875    0.000    1.125    0.000    0.875 
#    0.000    0.000    0.000    0.000    0.000    0.000 
#
# Total GULP energy -396533.175527 kJ/mol
# GULP energy per Si atom -12391.661735 kJ/mol
# Density = 1.837166 g / cm^3
# Si number density = 18.413570 Si / 1000 Ang^3
#
#
#
# Elastic Constant Matrix: (Units=GPa)
#
#
# Indices 1 2 3 4 5 6 
#
# 1 94.0897 29.3790 27.2678 0.0000 9.8142 0.0000
# 2 29.3790 112.1528 41.8841 0.0000 -3.4295 0.0000
# 3 27.2678 41.8841 68.4943 0.0000 6.4398 0.0000
# 4 0.0000 0.0000 0.0000 -26.5213 0.0000 -25.9436
# 5 9.8142 -3.4295 6.4398 0.0000 27.6140 0.0000
# 6 0.0000 0.0000 0.0000 -25.9436 0.0000 1.5423
#
#
#
# Elastic Compliance Matrix: (Units=1/GPa)
#
#
# Indices 1 2 3 4 5 6 
#
# 1 0.012700 -0.002206 -0.003330 0.000000 -0.004011 0.000000
# 2 -0.002206 0.012213 -0.006959 0.000000 0.003924 0.000000
# 3 -0.003330 -0.006959 0.020603 0.000000 -0.004485 0.000000
# 4 0.000000 0.000000 0.000000 -0.002160 0.000000 -0.036337
# 5 -0.004011 0.003924 -0.004485 0.000000 0.039172 0.000000
# 6 0.000000 0.000000 0.000000 -0.036337 0.000000 0.037146
#
#
# Mechanical properties :
#
#
# Convention : Reuss Voigt Hill
#
# Bulk Modulus (GPa) = 48.71827 52.42203 50.57015
# Shear Modulus (GPa) = 33.00185 12.27405 22.63795
#
# Velocity S-wave (km/s) = 4.23810 2.58462 3.51011
# Velocity P-wave (km/s) = 7.10379 6.11866 6.62955
#
# Compressibility (1/GPa) = 0.02052618
#
# Stress axis : x y z
#
# Youngs Moduli (GPa) = 78.73762 81.87906 48.53768
#
# Poissons Ratio (x) = 0.18062 0.16163
# Poissons Ratio (y) = 0.17369 0.33777
# Poissons Ratio (z) = 0.26219 0.56980
#
# Static dielectric constant tensor:
#      x y z
#    x 3.642730 0.000000 0.286290 
#    y 0.000000 3.691080 0.000000 
#    z 0.286290 0.000000 3.186330 
# 
# 
# High freq. dielectric constant tensor:
#      x y z
#    x 1.715730 0.000000 0.030070 
#    y 0.000000 1.709390 0.000000 
#    z 0.030070 0.000000 1.689440 
# 
# From -- ./inp_files/54047.got.cif
#   From: 2010.06.25/outbox.cif.g09.slc.cpg/sg10_28_cif.got.tgz:54047.got - 2010.06.27 22:07:45.
