data_PCOD8065554
_publ_section_title
;
Structure prediction by ZEFSAII (Michael W. Deem and Ramdas Pophale) SiO2 
 PCOD8065554
Probable space group: P 2/M
;
_chemical_formula_sum "Si O2"
_cell_formula_units_Z 24
_cell_length_a 4.983537
_cell_length_b 8.343048
_cell_length_c 26.374286
_cell_angle_alpha 90.000000
_cell_angle_beta 76.417629
_cell_angle_gamma 90.000000
_cell_volume 1065.919201
_symmetry_space_group_name_H-M "P 2/M"
_symmetry_group_IT_number 10
_symmetry_cell_setting 'monoclinic'
loop_
_space_group_symop_operation_xyz
x,y,z
-x,y,-z
-x,-y,-z
x,-y,z
loop_
_atom_site_type_symbol
_atom_site_label
_atom_site_fract_x
_atom_site_fract_y
_atom_site_fract_z
Si Si1 0.386382 0.676567 0.561173
Si Si2 0.894327 0.818748 0.298651
Si Si3 0.420075 0.173434 0.862361
Si Si4 0.291489 0.183602 0.366526
Si Si5 0.703993 0.000000 0.037099
Si Si6 0.199928 0.000000 0.537729
Si Si7 0.026382 0.679675 0.185962
O O1 0.500000 0.669634 0.500000
O O2 0.254358 0.500000 0.579591
O O3 0.646541 0.707630 0.586931
O O4 0.173410 0.832936 0.573014
O O5 0.048943 0.744281 0.341411
O O6 0.976610 0.716105 0.246760
O O7 0.567333 0.815048 0.320166
O O8 0.003897 0.000000 0.286824
O O9 0.650968 0.305272 0.841793
O O10 0.144278 0.206787 0.843271
O O11 0.533325 0.000000 0.838338
O O12 0.340508 0.158627 0.925669
O O13 0.223315 0.000000 0.388422
O O14 0.500000 0.000000 0.000000
O O15 0.000000 0.000000 0.000000
O O16 0.500000 0.000000 0.500000
O O17 0.000000 0.000000 0.500000
O O18 0.932548 0.500000 0.179368
#
# Coordination Sequence:
#
# PCOD8065554 Si02
#       7
#     4   4   4   4   2   2   4
#     4  10  22  41  65  91 121 158 205 257 313 378
#     4  10  22  38  62  87 124 164 208 252 310 381
#     4  10  22  38  66  93 124 170 222 269 310 377
#     4  10  21  39  59  87 117 159 202 254 313 378
#     4  10  20  38  68  97 124 167 230 280 309 364
#     4  10  22  40  62  83 112 145 186 238 294 358
#     4  12  23  39  61  95 134 168 211 269 332 383
#
# _framework density 22.515778000000001
#
# number of rings (size 3 to 8) (size 9 to 14) (size 15 to 20)
#    0.500    1.167    0.833    4.000    0.000    5.667 
#    0.000    3.333    0.000   10.000    0.000    0.000 
#    0.000    0.000    0.000    0.000    0.000    0.000 
#
# Total GULP energy -297549.353711 kJ/mol
# GULP energy per Si atom -12397.889738 kJ/mol
# Density = 2.246453 g / cm^3
# Si number density = 22.515778 Si / 1000 Ang^3
#
#
#
# Elastic Constant Matrix: (Units=GPa)
#
#
# Indices 1 2 3 4 5 6 
#
# 1 81.5256 25.8468 28.1492 0.0000 27.4170 0.0000
# 2 25.8468 133.8581 41.8931 0.0000 10.2615 0.0000
# 3 28.1492 41.8931 142.8001 0.0000 18.9964 0.0000
# 4 0.0000 0.0000 0.0000 -11.3529 0.0000 -0.6049
# 5 27.4170 10.2615 18.9964 0.0000 41.7647 0.0000
# 6 0.0000 0.0000 0.0000 -0.6049 0.0000 27.7316
#
#
#
# Elastic Compliance Matrix: (Units=1/GPa)
#
#
# Indices 1 2 3 4 5 6 
#
# 1 0.016696 -0.002037 -0.001386 0.000000 -0.009829 0.000000
# 2 -0.002037 0.008512 -0.002124 0.000000 0.000212 0.000000
# 3 -0.001386 -0.002124 0.008205 0.000000 -0.002300 0.000000
# 4 0.000000 0.000000 0.000000 -0.087981 0.000000 -0.001919
# 5 -0.009829 0.000212 -0.002300 0.000000 0.031391 0.000000
# 6 0.000000 0.000000 0.000000 -0.001919 0.000000 0.036018
#
#
# Mechanical properties :
#
#
# Convention : Reuss Voigt Hill
#
# Bulk Modulus (GPa) = 44.80232 61.10690 52.95461
# Shear Modulus (GPa) = 159.36539 29.11499 94.24019
#
# Velocity S-wave (km/s) = 8.42218 3.59986 6.47658
# Velocity P-wave (km/s) = 10.70135 6.66912 8.91617
#
# Compressibility (1/GPa) = 0.02232027
#
# Stress axis : x y z
#
# Youngs Moduli (GPa) = 59.89468 117.47645 121.87496
#
# Poissons Ratio (x) = 0.23924 0.16893
# Poissons Ratio (y) = 0.12198 0.25886
# Poissons Ratio (z) = 0.08302 0.24951
#
# Static dielectric constant tensor:
#      x y z
#    x 4.108110 0.000000 0.048930 
#    y 0.000000 -27.116810 0.000000 
#    z 0.048930 0.000000 4.019870 
# 
# 
# High freq. dielectric constant tensor:
#      x y z
#    x 1.903510 0.000000 0.003460 
#    y 0.000000 1.872270 0.000000 
#    z 0.003460 0.000000 1.887850 
# 
# From -- ./inp_files/87348.got.cif
#   From: 2010.06.25/outbox.cif.g09.slc.cpg/sg10_44_cif.got.tgz:87348.got - 2010.06.27 22:07:45.
