data_PCOD8065772
_publ_section_title
;
Structure prediction by ZEFSAII (Michael W. Deem and Ramdas Pophale) SiO2 
 PCOD8065772
Probable space group: P 2/M
;
_chemical_formula_sum "Si O2"
_cell_formula_units_Z 28
_cell_length_a 18.494439
_cell_length_b 14.121534
_cell_length_c 10.151608
_cell_angle_alpha 90.000000
_cell_angle_beta 34.620013
_cell_angle_gamma 90.000000
_cell_volume 1506.282871
_symmetry_space_group_name_H-M "P 2/M"
_symmetry_group_IT_number 10
_symmetry_cell_setting 'monoclinic'
loop_
_space_group_symop_operation_xyz
x,y,z
-x,y,-z
-x,-y,-z
x,-y,z
loop_
_atom_site_type_symbol
_atom_site_label
_atom_site_fract_x
_atom_site_fract_y
_atom_site_fract_z
Si Si1 0.174465 0.201203 0.503880
Si Si2 0.833305 0.000000 0.383138
Si Si3 0.867554 0.000000 0.039005
Si Si4 0.698943 0.240308 0.954242
Si Si5 0.486340 0.890268 0.365859
Si Si6 0.496675 0.609620 0.659695
Si Si7 0.282063 0.261387 0.607531
Si Si8 0.124657 0.200481 0.078394
O O1 0.216355 0.092481 0.466348
O O2 0.256932 0.243208 0.262215
O O3 0.204363 0.262718 0.588181
O O4 0.026409 0.209200 0.692230
O O5 0.791808 0.000000 0.291667
O O6 0.984516 0.000000 0.155118
O O7 0.828472 0.092263 0.014533
O O8 0.822848 0.235723 0.860950
O O9 0.612804 0.147843 0.105789
O O10 0.621833 0.336056 0.098766
O O11 0.500000 0.870784 0.500000
O O12 0.365714 0.833678 0.492040
O O13 0.468561 0.000000 0.358693
O O14 0.500000 0.631002 0.500000
O O15 0.480400 0.500000 0.717288
O O16 0.629125 0.646097 0.521912
O O17 0.180167 0.265536 0.878462
#
# Coordination Sequence:
#
# PCOD8065772 Si02
#       8
#     4   2   2   4   4   4   4   4
#     4  11  24  34  55  86 129 157 193 234 287 345
#     4   9  18  33  45  78 117 164 200 227 262 323
#     4   9  18  29  53  76 108 167 212 223 255 317
#     4  11  22  39  57  87 117 151 194 241 301 344
#     4  10  21  34  54  78 106 150 195 242 281 327
#     4  10  21  42  70  91 106 142 199 250 293 353
#     4  11  20  37  60  87 112 151 195 237 289 343
#     4  11  20  36  58  83 119 164 200 234 272 346
#
# _framework density 18.588806000000002
#
# number of rings (size 3 to 8) (size 9 to 14) (size 15 to 20)
#    0.000    1.571    4.286    1.714    4.000    2.286 
#    0.000    4.286    0.000    5.143    0.000    0.000 
#    0.000    0.000    0.000    0.000    0.000    0.000 
#
# Total GULP energy -347258.789769 kJ/mol
# GULP energy per Si atom -12402.099635 kJ/mol
# Density = 1.854650 g / cm^3
# Si number density = 18.588806 Si / 1000 Ang^3
#
#
#
# Elastic Constant Matrix: (Units=GPa)
#
#
# Indices 1 2 3 4 5 6 
#
# 1 43.3175 16.7880 23.5154 0.0000 6.7011 0.0000
# 2 16.7880 104.0190 36.0534 0.0000 1.0721 0.0000
# 3 23.5154 36.0534 95.3139 0.0000 7.0649 0.0000
# 4 0.0000 0.0000 0.0000 20.5240 0.0000 -2.6616
# 5 6.7011 1.0721 7.0649 0.0000 29.3371 0.0000
# 6 0.0000 0.0000 0.0000 -2.6616 0.0000 15.6279
#
#
#
# Elastic Compliance Matrix: (Units=1/GPa)
#
#
# Indices 1 2 3 4 5 6 
#
# 1 0.027837 -0.002518 -0.005550 0.000000 -0.004930 0.000000
# 2 -0.002518 0.011303 -0.003733 0.000000 0.001061 0.000000
# 3 -0.005550 -0.003733 0.013408 0.000000 -0.001825 0.000000
# 4 0.000000 0.000000 0.000000 0.049824 0.000000 0.008485
# 5 -0.004930 0.001061 -0.001825 0.000000 0.035613 0.000000
# 6 0.000000 0.000000 0.000000 0.008485 0.000000 0.065433
#
#
# Mechanical properties :
#
#
# Convention : Reuss Voigt Hill
#
# Bulk Modulus (GPa) = 34.54702 43.92932 39.23817
# Shear Modulus (GPa) = 21.12660 24.18405 22.65533
#
# Velocity S-wave (km/s) = 3.37489 3.61085 3.49486
# Velocity P-wave (km/s) = 5.81479 6.40841 6.11880
#
# Compressibility (1/GPa) = 0.02894606
#
# Stress axis : x y z
#
# Youngs Moduli (GPa) = 35.92375 88.47265 74.58189
#
# Poissons Ratio (x) = 0.22280 0.41391
# Poissons Ratio (y) = 0.09047 0.27840
# Poissons Ratio (z) = 0.19937 0.33025
#
# Static dielectric constant tensor:
#      x y z
#    x 3.442960 0.000000 -0.060090 
#    y 0.000000 3.230970 0.000000 
#    z -0.060090 0.000000 3.337080 
# 
# 
# High freq. dielectric constant tensor:
#      x y z
#    x 1.729890 0.000000 -0.007880 
#    y 0.000000 1.691360 0.000000 
#    z -0.007880 0.000000 1.718140 
# 
# From -- ./inp_files/25081.got.cif
#   From: 2010.06.25/outbox.cif.g09.slc.cpg/sg10_13_cif.got.tgz:25081.got - 2010.06.27 22:07:45.
