data_PCOD8065943
_publ_section_title
;
Structure prediction by ZEFSAII (Michael W. Deem and Ramdas Pophale) SiO2 
 PCOD8065943
Probable space group: P 2/M
;
_chemical_formula_sum "Si O2"
_cell_formula_units_Z 32
_cell_length_a 12.367264
_cell_length_b 18.121671
_cell_length_c 14.881693
_cell_angle_alpha 90.000000
_cell_angle_beta 149.998461
_cell_angle_gamma 90.000000
_cell_volume 1667.686538
_symmetry_space_group_name_H-M "P 2/M"
_symmetry_group_IT_number 10
_symmetry_cell_setting 'monoclinic'
loop_
_space_group_symop_operation_xyz
x,y,z
-x,y,-z
-x,-y,-z
x,-y,z
loop_
_atom_site_type_symbol
_atom_site_label
_atom_site_fract_x
_atom_site_fract_y
_atom_site_fract_z
Si Si1 0.880704 0.806011 0.277546
Si Si2 0.029397 0.690050 0.806872
Si Si3 0.299307 0.913613 0.991948
Si Si4 0.369077 0.414304 0.497468
Si Si5 0.323411 0.811258 0.681871
Si Si6 0.393067 0.689498 0.202434
Si Si7 0.715013 0.228757 0.702389
Si Si8 0.101084 0.920644 0.169366
O O1 0.895032 0.731133 0.229267
O O2 0.749667 0.784876 0.272383
O O3 0.118944 0.836789 0.474609
O O4 0.745745 0.871383 0.133569
O O5 0.867695 0.622440 0.673909
O O6 0.920071 0.750776 0.790974
O O7 0.237182 0.660771 0.011130
O O8 0.507081 0.878597 0.191540
O O9 0.344300 0.000000 0.006578
O O10 0.089087 0.898931 0.899805
O O11 0.500000 0.399822 0.500000
O O12 0.332437 0.500000 0.488487
O O13 0.506385 0.382451 0.678900
O O14 0.419411 0.739696 0.703026
O O15 0.263093 0.738027 0.182498
O O16 0.500000 0.259984 0.500000
O O17 0.709600 0.139908 0.698277
O O18 0.202551 0.000000 0.270038
O O19 0.000000 0.927232 0.000000
#
# Coordination Sequence:
#
# PCOD8065943 Si02
#       8
#     4   4   4   4   4   4   4   4
#     4  11  23  39  61  90 118 158 211 260 299 361
#     4  12  21  38  63  91 122 159 199 247 295 360
#     4  11  23  40  60  86 125 163 203 265 318 357
#     4  11  24  42  63  97 135 159 191 241 302 371
#     4  11  23  39  62  88 118 160 211 256 305 357
#     4  12  22  37  65  92 121 162 199 246 300 358
#     4  12  20  34  59  85 117 155 203 249 296 358
#     4  10  21  36  52  79 118 159 203 251 305 361
#
# _framework density 19.188257
#
# number of rings (size 3 to 8) (size 9 to 14) (size 15 to 20)
#    0.000    0.750    6.250    2.250    0.000    2.250 
#    0.000    2.500    0.000    1.500    0.000    1.750 
#    0.000    0.000    0.000    0.000    0.000    0.000 
#
# Total GULP energy -396802.404384 kJ/mol
# GULP energy per Si atom -12400.075137 kJ/mol
# Density = 1.914458 g / cm^3
# Si number density = 19.188257 Si / 1000 Ang^3
#
#
#
# Elastic Constant Matrix: (Units=GPa)
#
#
# Indices 1 2 3 4 5 6 
#
# 1 71.3956 34.7166 1.0405 0.0000 -11.8217 0.0000
# 2 34.7166 144.4237 47.6899 0.0000 -3.2137 0.0000
# 3 1.0405 47.6899 94.5004 0.0000 -17.9806 0.0000
# 4 0.0000 0.0000 0.0000 21.2020 0.0000 -0.9349
# 5 -11.8217 -3.2137 -17.9806 0.0000 23.9873 0.0000
# 6 0.0000 0.0000 0.0000 -0.9349 0.0000 18.2024
#
#
#
# Elastic Compliance Matrix: (Units=1/GPa)
#
#
# Indices 1 2 3 4 5 6 
#
# 1 0.018881 -0.005966 0.005157 0.000000 0.012371 0.000000
# 2 -0.005966 0.010311 -0.006338 0.000000 -0.006310 0.000000
# 3 0.005157 -0.006338 0.016382 0.000000 0.013972 0.000000
# 4 0.000000 0.000000 0.000000 0.047272 0.000000 0.002428
# 5 0.012371 -0.006310 0.013972 0.000000 0.057414 0.000000
# 6 0.000000 0.000000 0.000000 0.002428 0.000000 0.055063
#
#
# Mechanical properties :
#
#
# Convention : Reuss Voigt Hill
#
# Bulk Modulus (GPa) = 31.97061 53.02373 42.49717
# Shear Modulus (GPa) = 21.73497 27.80318 24.76908
#
# Velocity S-wave (km/s) = 3.36925 3.81066 3.59673
# Velocity P-wave (km/s) = 5.64212 6.85966 6.28046
#
# Compressibility (1/GPa) = 0.03127873
#
# Stress axis : x y z
#
# Youngs Moduli (GPa) = 52.96386 96.98629 61.04146
#
# Poissons Ratio (x) = 0.57863 -0.31478
# Poissons Ratio (y) = 0.31599 0.38690
# Poissons Ratio (z) = -0.27312 0.61472
#
# Static dielectric constant tensor:
#      x y z
#    x 3.453830 0.000000 -0.053650 
#    y 0.000000 3.492780 0.000000 
#    z -0.053650 0.000000 3.612720 
# 
# 
# High freq. dielectric constant tensor:
#      x y z
#    x 1.749120 0.000000 -0.003990 
#    y 0.000000 1.729700 0.000000 
#    z -0.003990 0.000000 1.755330 
# 
# From -- ./inp_files/51999.got.cif
#   From: 2010.06.25/outbox.cif.g09.slc.cpg/sg10_26_cif.got.tgz:51999.got - 2010.06.27 22:07:45.
