data_PCOD8065064
_publ_section_title
;
Structure prediction by ZEFSAII (Michael W. Deem and Ramdas Pophale) SiO2 
 PCOD8065064
Probable space group: P 2/M
;
_chemical_formula_sum "Si O2"
_cell_formula_units_Z 28
_cell_length_a 14.805081
_cell_length_b 13.678321
_cell_length_c 14.004948
_cell_angle_alpha 90.000000
_cell_angle_beta 30.344925
_cell_angle_gamma 90.000000
_cell_volume 1432.822013
_symmetry_space_group_name_H-M "P 2/M"
_symmetry_group_IT_number 10
_symmetry_cell_setting 'monoclinic'
loop_
_space_group_symop_operation_xyz
x,y,z
-x,y,-z
-x,-y,-z
x,-y,z
loop_
_atom_site_type_symbol
_atom_site_label
_atom_site_fract_x
_atom_site_fract_y
_atom_site_fract_z
Si Si1 0.975448 0.113377 0.632858
Si Si2 0.679106 0.386768 0.291908
Si Si3 0.166379 0.386672 0.654868
Si Si4 0.429879 0.885557 0.960362
Si Si5 0.295068 0.237797 0.398008
Si Si6 0.459667 0.607919 0.146359
Si Si7 0.767904 0.615300 0.005457
O O1 0.000000 0.141769 0.500000
O O2 0.116100 0.174747 0.565898
O O3 0.020141 0.000000 0.606222
O O4 0.780250 0.138405 0.851873
O O5 0.500000 0.339329 0.500000
O O6 0.642809 0.500000 0.303959
O O7 0.835407 0.373441 0.228444
O O8 0.726016 0.336532 0.147620
O O9 0.220075 0.500000 0.581768
O O10 0.307077 0.308241 0.481028
O O11 0.971478 0.358821 0.791255
O O12 0.533527 0.832315 0.778561
O O13 0.468549 0.000000 0.913730
O O14 0.500000 0.849607 0.000000
O O15 0.293736 0.318802 0.313988
O O16 0.409000 0.500000 0.229406
O O17 0.630328 0.651855 0.049533
O O18 0.500000 0.604874 0.000000
O O19 0.754143 0.500000 0.026234
#
# Coordination Sequence:
#
# PCOD8065064 Si02
#       7
#     4   4   4   4   4   4   4
#     4  10  21  37  57  81 106 135 183 241 294 342
#     4   9  16  30  53  76 100 142 193 241 293 327
#     4  10  21  34  50  80 117 151 191 237 276 328
#     4  10  20  37  58  80 105 138 183 238 293 341
#     4  12  22  32  55  79 111 149 188 219 280 336
#     4  10  22  37  51  73 113 161 199 229 262 319
#     4   9  18  34  54  73 104 153 201 242 283 320
#
# _framework density 19.541855999999999
#
# number of rings (size 3 to 8) (size 9 to 14) (size 15 to 20)
#    0.000    2.000    1.429    2.571    2.000    4.000 
#    0.000    0.000    0.000    4.286    0.000    0.000 
#    0.000   29.714    0.000    0.143    0.000    0.000 
#
# Total GULP energy -346890.074278 kJ/mol
# GULP energy per Si atom -12388.931224 kJ/mol
# Density = 1.949738 g / cm^3
# Si number density = 19.541856 Si / 1000 Ang^3
#
#
#
# Elastic Constant Matrix: (Units=GPa)
#
#
# Indices 1 2 3 4 5 6 
#
# 1 84.5631 23.6174 42.5104 0.0000 2.5572 0.0000
# 2 23.6174 72.4571 41.5008 0.0000 -1.5583 0.0000
# 3 42.5104 41.5008 107.5465 0.0000 1.0721 0.0000
# 4 0.0000 0.0000 0.0000 31.8500 0.0000 0.6077
# 5 2.5572 -1.5583 1.0721 0.0000 29.1127 0.0000
# 6 0.0000 0.0000 0.0000 0.6077 0.0000 2.5254
#
#
#
# Elastic Compliance Matrix: (Units=1/GPa)
#
#
# Indices 1 2 3 4 5 6 
#
# 1 0.015006 -0.001961 -0.005162 0.000000 -0.001233 0.000000
# 2 -0.001961 0.018015 -0.006190 0.000000 0.001364 0.000000
# 3 -0.005162 -0.006190 0.013732 0.000000 -0.000384 0.000000
# 4 0.000000 0.000000 0.000000 0.031542 0.000000 -0.007590
# 5 -0.001233 0.001364 -0.000384 0.000000 0.034545 0.000000
# 6 0.000000 0.000000 0.000000 -0.007590 0.000000 0.397798
#
#
# Mechanical properties :
#
#
# Convention : Reuss Voigt Hill
#
# Bulk Modulus (GPa) = 49.68885 53.31375 51.50130
# Shear Modulus (GPa) = 9.19164 23.16016 16.17590
#
# Velocity S-wave (km/s) = 2.17112 3.44635 2.88020
# Velocity P-wave (km/s) = 5.63623 6.57095 6.12146
#
# Compressibility (1/GPa) = 0.02012524
#
# Stress axis : x y z
#
# Youngs Moduli (GPa) = 66.64197 55.50804 72.82509
#
# Poissons Ratio (x) = 0.10884 0.37595
# Poissons Ratio (y) = 0.13067 0.45082
# Poissons Ratio (z) = 0.34403 0.34362
#
# Static dielectric constant tensor:
#      x y z
#    x 3.510930 0.000000 -0.037450 
#    y 0.000000 3.512600 0.000000 
#    z -0.037450 0.000000 3.750370 
# 
# 
# High freq. dielectric constant tensor:
#      x y z
#    x 1.734400 0.000000 -0.002360 
#    y 0.000000 1.734930 0.000000 
#    z -0.002360 0.000000 1.773760 
# 
# From -- ./inp_files/67551.got.cif
#   From: 2010.06.25/outbox.cif.g09.slc.cpg/sg10_34_cif.got.tgz:67551.got - 2010.06.27 22:07:45.
