data_PCOD8065478
_publ_section_title
;
Structure prediction by ZEFSAII (Michael W. Deem and Ramdas Pophale) SiO2 
 PCOD8065478
Probable space group: P 2/M
;
_chemical_formula_sum "Si O2"
_cell_formula_units_Z 22
_cell_length_a 16.929978
_cell_length_b 8.169269
_cell_length_c 13.199168
_cell_angle_alpha 90.000000
_cell_angle_beta 34.436471
_cell_angle_gamma 90.000000
_cell_volume 1032.316084
_symmetry_space_group_name_H-M "P 2/M"
_symmetry_group_IT_number 10
_symmetry_cell_setting 'monoclinic'
loop_
_space_group_symop_operation_xyz
x,y,z
-x,y,-z
-x,-y,-z
x,-y,z
loop_
_atom_site_type_symbol
_atom_site_label
_atom_site_fract_x
_atom_site_fract_y
_atom_site_fract_z
Si Si1 0.014383 0.500000 0.328944
Si Si2 0.853053 0.312502 0.111881
Si Si3 0.400353 0.809249 0.511070
Si Si4 0.439361 0.179954 0.847894
Si Si5 0.500000 0.261798 0.000000
Si Si6 0.244001 0.500000 0.261568
Si Si7 0.144165 0.189261 0.104766
O O1 0.134132 0.500000 0.286900
O O2 0.027725 0.327917 0.252757
O O3 0.854141 0.500000 0.535751
O O4 0.854437 0.500000 0.073706
O O5 0.742296 0.287040 0.318546
O O6 0.818717 0.195601 0.053312
O O7 0.000000 0.256935 0.000000
O O8 0.500000 0.772994 0.500000
O O9 0.464521 0.731791 0.338734
O O10 0.365524 0.000000 0.535690
O O11 0.511737 0.165576 0.881662
O O12 0.417653 0.000000 0.825256
O O13 0.282416 0.251356 0.019516
O O14 0.647843 0.351088 0.853730
O O15 0.099482 0.000000 0.180762
#
# Coordination Sequence:
#
# PCOD8065478 Si02
#       7
#     2   4   4   4   2   2   4
#     4  11  22  46  65  96 134 168 215 279 310 394
#     4  11  24  41  60  93 131 169 214 267 320 386
#     4  10  20  38  62  90 125 164 213 267 321 382
#     4  10  21  38  64  96 130 167 218 279 321 385
#     4  11  21  42  62  98 123 177 220 263 333 390
#     4  10  24  40  66  89 130 174 217 267 333 372
#     4  11  22  41  70  95 127 176 215 260 333 391
#
# _framework density 21.311304
#
# number of rings (size 3 to 8) (size 9 to 14) (size 15 to 20)
#    0.000    1.455    4.545    0.818    0.000    3.273 
#    4.909    5.455    0.000    0.000    0.000    0.000 
#    0.000    0.000    0.000    0.000    0.000    0.000 
#
# Total GULP energy -272542.402691 kJ/mol
# GULP energy per Si atom -12388.291031 kJ/mol
# Density = 2.126280 g / cm^3
# Si number density = 21.311304 Si / 1000 Ang^3
#
#
#
# Elastic Constant Matrix: (Units=GPa)
#
#
# Indices 1 2 3 4 5 6 
#
# 1 108.3774 16.7120 32.8461 0.0000 12.1143 0.0000
# 2 16.7120 79.5806 37.1674 0.0000 -0.7041 0.0000
# 3 32.8461 37.1674 140.0018 0.0000 3.6502 0.0000
# 4 0.0000 0.0000 0.0000 18.6632 0.0000 7.2993
# 5 12.1143 -0.7041 3.6502 0.0000 40.2469 0.0000
# 6 0.0000 0.0000 0.0000 7.2993 0.0000 20.2856
#
#
#
# Elastic Compliance Matrix: (Units=1/GPa)
#
#
# Indices 1 2 3 4 5 6 
#
# 1 0.010364 -0.001259 -0.002020 0.000000 -0.002958 0.000000
# 2 -0.001259 0.014512 -0.003582 0.000000 0.000958 0.000000
# 3 -0.002020 -0.003582 0.008574 0.000000 -0.000232 0.000000
# 4 0.000000 0.000000 0.000000 0.062357 0.000000 -0.022438
# 5 -0.002958 0.000958 -0.000232 0.000000 0.025775 0.000000
# 6 0.000000 0.000000 0.000000 -0.022438 0.000000 0.057370
#
#
# Mechanical properties :
#
#
# Convention : Reuss Voigt Hill
#
# Bulk Modulus (GPa) = 50.69247 55.71233 53.20240
# Shear Modulus (GPa) = 25.09418 31.92142 28.50780
#
# Velocity S-wave (km/s) = 3.43520 3.87442 3.66140
# Velocity P-wave (km/s) = 6.29066 6.79807 6.54928
#
# Compressibility (1/GPa) = 0.01972680
#
# Stress axis : x y z
#
# Youngs Moduli (GPa) = 96.48673 68.90959 116.63517
#
# Poissons Ratio (x) = 0.08677 0.23562
# Poissons Ratio (y) = 0.12149 0.41780
# Poissons Ratio (z) = 0.19492 0.24684
#
# Static dielectric constant tensor:
#      x y z
#    x 3.742920 0.000000 0.095940 
#    y 0.000000 3.603210 0.000000 
#    z 0.095940 0.000000 3.973480 
# 
# 
# High freq. dielectric constant tensor:
#      x y z
#    x 1.834650 0.000000 0.005720 
#    y 0.000000 1.821500 0.000000 
#    z 0.005720 0.000000 1.836810 
# 
# From -- ./inp_files/68544.got.cif
#   From: 2010.06.25/outbox.cif.g09.slc.cpg/sg10_35_cif.got.tgz:68544.got - 2010.06.27 22:07:45.
