data_PCOD8065069
_publ_section_title
;
Structure prediction by ZEFSAII (Michael W. Deem and Ramdas Pophale) SiO2 
 PCOD8065069
Probable space group: P 2/M
;
_chemical_formula_sum "Si O2"
_cell_formula_units_Z 32
_cell_length_a 27.052581
_cell_length_b 9.411790
_cell_length_c 20.992300
_cell_angle_alpha 90.000000
_cell_angle_beta 161.183692
_cell_angle_gamma 90.000000
_cell_volume 1723.923447
_symmetry_space_group_name_H-M "P 2/M"
_symmetry_group_IT_number 10
_symmetry_cell_setting 'monoclinic'
loop_
_space_group_symop_operation_xyz
x,y,z
-x,y,-z
-x,-y,-z
x,-y,z
loop_
_atom_site_type_symbol
_atom_site_label
_atom_site_fract_x
_atom_site_fract_y
_atom_site_fract_z
Si Si1 0.387915 0.165683 0.809797
Si Si2 0.764427 0.335455 0.679233
Si Si3 0.926357 0.664145 0.008636
Si Si4 0.165422 0.162874 0.981263
Si Si5 0.589278 0.835166 0.937685
Si Si6 0.955099 0.835008 0.608861
Si Si7 0.530292 0.832781 0.721409
Si Si8 0.881327 0.664231 0.298932
O O1 0.216630 0.228438 0.605227
O O2 0.375853 0.000000 0.809534
O O3 0.500000 0.235352 0.000000
O O4 0.446935 0.194007 0.810572
O O5 0.724957 0.500000 0.620066
O O6 0.816940 0.308671 0.815295
O O7 0.614896 0.243156 0.485750
O O8 0.900461 0.287606 0.797297
O O9 0.926602 0.500000 0.028004
O O10 0.857944 0.750109 0.983462
O O11 0.317062 0.216544 0.129314
O O12 0.186486 0.000000 0.026635
O O13 0.016347 0.182709 0.755229
O O14 0.725529 0.738915 0.131078
O O15 0.640189 0.000000 0.001415
O O16 0.543825 0.787195 0.811544
O O17 0.062515 0.742397 0.695466
O O18 0.965368 0.000000 0.600447
O O19 0.505020 0.000000 0.684870
O O20 0.851995 0.500000 0.247412
O O21 0.000000 0.685115 0.500000
#
# Coordination Sequence:
#
# PCOD8065069 Si02
#       8
#     4   4   4   4   4   4   4   4
#     4   9  18  32  55  85 108 135 184 236 277 325
#     4   9  20  39  60  83 112 147 188 227 267 327
#     4   9  20  39  60  83 112 147 188 227 267 327
#     4  10  21  36  55  83 115 146 185 231 277 327
#     4  10  20  37  58  81 111 147 186 229 278 332
#     4  10  20  37  58  81 111 147 186 229 278 332
#     4  10  21  36  55  83 115 146 185 231 277 327
#     4  11  23  37  55  81 112 147 188 231 275 326
#
# _framework density 18.562308999999999
#
# number of rings (size 3 to 8) (size 9 to 14) (size 15 to 20)
#    0.000    2.250    1.250    1.875    1.750    5.000 
#    0.000    4.375    0.000    2.250    0.000    0.000 
#    0.000    0.000    0.000    0.000    0.000    0.000 
#
# Total GULP energy -396838.156702 kJ/mol
# GULP energy per Si atom -12401.192397 kJ/mol
# Density = 1.852006 g / cm^3
# Si number density = 18.562309 Si / 1000 Ang^3
#
#
#
# Elastic Constant Matrix: (Units=GPa)
#
#
# Indices 1 2 3 4 5 6 
#
# 1 101.6862 29.0347 23.7891 0.0000 -0.9195 0.0000
# 2 29.0347 51.9923 31.0626 0.0000 -2.3953 0.0000
# 3 23.7891 31.0626 111.9682 0.0000 7.7208 0.0000
# 4 0.0000 0.0000 0.0000 27.8447 0.0000 1.3334
# 5 -0.9195 -2.3953 7.7208 0.0000 21.2983 0.0000
# 6 0.0000 0.0000 0.0000 1.3334 0.0000 22.2969
#
#
#
# Elastic Compliance Matrix: (Units=1/GPa)
#
#
# Indices 1 2 3 4 5 6 
#
# 1 0.011761 -0.006070 -0.000823 0.000000 0.000124 0.000000
# 2 -0.006070 0.026727 -0.006476 0.000000 0.005091 0.000000
# 3 -0.000823 -0.006476 0.011236 0.000000 -0.004837 0.000000
# 4 0.000000 0.000000 0.000000 0.036017 0.000000 -0.002154
# 5 0.000124 0.005091 -0.004837 0.000000 0.049284 0.000000
# 6 0.000000 0.000000 0.000000 -0.002154 0.000000 0.044978
#
#
# Mechanical properties :
#
#
# Convention : Reuss Voigt Hill
#
# Bulk Modulus (GPa) = 43.50646 48.15772 45.83209
# Shear Modulus (GPa) = 23.32047 26.40535 24.86291
#
# Velocity S-wave (km/s) = 3.54833 3.77573 3.66379
# Velocity P-wave (km/s) = 6.34637 6.70882 6.53011
#
# Compressibility (1/GPa) = 0.02298509
#
# Stress axis : x y z
#
# Youngs Moduli (GPa) = 85.02552 37.41502 88.99815
#
# Poissons Ratio (x) = 0.22712 0.07327
# Poissons Ratio (y) = 0.51614 0.57636
# Poissons Ratio (z) = 0.07000 0.24230
#
# Static dielectric constant tensor:
#      x y z
#    x 3.388700 0.000000 0.050340 
#    y 0.000000 3.242200 0.000000 
#    z 0.050340 0.000000 3.548200 
# 
# 
# High freq. dielectric constant tensor:
#      x y z
#    x 1.727390 0.000000 0.002380 
#    y 0.000000 1.698860 0.000000 
#    z 0.002380 0.000000 1.729660 
# 
# From -- ./inp_files/86954.got.cif
#   From: 2010.06.25/outbox.cif.g09.slc.cpg/sg10_44_cif.got.tgz:86954.got - 2010.06.27 22:07:45.
