data_PCOD8065092
_publ_section_title
;
Structure prediction by ZEFSAII (Michael W. Deem and Ramdas Pophale) SiO2 
 PCOD8065092
Probable space group: P 2/M
;
_chemical_formula_sum "Si O2"
_cell_formula_units_Z 24
_cell_length_a 12.130204
_cell_length_b 13.834422
_cell_length_c 14.471240
_cell_angle_alpha 90.000000
_cell_angle_beta 150.701641
_cell_angle_gamma 90.000000
_cell_volume 1188.395767
_symmetry_space_group_name_H-M "P 2/M"
_symmetry_group_IT_number 10
_symmetry_cell_setting 'monoclinic'
loop_
_space_group_symop_operation_xyz
x,y,z
-x,y,-z
-x,-y,-z
x,-y,z
loop_
_atom_site_type_symbol
_atom_site_label
_atom_site_fract_x
_atom_site_fract_y
_atom_site_fract_z
Si Si1 0.762136 0.390783 0.373673
Si Si2 0.713461 0.812560 0.724082
Si Si3 0.813842 0.887877 0.989177
Si Si4 0.740716 0.396918 0.719870
Si Si5 0.598216 0.750027 0.976198
Si Si6 0.995873 0.392496 0.270981
O O1 0.680417 0.500000 0.291360
O O2 0.579223 0.314942 0.207633
O O3 0.000000 0.369272 0.500000
O O4 0.791532 0.376427 0.505443
O O5 0.500000 0.824665 0.500000
O O6 0.687652 0.874896 0.798120
O O7 0.745477 0.700878 0.783864
O O8 0.934035 0.845146 0.829184
O O9 0.670683 0.838852 0.965259
O O10 0.828060 0.000000 0.023120
O O11 0.500000 0.408632 0.500000
O O12 0.792293 0.500000 0.810568
O O13 0.925602 0.380296 0.776137
O O14 0.500000 0.792635 0.000000
O O15 0.807143 0.684263 0.157765
O O16 0.897242 0.500000 0.216153
#
# Coordination Sequence:
#
# PCOD8065092 Si02
#       6
#     4   4   4   4   4   4
#     4  10  21  36  59  88 121 161 203 244 288 351
#     4  10  21  42  71  93 122 159 197 249 308 369
#     4  11  26  44  63  92 119 152 212 266 311 364
#     4   9  18  33  57  92 131 161 187 230 293 366
#     4  12  24  39  62  88 123 165 207 252 306 360
#     4  10  20  37  58  88 128 166 202 239 287 361
#
# _framework density 20.195294000000001
#
# number of rings (size 3 to 8) (size 9 to 14) (size 15 to 20)
#    0.000    1.667    3.333    1.500    4.667    2.333 
#    0.000    2.500    0.000    0.500    0.000    0.000 
#    0.000    0.000    0.000    0.000    0.000    0.000 
#
# Total GULP energy -297465.591100 kJ/mol
# GULP energy per Si atom -12394.399629 kJ/mol
# Density = 2.014933 g / cm^3
# Si number density = 20.195294 Si / 1000 Ang^3
#
#
#
# Elastic Constant Matrix: (Units=GPa)
#
#
# Indices 1 2 3 4 5 6 
#
# 1 73.8358 37.7856 31.2990 0.0000 12.3797 0.0000
# 2 37.7856 152.2741 48.4336 0.0000 10.9303 0.0000
# 3 31.2990 48.4336 101.6489 0.0000 -1.1681 0.0000
# 4 0.0000 0.0000 0.0000 21.3620 0.0000 0.2690
# 5 12.3797 10.9303 -1.1681 0.0000 21.5381 0.0000
# 6 0.0000 0.0000 0.0000 0.2690 0.0000 25.7654
#
#
#
# Elastic Compliance Matrix: (Units=1/GPa)
#
#
# Indices 1 2 3 4 5 6 
#
# 1 0.018329 -0.002394 -0.004613 0.000000 -0.009570 0.000000
# 2 -0.002394 0.008438 -0.003319 0.000000 -0.003086 0.000000
# 3 -0.004613 -0.003319 0.012898 0.000000 0.005035 0.000000
# 4 0.000000 0.000000 0.000000 0.046818 0.000000 -0.000489
# 5 -0.009570 -0.003086 0.005035 0.000000 0.053770 0.000000
# 6 0.000000 0.000000 0.000000 -0.000489 0.000000 0.038817
#
#
# Mechanical properties :
#
#
# Convention : Reuss Voigt Hill
#
# Bulk Modulus (GPa) = 52.59645 62.53280 57.56463
# Shear Modulus (GPa) = 24.26490 27.74913 26.00702
#
# Velocity S-wave (km/s) = 3.47004 3.71083 3.59245
# Velocity P-wave (km/s) = 6.49272 7.02791 6.76561
#
# Compressibility (1/GPa) = 0.01901269
#
# Stress axis : x y z
#
# Youngs Moduli (GPa) = 54.55918 118.50629 77.53436
#
# Poissons Ratio (x) = 0.28369 0.35766
# Poissons Ratio (y) = 0.13061 0.25734
# Poissons Ratio (z) = 0.25168 0.39333
#
# Static dielectric constant tensor:
#      x y z
#    x 3.620290 0.000000 0.100690 
#    y 0.000000 3.823940 0.000000 
#    z 0.100690 0.000000 3.570760 
# 
# 
# High freq. dielectric constant tensor:
#      x y z
#    x 1.784030 0.000000 0.004170 
#    y 0.000000 1.780930 0.000000 
#    z 0.004170 0.000000 1.787780 
# 
# From -- ./inp_files/65016.got.cif
#   From: 2010.06.25/outbox.cif.g09.slc.cpg/sg10_33_cif.got.tgz:65016.got - 2010.06.27 22:07:45.
