data_PCOD8065213
_publ_section_title
;
Structure prediction by ZEFSAII (Michael W. Deem and Ramdas Pophale) SiO2 
 PCOD8065213
Probable space group: P 2/M
;
_chemical_formula_sum "Si O2"
_cell_formula_units_Z 32
_cell_length_a 11.762911
_cell_length_b 9.045187
_cell_length_c 28.641735
_cell_angle_alpha 90.000000
_cell_angle_beta 31.095371
_cell_angle_gamma 90.000000
_cell_volume 1573.880891
_symmetry_space_group_name_H-M "P 2/M"
_symmetry_group_IT_number 10
_symmetry_cell_setting 'monoclinic'
loop_
_space_group_symop_operation_xyz
x,y,z
-x,y,-z
-x,-y,-z
x,-y,z
loop_
_atom_site_type_symbol
_atom_site_label
_atom_site_fract_x
_atom_site_fract_y
_atom_site_fract_z
Si Si1 0.040720 0.170235 0.214653
Si Si2 0.582289 0.173395 0.847905
Si Si3 0.822491 0.169778 0.671148
Si Si4 0.228528 0.326111 0.486761
Si Si5 0.581030 0.170098 0.420330
Si Si6 0.409015 0.169725 0.342371
Si Si7 0.118254 0.672961 0.005426
Si Si8 0.867586 0.673263 0.188084
O O1 0.841919 0.195734 0.321582
O O2 0.025831 0.271658 0.173992
O O3 0.268615 0.212949 0.159798
O O4 0.043505 0.000000 0.197491
O O5 0.708398 0.230227 0.757677
O O6 0.350642 0.252410 0.932927
O O7 0.539125 0.000000 0.859163
O O8 0.644045 0.188014 0.693178
O O9 0.034736 0.268839 0.587728
O O10 0.900153 0.000000 0.649123
O O11 0.212807 0.500000 0.487167
O O12 0.461557 0.277796 0.426224
O O13 0.218071 0.252309 0.439043
O O14 0.500000 0.216591 0.500000
O O15 0.516700 0.000000 0.432872
O O16 0.641165 0.240937 0.272389
O O17 0.415410 0.000000 0.355792
O O18 0.160561 0.500000 0.985348
O O19 0.000000 0.734128 0.000000
O O20 0.968514 0.711504 0.102378
O O21 0.824686 0.500000 0.208762
#
# Coordination Sequence:
#
# PCOD8065213 Si02
#       8
#     4   4   4   4   4   4   4   4
#     4  10  21  38  61  88 121 160 200 247 303 359
#     4  10  22  41  65  93 120 153 202 253 300 354
#     4  10  22  40  61  86 118 158 204 253 307 364
#     4  12  24  36  55  87 123 159 203 250 301 364
#     4  10  20  37  61  84 115 163 210 252 300 354
#     4  11  22  38  61  87 118 158 204 253 306 363
#     4  10  23  43  65  91 124 161 198 242 306 372
#     4  11  23  39  62  90 122 160 202 250 304 366
#
# _framework density 20.331906
#
# number of rings (size 3 to 8) (size 9 to 14) (size 15 to 20)
#    0.000    1.500    1.250    3.750    0.000    7.500 
#    0.000    3.750    0.000    0.000    0.000    0.000 
#    0.000    0.000    0.000    0.000    0.000    0.000 
#
# Total GULP energy -396942.904544 kJ/mol
# GULP energy per Si atom -12404.465767 kJ/mol
# Density = 2.028563 g / cm^3
# Si number density = 20.331906 Si / 1000 Ang^3
#
#
#
# Elastic Constant Matrix: (Units=GPa)
#
#
# Indices 1 2 3 4 5 6 
#
# 1 91.1002 33.2570 23.8215 0.0000 -2.0756 0.0000
# 2 33.2570 92.7248 39.3242 0.0000 0.0191 0.0000
# 3 23.8215 39.3242 66.8668 0.0000 -8.7007 0.0000
# 4 0.0000 0.0000 0.0000 1.7193 0.0000 18.3145
# 5 -2.0756 0.0191 -8.7007 0.0000 37.4315 0.0000
# 6 0.0000 0.0000 0.0000 18.3145 0.0000 16.0308
#
#
#
# Elastic Compliance Matrix: (Units=1/GPa)
#
#
# Indices 1 2 3 4 5 6 
#
# 1 0.012939 -0.003589 -0.002480 0.000000 0.000143 0.000000
# 2 -0.003589 0.015515 -0.008118 0.000000 -0.002094 0.000000
# 3 -0.002480 -0.008118 0.021238 0.000000 0.004803 0.000000
# 4 0.000000 0.000000 0.000000 -0.052072 0.000000 0.059490
# 5 0.000143 -0.002094 0.004803 0.000000 0.027841 0.000000
# 6 0.000000 0.000000 0.000000 0.059490 0.000000 -0.005585
#
#
# Mechanical properties :
#
#
# Convention : Reuss Voigt Hill
#
# Bulk Modulus (GPa) = 46.91075 49.27747 48.09411
# Shear Modulus (GPa) = 90.32184 21.32225 55.82204
#
# Velocity S-wave (km/s) = 6.67234 3.24189 5.24547
# Velocity P-wave (km/s) = 9.08200 6.18888 7.77126
#
# Compressibility (1/GPa) = 0.02131707
#
# Stress axis : x y z
#
# Youngs Moduli (GPa) = 77.28638 64.45308 47.08515
#
# Poissons Ratio (x) = 0.23131 0.11679
# Poissons Ratio (y) = 0.27737 0.38225
# Poissons Ratio (z) = 0.19170 0.52325
#
# Static dielectric constant tensor:
#      x y z
#    x 3.859420 0.000000 0.146760 
#    y 0.000000 3.577330 0.000000 
#    z 0.146760 0.000000 3.696330 
# 
# 
# High freq. dielectric constant tensor:
#      x y z
#    x 1.807360 0.000000 0.004480 
#    y 0.000000 1.784050 0.000000 
#    z 0.004480 0.000000 1.797850 
# 
# From -- ./inp_files/94996.got.cif
#   From: 2010.06.25/outbox.cif.g09.slc.cpg/sg10_48_cif.got.tgz:94996.got - 2010.06.27 22:07:45.
