data_PCOD8065226
_publ_section_title
;
Structure prediction by ZEFSAII (Michael W. Deem and Ramdas Pophale) SiO2 
 PCOD8065226
Probable space group: P 2/M
;
_chemical_formula_sum "Si O2"
_cell_formula_units_Z 32
_cell_length_a 24.789076
_cell_length_b 9.167868
_cell_length_c 14.489162
_cell_angle_alpha 90.000000
_cell_angle_beta 150.462574
_cell_angle_gamma 90.000000
_cell_volume 1623.348674
_symmetry_space_group_name_H-M "P 2/M"
_symmetry_group_IT_number 10
_symmetry_cell_setting 'monoclinic'
loop_
_space_group_symop_operation_xyz
x,y,z
-x,y,-z
-x,-y,-z
x,-y,z
loop_
_atom_site_type_symbol
_atom_site_label
_atom_site_fract_x
_atom_site_fract_y
_atom_site_fract_z
Si Si1 0.488013 0.327966 0.088092
Si Si2 0.475843 0.830007 0.569597
Si Si3 0.891615 0.172102 0.385802
Si Si4 0.346272 0.170377 0.014327
Si Si5 0.972669 0.665269 0.061489
Si Si6 0.266237 0.333846 0.332887
Si Si7 0.701207 0.830961 0.447729
Si Si8 0.117382 0.830559 0.421024
O O1 0.489071 0.500000 0.103503
O O2 0.587981 0.254129 0.289551
O O3 0.500000 0.282305 0.000000
O O4 0.380351 0.260493 0.973965
O O5 0.500000 0.792161 0.500000
O O6 0.369163 0.739013 0.436470
O O7 0.449399 0.000000 0.543974
O O8 0.581860 0.785030 0.789225
O O9 0.782581 0.209078 0.163485
O O10 0.882524 0.236315 0.476045
O O11 0.000000 0.240950 0.500000
O O12 0.905471 0.000000 0.414031
O O13 0.360133 0.000000 0.012281
O O14 0.017466 0.500000 0.132985
O O15 0.027539 0.756339 0.223913
O O16 0.842915 0.670623 0.891671
O O17 0.000000 0.727989 0.000000
O O18 0.297000 0.500000 0.404563
O O19 0.228145 0.242248 0.366230
O O20 0.761188 0.805416 0.439788
O O21 0.679683 0.000000 0.435869
O O22 0.087866 0.000000 0.377717
#
# Coordination Sequence:
#
# PCOD8065226 Si02
#       8
#     4   4   4   4   4   4   4   4
#     4  11  23  36  54  84 118 154 195 239 291 352
#     4  10  22  39  60  89 121 155 198 245 293 346
#     4   9  19  37  60  86 116 152 196 241 291 346
#     4  10  20  37  61  86 116 155 194 239 292 346
#     4  10  21  37  56  81 117 160 196 233 294 359
#     4  11  22  37  58  83 115 156 197 238 290 350
#     4  11  21  34  55  84 118 151 189 240 296 351
#     4  10  21  35  57  88 116 149 197 248 293 345
#
# _framework density 19.712340999999999
#
# number of rings (size 3 to 8) (size 9 to 14) (size 15 to 20)
#    0.000    1.750    2.500    1.875    0.000    5.000 
#    0.000    3.125    0.000    1.500    0.000    0.000 
#    0.000    0.000    0.000    0.000    0.000    0.000 
#
# Total GULP energy -396720.262147 kJ/mol
# GULP energy per Si atom -12397.508192 kJ/mol
# Density = 1.966747 g / cm^3
# Si number density = 19.712341 Si / 1000 Ang^3
#
#
#
# Elastic Constant Matrix: (Units=GPa)
#
#
# Indices 1 2 3 4 5 6 
#
# 1 125.1240 41.3870 55.5484 0.0000 4.3489 0.0000
# 2 41.3870 53.2631 32.6016 0.0000 5.5788 0.0000
# 3 55.5484 32.6016 117.1464 0.0000 11.0812 0.0000
# 4 0.0000 0.0000 0.0000 22.3469 0.0000 -0.4308
# 5 4.3489 5.5788 11.0812 0.0000 31.8680 0.0000
# 6 0.0000 0.0000 0.0000 -0.4308 0.0000 20.9722
#
#
#
# Elastic Compliance Matrix: (Units=1/GPa)
#
#
# Indices 1 2 3 4 5 6 
#
# 1 0.011992 -0.007088 -0.003801 0.000000 0.000926 0.000000
# 2 -0.007088 0.026923 -0.003906 0.000000 -0.002388 0.000000
# 3 -0.003801 -0.003906 0.011697 0.000000 -0.002865 0.000000
# 4 0.000000 0.000000 0.000000 0.044767 0.000000 0.000920
# 5 0.000926 -0.002388 -0.002865 0.000000 0.032667 0.000000
# 6 0.000000 0.000000 0.000000 0.000920 0.000000 0.047701
#
#
# Mechanical properties :
#
#
# Convention : Reuss Voigt Hill
#
# Bulk Modulus (GPa) = 47.57069 61.62304 54.59686
# Shear Modulus (GPa) = 23.54657 26.10385 24.82521
#
# Velocity S-wave (km/s) = 3.45992 3.64296 3.55262
# Velocity P-wave (km/s) = 6.33610 7.00170 6.67720
#
# Compressibility (1/GPa) = 0.02102135
#
# Stress axis : x y z
#
# Youngs Moduli (GPa) = 83.38830 37.14246 85.49390
#
# Poissons Ratio (x) = 0.26328 0.32499
# Poissons Ratio (y) = 0.59110 0.33391
# Poissons Ratio (z) = 0.31698 0.14507
#
# Static dielectric constant tensor:
#      x y z
#    x 3.685300 0.000000 0.017340 
#    y 0.000000 3.426750 0.000000 
#    z 0.017340 0.000000 3.704690 
# 
# 
# High freq. dielectric constant tensor:
#      x y z
#    x 1.762100 0.000000 0.004420 
#    y 0.000000 1.750780 0.000000 
#    z 0.004420 0.000000 1.778600 
# 
# From -- ./inp_files/66585.got.cif
#   From: 2010.06.25/outbox.cif.g09.slc.cpg/sg10_34_cif.got.tgz:66585.got - 2010.06.27 22:07:45.
