data_PCOD8065025
_publ_section_title
;
Structure prediction by ZEFSAII (Michael W. Deem and Ramdas Pophale) SiO2 
 PCOD8065025
Probable space group: P 2/M
;
_chemical_formula_sum "Si O2"
_cell_formula_units_Z 26
_cell_length_a 9.330116
_cell_length_b 19.451817
_cell_length_c 9.780925
_cell_angle_alpha 90.000000
_cell_angle_beta 133.801364
_cell_angle_gamma 90.000000
_cell_volume 1281.180085
_symmetry_space_group_name_H-M "P 2/M"
_symmetry_group_IT_number 10
_symmetry_cell_setting 'monoclinic'
loop_
_space_group_symop_operation_xyz
x,y,z
-x,y,-z
-x,-y,-z
x,-y,z
loop_
_atom_site_type_symbol
_atom_site_label
_atom_site_fract_x
_atom_site_fract_y
_atom_site_fract_z
Si Si1 0.000000 0.843299 0.500000
Si Si2 0.564837 0.813604 0.192228
Si Si3 0.319731 0.919387 0.183928
Si Si4 0.828096 0.579430 0.492775
Si Si5 0.911341 0.424830 0.087702
Si Si6 0.950080 0.920268 0.749242
Si Si7 0.530644 0.339270 0.862443
O O1 0.801918 0.798516 0.346557
O O2 0.953911 0.886833 0.604122
O O3 0.507237 0.871993 0.265701
O O4 0.460226 0.741960 0.160237
O O5 0.500000 0.840097 0.000000
O O6 0.243536 0.900251 0.286682
O O7 0.380003 0.000000 0.216010
O O8 0.146806 0.901164 0.962904
O O9 0.761925 0.500000 0.441340
O O10 0.637509 0.625929 0.340155
O O11 0.000000 0.596847 0.500000
O O12 0.913203 0.600252 0.696686
O O13 0.831470 0.500000 0.087592
O O14 0.742349 0.368605 0.962036
O O15 0.000000 0.435473 0.000000
O O16 0.942789 0.000000 0.716855
O O17 0.500000 0.356664 0.000000
#
# Coordination Sequence:
#
# PCOD8065025 Si02
#       7
#     2   4   4   4   4   4   4
#     4  12  23  38  60  90 125 152 206 252 302 368
#     4  11  25  41  59  91 123 167 200 254 312 364
#     4   9  19  41  64  87 121 159 204 254 307 364
#     4  10  20  36  64  95 119 157 208 249 294 353
#     4  10  22  41  64  95 129 160 200 254 307 357
#     4   9  19  37  65  92 117 154 199 255 313 366
#     4  11  23  39  62  89 127 164 208 246 308 365
#
# _framework density 20.293789
#
# number of rings (size 3 to 8) (size 9 to 14) (size 15 to 20)
#    0.000    1.846    3.077    1.615    1.077    3.385 
#    2.769    5.385    0.000    0.000    0.000    0.000 
#    0.000    0.000    0.000    0.000    0.000    0.000 
#
# Total GULP energy -322354.420890 kJ/mol
# GULP energy per Si atom -12398.246957 kJ/mol
# Density = 2.024760 g / cm^3
# Si number density = 20.293789 Si / 1000 Ang^3
#
#
#
# Elastic Constant Matrix: (Units=GPa)
#
#
# Indices 1 2 3 4 5 6 
#
# 1 93.9222 57.4824 44.5579 0.0000 -0.3377 0.0000
# 2 57.4824 94.0192 40.3587 0.0000 5.3907 0.0000
# 3 44.5579 40.3587 111.8967 0.0000 -7.2651 0.0000
# 4 0.0000 0.0000 0.0000 -1.1443 0.0000 6.3418
# 5 -0.3377 5.3907 -7.2651 0.0000 39.4149 0.0000
# 6 0.0000 0.0000 0.0000 6.3418 0.0000 28.5995
#
#
#
# Elastic Compliance Matrix: (Units=1/GPa)
#
#
# Indices 1 2 3 4 5 6 
#
# 1 0.018339 -0.009636 -0.003777 0.000000 0.000779 0.000000
# 2 -0.009636 0.017914 -0.002822 0.000000 -0.003053 0.000000
# 3 -0.003777 -0.002822 0.011621 0.000000 0.002496 0.000000
# 4 0.000000 0.000000 0.000000 -0.392071 0.000000 0.086940
# 5 0.000779 -0.003053 0.002496 0.000000 0.026255 0.000000
# 6 0.000000 0.000000 0.000000 0.086940 0.000000 0.015687
#
#
# Mechanical properties :
#
#
# Convention : Reuss Voigt Hill
#
# Bulk Modulus (GPa) = 64.91839 64.95959 64.93899
# Shear Modulus (GPa) = -18.89282 23.86997 2.48858
#
# Velocity S-wave (km/s) = -3.05448 3.43333 1.10857
# Velocity P-wave (km/s) = 4.42932 6.91347 5.80582
#
# Compressibility (1/GPa) = 0.01540396
#
# Stress axis : x y z
#
# Youngs Moduli (GPa) = 54.52901 55.82275 86.05327
#
# Poissons Ratio (x) = 0.53789 0.32500
# Poissons Ratio (y) = 0.52542 0.24287
# Poissons Ratio (z) = 0.20594 0.15755
#
# Static dielectric constant tensor:
#      x y z
#    x 3.635000 0.000000 -0.051290 
#    y 0.000000 3.474140 0.000000 
#    z -0.051290 0.000000 3.723520 
# 
# 
# High freq. dielectric constant tensor:
#      x y z
#    x 1.788230 0.000000 -0.002290 
#    y 0.000000 1.777390 0.000000 
#    z -0.002290 0.000000 1.806420 
# 
# From -- ./inp_files/20481.got.cif
#   From: 2010.06.25/outbox.cif.g09.slc.cpg/sg10_11_cif.got.tgz:20481.got - 2010.06.27 22:07:45.
