data_PCOD8065049
_publ_section_title
;
Structure prediction by ZEFSAII (Michael W. Deem and Ramdas Pophale) SiO2 
 PCOD8065049
Probable space group: P 2/M
;
_chemical_formula_sum "Si O2"
_cell_formula_units_Z 32
_cell_length_a 27.293136
_cell_length_b 9.361486
_cell_length_c 21.219920
_cell_angle_alpha 90.000000
_cell_angle_beta 161.168002
_cell_angle_gamma 90.000000
_cell_volume 1750.120124
_symmetry_space_group_name_H-M "P 2/M"
_symmetry_group_IT_number 10
_symmetry_cell_setting 'monoclinic'
loop_
_space_group_symop_operation_xyz
x,y,z
-x,y,-z
-x,-y,-z
x,-y,z
loop_
_atom_site_type_symbol
_atom_site_label
_atom_site_fract_x
_atom_site_fract_y
_atom_site_fract_z
Si Si1 0.547763 0.669752 0.490503
Si Si2 0.299205 0.670043 0.091896
Si Si3 0.828893 0.164127 0.298925
Si Si4 0.377574 0.331684 0.048724
Si Si5 0.885179 0.670076 0.911608
Si Si6 0.339198 0.836274 0.778998
Si Si7 0.024774 0.669532 0.842057
Si Si8 0.706228 0.332486 0.401538
O O1 0.500000 0.732092 0.500000
O O2 0.533818 0.500000 0.474642
O O3 0.437751 0.731533 0.302554
O O4 0.719426 0.719056 0.686737
O O5 0.306107 0.500000 0.099674
O O6 0.319626 0.727117 0.045605
O O7 0.140164 0.724573 0.928046
O O8 0.786553 0.181747 0.320319
O O9 0.000000 0.220743 0.500000
O O10 0.814588 0.000000 0.259658
O O11 0.716712 0.256890 0.120534
O O12 0.351569 0.500000 0.010820
O O13 0.555392 0.292908 0.257169
O O14 0.896401 0.500000 0.927989
O O15 0.924134 0.732589 0.028165
O O16 0.000000 0.733926 0.000000
O O17 0.287681 0.742931 0.657994
O O18 0.355957 0.000000 0.777380
O O19 0.500000 0.778950 0.000000
O O20 0.034032 0.500000 0.855869
O O21 0.853414 0.720447 0.619513
O O22 0.715084 0.500000 0.399164
#
# Coordination Sequence:
#
# PCOD8065049 Si02
#       8
#     4   4   4   4   4   4   4   4
#     4   9  14  23  38  56  81 121 167 200 231 281
#     4   9  17  28  42  61  93 132 166 201 244 294
#     4  10  22  39  57  76  99 127 163 208 250 290
#     4  10  21  34  49  74 104 133 164 201 247 299
#     4   9  16  23  36  58  86 124 167 205 241 284
#     4  10  20  37  58  75  94 127 166 203 245 294
#     4   9  17  29  41  61  95 132 166 200 244 294
#     4  10  21  33  49  74 104 133 162 202 250 297
#
# _framework density 18.284458999999998
#
# number of rings (size 3 to 8) (size 9 to 14) (size 15 to 20)
#    0.000    2.500    2.500    0.000    3.500    1.000 
#    0.000    0.000    0.000    0.000    0.000    0.000 
#    0.000    2.000    0.000    0.125    0.000    0.000 
#
# Total GULP energy -396748.530896 kJ/mol
# GULP energy per Si atom -12398.391591 kJ/mol
# Density = 1.824284 g / cm^3
# Si number density = 18.284459 Si / 1000 Ang^3
#
#
#
# Elastic Constant Matrix: (Units=GPa)
#
#
# Indices 1 2 3 4 5 6 
#
# 1 121.6169 19.5219 49.5924 0.0000 11.6740 0.0000
# 2 19.5219 16.3525 23.6439 0.0000 -1.3534 0.0000
# 3 49.5924 23.6439 132.3386 0.0000 13.6692 0.0000
# 4 0.0000 0.0000 0.0000 0.9876 0.0000 9.0352
# 5 11.6740 -1.3534 13.6692 0.0000 36.6707 0.0000
# 6 0.0000 0.0000 0.0000 9.0352 0.0000 6.9380
#
#
#
# Elastic Compliance Matrix: (Units=1/GPa)
#
#
# Indices 1 2 3 4 5 6 
#
# 1 0.011014 -0.010683 -0.001889 0.000000 -0.003197 0.000000
# 2 -0.010683 0.095688 -0.014362 0.000000 0.012286 0.000000
# 3 -0.001889 -0.014362 0.011256 0.000000 -0.004125 0.000000
# 4 0.000000 0.000000 0.000000 -0.092774 0.000000 0.120818
# 5 -0.003197 0.012286 -0.004125 0.000000 0.030278 0.000000
# 6 0.000000 0.000000 0.000000 0.120818 0.000000 -0.013205
#
#
# Mechanical properties :
#
#
# Convention : Reuss Voigt Hill
#
# Bulk Modulus (GPa) = 15.60252 50.64714 33.12483
# Shear Modulus (GPa) = 42.55784 20.75590 31.65687
#
# Velocity S-wave (km/s) = 4.82969 3.37288 4.16547
# Velocity P-wave (km/s) = 6.29706 6.55195 6.42577
#
# Compressibility (1/GPa) = 0.06409223
#
# Stress axis : x y z
#
# Youngs Moduli (GPa) = 90.79061 10.45064 88.84126
#
# Poissons Ratio (x) = 0.11164 0.16780
# Poissons Ratio (y) = 0.96990 1.27590
# Poissons Ratio (z) = 0.17148 0.15009
#
# Static dielectric constant tensor:
#      x y z
#    x 3.582320 0.000000 0.115200 
#    y 0.000000 2.768050 0.000000 
#    z 0.115200 0.000000 3.591100 
# 
# 
# High freq. dielectric constant tensor:
#      x y z
#    x 1.722290 0.000000 0.006780 
#    y 0.000000 1.638020 0.000000 
#    z 0.006780 0.000000 1.723610 
# 
# From -- ./inp_files/32179.got.cif
#   From: 2010.06.25/outbox.cif.g09.slc.cpg/sg10_17_cif.got.tgz:32179.got - 2010.06.27 22:07:45.
