data_PCOD8065531
_publ_section_title
;
Structure prediction by ZEFSAII (Michael W. Deem and Ramdas Pophale) SiO2 
 PCOD8065531
Probable space group: P 2/M
;
_chemical_formula_sum "Si O2"
_cell_formula_units_Z 28
_cell_length_a 19.556324
_cell_length_b 9.382066
_cell_length_c 14.389193
_cell_angle_alpha 90.000000
_cell_angle_beta 32.372665
_cell_angle_gamma 90.000000
_cell_volume 1413.578439
_symmetry_space_group_name_H-M "P 2/M"
_symmetry_group_IT_number 10
_symmetry_cell_setting 'monoclinic'
loop_
_space_group_symop_operation_xyz
x,y,z
-x,y,-z
-x,-y,-z
x,-y,z
loop_
_atom_site_type_symbol
_atom_site_label
_atom_site_fract_x
_atom_site_fract_y
_atom_site_fract_z
Si Si1 0.571242 0.838181 0.699369
Si Si2 0.713336 0.162117 0.004888
Si Si3 0.236393 0.334159 0.880963
Si Si4 0.028539 0.333025 0.869090
Si Si5 0.854918 0.666011 0.692767
Si Si6 0.302076 0.335191 0.592084
Si Si7 0.635691 0.665364 0.798230
O O1 0.420961 0.832260 0.895204
O O2 0.590640 0.763982 0.576389
O O3 0.649703 0.756394 0.688656
O O4 0.620472 0.000000 0.638113
O O5 0.688648 0.236666 0.132685
O O6 0.758541 0.000000 0.967739
O O7 0.820201 0.245145 0.824018
O O8 0.261133 0.500000 0.875062
O O9 0.282341 0.299513 0.723386
O O10 0.085797 0.290208 0.069495
O O11 0.013503 0.500000 0.902103
O O12 0.174900 0.299078 0.675463
O O13 0.000000 0.256608 0.000000
O O14 0.842401 0.500000 0.732187
O O15 0.755900 0.706517 0.724781
O O16 0.000000 0.705504 0.500000
O O17 0.341357 0.500000 0.536101
O O18 0.641023 0.500000 0.764589
O O19 0.500000 0.702858 0.000000
#
# Coordination Sequence:
#
# PCOD8065531 Si02
#       7
#     4   4   4   4   4   4   4
#     4  11  24  38  55  81 115 155 193 233 284 343
#     4  11  24  39  55  79 115 157 193 230 285 348
#     4   9  18  34  58  83 111 150 192 237 286 335
#     4   7  12  27  51  77 103 134 177 229 282 329
#     4  10  22  41  65  92 118 144 184 241 295 342
#     4   9  18  34  57  84 112 146 192 241 283 332
#     4  10  20  38  65  89 109 143 190 237 283 337
#
# _framework density 19.807884999999999
#
# number of rings (size 3 to 8) (size 9 to 14) (size 15 to 20)
#    0.000    2.429    1.429    2.571    0.000    5.143 
#    0.000    9.286    0.000    2.571    0.000    0.000 
#    0.000    0.000    0.000    0.000    0.000    0.000 
#
# Total GULP energy -346968.799415 kJ/mol
# GULP energy per Si atom -12391.742836 kJ/mol
# Density = 1.976280 g / cm^3
# Si number density = 19.807885 Si / 1000 Ang^3
#
#
#
# Elastic Constant Matrix: (Units=GPa)
#
#
# Indices 1 2 3 4 5 6 
#
# 1 94.4726 53.1910 50.9037 0.0000 3.4339 0.0000
# 2 53.1910 99.9253 56.3846 0.0000 17.4063 0.0000
# 3 50.9037 56.3846 89.3724 0.0000 4.0856 0.0000
# 4 0.0000 0.0000 0.0000 19.0734 0.0000 -3.4716
# 5 3.4339 17.4063 4.0856 0.0000 31.5350 0.0000
# 6 0.0000 0.0000 0.0000 -3.4716 0.0000 15.1328
#
#
#
# Elastic Compliance Matrix: (Units=1/GPa)
#
#
# Indices 1 2 3 4 5 6 
#
# 1 0.017220 -0.006172 -0.006019 0.000000 0.002312 0.000000
# 2 -0.006172 0.019653 -0.008468 0.000000 -0.009078 0.000000
# 3 -0.006019 -0.008468 0.019834 0.000000 0.002760 0.000000
# 4 0.000000 0.000000 0.000000 0.054714 0.000000 0.012552
# 5 0.002312 -0.009078 0.002760 0.000000 0.036112 0.000000
# 6 0.000000 0.000000 0.000000 0.012552 0.000000 0.068961
#
#
# Mechanical properties :
#
#
# Convention : Reuss Voigt Hill
#
# Bulk Modulus (GPa) = 64.99188 67.19209 66.09198
# Shear Modulus (GPa) = 19.01559 21.36766 20.19163
#
# Velocity S-wave (km/s) = 3.10175 3.28799 3.19623
# Velocity P-wave (km/s) = 6.76093 6.95773 6.86004
#
# Compressibility (1/GPa) = 0.01538654
#
# Stress axis : x y z
#
# Youngs Moduli (GPa) = 58.07344 50.88338 50.41850
#
# Poissons Ratio (x) = 0.31407 0.30349
# Poissons Ratio (y) = 0.35844 0.42696
# Poissons Ratio (z) = 0.34956 0.43090
#
# Static dielectric constant tensor:
#      x y z
#    x 3.610110 0.000000 -0.245030 
#    y 0.000000 3.340100 0.000000 
#    z -0.245030 0.000000 3.556130 
# 
# 
# High freq. dielectric constant tensor:
#      x y z
#    x 1.771090 0.000000 -0.008640 
#    y 0.000000 1.746780 0.000000 
#    z -0.008640 0.000000 1.767440 
# 
# From -- ./inp_files/70210.got.cif
#   From: 2010.06.25/outbox.cif.g09.slc.cpg/sg10_36_cif.got.tgz:70210.got - 2010.06.27 22:07:45.
