data_PCOD8065522
_publ_section_title
;
Structure prediction by ZEFSAII (Michael W. Deem and Ramdas Pophale) SiO2 
 PCOD8065522
Probable space group: P 2/M
;
_chemical_formula_sum "Si O2"
_cell_formula_units_Z 28
_cell_length_a 11.190884
_cell_length_b 8.519908
_cell_length_c 16.151028
_cell_angle_alpha 90.000000
_cell_angle_beta 61.449267
_cell_angle_gamma 90.000000
_cell_volume 1352.660975
_symmetry_space_group_name_H-M "P 2/M"
_symmetry_group_IT_number 10
_symmetry_cell_setting 'monoclinic'
loop_
_space_group_symop_operation_xyz
x,y,z
-x,y,-z
-x,-y,-z
x,-y,z
loop_
_atom_site_type_symbol
_atom_site_label
_atom_site_fract_x
_atom_site_fract_y
_atom_site_fract_z
Si Si1 0.826005 0.316830 0.392716
Si Si2 0.107848 0.682644 0.036239
Si Si3 0.629142 0.684919 0.140913
Si Si4 0.675489 0.316686 0.770115
Si Si5 0.077929 0.181065 0.221552
Si Si6 0.680958 0.182613 0.589478
Si Si7 0.396250 0.313750 0.666027
O O1 0.808943 0.500000 0.416227
O O2 0.800953 0.222334 0.485578
O O3 0.719061 0.258630 0.359084
O O4 0.977209 0.282951 0.311254
O O5 0.117711 0.500000 0.057268
O O6 0.058754 0.777748 0.131975
O O7 0.253389 0.752221 0.957625
O O8 0.000000 0.710359 0.000000
O O9 0.647828 0.500000 0.137896
O O10 0.480056 0.731322 0.156776
O O11 0.647837 0.747342 0.228443
O O12 0.699722 0.500000 0.777358
O O13 0.768855 0.218885 0.801337
O O14 0.708197 0.278697 0.664096
O O15 0.044553 0.000000 0.246575
O O16 0.538894 0.233933 0.594248
O O17 0.681372 0.000000 0.610922
O O18 0.418170 0.500000 0.657395
#
# Coordination Sequence:
#
# PCOD8065522 Si02
#       7
#     4   4   4   4   4   4   4
#     4  11  22  38  60  84 113 156 204 242 283 342
#     4  10  20  38  64  91 118 152 193 233 280 344
#     4   8  16  33  60  88 112 145 192 242 281 323
#     4  10  21  41  63  83 111 152 203 245 281 338
#     4  12  26  41  57  84 120 152 189 243 303 352
#     4  11  22  36  57  88 123 154 187 236 297 349
#     4   9  18  35  59  87 117 152 197 241 280 336
#
# _framework density 20.699940999999999
#
# number of rings (size 3 to 8) (size 9 to 14) (size 15 to 20)
#    0.000    1.857    0.000    5.571    0.000    6.571 
#    0.000    9.286    0.000    0.000    0.000    0.000 
#    0.000    0.000    0.000    0.000    0.000    0.000 
#
# Total GULP energy -347309.368152 kJ/mol
# GULP energy per Si atom -12403.906005 kJ/mol
# Density = 2.065283 g / cm^3
# Si number density = 20.699941 Si / 1000 Ang^3
#
#
#
# Elastic Constant Matrix: (Units=GPa)
#
#
# Indices 1 2 3 4 5 6 
#
# 1 85.4246 18.5118 29.3466 0.0000 -3.0119 0.0000
# 2 18.5118 51.8766 12.2437 0.0000 2.8104 0.0000
# 3 29.3466 12.2437 100.5191 0.0000 -21.8305 0.0000
# 4 0.0000 0.0000 0.0000 21.3640 0.0000 3.9247
# 5 -3.0119 2.8104 -21.8305 0.0000 29.4460 0.0000
# 6 0.0000 0.0000 0.0000 3.9247 0.0000 14.4046
#
#
#
# Elastic Compliance Matrix: (Units=1/GPa)
#
#
# Indices 1 2 3 4 5 6 
#
# 1 0.013831 -0.003992 -0.003768 0.000000 -0.000998 0.000000
# 2 -0.003992 0.021488 -0.002367 0.000000 -0.004214 0.000000
# 3 -0.003768 -0.002367 0.013471 0.000000 0.009828 0.000000
# 4 0.000000 0.000000 0.000000 0.049274 0.000000 -0.013425
# 5 -0.000998 -0.004214 0.009828 0.000000 0.041547 0.000000
# 6 0.000000 0.000000 0.000000 -0.013425 0.000000 0.073080
#
#
# Mechanical properties :
#
#
# Convention : Reuss Voigt Hill
#
# Bulk Modulus (GPa) = 35.04466 39.78052 37.41259
# Shear Modulus (GPa) = 20.62219 24.89079 22.75649
#
# Velocity S-wave (km/s) = 3.15976 3.47141 3.31924
# Velocity P-wave (km/s) = 5.50261 5.94365 5.72738
#
# Compressibility (1/GPa) = 0.02853502
#
# Stress axis : x y z
#
# Youngs Moduli (GPa) = 72.30288 46.53770 74.23215
#
# Poissons Ratio (x) = 0.18577 0.27974
# Poissons Ratio (y) = 0.28863 0.17572
# Poissons Ratio (z) = 0.27247 0.11016
#
# Static dielectric constant tensor:
#      x y z
#    x 3.784620 0.000000 -0.115700 
#    y 0.000000 3.476560 0.000000 
#    z -0.115700 0.000000 3.856950 
# 
# 
# High freq. dielectric constant tensor:
#      x y z
#    x 1.811250 0.000000 -0.004500 
#    y 0.000000 1.788560 0.000000 
#    z -0.004500 0.000000 1.815200 
# 
# From -- ./inp_files/63640.got.cif
#   From: 2010.06.25/outbox.cif.g09.slc.cpg/sg10_32_cif.got.tgz:63640.got - 2010.06.27 22:07:45.
