data_PCOD8065867
_publ_section_title
;
Structure prediction by ZEFSAII (Michael W. Deem and Ramdas Pophale) SiO2 
 PCOD8065867
Probable space group: P 2/M
;
_chemical_formula_sum "Si O2"
_cell_formula_units_Z 28
_cell_length_a 16.184304
_cell_length_b 8.976400
_cell_length_c 12.465109
_cell_angle_alpha 90.000000
_cell_angle_beta 56.446209
_cell_angle_gamma 90.000000
_cell_volume 1509.137288
_symmetry_space_group_name_H-M "P 2/M"
_symmetry_group_IT_number 10
_symmetry_cell_setting 'monoclinic'
loop_
_space_group_symop_operation_xyz
x,y,z
-x,y,-z
-x,-y,-z
x,-y,z
loop_
_atom_site_type_symbol
_atom_site_label
_atom_site_fract_x
_atom_site_fract_y
_atom_site_fract_z
Si Si1 0.983101 0.327187 0.325261
Si Si2 0.207563 0.823631 0.450712
Si Si3 0.203564 0.670180 0.241315
Si Si4 0.944028 0.169569 0.929172
Si Si5 0.592918 0.176429 0.292058
Si Si6 0.743971 0.675197 0.033009
Si Si7 0.627167 0.176019 0.505349
O O1 0.958008 0.500000 0.329306
O O2 0.898715 0.249958 0.455404
O O3 0.086493 0.303260 0.311526
O O4 0.987270 0.253338 0.205542
O O5 0.244918 0.775868 0.305748
O O6 0.284664 0.760457 0.484008
O O7 0.198223 0.000000 0.464369
O O8 0.224769 0.500000 0.258040
O O9 0.259933 0.712287 0.090908
O O10 0.927868 0.000000 0.902981
O O11 0.838027 0.246807 0.019921
O O12 0.000000 0.177281 0.000000
O O13 0.644897 0.263290 0.158233
O O14 0.642282 0.223939 0.370536
O O15 0.478920 0.230694 0.374008
O O16 0.602740 0.000000 0.266495
O O17 0.754887 0.500000 0.043629
O O18 0.626414 0.000000 0.511378
#
# Coordination Sequence:
#
# PCOD8065867 Si02
#       7
#     4   4   4   4   4   4   4
#     4  10  21  36  53  75 108 147 180 215 266 319
#     4  11  21  33  54  82 109 136 181 230 267 312
#     4   9  20  38  53  71 106 147 181 215 263 321
#     4  10  21  35  52  77 108 141 180 220 257 311
#     4   9  17  36  61  78 103 142 178 213 268 327
#     4  10  21  36  55  79 108 140 176 220 269 319
#     4   8  18  35  55  81 108 136 173 222 270 317
#
# _framework density 18.553647999999999
#
# number of rings (size 3 to 8) (size 9 to 14) (size 15 to 20)
#    0.000    2.429    0.000    3.857    2.000    6.286 
#    0.000    4.286    0.000    4.286    0.000    0.000 
#    0.000    0.000    0.000    0.000    0.000    0.000 
#
# Total GULP energy -347216.805737 kJ/mol
# GULP energy per Si atom -12400.600205 kJ/mol
# Density = 1.851142 g / cm^3
# Si number density = 18.553648 Si / 1000 Ang^3
#
#
#
# Elastic Constant Matrix: (Units=GPa)
#
#
# Indices 1 2 3 4 5 6 
#
# 1 66.3989 33.3452 47.1926 0.0000 10.5658 0.0000
# 2 33.3452 84.2570 44.7382 0.0000 6.6045 0.0000
# 3 47.1926 44.7382 124.8134 0.0000 -1.1283 0.0000
# 4 0.0000 0.0000 0.0000 27.8425 0.0000 5.7647
# 5 10.5658 6.6045 -1.1283 0.0000 22.3470 0.0000
# 6 0.0000 0.0000 0.0000 5.7647 0.0000 12.6784
#
#
#
# Elastic Compliance Matrix: (Units=1/GPa)
#
#
# Indices 1 2 3 4 5 6 
#
# 1 0.024634 -0.004843 -0.007674 0.000000 -0.010603 0.000000
# 2 -0.004843 0.016099 -0.003963 0.000000 -0.002668 0.000000
# 3 -0.007674 -0.003963 0.012383 0.000000 0.005425 0.000000
# 4 0.000000 0.000000 0.000000 0.039649 0.000000 -0.018028
# 5 -0.010603 -0.002668 0.005425 0.000000 0.050824 0.000000
# 6 0.000000 0.000000 0.000000 -0.018028 0.000000 0.087072
#
#
# Mechanical properties :
#
#
# Convention : Reuss Voigt Hill
#
# Bulk Modulus (GPa) = 49.61584 58.44681 54.03133
# Shear Modulus (GPa) = 18.49514 22.58646 20.54080
#
# Velocity S-wave (km/s) = 3.16071 3.49285 3.33093
# Velocity P-wave (km/s) = 6.33404 6.91640 6.63161
#
# Compressibility (1/GPa) = 0.02015486
#
# Stress axis : x y z
#
# Youngs Moduli (GPa) = 40.59350 62.11666 80.75406
#
# Poissons Ratio (x) = 0.30085 0.61973
# Poissons Ratio (y) = 0.19661 0.32005
# Poissons Ratio (z) = 0.31152 0.24619
#
# Static dielectric constant tensor:
#      x y z
#    x 3.491560 0.000000 0.061970 
#    y 0.000000 3.348160 0.000000 
#    z 0.061970 0.000000 3.575650 
# 
# 
# High freq. dielectric constant tensor:
#      x y z
#    x 1.706300 0.000000 0.006830 
#    y 0.000000 1.713760 0.000000 
#    z 0.006830 0.000000 1.727860 
# 
# From -- ./inp_files/49634.got.cif
#   From: 2010.06.25/outbox.cif.g09.slc.cpg/sg10_25_cif.got.tgz:49634.got - 2010.06.27 22:07:45.
