data_PCOD8065484
_publ_section_title
;
Structure prediction by ZEFSAII (Michael W. Deem and Ramdas Pophale) SiO2 
 PCOD8065484
Probable space group: P 2/M
;
_chemical_formula_sum "Si O2"
_cell_formula_units_Z 18
_cell_length_a 5.018316
_cell_length_b 21.594110
_cell_length_c 9.657750
_cell_angle_alpha 90.000000
_cell_angle_beta 58.010803
_cell_angle_gamma 90.000000
_cell_volume 887.648276
_symmetry_space_group_name_H-M "P 2/M"
_symmetry_group_IT_number 10
_symmetry_cell_setting 'monoclinic'
loop_
_space_group_symop_operation_xyz
x,y,z
-x,y,-z
-x,-y,-z
x,-y,z
loop_
_atom_site_type_symbol
_atom_site_label
_atom_site_fract_x
_atom_site_fract_y
_atom_site_fract_z
Si Si1 0.872632 0.897140 0.386468
Si Si2 0.135994 0.239606 0.608691
Si Si3 0.130226 0.000000 0.116817
Si Si4 0.580971 0.428949 0.819406
Si Si5 0.212712 0.633595 0.684999
O O1 0.500000 0.902871 0.500000
O O2 0.003904 0.827688 0.313121
O O3 0.000000 0.918683 0.500000
O O4 0.010063 0.939457 0.228738
O O5 0.500000 0.226351 0.500000
O O6 0.076626 0.295744 0.734031
O O7 0.000000 0.263144 0.500000
O O8 0.500000 0.000000 0.000000
O O9 0.000000 0.000000 0.000000
O O10 0.536720 0.500000 0.787283
O O11 0.333788 0.388545 0.800474
O O12 0.942395 0.410205 0.697238
O O13 0.500000 0.417066 0.000000
O O14 0.500000 0.631917 0.500000
#
# Coordination Sequence:
#
# PCOD8065484 Si02
#       5
#     4   4   2   4   4
#     4  10  20  38  63  84 109 155 202 226 267 346
#     4   9  18  34  58  86 112 141 185 240 282 325
#     4  12  24  38  56  88 128 152 182 242 294 316
#     4  11  24  40  56  79 115 154 188 227 281 344
#     4  11  21  37  61  86 111 141 187 242 287 329
#
# _framework density 20.278303999999999
#
# number of rings (size 3 to 8) (size 9 to 14) (size 15 to 20)
#    0.000    1.556    0.000    6.667    0.000    4.444 
#    0.000    3.333    0.000    0.000    0.000    0.000 
#    0.000    0.000    0.000    0.000    0.000    0.000 
#
# Total GULP energy -223140.090818 kJ/mol
# GULP energy per Si atom -12396.671712 kJ/mol
# Density = 2.023215 g / cm^3
# Si number density = 20.278304 Si / 1000 Ang^3
#
#
#
# Elastic Constant Matrix: (Units=GPa)
#
#
# Indices 1 2 3 4 5 6 
#
# 1 149.4859 58.2099 44.7568 0.0000 21.4717 0.0000
# 2 58.2099 175.5193 79.9320 0.0000 24.7293 0.0000
# 3 44.7568 79.9320 85.7802 0.0000 12.5070 0.0000
# 4 0.0000 0.0000 0.0000 7.4928 0.0000 12.5296
# 5 21.4717 24.7293 12.5070 0.0000 38.7704 0.0000
# 6 0.0000 0.0000 0.0000 12.5296 0.0000 33.7548
#
#
#
# Elastic Compliance Matrix: (Units=1/GPa)
#
#
# Indices 1 2 3 4 5 6 
#
# 1 0.008419 -0.000979 -0.003034 0.000000 -0.003059 0.000000
# 2 -0.000979 0.010486 -0.008777 0.000000 -0.003315 0.000000
# 3 -0.003034 -0.008777 0.021363 0.000000 0.000387 0.000000
# 4 0.000000 0.000000 0.000000 0.351878 0.000000 -0.130615
# 5 -0.003059 -0.003315 0.000387 0.000000 0.029476 0.000000
# 6 0.000000 0.000000 0.000000 -0.130615 0.000000 0.078109
#
#
# Mechanical properties :
#
#
# Convention : Reuss Voigt Hill
#
# Bulk Modulus (GPa) = 68.08663 86.28698 77.18680
# Shear Modulus (GPa) = 9.43025 31.19606 20.31315
#
# Velocity S-wave (km/s) = 2.15882 3.92649 3.16843
# Velocity P-wave (km/s) = 6.31372 7.94986 7.17855
#
# Compressibility (1/GPa) = 0.01468717
#
# Stress axis : x y z
#
# Youngs Moduli (GPa) = 118.78288 95.36219 46.80990
#
# Poissons Ratio (x) = 0.09339 0.14202
# Poissons Ratio (y) = 0.11633 0.41086
# Poissons Ratio (z) = 0.36038 0.83701
#
# Static dielectric constant tensor:
#      x y z
#    x 3.919710 0.000000 0.059390 
#    y 0.000000 4.240250 0.000000 
#    z 0.059390 0.000000 3.350280 
# 
# 
# High freq. dielectric constant tensor:
#      x y z
#    x 1.819330 0.000000 0.010650 
#    y 0.000000 1.812790 0.000000 
#    z 0.010650 0.000000 1.754370 
# 
# From -- ./inp_files/15120.got.cif
#   From: 2010.06.25/outbox.cif.g09.slc.cpg/sg10_8_cif.got.tgz:15120.got - 2010.06.27 22:07:45.
