data_PCOD8065782
_publ_section_title
;
Structure prediction by ZEFSAII (Michael W. Deem and Ramdas Pophale) SiO2 
 PCOD8065782
Probable space group: P 2/M
;
_chemical_formula_sum "Si O2"
_cell_formula_units_Z 28
_cell_length_a 20.104436
_cell_length_b 14.712910
_cell_length_c 20.285097
_cell_angle_alpha 90.000000
_cell_angle_beta 165.862914
_cell_angle_gamma 90.000000
_cell_volume 1465.511434
_symmetry_space_group_name_H-M "P 2/M"
_symmetry_group_IT_number 10
_symmetry_cell_setting 'monoclinic'
loop_
_space_group_symop_operation_xyz
x,y,z
-x,y,-z
-x,-y,-z
x,-y,z
loop_
_atom_site_type_symbol
_atom_site_label
_atom_site_fract_x
_atom_site_fract_y
_atom_site_fract_z
Si Si1 0.266859 0.500000 0.015278
Si Si2 0.896467 0.207716 0.644554
Si Si3 0.525415 0.792787 0.097414
Si Si4 0.964363 0.348051 0.116646
Si Si5 0.579293 0.895213 0.873261
Si Si6 0.994441 0.309129 0.608028
Si Si7 0.839168 0.500000 0.491391
Si Si8 0.533069 0.603750 0.605907
O O1 0.555879 0.500000 0.257343
O O2 0.223809 0.410009 0.017078
O O3 0.058292 0.500000 0.757491
O O4 0.947101 0.253416 0.764247
O O5 0.596769 0.165101 0.347289
O O6 0.932763 0.285790 0.624823
O O7 0.105781 0.124981 0.837267
O O8 0.478899 0.871433 0.106298
O O9 0.827350 0.754145 0.397424
O O10 0.500000 0.835716 0.000000
O O11 0.313140 0.708826 0.901329
O O12 0.243499 0.396288 0.364390
O O13 0.763492 0.332290 0.861215
O O14 0.515029 0.000000 0.799539
O O15 0.895650 0.412030 0.500219
O O16 0.500000 0.640644 0.500000
O O17 0.642397 0.500000 0.711241
#
# Coordination Sequence:
#
# PCOD8065782 Si02
#       8
#     2   4   4   4   4   4   2   4
#     4  12  22  30  53  80 109 144 186 237 249 324
#     4  10  21  34  56  81 110 137 172 225 277 323
#     4  10  21  38  56  76 104 141 179 216 267 330
#     4  12  21  35  53  81 112 148 196 222 265 310
#     4  10  21  38  58  83 110 134 164 218 287 345
#     4  10  21  35  52  76 107 138 179 231 269 308
#     4  12  22  34  51  76 109 142 190 227 273 308
#     4  11  22  35  50  75 117 163 196 226 255 291
#
# _framework density 19.105958000000001
#
# number of rings (size 3 to 8) (size 9 to 14) (size 15 to 20)
#    0.000    1.286    2.857    3.857    4.000    1.429 
#    0.000    2.143    0.000    5.143    0.000    0.000 
#    0.000   40.000    0.000    0.000    0.000    0.000 
#
# Total GULP energy -347181.188003 kJ/mol
# GULP energy per Si atom -12399.328143 kJ/mol
# Density = 1.906247 g / cm^3
# Si number density = 19.105958 Si / 1000 Ang^3
#
#
#
# Elastic Constant Matrix: (Units=GPa)
#
#
# Indices 1 2 3 4 5 6 
#
# 1 62.4121 24.1657 22.5343 0.0000 -25.8550 0.0000
# 2 24.1657 77.0893 12.8425 0.0000 -5.0507 0.0000
# 3 22.5343 12.8425 107.2858 0.0000 -13.2117 0.0000
# 4 0.0000 0.0000 0.0000 16.5136 0.0000 -5.1068
# 5 -25.8550 -5.0507 -13.2117 0.0000 38.0495 0.0000
# 6 0.0000 0.0000 0.0000 -5.1068 0.0000 13.3578
#
#
#
# Elastic Compliance Matrix: (Units=1/GPa)
#
#
# Indices 1 2 3 4 5 6 
#
# 1 0.026235 -0.006721 -0.002737 0.000000 0.015984 0.000000
# 2 -0.006721 0.015016 -0.000734 0.000000 -0.002828 0.000000
# 3 -0.002737 -0.000734 0.010178 0.000000 0.001576 0.000000
# 4 0.000000 0.000000 0.000000 0.068676 0.000000 0.026256
# 5 0.015984 -0.002828 0.001576 0.000000 0.037315 0.000000
# 6 0.000000 0.000000 0.000000 0.026256 0.000000 0.084901
#
#
# Mechanical properties :
#
#
# Convention : Reuss Voigt Hill
#
# Bulk Modulus (GPa) = 32.21260 40.65245 36.43253
# Shear Modulus (GPa) = 18.31153 26.06717 22.18935
#
# Velocity S-wave (km/s) = 3.09919 3.69771 3.41161
# Velocity P-wave (km/s) = 5.45007 6.28923 5.88462
#
# Compressibility (1/GPa) = 0.03104375
#
# Stress axis : x y z
#
# Youngs Moduli (GPa) = 38.11734 66.59680 98.25228
#
# Poissons Ratio (x) = 0.44758 0.26896
# Poissons Ratio (y) = 0.25618 0.07213
# Poissons Ratio (z) = 0.10435 0.04889
#
# Static dielectric constant tensor:
#      x y z
#    x 3.426510 0.000000 -0.155320 
#    y 0.000000 2.981340 0.000000 
#    z -0.155320 0.000000 3.700130 
# 
# 
# High freq. dielectric constant tensor:
#      x y z
#    x 1.723130 0.000000 -0.007890 
#    y 0.000000 1.702980 0.000000 
#    z -0.007890 0.000000 1.771330 
# 
# From -- ./inp_files/90980.got.cif
#   From: 2010.06.25/outbox.cif.g09.slc.cpg/sg10_46_cif.got.tgz:90980.got - 2010.06.27 22:07:45.
