data_PCOD8065461
_publ_section_title
;
Structure prediction by ZEFSAII (Michael W. Deem and Ramdas Pophale) SiO2 
 PCOD8065461
Probable space group: P 2/M
;
_chemical_formula_sum "Si O2"
_cell_formula_units_Z 20
_cell_length_a 21.967193
_cell_length_b 8.665624
_cell_length_c 15.446037
_cell_angle_alpha 90.000000
_cell_angle_beta 19.695865
_cell_angle_gamma 90.000000
_cell_volume 990.961027
_symmetry_space_group_name_H-M "P 2/M"
_symmetry_group_IT_number 10
_symmetry_cell_setting 'monoclinic'
loop_
_space_group_symop_operation_xyz
x,y,z
-x,y,-z
-x,-y,-z
x,-y,z
loop_
_atom_site_type_symbol
_atom_site_label
_atom_site_fract_x
_atom_site_fract_y
_atom_site_fract_z
Si Si1 0.852555 0.179358 0.126571
Si Si2 0.497396 0.320497 0.675455
Si Si3 0.522437 0.318891 0.098402
Si Si4 0.121576 0.320780 0.092154
Si Si5 0.228829 0.818627 0.372450
O O1 0.655440 0.215850 0.426599
O O2 0.864999 0.000000 0.085428
O O3 0.896707 0.279468 0.983598
O O4 0.000000 0.226295 0.000000
O O5 0.549014 0.500000 0.595674
O O6 0.463009 0.276599 0.820777
O O7 0.320398 0.277714 0.858313
O O8 0.521683 0.500000 0.082993
O O9 0.337620 0.249958 0.308188
O O10 0.695801 0.247482 0.818555
O O11 0.079744 0.500000 0.161434
O O12 0.980137 0.225495 0.339053
O O13 0.254161 0.000000 0.338527
#
# Coordination Sequence:
#
# PCOD8065461 Si02
#       5
#     4   4   4   4   4
#     4  11  24  40  60  87 117 149 188 235 286 341
#     4  10  23  40  60  86 115 150 192 237 283 338
#     4  10  20  38  62  86 114 152 195 236 283 336
#     4  11  23  40  60  84 116 152 192 236 284 339
#     4  11  22  37  58  87 119 151 192 238 285 336
#
# _framework density 20.182428000000002
#
# number of rings (size 3 to 8) (size 9 to 14) (size 15 to 20)
#    0.000    1.400    0.000    6.600    0.000   11.200 
#    0.000    4.000    0.000    0.000    0.000    0.000 
#    0.000    0.000    0.000    0.000    0.000    0.000 
#
# Total GULP energy -248144.541597 kJ/mol
# GULP energy per Si atom -12407.227080 kJ/mol
# Density = 2.013649 g / cm^3
# Si number density = 20.182428 Si / 1000 Ang^3
#
#
#
# Elastic Constant Matrix: (Units=GPa)
#
#
# Indices 1 2 3 4 5 6 
#
# 1 33.1496 6.6830 19.8379 0.0000 6.2912 0.0000
# 2 6.6830 86.6769 32.8872 0.0000 2.7830 0.0000
# 3 19.8379 32.8872 119.8159 0.0000 -0.1527 0.0000
# 4 0.0000 0.0000 0.0000 29.1897 0.0000 -5.3253
# 5 6.2912 2.7830 -0.1527 0.0000 27.0231 0.0000
# 6 0.0000 0.0000 0.0000 -5.3253 0.0000 10.1410
#
#
#
# Elastic Compliance Matrix: (Units=1/GPa)
#
#
# Indices 1 2 3 4 5 6 
#
# 1 0.035231 -0.000263 -0.005771 0.000000 -0.008207 0.000000
# 2 -0.000263 0.012929 -0.003507 0.000000 -0.001290 0.000000
# 3 -0.005771 -0.003507 0.010267 0.000000 0.001763 0.000000
# 4 0.000000 0.000000 0.000000 0.037888 0.000000 0.019896
# 5 -0.008207 -0.001290 0.001763 0.000000 0.039059 0.000000
# 6 0.000000 0.000000 0.000000 0.019896 0.000000 0.109058
#
#
# Mechanical properties :
#
#
# Convention : Reuss Voigt Hill
#
# Bulk Modulus (GPa) = 25.41692 39.82873 32.62282
# Shear Modulus (GPa) = 18.07472 25.28638 21.68055
#
# Velocity S-wave (km/s) = 2.99585 3.54346 3.28110
# Velocity P-wave (km/s) = 4.95860 6.04307 5.52750
#
# Compressibility (1/GPa) = 0.03934387
#
# Stress axis : x y z
#
# Youngs Moduli (GPa) = 28.38430 77.34293 97.40376
#
# Poissons Ratio (x) = 0.02035 0.56216
# Poissons Ratio (y) = 0.00747 0.34159
# Poissons Ratio (z) = 0.16382 0.27124
#
# Static dielectric constant tensor:
#      x y z
#    x 3.797890 0.000000 0.057500 
#    y 0.000000 3.677350 0.000000 
#    z 0.057500 0.000000 3.756900 
# 
# 
# High freq. dielectric constant tensor:
#      x y z
#    x 1.792080 0.000000 0.004640 
#    y 0.000000 1.796500 0.000000 
#    z 0.004640 0.000000 1.800290 
# 
# From -- ./inp_files/31320.got.cif
#   From: 2010.06.25/outbox.cif.g09.slc.cpg/sg10_16_cif.got.tgz:31320.got - 2010.06.27 22:07:45.
