data_PCOD8065630
_publ_section_title
;
Structure prediction by ZEFSAII (Michael W. Deem and Ramdas Pophale) SiO2 
 PCOD8065630
Probable space group: P 2/M
;
_chemical_formula_sum "Si O2"
_cell_formula_units_Z 22
_cell_length_a 11.284026
_cell_length_b 12.198016
_cell_length_c 7.845548
_cell_angle_alpha 90.000000
_cell_angle_beta 114.312875
_cell_angle_gamma 90.000000
_cell_volume 984.108695
_symmetry_space_group_name_H-M "P 2/M"
_symmetry_group_IT_number 10
_symmetry_cell_setting 'monoclinic'
loop_
_space_group_symop_operation_xyz
x,y,z
-x,y,-z
-x,-y,-z
x,-y,z
loop_
_atom_site_type_symbol
_atom_site_label
_atom_site_fract_x
_atom_site_fract_y
_atom_site_fract_z
Si Si1 0.734762 0.618502 0.237891
Si Si2 0.446007 0.000000 0.276548
Si Si3 0.297876 0.627317 0.173316
Si Si4 0.908841 0.770314 0.782838
Si Si5 0.147815 0.000000 0.170138
Si Si6 0.000000 0.322847 0.500000
Si Si7 0.475435 0.765188 0.790929
O O1 0.661814 0.500000 0.211079
O O2 0.669324 0.714432 0.315633
O O3 0.875924 0.600952 0.402167
O O4 0.751434 0.648210 0.048389
O O5 0.500000 0.000000 0.500000
O O6 0.511714 0.105485 0.226839
O O7 0.288386 0.000000 0.149348
O O8 0.322603 0.500000 0.228344
O O9 0.193610 0.672871 0.246025
O O10 0.428754 0.698478 0.277291
O O11 0.838852 0.888383 0.715129
O O12 0.990270 0.753128 0.660863
O O13 0.000000 0.777221 0.000000
O O14 0.000000 0.000000 0.000000
O O15 0.500000 0.730517 0.000000
#
# Coordination Sequence:
#
# PCOD8065630 Si02
#       7
#     4   2   4   4   2   2   4
#     4  10  22  40  63  98 136 172 218 274 330 401
#     4  12  25  41  65  98 134 171 221 282 340 396
#     4  10  20  39  67  93 128 172 219 271 330 393
#     4  11  23  44  65  97 131 175 225 273 333 396
#     4  10  24  44  73  91 131 183 227 279 334 409
#     4  12  25  39  68  96 138 175 221 274 338 406
#     4  10  22  41  67  96 128 172 223 268 334 397
#
# _framework density 22.355255
#
# number of rings (size 3 to 8) (size 9 to 14) (size 15 to 20)
#    0.000    1.455    3.636    1.091    2.545    4.364 
#    0.000    0.909    0.000    3.273    0.000    0.000 
#    0.000    0.000    0.000    0.000    0.000    0.000 
#
# Total GULP energy -272537.859634 kJ/mol
# GULP energy per Si atom -12388.084529 kJ/mol
# Density = 2.230437 g / cm^3
# Si number density = 22.355255 Si / 1000 Ang^3
#
#
#
# Elastic Constant Matrix: (Units=GPa)
#
#
# Indices 1 2 3 4 5 6 
#
# 1 130.2767 69.2237 33.3585 0.0000 -0.7242 0.0000
# 2 69.2237 191.9804 15.5545 0.0000 -12.3617 0.0000
# 3 33.3585 15.5545 55.9746 0.0000 -10.1115 0.0000
# 4 0.0000 0.0000 0.0000 5.9798 0.0000 -2.2561
# 5 -0.7242 -12.3617 -10.1115 0.0000 38.1534 0.0000
# 6 0.0000 0.0000 0.0000 -2.2561 0.0000 39.0388
#
#
#
# Elastic Compliance Matrix: (Units=1/GPa)
#
#
# Indices 1 2 3 4 5 6 
#
# 1 0.011199 -0.003711 -0.006114 0.000000 -0.002610 0.000000
# 2 -0.003711 0.006631 0.000782 0.000000 0.002285 0.000000
# 3 -0.006114 0.000782 0.022389 0.000000 0.006071 0.000000
# 4 0.000000 0.000000 0.000000 0.170956 0.000000 0.009880
# 5 -0.002610 0.002285 0.006071 0.000000 0.028510 0.000000
# 6 0.000000 0.000000 0.000000 0.009880 0.000000 0.026187
#
#
# Mechanical properties :
#
#
# Convention : Reuss Voigt Hill
#
# Bulk Modulus (GPa) = 45.18509 68.27832 56.73171
# Shear Modulus (GPa) = 17.16240 33.97408 25.56824
#
# Velocity S-wave (km/s) = 2.77377 3.90261 3.38557
# Velocity P-wave (km/s) = 5.52400 7.13553 6.38085
#
# Compressibility (1/GPa) = 0.02213119
#
# Stress axis : x y z
#
# Youngs Moduli (GPa) = 89.29514 150.81442 44.66560
#
# Poissons Ratio (x) = 0.55963 0.27310
# Poissons Ratio (y) = 0.33135 -0.03491
# Poissons Ratio (z) = 0.54598 -0.11788
#
# Static dielectric constant tensor:
#      x y z
#    x 4.225890 0.000000 0.101700 
#    y 0.000000 4.228360 0.000000 
#    z 0.101700 0.000000 3.775270 
# 
# 
# High freq. dielectric constant tensor:
#      x y z
#    x 1.885970 0.000000 0.004890 
#    y 0.000000 1.892660 0.000000 
#    z 0.004890 0.000000 1.858510 
# 
# From -- ./inp_files/24192.got.cif
#   From: 2010.06.25/outbox.cif.g09.slc.cpg/sg10_13_cif.got.tgz:24192.got - 2010.06.27 22:07:45.
