data_PCOD8065313
_publ_section_title
;
Structure prediction by ZEFSAII (Michael W. Deem and Ramdas Pophale) SiO2 
 PCOD8065313
Probable space group: P 2/M
;
_chemical_formula_sum "Si O2"
_cell_formula_units_Z 18
_cell_length_a 18.563440
_cell_length_b 7.529544
_cell_length_c 12.804235
_cell_angle_alpha 90.000000
_cell_angle_beta 150.484790
_cell_angle_gamma 90.000000
_cell_volume 881.705003
_symmetry_space_group_name_H-M "P 2/M"
_symmetry_group_IT_number 10
_symmetry_cell_setting 'monoclinic'
loop_
_space_group_symop_operation_xyz
x,y,z
-x,y,-z
-x,-y,-z
x,-y,z
loop_
_atom_site_type_symbol
_atom_site_label
_atom_site_fract_x
_atom_site_fract_y
_atom_site_fract_z
Si Si1 0.889357 0.500000 0.093708
Si Si2 0.596411 0.208901 0.020763
Si Si3 0.172999 0.500000 0.745323
Si Si4 0.358478 0.500000 0.384614
Si Si5 0.368437 0.195532 0.557829
Si Si6 0.038215 0.801941 0.166177
O O1 0.818403 0.500000 0.118415
O O2 0.980686 0.678250 0.186846
O O3 0.769843 0.500000 0.856348
O O4 0.744675 0.326088 0.198097
O O5 0.639371 0.000000 0.075724
O O6 0.500000 0.258005 0.000000
O O7 0.492119 0.261463 0.793158
O O8 0.000000 0.500000 0.500000
O O9 0.500000 0.500000 0.500000
O O10 0.355306 0.321804 0.444575
O O11 0.209370 0.192462 0.409399
O O12 0.410192 0.000000 0.569539
O O13 0.970182 0.000000 0.090786
O O14 0.000000 0.730678 0.000000
#
# Coordination Sequence:
#
# PCOD8065313 Si02
#       6
#     2   4   2   2   4   4
#     4  12  24  38  59  90 128 169 197 251 329 379
#     4  10  23  46  72  94 123 170 222 266 313 377
#     4  12  29  45  64  98 133 166 208 268 332 383
#     4  12  23  36  57  84 123 164 201 249 311 385
#     4  10  21  38  63  92 121 158 209 261 304 364
#     4  10  20  37  62  93 124 160 210 256 303 373
#
# _framework density 20.414991000000001
#
# number of rings (size 3 to 8) (size 9 to 14) (size 15 to 20)
#    0.000    1.333    2.222    3.333    3.111    1.778 
#    0.000    0.000    0.000    0.000    0.000    0.000 
#    0.000    0.000    0.000    0.000    0.000    0.000 
#
# Total GULP energy -223091.658077 kJ/mol
# GULP energy per Si atom -12393.981004 kJ/mol
# Density = 2.036853 g / cm^3
# Si number density = 20.414991 Si / 1000 Ang^3
#
#
#
# Elastic Constant Matrix: (Units=GPa)
#
#
# Indices 1 2 3 4 5 6 
#
# 1 127.9032 74.8750 32.9681 0.0000 4.0184 0.0000
# 2 74.8750 126.9191 47.2238 0.0000 5.8446 0.0000
# 3 32.9681 47.2238 123.1202 0.0000 9.4986 0.0000
# 4 0.0000 0.0000 0.0000 30.9599 0.0000 -3.0821
# 5 4.0184 5.8446 9.4986 0.0000 32.6727 0.0000
# 6 0.0000 0.0000 0.0000 -3.0821 0.0000 97.7355
#
#
#
# Elastic Compliance Matrix: (Units=1/GPa)
#
#
# Indices 1 2 3 4 5 6 
#
# 1 0.011979 -0.006849 -0.000574 0.000000 -0.000081 0.000000
# 2 -0.006849 0.013120 -0.003153 0.000000 -0.000588 0.000000
# 3 -0.000574 -0.003153 0.009653 0.000000 -0.002172 0.000000
# 4 0.000000 0.000000 0.000000 0.032402 0.000000 0.001022
# 5 -0.000081 -0.000588 -0.002172 0.000000 0.031353 0.000000
# 6 0.000000 0.000000 0.000000 0.001022 0.000000 0.010264
#
#
# Mechanical properties :
#
#
# Convention : Reuss Voigt Hill
#
# Bulk Modulus (GPa) = 73.53703 76.45293 74.99498
# Shear Modulus (GPa) = 37.18711 47.13199 42.15955
#
# Velocity S-wave (km/s) = 4.27260 4.81010 4.54930
# Velocity P-wave (km/s) = 7.77428 8.26923 8.02557
#
# Compressibility (1/GPa) = 0.01359859
#
# Stress axis : x y z
#
# Youngs Moduli (GPa) = 83.48251 76.22003 103.59767
#
# Poissons Ratio (x) = 0.52205 0.05948
# Poissons Ratio (y) = 0.57180 0.32663
# Poissons Ratio (z) = 0.04793 0.24031
#
# Static dielectric constant tensor:
#      x y z
#    x 3.727430 0.000000 0.131650 
#    y 0.000000 4.428430 0.000000 
#    z 0.131650 0.000000 3.900530 
# 
# 
# High freq. dielectric constant tensor:
#      x y z
#    x 1.781940 0.000000 0.004460 
#    y 0.000000 1.813320 0.000000 
#    z 0.004460 0.000000 1.808040 
# 
# From -- ./inp_files/53159.got.cif
#   From: 2010.06.25/outbox.cif.g09.slc.cpg/sg10_27_cif.got.tgz:53159.got - 2010.06.27 22:07:45.
