data_PCOD8065913
_publ_section_title
;
Structure prediction by ZEFSAII (Michael W. Deem and Ramdas Pophale) SiO2 
 PCOD8065913
Probable space group: P 2/M
;
_chemical_formula_sum "Si O2"
_cell_formula_units_Z 28
_cell_length_a 13.880632
_cell_length_b 8.916230
_cell_length_c 18.911916
_cell_angle_alpha 90.000000
_cell_angle_beta 35.818598
_cell_angle_gamma 90.000000
_cell_volume 1369.764387
_symmetry_space_group_name_H-M "P 2/M"
_symmetry_group_IT_number 10
_symmetry_cell_setting 'monoclinic'
loop_
_space_group_symop_operation_xyz
x,y,z
-x,y,-z
-x,-y,-z
x,-y,z
loop_
_atom_site_type_symbol
_atom_site_label
_atom_site_fract_x
_atom_site_fract_y
_atom_site_fract_z
Si Si1 0.825835 0.171964 0.068543
Si Si2 0.072384 0.824110 0.381783
Si Si3 0.959489 0.674243 0.310783
Si Si4 0.233558 0.327464 0.037295
Si Si5 0.403346 0.670785 0.207975
Si Si6 0.365101 0.822742 0.523679
Si Si7 0.489358 0.673026 0.697226
O O1 0.698838 0.273786 0.187455
O O2 0.767523 0.000000 0.107007
O O3 0.840260 0.221278 0.978803
O O4 0.000000 0.196416 0.000000
O O5 0.263460 0.779567 0.261762
O O6 0.000000 0.771260 0.500000
O O7 0.966599 0.743412 0.384533
O O8 0.053945 0.000000 0.381784
O O9 0.919230 0.500000 0.341888
O O10 0.812382 0.750241 0.353344
O O11 0.133322 0.703212 0.168519
O O12 0.215699 0.500000 0.022693
O O13 0.426832 0.292103 0.934448
O O14 0.348676 0.500000 0.225883
O O15 0.426696 0.699494 0.277173
O O16 0.500000 0.765539 0.500000
O O17 0.414563 0.772792 0.416000
O O18 0.347521 0.000000 0.537561
O O19 0.494715 0.500000 0.671058
#
# Coordination Sequence:
#
# PCOD8065913 Si02
#       7
#     4   4   4   4   4   4   4
#     4  10  21  35  56  86 119 157 199 246 303 359
#     4  11  24  40  61  90 123 160 201 248 305 366
#     4  11  24  42  64  90 121 159 205 254 304 362
#     4   9  21  40  60  87 121 159 202 251 304 358
#     4   9  19  38  62  88 119 154 196 247 301 355
#     4  11  25  42  60  85 122 161 198 249 310 365
#     4  10  21  38  61  87 116 154 202 250 297 355
#
# _framework density 20.441472000000001
#
# number of rings (size 3 to 8) (size 9 to 14) (size 15 to 20)
#    0.000    1.857    0.000    3.857    2.000   10.286 
#    0.000    2.857    0.000    0.000    0.000    0.000 
#    0.000    0.000    0.000    0.000    0.000    0.000 
#
# Total GULP energy -347329.780472 kJ/mol
# GULP energy per Si atom -12404.635017 kJ/mol
# Density = 2.039495 g / cm^3
# Si number density = 20.441472 Si / 1000 Ang^3
#
#
#
# Elastic Constant Matrix: (Units=GPa)
#
#
# Indices 1 2 3 4 5 6 
#
# 1 83.3787 41.2347 43.9351 0.0000 -19.9850 0.0000
# 2 41.2347 72.5929 33.6962 0.0000 -13.1887 0.0000
# 3 43.9351 33.6962 107.3523 0.0000 -5.8119 0.0000
# 4 0.0000 0.0000 0.0000 25.9800 0.0000 -10.8140
# 5 -19.9850 -13.1887 -5.8119 0.0000 27.2600 0.0000
# 6 0.0000 0.0000 0.0000 -10.8140 0.0000 25.0689
#
#
#
# Elastic Compliance Matrix: (Units=1/GPa)
#
#
# Indices 1 2 3 4 5 6 
#
# 1 0.021326 -0.007461 -0.005802 0.000000 0.010788 0.000000
# 2 -0.007461 0.020085 -0.003056 0.000000 0.003596 0.000000
# 3 -0.005802 -0.003056 0.012483 0.000000 -0.003071 0.000000
# 4 0.000000 0.000000 0.000000 0.046915 0.000000 0.020238
# 5 0.010788 0.003596 -0.003071 0.000000 0.045678 0.000000
# 6 0.000000 0.000000 0.000000 0.020238 0.000000 0.048620
#
#
# Mechanical properties :
#
#
# Convention : Reuss Voigt Hill
#
# Bulk Modulus (GPa) = 47.04548 55.67287 51.35917
# Shear Modulus (GPa) = 21.29184 25.29230 23.29207
#
# Velocity S-wave (km/s) = 3.23088 3.52135 3.37924
# Velocity P-wave (km/s) = 6.08135 6.62024 6.35651
#
# Compressibility (1/GPa) = 0.02125603
#
# Stress axis : x y z
#
# Youngs Moduli (GPa) = 46.89050 49.78740 80.10998
#
# Poissons Ratio (x) = 0.37144 0.46481
# Poissons Ratio (y) = 0.34983 0.24485
# Poissons Ratio (z) = 0.27207 0.15217
#
# Static dielectric constant tensor:
#      x y z
#    x 3.605940 0.000000 -0.084000 
#    y 0.000000 3.731660 0.000000 
#    z -0.084000 0.000000 3.865830 
# 
# 
# High freq. dielectric constant tensor:
#      x y z
#    x 1.793030 0.000000 -0.008110 
#    y 0.000000 1.802990 0.000000 
#    z -0.008110 0.000000 1.809360 
# 
# From -- ./inp_files/84893.got.cif
#   From: 2010.06.25/outbox.cif.g09.slc.cpg/sg10_43_cif.got.tgz:84893.got - 2010.06.27 22:07:45.
