data_PCOD8065473
_publ_section_title
;
Structure prediction by ZEFSAII (Michael W. Deem and Ramdas Pophale) SiO2 
 PCOD8065473
Probable space group: P 2/M
;
_chemical_formula_sum "Si O2"
_cell_formula_units_Z 18
_cell_length_a 17.862172
_cell_length_b 10.075249
_cell_length_c 5.055215
_cell_angle_alpha 90.000000
_cell_angle_beta 73.435810
_cell_angle_gamma 90.000000
_cell_volume 872.011537
_symmetry_space_group_name_H-M "P 2/M"
_symmetry_group_IT_number 10
_symmetry_cell_setting 'monoclinic'
loop_
_space_group_symop_operation_xyz
x,y,z
-x,y,-z
-x,-y,-z
x,-y,z
loop_
_atom_site_type_symbol
_atom_site_label
_atom_site_fract_x
_atom_site_fract_y
_atom_site_fract_z
Si Si1 0.585655 0.847099 0.393228
Si Si2 0.683941 0.845440 0.780694
Si Si3 0.821667 0.647772 0.618475
Si Si4 0.089235 0.723894 0.994108
Si Si5 0.054790 0.000000 0.191133
O O1 0.500000 0.778485 0.500000
O O2 0.646694 0.790104 0.546016
O O3 0.575747 0.000000 0.482126
O O4 0.618135 0.827211 0.068405
O O5 0.755133 0.749025 0.780202
O O6 0.711846 0.000000 0.736323
O O7 0.788945 0.500000 0.589872
O O8 0.859637 0.707936 0.317640
O O9 0.883944 0.628180 0.795448
O O10 0.000000 0.697099 0.000000
O O11 0.106094 0.867824 0.112455
O O12 0.000000 0.000000 0.500000
O O13 0.000000 0.000000 0.000000
#
# Coordination Sequence:
#
# PCOD8065473 Si02
#       5
#     4   4   4   4   2
#     4   9  17  33  59  91 119 148 193 247 294 342
#     4  10  21  36  59  87 119 157 196 241 295 356
#     4  12  26  41  60  87 124 164 199 250 305 357
#     4  11  24  41  64  87 115 156 207 257 304 359
#     4  10  20  38  62  90 116 140 185 254 315 350
#
# _framework density 20.641931
#
# number of rings (size 3 to 8) (size 9 to 14) (size 15 to 20)
#    0.000    1.556    0.000    6.000    3.111    5.333 
#    0.000    0.000    0.000    4.000    0.000    0.000 
#    0.000    0.000    0.000    0.000    0.000    0.000 
#
# Total GULP energy -223122.051751 kJ/mol
# GULP energy per Si atom -12395.669542 kJ/mol
# Density = 2.059495 g / cm^3
# Si number density = 20.641931 Si / 1000 Ang^3
#
#
#
# Elastic Constant Matrix: (Units=GPa)
#
#
# Indices 1 2 3 4 5 6 
#
# 1 91.5525 43.5649 29.9988 0.0000 2.2931 0.0000
# 2 43.5649 96.8558 36.4796 0.0000 -20.4821 0.0000
# 3 29.9988 36.4796 127.1870 0.0000 3.2161 0.0000
# 4 0.0000 0.0000 0.0000 36.4110 0.0000 9.6796
# 5 2.2931 -20.4821 3.2161 0.0000 38.1491 0.0000
# 6 0.0000 0.0000 0.0000 9.6796 0.0000 12.2227
#
#
#
# Elastic Compliance Matrix: (Units=1/GPa)
#
#
# Indices 1 2 3 4 5 6 
#
# 1 0.014891 -0.007174 -0.001337 0.000000 -0.004634 0.000000
# 2 -0.007174 0.016905 -0.003404 0.000000 0.009794 0.000000
# 3 -0.001337 -0.003404 0.009218 0.000000 -0.002524 0.000000
# 4 0.000000 0.000000 0.000000 0.034788 0.000000 -0.027550
# 5 -0.004634 0.009794 -0.002524 0.000000 0.031963 0.000000
# 6 0.000000 0.000000 0.000000 -0.027550 0.000000 0.103632
#
#
# Mechanical properties :
#
#
# Convention : Reuss Voigt Hill
#
# Bulk Modulus (GPa) = 58.19868 59.52020 58.85944
# Shear Modulus (GPa) = 20.75071 31.06004 25.90537
#
# Velocity S-wave (km/s) = 3.17404 3.88326 3.54642
# Velocity P-wave (km/s) = 6.45665 7.00025 6.73394
#
# Compressibility (1/GPa) = 0.01718252
#
# Stress axis : x y z
#
# Youngs Moduli (GPa) = 67.15610 59.15489 108.48231
#
# Poissons Ratio (x) = 0.42437 0.14508
# Poissons Ratio (y) = 0.48177 0.36929
# Poissons Ratio (z) = 0.08981 0.20137
#
# Static dielectric constant tensor:
#      x y z
#    x 3.822480 0.000000 0.132300 
#    y 0.000000 2.884440 0.000000 
#    z 0.132300 0.000000 3.680740 
# 
# 
# High freq. dielectric constant tensor:
#      x y z
#    x 1.807600 0.000000 0.014050 
#    y 0.000000 1.779190 0.000000 
#    z 0.014050 0.000000 1.823510 
# 
# From -- ./inp_files/10484.got.cif
#   From: 2010.06.25/outbox.cif.g09.slc.cpg/sg10_6_cif.got.tgz:10484.got - 2010.06.27 22:07:45.
