data_PCOD8065731
_publ_section_title
;
Structure prediction by ZEFSAII (Michael W. Deem and Ramdas Pophale) SiO2 
 PCOD8065731
Probable space group: P 2/M
;
_chemical_formula_sum "Si O2"
_cell_formula_units_Z 32
_cell_length_a 15.590962
_cell_length_b 13.157834
_cell_length_c 10.152945
_cell_angle_alpha 90.000000
_cell_angle_beta 57.898574
_cell_angle_gamma 90.000000
_cell_volume 1764.365225
_symmetry_space_group_name_H-M "P 2/M"
_symmetry_group_IT_number 10
_symmetry_cell_setting 'monoclinic'
loop_
_space_group_symop_operation_xyz
x,y,z
-x,y,-z
-x,-y,-z
x,-y,z
loop_
_atom_site_type_symbol
_atom_site_label
_atom_site_fract_x
_atom_site_fract_y
_atom_site_fract_z
Si Si1 0.706176 0.707187 0.124021
Si Si2 0.922268 0.381104 0.946192
Si Si3 0.049760 0.379752 0.589036
Si Si4 0.728661 0.615294 0.577664
Si Si5 0.378905 0.694591 0.097957
Si Si6 0.606984 0.615637 0.438405
Si Si7 0.423219 0.890943 0.180451
Si Si8 0.559384 0.882433 0.316676
O O1 0.670243 0.619198 0.252355
O O2 0.661483 0.814015 0.216966
O O3 0.827828 0.697142 0.029350
O O4 0.665361 0.684593 0.011340
O O5 0.887682 0.500000 0.973500
O O6 0.980838 0.350218 0.767350
O O7 0.000000 0.360086 0.000000
O O8 0.059830 0.500000 0.565031
O O9 0.161722 0.330955 0.509754
O O10 0.000000 0.331502 0.500000
O O11 0.745534 0.500000 0.518009
O O12 0.674161 0.612651 0.764581
O O13 0.662269 0.669904 0.517349
O O14 0.347655 0.802211 0.193517
O O15 0.500000 0.679350 0.000000
O O16 0.500000 0.672659 0.500000
O O17 0.585025 0.500000 0.496365
O O18 0.483518 0.854728 0.260192
O O19 0.367531 0.000000 0.251952
O O20 0.500000 0.907517 0.000000
O O21 0.500000 0.860334 0.500000
O O22 0.594058 0.000000 0.280360
#
# Coordination Sequence:
#
# PCOD8065731 Si02
#       8
#     4   4   4   4   4   4   4   4
#     4  12  21  32  55  80 106 137 180 225 269 319
#     4  10  21  37  55  76 101 135 185 236 275 314
#     4   9  17  32  51  69  92 126 170 221 265 299
#     4  10  21  35  50  70 102 142 179 214 260 316
#     4  11  21  32  49  81 111 142 174 214 267 320
#     4  10  21  34  47  67 101 144 176 206 255 314
#     4   9  17  34  54  74 108 142 171 211 255 310
#     4  10  21  36  56  83 113 145 179 216 263 323
#
# _framework density 18.136834
#
# number of rings (size 3 to 8) (size 9 to 14) (size 15 to 20)
#    0.000    1.875    2.500    3.000    1.750    4.250 
#    0.000    0.000    0.000    0.375    0.000    0.875 
#    0.000    3.000    0.000    0.000    0.000    0.000 
#
# Total GULP energy -396519.560107 kJ/mol
# GULP energy per Si atom -12391.236253 kJ/mol
# Density = 1.809555 g / cm^3
# Si number density = 18.136834 Si / 1000 Ang^3
#
#
#
# Elastic Constant Matrix: (Units=GPa)
#
#
# Indices 1 2 3 4 5 6 
#
# 1 150.2484 26.2021 84.3974 0.0000 4.3302 0.0000
# 2 26.2021 40.3450 18.9307 0.0000 -1.8888 0.0000
# 3 84.3974 18.9307 137.8211 0.0000 11.5716 0.0000
# 4 0.0000 0.0000 0.0000 21.8373 0.0000 0.7071
# 5 4.3302 -1.8888 11.5716 0.0000 39.0929 0.0000
# 6 0.0000 0.0000 0.0000 0.7071 0.0000 20.3543
#
#
#
# Elastic Compliance Matrix: (Units=1/GPa)
#
#
# Indices 1 2 3 4 5 6 
#
# 1 0.010769 -0.004131 -0.006061 0.000000 0.000402 0.000000
# 2 -0.004131 0.028303 -0.001550 0.000000 0.002284 0.000000
# 3 -0.006061 -0.001550 0.011414 0.000000 -0.002782 0.000000
# 4 0.000000 0.000000 0.000000 0.045845 0.000000 -0.001593
# 5 0.000402 0.002284 -0.002782 0.000000 0.026469 0.000000
# 6 0.000000 0.000000 0.000000 -0.001593 0.000000 0.049185
#
#
# Mechanical properties :
#
#
# Convention : Reuss Voigt Hill
#
# Bulk Modulus (GPa) = 37.03340 65.27495 51.15418
# Shear Modulus (GPa) = 24.45352 29.51586 26.98469
#
# Velocity S-wave (km/s) = 3.67588 4.03848 3.86144
# Velocity P-wave (km/s) = 6.20317 7.60356 6.93878
#
# Compressibility (1/GPa) = 0.02700265
#
# Stress axis : x y z
#
# Youngs Moduli (GPa) = 92.85870 35.33157 87.61397
#
# Poissons Ratio (x) = 0.14596 0.53102
# Poissons Ratio (y) = 0.38362 0.13576
# Poissons Ratio (z) = 0.56281 0.05475
#
# Static dielectric constant tensor:
#      x y z
#    x 3.538870 0.000000 0.135030 
#    y 0.000000 3.474280 0.000000 
#    z 0.135030 0.000000 3.355660 
# 
# 
# High freq. dielectric constant tensor:
#      x y z
#    x 1.697670 0.000000 0.022220 
#    y 0.000000 1.666710 0.000000 
#    z 0.022220 0.000000 1.715340 
# 
# From -- ./inp_files/29512.got.cif
#   From: 2010.06.25/outbox.cif.g09.slc.cpg/sg10_15_cif.got.tgz:29512.got - 2010.06.27 22:07:45.
