data_PCOD8065311
_publ_section_title
;
Structure prediction by ZEFSAII (Michael W. Deem and Ramdas Pophale) SiO2 
 PCOD8065311
Probable space group: P 2/M
;
_chemical_formula_sum "Si O2"
_cell_formula_units_Z 28
_cell_length_a 21.344078
_cell_length_b 8.736272
_cell_length_c 23.805205
_cell_angle_alpha 90.000000
_cell_angle_beta 161.649464
_cell_angle_gamma 90.000000
_cell_volume 1397.498115
_symmetry_space_group_name_H-M "P 2/M"
_symmetry_group_IT_number 10
_symmetry_cell_setting 'monoclinic'
loop_
_space_group_symop_operation_xyz
x,y,z
-x,y,-z
-x,-y,-z
x,-y,z
loop_
_atom_site_type_symbol
_atom_site_label
_atom_site_fract_x
_atom_site_fract_y
_atom_site_fract_z
Si Si1 0.961013 0.820997 0.808550
Si Si2 0.311781 0.824658 0.803501
Si Si3 0.815928 0.678103 0.103882
Si Si4 0.001886 0.824789 0.368696
Si Si5 0.165726 0.819865 0.097258
Si Si6 0.459964 0.680743 0.528547
Si Si7 0.358218 0.677706 0.726129
O O1 0.753228 0.733427 0.631234
O O2 0.077943 0.781053 0.851968
O O3 0.914945 0.000000 0.772157
O O4 0.095029 0.769547 0.975367
O O5 0.296345 0.716884 0.736786
O O6 0.112860 0.804293 0.670289
O O7 0.338625 0.000000 0.806290
O O8 0.500000 0.771680 0.000000
O O9 0.849466 0.500000 0.119152
O O10 0.904593 0.715983 0.239904
O O11 0.585054 0.722519 0.907557
O O12 0.228620 0.774328 0.571631
O O13 0.994022 0.000000 0.341188
O O14 0.374791 0.740462 0.287726
O O15 0.197011 0.000000 0.129201
O O16 0.000000 0.761492 0.000000
O O17 0.500000 0.746558 0.500000
O O18 0.467686 0.500000 0.534830
O O19 0.317760 0.500000 0.681438
#
# Coordination Sequence:
#
# PCOD8065311 Si02
#       7
#     4   4   4   4   4   4   4
#     4  11  24  42  66  92 122 162 208 255 305 364
#     4  10  20  37  62  92 124 160 207 261 312 365
#     4  11  25  44  63  87 124 165 206 254 309 369
#     4  11  23  40  65  92 123 164 209 258 309 367
#     4  10  21  39  64  93 124 160 203 254 304 359
#     4  11  23  38  62  95 129 163 198 246 308 369
#     4  11  24  40  62  91 126 166 206 257 316 372
#
# _framework density 20.035806000000001
#
# number of rings (size 3 to 8) (size 9 to 14) (size 15 to 20)
#    0.000    1.286    2.857    2.571    0.000    8.000 
#    0.000    2.857    0.000    0.000    0.000    0.000 
#    0.000    0.000    0.000    0.000    0.000    0.000 
#
# Total GULP energy -347402.131530 kJ/mol
# GULP energy per Si atom -12407.218983 kJ/mol
# Density = 1.999020 g / cm^3
# Si number density = 20.035806 Si / 1000 Ang^3
#
#
#
# Elastic Constant Matrix: (Units=GPa)
#
#
# Indices 1 2 3 4 5 6 
#
# 1 54.4156 26.7703 28.2144 0.0000 28.3542 0.0000
# 2 26.7703 43.9122 40.1295 0.0000 -5.6300 0.0000
# 3 28.2144 40.1295 151.6393 0.0000 4.7055 0.0000
# 4 0.0000 0.0000 0.0000 6.1997 0.0000 -1.1146
# 5 28.3542 -5.6300 4.7055 0.0000 6.0494 0.0000
# 6 0.0000 0.0000 0.0000 -1.1146 0.0000 30.5248
#
#
#
# Elastic Compliance Matrix: (Units=1/GPa)
#
#
# Indices 1 2 3 4 5 6 
#
# 1 -0.005469 0.011097 -0.003110 0.000000 0.038382 0.000000
# 2 0.011097 0.017031 -0.005585 0.000000 -0.031820 0.000000
# 3 -0.003110 -0.005585 0.008567 0.000000 0.002717 0.000000
# 4 0.000000 0.000000 0.000000 0.162363 0.000000 0.005928
# 5 0.038382 -0.031820 0.002717 0.000000 -0.046320 0.000000
# 6 0.000000 0.000000 0.000000 0.005928 0.000000 0.032977
#
#
# Mechanical properties :
#
#
# Convention : Reuss Voigt Hill
#
# Bulk Modulus (GPa) = 40.10550 48.91061 44.50805
# Shear Modulus (GPa) = 28.95962 18.87831 23.91897
#
# Velocity S-wave (km/s) = 3.80596 3.07290 3.45891
# Velocity P-wave (km/s) = 6.27488 6.08728 6.18179
#
# Compressibility (1/GPa) = 0.02493424
#
# Stress axis : x y z
#
# Youngs Moduli (GPa) = -182.84420 58.71553 116.72893
#
# Poissons Ratio (x) = -0.65158 0.36305
# Poissons Ratio (y) = 2.02908 0.65187
# Poissons Ratio (z) = -0.56868 0.32790
#
# Static dielectric constant tensor:
#      x y z
#    x 3.570740 0.000000 -0.018470 
#    y 0.000000 3.588540 0.000000 
#    z -0.018470 0.000000 3.763700 
# 
# 
# High freq. dielectric constant tensor:
#      x y z
#    x 1.776530 0.000000 -0.002440 
#    y 0.000000 1.784030 0.000000 
#    z -0.002440 0.000000 1.799070 
# 
# From -- ./inp_files/90411.got.cif
#   From: 2010.06.25/outbox.cif.g09.slc.cpg/sg10_46_cif.got.tgz:90411.got - 2010.06.27 22:07:45.
