data_PCOD8065292
_publ_section_title
;
Structure prediction by ZEFSAII (Michael W. Deem and Ramdas Pophale) SiO2 
 PCOD8065292
Probable space group: P 2/M
;
_chemical_formula_sum "Si O2"
_cell_formula_units_Z 24
_cell_length_a 9.725353
_cell_length_b 7.768992
_cell_length_c 30.979225
_cell_angle_alpha 90.000000
_cell_angle_beta 31.171680
_cell_angle_gamma 90.000000
_cell_volume 1211.541665
_symmetry_space_group_name_H-M "P 2/M"
_symmetry_group_IT_number 10
_symmetry_cell_setting 'monoclinic'
loop_
_space_group_symop_operation_xyz
x,y,z
-x,y,-z
-x,-y,-z
x,-y,z
loop_
_atom_site_type_symbol
_atom_site_label
_atom_site_fract_x
_atom_site_fract_y
_atom_site_fract_z
Si Si1 0.053334 0.194960 0.351464
Si Si2 0.245624 0.697092 0.170690
Si Si3 0.059794 0.000000 0.934135
Si Si4 0.442418 0.692118 0.826226
Si Si5 0.730290 0.797095 0.356703
Si Si6 0.479212 0.000000 0.055578
Si Si7 0.139741 0.303827 0.505655
O O1 0.323211 0.302361 0.272372
O O2 0.823027 0.259039 0.380195
O O3 0.957335 0.201371 0.426323
O O4 0.122859 0.000000 0.320141
O O5 0.278149 0.500000 0.146144
O O6 0.434042 0.737356 0.160603
O O7 0.941920 0.731201 0.265077
O O8 0.326927 0.828050 0.111439
O O9 0.214810 0.829204 0.877228
O O10 0.000000 0.000000 0.000000
O O11 0.781224 0.000000 0.987046
O O12 0.319041 0.500000 0.858779
O O13 0.456338 0.706993 0.417555
O O14 0.690295 0.000000 0.364254
O O15 0.500000 0.000000 0.000000
O O16 0.049935 0.500000 0.535490
O O17 0.000000 0.227064 0.500000
#
# Coordination Sequence:
#
# PCOD8065292 Si02
#       7
#     4   4   2   4   4   2   4
#     4  10  20  37  62  89 121 155 201 252 296 353
#     4  10  20  39  66  92 122 160 202 250 302 362
#     4  12  22  40  68  91 124 155 199 256 301 366
#     4  10  20  37  65  97 122 155 201 254 308 353
#     4  10  20  37  64  90 116 155 204 251 299 352
#     4  12  26  44  62  91 126 161 201 248 307 368
#     4  11  24  39  54  84 126 164 205 248 292 353
#
# _framework density 19.809472
#
# number of rings (size 3 to 8) (size 9 to 14) (size 15 to 20)
#    0.000    1.500    3.333    2.000    0.000    6.667 
#    3.000    0.000    0.000    0.000    0.000    0.000 
#    0.000    0.000    0.000    0.000    0.000    0.000 
#
# Total GULP energy -297635.817349 kJ/mol
# GULP energy per Si atom -12401.492390 kJ/mol
# Density = 1.976438 g / cm^3
# Si number density = 19.809472 Si / 1000 Ang^3
#
#
#
# Elastic Constant Matrix: (Units=GPa)
#
#
# Indices 1 2 3 4 5 6 
#
# 1 117.2780 29.3427 69.5318 0.0000 6.4826 0.0000
# 2 29.3427 101.1614 47.4415 0.0000 6.3605 0.0000
# 3 69.5318 47.4415 122.2958 0.0000 5.6913 0.0000
# 4 0.0000 0.0000 0.0000 21.2657 0.0000 2.2987
# 5 6.4826 6.3605 5.6913 0.0000 26.7600 0.0000
# 6 0.0000 0.0000 0.0000 2.2987 0.0000 17.2897
#
#
#
# Elastic Compliance Matrix: (Units=1/GPa)
#
#
# Indices 1 2 3 4 5 6 
#
# 1 0.012936 -0.000293 -0.007169 0.000000 -0.001539 0.000000
# 2 -0.000293 0.012186 -0.004473 0.000000 -0.001874 0.000000
# 3 -0.007169 -0.004473 0.013997 0.000000 -0.000177 0.000000
# 4 0.000000 0.000000 0.000000 0.047710 0.000000 -0.006343
# 5 -0.001539 -0.001874 -0.000177 0.000000 0.038225 0.000000
# 6 0.000000 0.000000 0.000000 -0.006343 0.000000 0.058681
#
#
# Mechanical properties :
#
#
# Convention : Reuss Voigt Hill
#
# Bulk Modulus (GPa) = 65.58828 70.37414 67.98121
# Shear Modulus (GPa) = 23.50863 26.02436 24.76650
#
# Velocity S-wave (km/s) = 3.44864 3.62848 3.53970
# Velocity P-wave (km/s) = 7.00278 7.29089 7.14829
#
# Compressibility (1/GPa) = 0.01524663
#
# Stress axis : x y z
#
# Youngs Moduli (GPa) = 77.30534 82.06204 71.44610
#
# Poissons Ratio (x) = 0.02406 0.51222
# Poissons Ratio (y) = 0.02266 0.31960
# Poissons Ratio (z) = 0.55423 0.36709
#
# Static dielectric constant tensor:
#      x y z
#    x 3.360890 0.000000 -0.062590 
#    y 0.000000 3.683750 0.000000 
#    z -0.062590 0.000000 3.605430 
# 
# 
# High freq. dielectric constant tensor:
#      x y z
#    x 1.743130 0.000000 -0.003770 
#    y 0.000000 1.785900 0.000000 
#    z -0.003770 0.000000 1.777600 
# 
# From -- ./inp_files/94483.got.cif
#   From: 2010.06.25/outbox.cif.g09.slc.cpg/sg10_48_cif.got.tgz:94483.got - 2010.06.27 22:07:45.
