data_PCOD8065452
_publ_section_title
;
Structure prediction by ZEFSAII (Michael W. Deem and Ramdas Pophale) SiO2 
 PCOD8065452
Probable space group: P 2/M
;
_chemical_formula_sum "Si O2"
_cell_formula_units_Z 32
_cell_length_a 26.965204
_cell_length_b 9.086450
_cell_length_c 20.897038
_cell_angle_alpha 90.000000
_cell_angle_beta 18.750244
_cell_angle_gamma 90.000000
_cell_volume 1645.838924
_symmetry_space_group_name_H-M "P 2/M"
_symmetry_group_IT_number 10
_symmetry_cell_setting 'monoclinic'
loop_
_space_group_symop_operation_xyz
x,y,z
-x,y,-z
-x,-y,-z
x,-y,z
loop_
_atom_site_type_symbol
_atom_site_label
_atom_site_fract_x
_atom_site_fract_y
_atom_site_fract_z
Si Si1 0.967469 0.673361 0.856274
Si Si2 0.119081 0.827651 0.907628
Si Si3 0.536814 0.827574 0.523999
Si Si4 0.669496 0.673012 0.771316
Si Si5 0.730674 0.173922 0.058520
Si Si6 0.168594 0.826047 0.315091
Si Si7 0.611172 0.172855 0.067669
Si Si8 0.309016 0.671960 0.400343
O O1 0.938940 0.500000 0.890314
O O2 0.148090 0.711686 0.630642
O O3 0.901872 0.739973 0.001520
O O4 0.881275 0.744069 0.900877
O O5 0.286908 0.792744 0.672984
O O6 0.098330 0.000000 0.948342
O O7 0.000000 0.771596 0.000000
O O8 0.500000 0.755382 0.500000
O O9 0.420339 0.765063 0.719455
O O10 0.507572 0.000000 0.555129
O O11 0.693404 0.500000 0.749836
O O12 0.795343 0.753154 0.661139
O O13 0.696114 0.726948 0.666565
O O14 0.500000 0.722990 0.000000
O O15 0.708352 0.215983 0.011790
O O16 0.753845 0.000000 0.039509
O O17 0.000000 0.772803 0.500000
O O18 0.174092 0.000000 0.316610
O O19 0.292159 0.771648 0.111509
O O20 0.444315 0.247995 0.273612
O O21 0.582328 0.000000 0.100814
O O22 0.344684 0.500000 0.358673
#
# Coordination Sequence:
#
# PCOD8065452 Si02
#       8
#     4   4   4   4   4   4   4   4
#     4  11  24  40  57  83 120 155 188 232 288 342
#     4  10  21  37  61  87 112 147 193 238 282 334
#     4   9  16  32  57  83 108 139 182 236 279 316
#     4  10  20  38  62  83 106 149 201 237 274 334
#     4  10  21  38  60  84 115 150 192 238 281 338
#     4  10  22  38  56  86 123 149 182 238 296 341
#     4  10  22  38  59  87 115 150 193 235 284 344
#     4  10  23  41  58  81 117 154 191 237 284 338
#
# _framework density 19.442971
#
# number of rings (size 3 to 8) (size 9 to 14) (size 15 to 20)
#    0.000    2.000    2.500    0.375    3.500    2.750 
#    0.000    1.250    0.000    0.000    0.000    0.000 
#    0.000    0.000    0.000    0.000    0.000    0.000 
#
# Total GULP energy -396895.287477 kJ/mol
# GULP energy per Si atom -12402.977734 kJ/mol
# Density = 1.939872 g / cm^3
# Si number density = 19.442971 Si / 1000 Ang^3
#
#
#
# Elastic Constant Matrix: (Units=GPa)
#
#
# Indices 1 2 3 4 5 6 
#
# 1 100.0355 32.7395 19.2573 0.0000 -20.7495 0.0000
# 2 32.7395 42.3605 28.9117 0.0000 -9.6114 0.0000
# 3 19.2573 28.9117 79.5338 0.0000 -16.4430 0.0000
# 4 0.0000 0.0000 0.0000 22.6535 0.0000 -3.2196
# 5 -20.7495 -9.6114 -16.4430 0.0000 39.0659 0.0000
# 6 0.0000 0.0000 0.0000 -3.2196 0.0000 18.6709
#
#
#
# Elastic Compliance Matrix: (Units=1/GPa)
#
#
# Indices 1 2 3 4 5 6 
#
# 1 0.014462 -0.011040 0.001685 0.000000 0.005674 0.000000
# 2 -0.011040 0.040193 -0.012164 0.000000 -0.001095 0.000000
# 3 0.001685 -0.012164 0.017693 0.000000 0.005349 0.000000
# 4 0.000000 0.000000 0.000000 0.045252 0.000000 0.007803
# 5 0.005674 -0.001095 0.005349 0.000000 0.030594 0.000000
# 6 0.000000 0.000000 0.000000 0.007803 0.000000 0.054905
#
#
# Mechanical properties :
#
#
# Convention : Reuss Voigt Hill
#
# Bulk Modulus (GPa) = 34.11831 42.63853 38.37842
# Shear Modulus (GPa) = 19.53827 25.47947 22.50887
#
# Velocity S-wave (km/s) = 3.17346 3.62397 3.40617
# Velocity P-wave (km/s) = 5.56900 6.28399 5.93727
#
# Compressibility (1/GPa) = 0.02930977
#
# Stress axis : x y z
#
# Youngs Moduli (GPa) = 69.14550 24.87992 56.51921
#
# Poissons Ratio (x) = 0.27467 -0.09521
# Poissons Ratio (y) = 0.76335 0.68750
# Poissons Ratio (z) = -0.11648 0.30264
#
# Static dielectric constant tensor:
#      x y z
#    x 3.609140 0.000000 0.015830 
#    y 0.000000 3.252590 0.000000 
#    z 0.015830 0.000000 3.691910 
# 
# 
# High freq. dielectric constant tensor:
#      x y z
#    x 1.766210 0.000000 -0.003320 
#    y 0.000000 1.730210 0.000000 
#    z -0.003320 0.000000 1.767700 
# 
# From -- ./inp_files/86787.got.cif
#   From: 2010.06.25/outbox.cif.g09.slc.cpg/sg10_44_cif.got.tgz:86787.got - 2010.06.27 22:07:45.
