data_PCOD8065036
_publ_section_title
;
Structure prediction by ZEFSAII (Michael W. Deem and Ramdas Pophale) SiO2 
 PCOD8065036
Probable space group: P 2/M
;
_chemical_formula_sum "Si O2"
_cell_formula_units_Z 32
_cell_length_a 14.991842
_cell_length_b 9.500326
_cell_length_c 22.942076
_cell_angle_alpha 90.000000
_cell_angle_beta 30.658072
_cell_angle_gamma 90.000000
_cell_volume 1666.183301
_symmetry_space_group_name_H-M "P 2/M"
_symmetry_group_IT_number 10
_symmetry_cell_setting 'monoclinic'
loop_
_space_group_symop_operation_xyz
x,y,z
-x,y,-z
-x,-y,-z
x,-y,z
loop_
_atom_site_type_symbol
_atom_site_label
_atom_site_fract_x
_atom_site_fract_y
_atom_site_fract_z
Si Si1 0.030662 0.159358 0.416681
Si Si2 0.028176 0.667649 0.159639
Si Si3 0.508804 0.839370 0.244203
Si Si4 0.093003 0.163738 0.007162
Si Si5 0.313361 0.157297 0.464756
Si Si6 0.612503 0.338800 0.989388
Si Si7 0.682173 0.665630 0.424277
Si Si8 0.342484 0.661541 0.242097
O O1 0.854552 0.177091 0.480624
O O2 0.000000 0.207379 0.500000
O O3 0.175803 0.262021 0.306636
O O4 0.101051 0.000000 0.374355
O O5 0.042715 0.500000 0.141407
O O6 0.025483 0.743103 0.098679
O O7 0.847584 0.711465 0.292279
O O8 0.192212 0.722429 0.107533
O O9 0.481876 0.814869 0.328651
O O10 0.381599 0.735636 0.281292
O O11 0.456501 0.000000 0.258051
O O12 0.704569 0.805767 0.116319
O O13 0.054877 0.000000 0.042165
O O14 0.000000 0.211734 0.000000
O O15 0.302052 0.270112 0.521227
O O16 0.321866 0.000000 0.486668
O O17 0.638015 0.500000 0.956495
O O18 0.508472 0.320809 0.107447
O O19 0.500000 0.264820 0.000000
O O20 0.500000 0.721082 0.500000
O O21 0.678771 0.500000 0.433972
O O22 0.296422 0.500000 0.279279
#
# Coordination Sequence:
#
# PCOD8065036 Si02
#       8
#     4   4   4   4   4   4   4   4
#     4  10  20  37  56  78 116 156 187 227 285 347
#     4  10  21  40  62  84 118 156 191 237 294 349
#     4  10  20  38  59  82 118 155 187 237 302 348
#     4  10  22  38  61  90 117 147 189 242 295 347
#     4  10  22  39  61  85 112 157 204 237 285 350
#     4   9  19  35  55  80 111 150 190 229 282 344
#     4  10  24  43  61  85 118 156 197 246 299 343
#     4  11  21  33  56  86 114 147 194 239 284 346
#
# _framework density 19.205570000000002
#
# number of rings (size 3 to 8) (size 9 to 14) (size 15 to 20)
#    0.000    2.000    2.500    0.375    3.500    2.250 
#    0.000    0.000    0.000    1.875    0.000    0.000 
#    0.000    0.000    0.000    0.000    0.000    0.000 
#
# Total GULP energy -396755.012894 kJ/mol
# GULP energy per Si atom -12398.594153 kJ/mol
# Density = 1.916186 g / cm^3
# Si number density = 19.205570 Si / 1000 Ang^3
#
#
#
# Elastic Constant Matrix: (Units=GPa)
#
#
# Indices 1 2 3 4 5 6 
#
# 1 111.4686 34.6953 47.5764 0.0000 5.5685 0.0000
# 2 34.6953 56.0260 45.8609 0.0000 3.9254 0.0000
# 3 47.5764 45.8609 115.9638 0.0000 1.4473 0.0000
# 4 0.0000 0.0000 0.0000 26.6319 0.0000 8.3161
# 5 5.5685 3.9254 1.4473 0.0000 25.3791 0.0000
# 6 0.0000 0.0000 0.0000 8.3161 0.0000 -23.6522
#
#
#
# Elastic Compliance Matrix: (Units=1/GPa)
#
#
# Indices 1 2 3 4 5 6 
#
# 1 0.011794 -0.004795 -0.002922 0.000000 -0.001680 0.000000
# 2 -0.004795 0.028654 -0.009329 0.000000 -0.002848 0.000000
# 3 -0.002922 -0.009329 0.013495 0.000000 0.001315 0.000000
# 4 0.000000 0.000000 0.000000 0.033834 0.000000 0.011896
# 5 -0.001680 -0.002848 0.001315 0.000000 0.040137 0.000000
# 6 0.000000 0.000000 0.000000 0.011896 0.000000 -0.038097
#
#
# Mechanical properties :
#
#
# Convention : Reuss Voigt Hill
#
# Bulk Modulus (GPa) = 50.37192 59.96929 55.17060
# Shear Modulus (GPa) = 38.30614 16.02682 27.16648
#
# Velocity S-wave (km/s) = 4.47086 2.89189 3.76508
# Velocity P-wave (km/s) = 7.27573 6.51486 6.90578
#
# Compressibility (1/GPa) = 0.01985233
#
# Stress axis : x y z
#
# Youngs Moduli (GPa) = 84.78560 34.89871 74.09993
#
# Poissons Ratio (x) = 0.16733 0.21650
# Poissons Ratio (y) = 0.40651 0.69131
# Poissons Ratio (z) = 0.24773 0.32559
#
# Static dielectric constant tensor:
#      x y z
#    x 4.147680 0.000000 -0.054300 
#    y 0.000000 3.381040 0.000000 
#    z -0.054300 0.000000 3.773190 
# 
# 
# High freq. dielectric constant tensor:
#      x y z
#    x 1.746240 0.000000 -0.008450 
#    y 0.000000 1.728330 0.000000 
#    z -0.008450 0.000000 1.759780 
# 
# From -- ./inp_files/89517.got.cif
#   From: 2010.06.25/outbox.cif.g09.slc.cpg/sg10_45_cif.got.tgz:89517.got - 2010.06.27 22:07:45.
