data_PCOD8065397
_publ_section_title
;
Structure prediction by ZEFSAII (Michael W. Deem and Ramdas Pophale) SiO2 
 PCOD8065397
Probable space group: P 2/M
;
_chemical_formula_sum "Si O2"
_cell_formula_units_Z 24
_cell_length_a 17.653857
_cell_length_b 7.878662
_cell_length_c 17.493256
_cell_angle_alpha 90.000000
_cell_angle_beta 31.771096
_cell_angle_gamma 90.000000
_cell_volume 1281.100964
_symmetry_space_group_name_H-M "P 2/M"
_symmetry_group_IT_number 10
_symmetry_cell_setting 'monoclinic'
loop_
_space_group_symop_operation_xyz
x,y,z
-x,y,-z
-x,-y,-z
x,-y,z
loop_
_atom_site_type_symbol
_atom_site_label
_atom_site_fract_x
_atom_site_fract_y
_atom_site_fract_z
Si Si1 0.766061 0.300286 0.071644
Si Si2 0.875663 0.000000 0.545204
Si Si3 0.069043 0.812455 0.755621
Si Si4 0.549908 0.000000 0.870900
Si Si5 0.839346 0.686608 0.168478
Si Si6 0.502192 0.695233 0.191452
Si Si7 0.819341 0.687635 0.492225
O O1 0.797968 0.500000 0.046481
O O2 0.748058 0.235261 0.175448
O O3 0.622759 0.254306 0.149227
O O4 0.900524 0.213447 0.915149
O O5 0.896470 0.830579 0.476839
O O6 0.000000 0.000000 0.500000
O O7 0.722404 0.000000 0.718869
O O8 0.164321 0.795616 0.751063
O O9 0.123551 0.686598 0.643374
O O10 0.093483 0.000000 0.702529
O O11 0.486463 0.172020 0.887824
O O12 0.500000 0.000000 0.000000
O O13 0.781067 0.500000 0.239958
O O14 0.000000 0.674121 0.000000
O O15 0.522240 0.500000 0.144978
O O16 0.351196 0.720218 0.363590
O O17 0.852408 0.500000 0.498209
#
# Coordination Sequence:
#
# PCOD8065397 Si02
#       7
#     4   2   4   2   4   4   4
#     4   9  18  33  52  77 105 140 186 227 266 315
#     4  10  22  40  58  83 112 135 175 216 259 328
#     4  11  20  30  49  79 110 143 185 226 265 312
#     4  10  22  38  58  83 110 139 169 212 267 320
#     4   8  15  29  47  69 104 143 180 225 269 308
#     4   9  20  38  59  80 107 143 178 215 265 320
#     4  10  20  38  59  79 109 146 177 216 268 315
#
# _framework density 18.733886999999999
#
# number of rings (size 3 to 8) (size 9 to 14) (size 15 to 20)
#    0.000    2.500    0.833    2.500    1.167    5.000 
#    0.000    0.833    0.000    5.000    0.000    0.000 
#    0.000    0.000    0.000    0.000    0.000    0.000 
#
# Total GULP energy -297475.355900 kJ/mol
# GULP energy per Si atom -12394.806496 kJ/mol
# Density = 1.869125 g / cm^3
# Si number density = 18.733887 Si / 1000 Ang^3
#
#
#
# Elastic Constant Matrix: (Units=GPa)
#
#
# Indices 1 2 3 4 5 6 
#
# 1 160.3763 63.0655 53.9107 0.0000 3.5076 0.0000
# 2 63.0655 109.2909 33.9771 0.0000 4.8827 0.0000
# 3 53.9107 33.9771 61.8342 0.0000 15.4623 0.0000
# 4 0.0000 0.0000 0.0000 20.6996 0.0000 2.8016
# 5 3.5076 4.8827 15.4623 0.0000 23.5659 0.0000
# 6 0.0000 0.0000 0.0000 2.8016 0.0000 27.2722
#
#
#
# Elastic Compliance Matrix: (Units=1/GPa)
#
#
# Indices 1 2 3 4 5 6 
#
# 1 0.010286 -0.003615 -0.008118 0.000000 0.004545 0.000000
# 2 -0.003615 0.012387 -0.003765 0.000000 0.000442 0.000000
# 3 -0.008118 -0.003765 0.029694 0.000000 -0.017495 0.000000
# 4 0.000000 0.000000 0.000000 0.048991 0.000000 -0.005033
# 5 0.004545 0.000442 -0.017495 0.000000 0.053145 0.000000
# 6 0.000000 0.000000 0.000000 -0.005033 0.000000 0.037184
#
#
# Mechanical properties :
#
#
# Convention : Reuss Voigt Hill
#
# Bulk Modulus (GPa) = 46.79422 70.37868 58.58645
# Shear Modulus (GPa) = 21.75727 26.34409 24.05068
#
# Velocity S-wave (km/s) = 3.41161 3.75404 3.58691
# Velocity P-wave (km/s) = 6.36800 7.51262 6.96387
#
# Compressibility (1/GPa) = 0.02137016
#
# Stress axis : x y z
#
# Youngs Moduli (GPa) = 97.21522 80.73237 33.67664
#
# Poissons Ratio (x) = 0.29183 0.27340
# Poissons Ratio (y) = 0.35142 0.12680
# Poissons Ratio (z) = 0.78924 0.30397
#
# Static dielectric constant tensor:
#      x y z
#    x 3.538110 0.000000 0.036870 
#    y 0.000000 3.574770 0.000000 
#    z 0.036870 0.000000 3.135170 
# 
# 
# High freq. dielectric constant tensor:
#      x y z
#    x 1.722800 0.000000 0.006650 
#    y 0.000000 1.737000 0.000000 
#    z 0.006650 0.000000 1.700490 
# 
# From -- ./inp_files/66343.got.cif
#   From: 2010.06.25/outbox.cif.g09.slc.cpg/sg10_34_cif.got.tgz:66343.got - 2010.06.27 22:07:45.
