data_PCOD8065480
_publ_section_title
;
Structure prediction by ZEFSAII (Michael W. Deem and Ramdas Pophale) SiO2 
 PCOD8065480
Probable space group: P 2/M
;
_chemical_formula_sum "Si O2"
_cell_formula_units_Z 28
_cell_length_a 12.521681
_cell_length_b 8.851721
_cell_length_c 14.541205
_cell_angle_alpha 90.000000
_cell_angle_beta 119.456830
_cell_angle_gamma 90.000000
_cell_volume 1403.370996
_symmetry_space_group_name_H-M "P 2/M"
_symmetry_group_IT_number 10
_symmetry_cell_setting 'monoclinic'
loop_
_space_group_symop_operation_xyz
x,y,z
-x,y,-z
-x,-y,-z
x,-y,z
loop_
_atom_site_type_symbol
_atom_site_label
_atom_site_fract_x
_atom_site_fract_y
_atom_site_fract_z
Si Si1 0.530088 0.321707 0.288160
Si Si2 0.413195 0.174932 0.881561
Si Si3 0.039613 0.329183 0.413103
Si Si4 0.697340 0.822622 0.714710
Si Si5 0.867060 0.826193 0.206391
Si Si6 0.036862 0.178197 0.113602
Si Si7 0.292021 0.175621 0.490344
O O1 0.526742 0.500000 0.287113
O O2 0.565011 0.267483 0.201640
O O3 0.397278 0.259884 0.258899
O O4 0.631064 0.270014 0.404277
O O5 0.276963 0.201105 0.861358
O O6 0.439582 0.000000 0.870687
O O7 0.500000 0.234419 0.000000
O O8 0.078573 0.500000 0.404692
O O9 0.149502 0.216239 0.436844
O O10 0.000000 0.314405 0.500000
O O11 0.919687 0.281115 0.306902
O O12 0.832893 0.758285 0.794989
O O13 0.663242 0.788622 0.594195
O O14 0.689208 0.000000 0.731008
O O15 0.928209 0.777316 0.136457
O O16 0.898140 0.000000 0.243204
O O17 0.049808 0.000000 0.109699
O O18 0.000000 0.250359 0.000000
O O19 0.309031 0.000000 0.520773
#
# Coordination Sequence:
#
# PCOD8065480 Si02
#       7
#     4   4   4   4   4   4   4
#     4  12  26  41  60  89 128 167 205 248 310 377
#     4  10  23  42  67  94 121 160 213 263 303 354
#     4  11  23  37  57  87 124 164 201 243 304 370
#     4  10  21  39  64  92 122 158 205 256 310 364
#     4  10  20  38  62  92 121 154 202 251 303 356
#     4   9  18  34  62  95 122 152 195 254 309 357
#     4  11  22  40  64  91 121 157 207 260 308 361
#
# _framework density 19.951958000000001
#
# number of rings (size 3 to 8) (size 9 to 14) (size 15 to 20)
#    0.000    1.571    1.429    3.429    2.000    7.143 
#    0.000    0.000    0.000    0.857    0.000    0.000 
#    0.000    0.000    0.000    0.000    0.000    0.000 
#
# Total GULP energy -347306.176926 kJ/mol
# GULP energy per Si atom -12403.792033 kJ/mol
# Density = 1.990655 g / cm^3
# Si number density = 19.951958 Si / 1000 Ang^3
#
#
#
# Elastic Constant Matrix: (Units=GPa)
#
#
# Indices 1 2 3 4 5 6 
#
# 1 130.0704 48.1836 64.4152 0.0000 4.7369 0.0000
# 2 48.1836 61.3138 45.0926 0.0000 -14.2361 0.0000
# 3 64.4152 45.0926 155.8351 0.0000 -6.9674 0.0000
# 4 0.0000 0.0000 0.0000 210.8573 0.0000 84.7419
# 5 4.7369 -14.2361 -6.9674 0.0000 27.5877 0.0000
# 6 0.0000 0.0000 0.0000 84.7419 0.0000 50.6977
#
#
#
# Elastic Compliance Matrix: (Units=1/GPa)
#
#
# Indices 1 2 3 4 5 6 
#
# 1 0.013169 -0.010143 -0.002876 0.000000 -0.008222 0.000000
# 2 -0.010143 0.031181 -0.004079 0.000000 0.016802 0.000000
# 3 -0.002876 -0.004079 0.008814 0.000000 0.000615 0.000000
# 4 0.000000 0.000000 0.000000 0.014449 0.000000 -0.024151
# 5 -0.008222 0.016802 0.000615 0.000000 0.046485 0.000000
# 6 0.000000 0.000000 0.000000 -0.024151 0.000000 0.060094
#
#
# Mechanical properties :
#
#
# Convention : Reuss Voigt Hill
#
# Bulk Modulus (GPa) = 52.71918 73.62245 63.17081
# Shear Modulus (GPa) = 23.28720 70.46374 46.87547
#
# Velocity S-wave (km/s) = 3.42008 5.94923 4.85234
# Velocity P-wave (km/s) = 6.48663 9.17448 7.94505
#
# Compressibility (1/GPa) = 0.01896843
#
# Stress axis : x y z
#
# Youngs Moduli (GPa) = 75.93450 32.07076 113.45960
#
# Poissons Ratio (x) = 0.32528 0.32634
# Poissons Ratio (y) = 0.77018 0.46279
# Poissons Ratio (z) = 0.21841 0.13081
#
# Static dielectric constant tensor:
#      x y z
#    x 3.688900 0.000000 -0.019560 
#    y 0.000000 3.475150 0.000000 
#    z -0.019560 0.000000 3.814220 
# 
# 
# High freq. dielectric constant tensor:
#      x y z
#    x 1.793130 0.000000 0.000060 
#    y 0.000000 1.756630 0.000000 
#    z 0.000060 0.000000 1.789720 
# 
# From -- ./inp_files/63661.got.cif
#   From: 2010.06.25/outbox.cif.g09.slc.cpg/sg10_32_cif.got.tgz:63661.got - 2010.06.27 22:07:45.
