data_PCOD8065623
_publ_section_title
;
Structure prediction by ZEFSAII (Michael W. Deem and Ramdas Pophale) SiO2 
 PCOD8065623
Probable space group: P 2/M
;
_chemical_formula_sum "Si O2"
_cell_formula_units_Z 28
_cell_length_a 15.337948
_cell_length_b 20.175916
_cell_length_c 9.009800
_cell_angle_alpha 90.000000
_cell_angle_beta 150.390338
_cell_angle_gamma 90.000000
_cell_volume 1377.591346
_symmetry_space_group_name_H-M "P 2/M"
_symmetry_group_IT_number 10
_symmetry_cell_setting 'monoclinic'
loop_
_space_group_symop_operation_xyz
x,y,z
-x,y,-z
-x,-y,-z
x,-y,z
loop_
_atom_site_type_symbol
_atom_site_label
_atom_site_fract_x
_atom_site_fract_y
_atom_site_fract_z
Si Si1 0.295187 0.073868 0.730169
Si Si2 0.803857 0.500000 0.644922
Si Si3 0.806151 0.840472 0.671128
Si Si4 0.496134 0.251484 0.667955
Si Si5 0.807848 0.160256 0.171655
Si Si6 0.705188 0.073896 0.771448
Si Si7 0.338827 0.500000 0.873932
Si Si8 0.516037 0.593642 0.347189
O O1 0.193959 0.133866 0.497538
O O2 0.260848 0.093527 0.849049
O O3 0.218718 0.000000 0.587814
O O4 0.500000 0.075659 0.000000
O O5 0.820377 0.500000 0.484710
O O6 0.699256 0.564197 0.553506
O O7 0.000000 0.500000 0.000000
O O8 0.673358 0.780171 0.504038
O O9 0.741149 0.908342 0.654149
O O10 0.000000 0.815169 0.000000
O O11 0.500000 0.235051 0.500000
O O12 0.488155 0.328811 0.688573
O O13 0.675056 0.221399 0.001452
O O14 0.000000 0.186313 0.500000
O O15 0.813403 0.132411 0.012782
O O16 0.500000 0.080451 0.500000
O O17 0.774921 0.000000 0.908497
O O18 0.500000 0.500000 0.000000
O O19 0.353359 0.562882 0.008792
O O20 0.500000 0.577348 0.500000
#
# Coordination Sequence:
#
# PCOD8065623 Si02
#       8
#     4   2   4   4   4   4   2   4
#     4  11  23  39  56  82 114 146 194 263 329 373
#     4  10  20  39  66 105 136 159 196 248 288 342
#     4  12  23  38  58  83 114 152 197 251 312 373
#     4  11  22  43  61  85 121 164 206 245 287 364
#     4  12  23  39  59  82 113 153 201 255 310 365
#     4  11  21  39  64  79 105 153 202 252 316 382
#     4   8  16  37  62  95 126 157 195 236 278 350
#     4   9  19  38  67  88 123 173 208 239 295 347
#
# _framework density 20.325330999999998
#
# number of rings (size 3 to 8) (size 9 to 14) (size 15 to 20)
#    0.000    1.429    4.286    2.571    0.000    6.286 
#    7.714    4.286    0.000    0.000    0.000    0.000 
#    0.000    0.000    0.000    0.000    0.000    0.000 
#
# Total GULP energy -346983.037973 kJ/mol
# GULP energy per Si atom -12392.251356 kJ/mol
# Density = 2.027907 g / cm^3
# Si number density = 20.325331 Si / 1000 Ang^3
#
#
#
# Elastic Constant Matrix: (Units=GPa)
#
#
# Indices 1 2 3 4 5 6 
#
# 1 64.2069 36.2084 28.9694 0.0000 -5.5359 0.0000
# 2 36.2084 156.8711 58.5266 0.0000 -0.6506 0.0000
# 3 28.9694 58.5266 139.9145 0.0000 4.7525 0.0000
# 4 0.0000 0.0000 0.0000 8.2736 0.0000 -6.1926
# 5 -5.5359 -0.6506 4.7525 0.0000 35.7998 0.0000
# 6 0.0000 0.0000 0.0000 -6.1926 0.0000 21.9815
#
#
#
# Elastic Compliance Matrix: (Units=1/GPa)
#
#
# Indices 1 2 3 4 5 6 
#
# 1 0.018939 -0.003382 -0.002616 0.000000 0.003214 0.000000
# 2 -0.003382 0.008169 -0.002716 0.000000 -0.000014 0.000000
# 3 -0.002616 -0.002716 0.008880 0.000000 -0.001633 0.000000
# 4 0.000000 0.000000 0.000000 0.153161 0.000000 0.043148
# 5 0.003214 -0.000014 -0.001633 0.000000 0.028647 0.000000
# 6 0.000000 0.000000 0.000000 0.043148 0.000000 0.057648
#
#
# Mechanical properties :
#
#
# Convention : Reuss Voigt Hill
#
# Bulk Modulus (GPa) = 53.87924 67.60013 60.73968
# Shear Modulus (GPa) = 16.71904 29.03020 22.87462
#
# Velocity S-wave (km/s) = 2.87116 3.78336 3.35837
# Velocity P-wave (km/s) = 6.12841 7.23991 6.70722
#
# Compressibility (1/GPa) = 0.01856002
#
# Stress axis : x y z
#
# Youngs Moduli (GPa) = 52.79996 122.41905 112.60661
#
# Poissons Ratio (x) = 0.41406 0.29456
# Poissons Ratio (y) = 0.17858 0.30586
# Poissons Ratio (z) = 0.13811 0.33251
#
# Static dielectric constant tensor:
#      x y z
#    x 3.934920 0.000000 -0.470530 
#    y 0.000000 3.551120 0.000000 
#    z -0.470530 0.000000 3.973730 
# 
# 
# High freq. dielectric constant tensor:
#      x y z
#    x 1.804300 0.000000 -0.015410 
#    y 0.000000 1.777960 0.000000 
#    z -0.015410 0.000000 1.789410 
# 
# From -- ./inp_files/30529.got.cif
#   From: 2010.06.25/outbox.cif.g09.slc.cpg/sg10_16_cif.got.tgz:30529.got - 2010.06.27 22:07:45.
