data_PCOD8065823
_publ_section_title
;
Structure prediction by ZEFSAII (Michael W. Deem and Ramdas Pophale) SiO2 
 PCOD8065823
Probable space group: P 2/M
;
_chemical_formula_sum "Si O2"
_cell_formula_units_Z 32
_cell_length_a 33.191291
_cell_length_b 9.140028
_cell_length_c 12.441557
_cell_angle_alpha 90.000000
_cell_angle_beta 28.178716
_cell_angle_gamma 90.000000
_cell_volume 1782.353576
_symmetry_space_group_name_H-M "P 2/M"
_symmetry_group_IT_number 10
_symmetry_cell_setting 'monoclinic'
loop_
_space_group_symop_operation_xyz
x,y,z
-x,y,-z
-x,-y,-z
x,-y,z
loop_
_atom_site_type_symbol
_atom_site_label
_atom_site_fract_x
_atom_site_fract_y
_atom_site_fract_z
Si Si1 0.683602 0.169881 0.689462
Si Si2 0.724651 0.331458 0.801013
Si Si3 0.854839 0.327943 0.677496
Si Si4 0.511335 0.169406 0.793385
Si Si5 0.818344 0.330767 0.004422
Si Si6 0.331436 0.328890 0.485534
Si Si7 0.531335 0.332234 0.310659
Si Si8 0.019894 0.835631 0.328069
O O1 0.735196 0.234674 0.669360
O O2 0.712978 0.255578 0.513808
O O3 0.706419 0.000000 0.624848
O O4 0.582917 0.196178 0.940155
O O5 0.740500 0.500000 0.732835
O O6 0.790972 0.275989 0.734489
O O7 0.632120 0.309258 0.069854
O O8 0.870635 0.500000 0.635968
O O9 0.815099 0.282908 0.886821
O O10 0.944709 0.249326 0.443397
O O11 0.576628 0.255914 0.714777
O O12 0.517806 0.230482 0.657767
O O13 0.536689 0.000000 0.734927
O O14 0.843378 0.500000 0.955130
O O15 0.889576 0.242315 0.903606
O O16 0.726902 0.298827 0.272848
O O17 0.343593 0.500000 0.435207
O O18 0.500000 0.281295 0.500000
O O19 0.505876 0.500000 0.346471
O O20 0.000000 0.832891 0.500000
O O21 0.025006 0.000000 0.270865
#
# Coordination Sequence:
#
# PCOD8065823 Si02
#       8
#     4   4   4   4   4   4   4   4
#     4  10  21  37  53  70 100 137 174 214 258 302
#     4   9  18  32  52  76  99 131 173 211 249 297
#     4   9  17  31  53  77 104 134 166 203 246 302
#     4  10  21  35  50  71 100 136 175 212 256 305
#     4   9  19  33  51  77 106 133 163 203 255 304
#     4  11  22  34  54  78 101 130 172 219 257 300
#     4   9  18  31  50  72 101 136 170 212 254 295
#     4   9  17  30  49  74 105 136 166 199 242 299
#
# _framework density 17.953789
#
# number of rings (size 3 to 8) (size 9 to 14) (size 15 to 20)
#    0.000    2.500    0.000    1.875    1.750    6.250 
#    0.000    0.000    0.000    0.750    0.000    5.250 
#    0.000    0.000    0.000    0.000    0.000    0.000 
#
# Total GULP energy -396861.372505 kJ/mol
# GULP energy per Si atom -12401.917891 kJ/mol
# Density = 1.791293 g / cm^3
# Si number density = 17.953789 Si / 1000 Ang^3
#
#
#
# Elastic Constant Matrix: (Units=GPa)
#
#
# Indices 1 2 3 4 5 6 
#
# 1 128.1712 58.7672 35.4549 0.0000 -7.9537 0.0000
# 2 58.7672 92.0716 31.1441 0.0000 -4.0126 0.0000
# 3 35.4549 31.1441 35.2540 0.0000 -5.5345 0.0000
# 4 0.0000 0.0000 0.0000 21.3844 0.0000 -2.3214
# 5 -7.9537 -4.0126 -5.5345 0.0000 23.3786 0.0000
# 6 0.0000 0.0000 0.0000 -2.3214 0.0000 23.9234
#
#
#
# Elastic Compliance Matrix: (Units=1/GPa)
#
#
# Indices 1 2 3 4 5 6 
#
# 1 0.012421 -0.005301 -0.007569 0.000000 0.001524 0.000000
# 2 -0.005301 0.017761 -0.010556 0.000000 -0.001254 0.000000
# 3 -0.007569 -0.010556 0.046336 0.000000 0.006582 0.000000
# 4 0.000000 0.000000 0.000000 0.047261 0.000000 0.004586
# 5 0.001524 -0.001254 0.006582 0.000000 0.044636 0.000000
# 6 0.000000 0.000000 0.000000 0.004586 0.000000 0.042245
#
#
# Mechanical properties :
#
#
# Convention : Reuss Voigt Hill
#
# Bulk Modulus (GPa) = 33.70879 56.24767 44.97823
# Shear Modulus (GPa) = 18.69851 22.41266 20.55559
#
# Velocity S-wave (km/s) = 3.23070 3.53704 3.38733
# Velocity P-wave (km/s) = 5.72124 6.93383 6.35652
#
# Compressibility (1/GPa) = 0.02966585
#
# Stress axis : x y z
#
# Youngs Moduli (GPa) = 80.50774 56.30421 21.58128
#
# Poissons Ratio (x) = 0.29849 0.16336
# Poissons Ratio (y) = 0.42680 0.22780
# Poissons Ratio (z) = 0.60940 0.59432
#
# Static dielectric constant tensor:
#      x y z
#    x 3.369850 0.000000 -0.016390 
#    y 0.000000 3.373470 0.000000 
#    z -0.016390 0.000000 3.126690 
# 
# 
# High freq. dielectric constant tensor:
#      x y z
#    x 1.691270 0.000000 -0.003100 
#    y 0.000000 1.698490 0.000000 
#    z -0.003100 0.000000 1.672160 
# 
# From -- ./inp_files/55293.got.cif
#   From: 2010.06.25/outbox.cif.g09.slc.cpg/sg10_28_cif.got.tgz:55293.got - 2010.06.27 22:07:45.
