data_PCOD8065335
_publ_section_title
;
Structure prediction by ZEFSAII (Michael W. Deem and Ramdas Pophale) SiO2 
 PCOD8065335
Probable space group: P 2/M
;
_chemical_formula_sum "Si O2"
_cell_formula_units_Z 28
_cell_length_a 8.856021
_cell_length_b 8.414490
_cell_length_c 28.593363
_cell_angle_alpha 90.000000
_cell_angle_beta 141.211586
_cell_angle_gamma 90.000000
_cell_volume 1334.797723
_symmetry_space_group_name_H-M "P 2/M"
_symmetry_group_IT_number 10
_symmetry_cell_setting 'monoclinic'
loop_
_space_group_symop_operation_xyz
x,y,z
-x,y,-z
-x,-y,-z
x,-y,z
loop_
_atom_site_type_symbol
_atom_site_label
_atom_site_fract_x
_atom_site_fract_y
_atom_site_fract_z
Si Si1 0.867281 0.682262 0.778323
Si Si2 0.733177 0.188829 0.926338
Si Si3 0.622545 0.814651 0.078919
Si Si4 0.195164 0.684586 0.508044
Si Si5 0.546979 0.815463 0.781276
Si Si6 0.289427 0.818902 0.355273
Si Si7 0.967885 0.683061 0.355392
O O1 0.843720 0.500000 0.757332
O O2 0.672816 0.715271 0.771363
O O3 0.815646 0.791602 0.721461
O O4 0.131803 0.716965 0.861529
O O5 0.551806 0.251231 0.922435
O O6 0.640849 0.248487 0.853835
O O7 0.740669 0.000000 0.930175
O O8 0.000000 0.258608 0.000000
O O9 0.680872 0.000000 0.099999
O O10 0.500000 0.781993 0.000000
O O11 0.267862 0.500000 0.525542
O O12 0.427035 0.787721 0.576062
O O13 0.090197 0.738233 0.433001
O O14 0.000000 0.723623 0.500000
O O15 0.261339 0.792517 0.709950
O O16 0.612015 0.000000 0.790618
O O17 0.160444 0.703645 0.360787
O O18 0.238437 0.000000 0.357281
O O19 0.886615 0.500000 0.338653
#
# Coordination Sequence:
#
# PCOD8065335 Si02
#       7
#     4   4   4   4   4   4   4
#     4  12  25  41  61  86 121 161 204 254 310 368
#     4   9  18  34  58  88 119 153 194 242 297 354
#     4  10  20  37  63  92 122 157 200 250 304 363
#     4  10  22  41  64  90 122 160 200 244 302 367
#     4  11  22  38  62  90 121 158 205 255 302 358
#     4  12  25  41  63  90 121 158 205 256 304 357
#     4  11  23  40  63  91 126 164 200 243 301 364
#
# _framework density 20.976960999999999
#
# number of rings (size 3 to 8) (size 9 to 14) (size 15 to 20)
#    0.000    1.286    0.000    6.429    0.000    8.000 
#    0.000    0.714    0.000    3.000    0.000    0.000 
#    0.000    0.000    0.000    0.000    0.000    0.000 
#
# Total GULP energy -347426.556804 kJ/mol
# GULP energy per Si atom -12408.091314 kJ/mol
# Density = 2.092922 g / cm^3
# Si number density = 20.976961 Si / 1000 Ang^3
#
#
#
# Elastic Constant Matrix: (Units=GPa)
#
#
# Indices 1 2 3 4 5 6 
#
# 1 127.8901 12.8944 47.5681 0.0000 -8.4897 0.0000
# 2 12.8944 55.6444 26.0942 0.0000 2.2762 0.0000
# 3 47.5681 26.0942 130.3043 0.0000 -3.6268 0.0000
# 4 0.0000 0.0000 0.0000 39.9657 0.0000 1.1187
# 5 -8.4897 2.2762 -3.6268 0.0000 43.9688 0.0000
# 6 0.0000 0.0000 0.0000 1.1187 0.0000 30.2883
#
#
#
# Elastic Compliance Matrix: (Units=1/GPa)
#
#
# Indices 1 2 3 4 5 6 
#
# 1 0.009169 -0.000705 -0.003163 0.000000 0.001546 0.000000
# 2 -0.000705 0.019969 -0.003783 0.000000 -0.001482 0.000000
# 3 -0.003163 -0.003783 0.009597 0.000000 0.000377 0.000000
# 4 0.000000 0.000000 0.000000 0.025047 0.000000 -0.000925
# 5 0.001546 -0.001482 0.000377 0.000000 0.023150 0.000000
# 6 0.000000 0.000000 0.000000 -0.000925 0.000000 0.033050
#
#
# Mechanical properties :
#
#
# Convention : Reuss Voigt Hill
#
# Bulk Modulus (GPa) = 42.67289 54.10580 48.38935
# Shear Modulus (GPa) = 34.94158 37.99669 36.46914
#
# Velocity S-wave (km/s) = 4.08574 4.26062 4.17410
# Velocity P-wave (km/s) = 6.53028 7.07480 6.80799
#
# Compressibility (1/GPa) = 0.02343408
#
# Stress axis : x y z
#
# Youngs Moduli (GPa) = 109.05805 50.07718 104.19795
#
# Poissons Ratio (x) = 0.03529 0.32960
# Poissons Ratio (y) = 0.07685 0.39417
# Poissons Ratio (z) = 0.34497 0.18944
#
# Static dielectric constant tensor:
#      x y z
#    x 3.883490 0.000000 -0.056920 
#    y 0.000000 3.507650 0.000000 
#    z -0.056920 0.000000 3.893680 
# 
# 
# High freq. dielectric constant tensor:
#      x y z
#    x 1.837860 0.000000 -0.001330 
#    y 0.000000 1.803020 0.000000 
#    z -0.001330 0.000000 1.838040 
# 
# From -- ./inp_files/92071.got.cif
#   From: 2010.06.25/outbox.cif.g09.slc.cpg/sg10_47_cif.got.tgz:92071.got - 2010.06.27 22:07:45.
