data_PCOD8065809
_publ_section_title
;
Structure prediction by ZEFSAII (Michael W. Deem and Ramdas Pophale) SiO2 
 PCOD8065809
Probable space group: P 2/M
;
_chemical_formula_sum "Si O2"
_cell_formula_units_Z 28
_cell_length_a 25.989272
_cell_length_b 9.184661
_cell_length_c 9.776946
_cell_angle_alpha 90.000000
_cell_angle_beta 41.521964
_cell_angle_gamma 90.000000
_cell_volume 1547.081303
_symmetry_space_group_name_H-M "P 2/M"
_symmetry_group_IT_number 10
_symmetry_cell_setting 'monoclinic'
loop_
_space_group_symop_operation_xyz
x,y,z
-x,y,-z
-x,-y,-z
x,-y,z
loop_
_atom_site_type_symbol
_atom_site_label
_atom_site_fract_x
_atom_site_fract_y
_atom_site_fract_z
Si Si1 0.203839 0.332036 0.437376
Si Si2 0.076971 0.171334 0.182567
Si Si3 0.904419 0.171701 0.548012
Si Si4 0.385237 0.331947 0.087592
Si Si5 0.626103 0.167870 0.617790
Si Si6 0.197003 0.828507 0.723726
Si Si7 0.495522 0.169650 0.666046
O O1 0.181238 0.500000 0.494740
O O2 0.162705 0.261617 0.389919
O O3 0.295030 0.309358 0.236947
O O4 0.173469 0.249950 0.631443
O O5 0.095923 0.229051 0.295803
O O6 0.988682 0.209645 0.315015
O O7 0.086712 0.000000 0.167691
O O8 0.138955 0.236881 0.952996
O O9 0.887114 0.000000 0.571373
O O10 0.408926 0.500000 0.048763
O O11 0.407800 0.259684 0.187855
O O12 0.428795 0.257907 0.875073
O O13 0.714961 0.210133 0.408104
O O14 0.577431 0.201040 0.577826
O O15 0.619236 0.000000 0.675149
O O16 0.185695 0.000000 0.725133
O O17 0.500000 0.223009 0.500000
O O18 0.473710 0.000000 0.715488
#
# Coordination Sequence:
#
# PCOD8065809 Si02
#       7
#     4   4   4   4   4   4   4
#     4  10  21  35  49  72 103 131 166 209 248 291
#     4   8  16  31  52  77 101 127 166 209 245 293
#     4   9  17  32  53  75 100 132 167 204 249 297
#     4  10  21  36  53  72  98 134 171 205 244 293
#     4   9  18  33  53  75  99 129 165 204 247 296
#     4   9  17  32  53  74  97 129 167 205 247 294
#     4  10  21  35  52  78 107 130 159 203 250 295
#
# _framework density 18.098597999999999
#
# number of rings (size 3 to 8) (size 9 to 14) (size 15 to 20)
#    0.000    2.714    0.000    2.143    0.000    6.000 
#    0.000    8.571    0.000    3.429    0.000    0.000 
#    0.000    0.000    0.000    0.000    0.000    0.000 
#
# Total GULP energy -347198.750957 kJ/mol
# GULP energy per Si atom -12399.955391 kJ/mol
# Density = 1.805740 g / cm^3
# Si number density = 18.098598 Si / 1000 Ang^3
#
#
#
# Elastic Constant Matrix: (Units=GPa)
#
#
# Indices 1 2 3 4 5 6 
#
# 1 99.5423 37.9912 24.1856 0.0000 13.5835 0.0000
# 2 37.9912 61.2808 37.8086 0.0000 4.9036 0.0000
# 3 24.1856 37.8086 101.9226 0.0000 12.6237 0.0000
# 4 0.0000 0.0000 0.0000 9.3245 0.0000 -11.6419
# 5 13.5835 4.9036 12.6237 0.0000 20.1240 0.0000
# 6 0.0000 0.0000 0.0000 -11.6419 0.0000 13.4836
#
#
#
# Elastic Compliance Matrix: (Units=1/GPa)
#
#
# Indices 1 2 3 4 5 6 
#
# 1 0.014266 -0.008723 0.000846 0.000000 -0.008034 0.000000
# 2 -0.008723 0.026497 -0.008336 0.000000 0.004661 0.000000
# 3 0.000846 -0.008336 0.013577 0.000000 -0.007056 0.000000
# 4 0.000000 0.000000 0.000000 -1.374873 0.000000 -1.187087
# 5 -0.008034 0.004661 -0.007056 0.000000 0.058406 0.000000
# 6 0.000000 0.000000 0.000000 -1.187087 0.000000 -0.950786
#
#
# Mechanical properties :
#
#
# Convention : Reuss Voigt Hill
#
# Bulk Modulus (GPa) = 45.63675 51.41297 48.52486
# Shear Modulus (GPa) = -2.30077 19.43710 8.56816
#
# Velocity S-wave (km/s) = -1.12872 3.28068 2.17817
# Velocity P-wave (km/s) = 4.85507 6.54365 5.76155
#
# Compressibility (1/GPa) = 0.02191217
#
# Stress axis : x y z
#
# Youngs Moduli (GPa) = 70.09589 37.74057 73.65355
#
# Poissons Ratio (x) = 0.32922 -0.06229
# Poissons Ratio (y) = 0.61147 0.61400
# Poissons Ratio (z) = -0.05929 0.31462
#
# Static dielectric constant tensor:
#      x y z
#    x 3.353780 0.000000 0.000000 
#    y 0.000000 3.185720 0.000000 
#    z 0.000000 0.000000 3.597620 
# 
# 
# High freq. dielectric constant tensor:
#      x y z
#    x 1.704870 0.000000 -0.003780 
#    y 0.000000 1.681870 0.000000 
#    z -0.003780 0.000000 1.702740 
# 
# From -- ./inp_files/36892.got.cif
#   From: 2010.06.25/outbox.cif.g09.slc.cpg/sg10_19_cif.got.tgz:36892.got - 2010.06.27 22:07:45.
