data_PCOD8065448
_publ_section_title
;
Structure prediction by ZEFSAII (Michael W. Deem and Ramdas Pophale) SiO2 
 PCOD8065448
Probable space group: P 2/M
;
_chemical_formula_sum "Si O2"
_cell_formula_units_Z 32
_cell_length_a 8.653901
_cell_length_b 22.676466
_cell_length_c 14.812717
_cell_angle_alpha 90.000000
_cell_angle_beta 31.372432
_cell_angle_gamma 90.000000
_cell_volume 1513.300773
_symmetry_space_group_name_H-M "P 2/M"
_symmetry_group_IT_number 10
_symmetry_cell_setting 'monoclinic'
loop_
_space_group_symop_operation_xyz
x,y,z
-x,y,-z
-x,-y,-z
x,-y,z
loop_
_atom_site_type_symbol
_atom_site_label
_atom_site_fract_x
_atom_site_fract_y
_atom_site_fract_z
Si Si1 0.194525 0.873805 0.172103
Si Si2 0.662358 0.433321 0.159896
Si Si3 0.362061 0.616521 0.470669
Si Si4 0.178571 0.848271 0.818652
Si Si5 0.768254 0.758393 0.743196
Si Si6 0.317482 0.372150 0.175622
Si Si7 0.581551 0.255499 0.638001
Si Si8 0.651062 0.933865 0.521705
O O1 0.326167 0.813986 0.150898
O O2 0.029068 0.862000 0.161424
O O3 0.985728 0.908999 0.345870
O O4 0.500000 0.910296 0.000000
O O5 0.651008 0.500000 0.127407
O O6 0.509636 0.433293 0.334639
O O7 0.489110 0.388985 0.180775
O O8 0.000000 0.411123 0.000000
O O9 0.500000 0.615380 0.500000
O O10 0.447579 0.677325 0.378217
O O11 0.013853 0.602001 0.652120
O O12 0.307057 0.782577 0.737155
O O13 0.455463 0.893830 0.686497
O O14 0.000000 0.853570 0.000000
O O15 0.714917 0.697814 0.823329
O O16 0.575992 0.752304 0.748441
O O17 0.113949 0.769762 0.552424
O O18 0.500000 0.398719 0.000000
O O19 0.500000 0.933604 0.500000
O O20 0.665753 0.000000 0.553966
#
# Coordination Sequence:
#
# PCOD8065448 Si02
#       8
#     4   4   4   4   4   4   4   4
#     4  11  22  38  62  91 127 166 215 263 320 384
#     4  11  25  47  70  95 131 174 223 273 321 383
#     4  11  24  41  67  98 131 171 216 268 328 393
#     4  11  23  38  61  93 126 169 214 262 323 382
#     4  10  20  38  61  90 128 165 205 264 320 381
#     4  11  23  41  65  98 132 170 218 268 328 386
#     4  10  21  37  61  90 128 164 206 260 321 384
#     4   9  20  40  64  88 123 171 218 266 316 377
#
# _framework density 21.145828999999999
#
# number of rings (size 3 to 8) (size 9 to 14) (size 15 to 20)
#    0.000    1.500    2.500    2.250    3.500    2.500 
#    2.250    0.000    0.000    5.250    0.000    0.000 
#    0.000    0.000    0.000    0.000    0.000    0.000 
#
# Total GULP energy -396794.979597 kJ/mol
# GULP energy per Si atom -12399.843112 kJ/mol
# Density = 2.109770 g / cm^3
# Si number density = 21.145829 Si / 1000 Ang^3
#
#
#
# Elastic Constant Matrix: (Units=GPa)
#
#
# Indices 1 2 3 4 5 6 
#
# 1 101.1162 17.5328 54.3717 0.0000 -4.5793 0.0000
# 2 17.5328 69.8539 38.4530 0.0000 -6.7300 0.0000
# 3 54.3717 38.4530 161.3497 0.0000 -11.6266 0.0000
# 4 0.0000 0.0000 0.0000 14.9702 0.0000 2.4062
# 5 -4.5793 -6.7300 -11.6266 0.0000 41.3337 0.0000
# 6 0.0000 0.0000 0.0000 2.4062 0.0000 20.1558
#
#
#
# Elastic Compliance Matrix: (Units=1/GPa)
#
#
# Indices 1 2 3 4 5 6 
#
# 1 0.012129 -0.000907 -0.003863 0.000000 0.000109 0.000000
# 2 -0.000907 0.016651 -0.003546 0.000000 0.001613 0.000000
# 3 -0.003863 -0.003546 0.008443 0.000000 0.001370 0.000000
# 4 0.000000 0.000000 0.000000 0.068106 0.000000 -0.008131
# 5 0.000109 0.001613 0.001370 0.000000 0.024853 0.000000
# 6 0.000000 0.000000 0.000000 -0.008131 0.000000 0.050584
#
#
# Mechanical properties :
#
#
# Convention : Reuss Voigt Hill
#
# Bulk Modulus (GPa) = 48.56721 61.44832 55.00777
# Shear Modulus (GPa) = 24.47816 30.08945 27.28380
#
# Velocity S-wave (km/s) = 3.40603 3.77629 3.59593
# Velocity P-wave (km/s) = 6.20368 6.93803 6.58110
#
# Compressibility (1/GPa) = 0.02059002
#
# Stress axis : x y z
#
# Youngs Moduli (GPa) = 82.44587 60.05692 118.43580
#
# Poissons Ratio (x) = 0.05448 0.45754
# Poissons Ratio (y) = 0.07479 0.42001
# Poissons Ratio (z) = 0.31851 0.21298
#
# Static dielectric constant tensor:
#      x y z
#    x 3.633280 0.000000 -0.099980 
#    y 0.000000 3.727360 0.000000 
#    z -0.099980 0.000000 4.123740 
# 
# 
# High freq. dielectric constant tensor:
#      x y z
#    x 1.819090 0.000000 -0.003540 
#    y 0.000000 1.814030 0.000000 
#    z -0.003540 0.000000 1.848710 
# 
# From -- ./inp_files/30567.got.cif
#   From: 2010.06.25/outbox.cif.g09.slc.cpg/sg10_16_cif.got.tgz:30567.got - 2010.06.27 22:07:45.
