data_PCOD8065945
_publ_section_title
;
Structure prediction by ZEFSAII (Michael W. Deem and Ramdas Pophale) SiO2 
 PCOD8065945
Probable space group: P 2/M
;
_chemical_formula_sum "Si O2"
_cell_formula_units_Z 32
_cell_length_a 10.807291
_cell_length_b 20.135743
_cell_length_c 19.393517
_cell_angle_alpha 90.000000
_cell_angle_beta 153.798359
_cell_angle_gamma 90.000000
_cell_volume 1863.385978
_symmetry_space_group_name_H-M "P 2/M"
_symmetry_group_IT_number 10
_symmetry_cell_setting 'monoclinic'
loop_
_space_group_symop_operation_xyz
x,y,z
-x,y,-z
-x,-y,-z
x,-y,z
loop_
_atom_site_type_symbol
_atom_site_label
_atom_site_fract_x
_atom_site_fract_y
_atom_site_fract_z
Si Si1 0.813626 0.072915 0.738796
Si Si2 0.186386 0.927085 0.425176
Si Si3 0.824155 0.578219 0.845637
Si Si4 0.190170 0.189720 0.763108
Si Si5 0.176434 0.338414 0.919228
Si Si6 0.176430 0.338415 0.757206
Si Si7 0.824155 0.578219 0.478519
Si Si8 0.190175 0.189719 0.927066
O O1 0.813800 0.078585 0.656900
O O2 0.500005 0.081130 0.610450
O O3 0.995009 0.132519 0.862262
O O4 0.931867 0.000000 0.819460
O O5 0.005001 0.867480 0.367256
O O6 0.068142 0.000000 0.387596
O O7 0.847366 0.500000 0.846358
O O8 0.500000 0.600213 0.691595
O O9 0.963354 0.611829 0.849027
O O10 0.000000 0.601428 0.000000
O O11 0.090670 0.263476 0.692120
O O12 0.193115 0.184837 0.846558
O O13 0.499995 0.176829 0.888858
O O14 0.137195 0.348580 0.818599
O O15 0.090676 0.263475 0.898555
O O16 0.500003 0.352881 0.101578
O O17 0.963349 0.388172 0.614325
O O18 0.847370 0.500000 0.501004
O O19 0.000000 0.601429 0.500000
#
# Coordination Sequence:
#
# PCOD8065945 Si02
#       8
#     4   4   4   4   4   4   4   4
#     4   8  13  20  30  47  74 109 147 184 222 264
#     4   8  13  20  30  47  74 109 147 184 222 264
#     4  10  21  36  53  72  94 121 154 192 233 278
#     4   8  14  24  37  55  81 113 148 184 222 265
#     4   9  18  32  49  70  97 127 157 191 233 279
#     4   9  18  32  49  70  97 127 157 191 233 279
#     4  10  21  36  53  72  94 121 154 192 233 278
#     4   8  14  24  37  55  81 113 148 184 222 265
#
# _framework density 17.173037999999998
#
# number of rings (size 3 to 8) (size 9 to 14) (size 15 to 20)
#    0.000    3.250    0.000    3.000    0.000    4.000 
#    0.000    7.500    0.000    0.000    0.000    0.000 
#    0.000    1.000    0.000    3.250    0.000    7.250 
#
# Total GULP energy -396569.872001 kJ/mol
# GULP energy per Si atom -12392.808500 kJ/mol
# Density = 1.713395 g / cm^3
# Si number density = 17.173038 Si / 1000 Ang^3
#
#
#
# Elastic Constant Matrix: (Units=GPa)
#
#
# Indices 1 2 3 4 5 6 
#
# 1 51.3315 37.8109 38.0036 0.0000 16.5431 0.0000
# 2 37.8109 75.9265 57.5182 0.0000 11.5711 0.0000
# 3 38.0036 57.5182 102.9488 0.0000 13.7535 0.0000
# 4 0.0000 0.0000 0.0000 32.2374 0.0000 14.5834
# 5 16.5431 11.5711 13.7535 0.0000 19.1212 0.0000
# 6 0.0000 0.0000 0.0000 14.5834 0.0000 7.3889
#
#
#
# Elastic Compliance Matrix: (Units=1/GPa)
#
#
# Indices 1 2 3 4 5 6 
#
# 1 0.039794 -0.012981 -0.004301 0.000000 -0.023480 0.000000
# 2 -0.012981 0.027535 -0.010916 0.000000 0.002419 0.000000
# 3 -0.004301 -0.010916 0.017723 0.000000 -0.002422 0.000000
# 4 0.000000 0.000000 0.000000 0.289493 0.000000 -0.571369
# 5 -0.023480 0.002419 -0.002422 0.000000 0.072890 0.000000
# 6 0.000000 0.000000 0.000000 -0.571369 0.000000 1.263042
#
#
# Mechanical properties :
#
#
# Convention : Reuss Voigt Hill
#
# Bulk Modulus (GPa) = 34.89349 55.20802 45.05076
# Shear Modulus (GPa) = 2.81464 18.20777 10.51120
#
# Velocity S-wave (km/s) = 1.28162 3.25969 2.47670
# Velocity P-wave (km/s) = 4.74899 6.81067 5.87104
#
# Compressibility (1/GPa) = 0.02865864
#
# Stress axis : x y z
#
# Youngs Moduli (GPa) = 25.12926 36.31680 56.42300
#
# Poissons Ratio (x) = 0.47143 0.24266
# Poissons Ratio (y) = 0.32620 0.61589
# Poissons Ratio (z) = 0.10807 0.39642
#
# Static dielectric constant tensor:
#      x y z
#    x 2.772010 0.000000 0.313690 
#    y 0.000000 3.441540 0.000000 
#    z 0.313690 0.000000 3.306300 
# 
# 
# High freq. dielectric constant tensor:
#      x y z
#    x 1.611670 0.000000 0.025380 
#    y 0.000000 1.673250 0.000000 
#    z 0.025380 0.000000 1.654910 
# 
# From -- ./inp_files/84252.got.cif
#   From: 2010.06.25/outbox.cif.g09.slc.cpg/sg10_43_cif.got.tgz:84252.got - 2010.06.27 22:07:45.
