data_PCOD8065534
_publ_section_title
;
Structure prediction by ZEFSAII (Michael W. Deem and Ramdas Pophale) SiO2 
 PCOD8065534
Probable space group: P 2/M
;
_chemical_formula_sum "Si O2"
_cell_formula_units_Z 28
_cell_length_a 14.529060
_cell_length_b 9.052955
_cell_length_c 19.632444
_cell_angle_alpha 90.000000
_cell_angle_beta 147.710198
_cell_angle_gamma 90.000000
_cell_volume 1379.455419
_symmetry_space_group_name_H-M "P 2/M"
_symmetry_group_IT_number 10
_symmetry_cell_setting 'monoclinic'
loop_
_space_group_symop_operation_xyz
x,y,z
-x,y,-z
-x,-y,-z
x,-y,z
loop_
_atom_site_type_symbol
_atom_site_label
_atom_site_fract_x
_atom_site_fract_y
_atom_site_fract_z
Si Si1 0.990468 0.668896 0.213291
Si Si2 0.308852 0.827136 0.355971
Si Si3 0.104140 0.825812 0.716578
Si Si4 0.801316 0.827266 0.864847
Si Si5 0.617578 0.174042 0.220778
Si Si6 0.856786 0.334836 0.467743
Si Si7 0.304172 0.668693 0.071310
O O1 0.010852 0.500000 0.249675
O O2 0.178094 0.740198 0.322771
O O3 0.875044 0.757013 0.195917
O O4 0.889202 0.680848 0.078689
O O5 0.500000 0.783133 0.500000
O O6 0.272786 0.781474 0.255251
O O7 0.274583 0.000000 0.344695
O O8 0.272177 0.784404 0.777176
O O9 0.930562 0.754771 0.577677
O O10 0.078978 0.000000 0.704663
O O11 0.688443 0.739567 0.849272
O O12 0.775904 0.000000 0.862292
O O13 0.000000 0.782115 0.000000
O O14 0.695656 0.244773 0.338119
O O15 0.428064 0.243441 0.096287
O O16 0.607971 0.000000 0.224354
O O17 0.800884 0.500000 0.455065
O O18 0.000000 0.343540 0.500000
O O19 0.366195 0.500000 0.114429
#
# Coordination Sequence:
#
# PCOD8065534 Si02
#       7
#     4   4   4   4   4   4   4
#     4  11  24  40  59  85 119 160 202 248 307 371
#     4  10  22  41  65  93 123 154 195 251 309 367
#     4  10  21  37  59  85 118 161 203 248 301 359
#     4  10  20  38  65  90 115 155 200 245 303 368
#     4  10  21  37  58  86 119 157 204 252 298 356
#     4   9  17  32  55  81 112 150 192 241 297 354
#     4  11  24  39  59  87 119 158 203 253 307 364
#
# _framework density 20.297865999999999
#
# number of rings (size 3 to 8) (size 9 to 14) (size 15 to 20)
#    0.000    1.857    1.429    2.143    0.000    8.000 
#    0.000    7.143    0.000    0.000    0.000    0.000 
#    0.000    0.000    0.000    0.000    0.000    0.000 
#
# Total GULP energy -347259.181258 kJ/mol
# GULP energy per Si atom -12402.113616 kJ/mol
# Density = 2.025167 g / cm^3
# Si number density = 20.297866 Si / 1000 Ang^3
#
#
#
# Elastic Constant Matrix: (Units=GPa)
#
#
# Indices 1 2 3 4 5 6 
#
# 1 115.4322 65.3931 45.6968 0.0000 1.4238 0.0000
# 2 65.3931 115.2192 41.1431 0.0000 7.4678 0.0000
# 3 45.6968 41.1431 104.6360 0.0000 3.4898 0.0000
# 4 0.0000 0.0000 0.0000 31.4265 0.0000 0.2607
# 5 1.4238 7.4678 3.4898 0.0000 32.4509 0.0000
# 6 0.0000 0.0000 0.0000 0.2607 0.0000 33.1003
#
#
#
# Elastic Compliance Matrix: (Units=1/GPa)
#
#
# Indices 1 2 3 4 5 6 
#
# 1 0.013797 -0.006687 -0.003440 0.000000 0.001303 0.000000
# 2 -0.006687 0.013456 -0.002285 0.000000 -0.002557 0.000000
# 3 -0.003440 -0.002285 0.011978 0.000000 -0.000611 0.000000
# 4 0.000000 0.000000 0.000000 0.031822 0.000000 -0.000251
# 5 0.001303 -0.002557 -0.000611 0.000000 0.031413 0.000000
# 6 0.000000 0.000000 0.000000 -0.000251 0.000000 0.030213
#
#
# Mechanical properties :
#
#
# Convention : Reuss Voigt Hill
#
# Bulk Modulus (GPa) = 69.40832 71.08373 70.24602
# Shear Modulus (GPa) = 30.80620 31.59915 31.20268
#
# Velocity S-wave (km/s) = 3.90000 3.94988 3.92502
# Velocity P-wave (km/s) = 7.38574 7.47652 7.43127
#
# Compressibility (1/GPa) = 0.01440749
#
# Stress axis : x y z
#
# Youngs Moduli (GPa) = 72.48129 74.31650 83.48559
#
# Poissons Ratio (x) = 0.49692 0.28716
# Poissons Ratio (y) = 0.48465 0.19080
# Poissons Ratio (z) = 0.24931 0.16985
#
# Static dielectric constant tensor:
#      x y z
#    x 3.499900 0.000000 -0.046980 
#    y 0.000000 3.702390 0.000000 
#    z -0.046980 0.000000 3.671250 
# 
# 
# High freq. dielectric constant tensor:
#      x y z
#    x 1.785160 0.000000 -0.001480 
#    y 0.000000 1.800030 0.000000 
#    z -0.001480 0.000000 1.789270 
# 
# From -- ./inp_files/49658.got.cif
#   From: 2010.06.25/outbox.cif.g09.slc.cpg/sg10_25_cif.got.tgz:49658.got - 2010.06.27 22:07:45.
