data_PCOD8065762
_publ_section_title
;
Structure prediction by ZEFSAII (Michael W. Deem and Ramdas Pophale) SiO2 
 PCOD8065762
Probable space group: P 2/M
;
_chemical_formula_sum "Si O2"
_cell_formula_units_Z 32
_cell_length_a 9.068757
_cell_length_b 13.361171
_cell_length_c 25.975763
_cell_angle_alpha 90.000000
_cell_angle_beta 31.402107
_cell_angle_gamma 90.000000
_cell_volume 1639.957207
_symmetry_space_group_name_H-M "P 2/M"
_symmetry_group_IT_number 10
_symmetry_cell_setting 'monoclinic'
loop_
_space_group_symop_operation_xyz
x,y,z
-x,y,-z
-x,-y,-z
x,-y,z
loop_
_atom_site_type_symbol
_atom_site_label
_atom_site_fract_x
_atom_site_fract_y
_atom_site_fract_z
Si Si1 0.389259 0.614867 0.975530
Si Si2 0.254551 0.753860 0.699295
Si Si3 0.279574 0.749632 0.202960
Si Si4 0.819746 0.704423 0.168666
Si Si5 0.718159 0.114507 0.607852
Si Si6 0.453992 0.883673 0.793152
Si Si7 0.234121 0.384833 0.311010
Si Si8 0.390743 0.615731 0.477667
O O1 0.447886 0.500000 0.940711
O O2 0.525733 0.696805 0.897575
O O3 0.500000 0.633264 0.000000
O O4 0.051084 0.634499 0.072568
O O5 0.102224 0.706275 0.794501
O O6 0.442287 0.846156 0.661210
O O7 0.451287 0.671086 0.614999
O O8 0.006698 0.793637 0.736256
O O9 0.431675 0.842277 0.186406
O O10 0.190665 0.663217 0.268440
O O11 0.815879 0.815761 0.143678
O O12 0.500788 0.662427 0.260425
O O13 0.694983 0.129308 0.676731
O O14 0.000000 0.166232 0.500000
O O15 0.725161 0.000000 0.590610
O O16 0.363478 0.000000 0.826020
O O17 0.295850 0.500000 0.283410
O O18 0.946401 0.367660 0.428966
O O19 0.500000 0.657354 0.500000
O O20 0.472554 0.500000 0.448531
#
# Coordination Sequence:
#
# PCOD8065762 Si02
#       8
#     4   4   4   4   4   4   4   4
#     4  11  23  40  63  90 122 155 199 251 303 354
#     4  11  22  34  59  84 118 154 197 242 297 347
#     4  11  22  38  60  88 117 158 199 248 296 358
#     4  10  22  40  61  88 115 154 198 253 298 355
#     4   9  20  38  61  87 117 156 200 245 299 355
#     4   9  21  41  63  87 121 157 191 245 304 356
#     4  10  21  37  54  81 119 155 196 241 292 352
#     4  10  21  34  52  80 118 160 196 234 284 356
#
# _framework density 19.512705
#
# number of rings (size 3 to 8) (size 9 to 14) (size 15 to 20)
#    0.000    1.875    2.500    0.750    5.250    4.000 
#    0.000    5.625    0.000    3.375    0.000    0.000 
#    0.000    0.000    0.000    0.000    0.000    0.000 
#
# Total GULP energy -396677.538257 kJ/mol
# GULP energy per Si atom -12396.173071 kJ/mol
# Density = 1.946829 g / cm^3
# Si number density = 19.512705 Si / 1000 Ang^3
#
#
#
# Elastic Constant Matrix: (Units=GPa)
#
#
# Indices 1 2 3 4 5 6 
#
# 1 107.3066 40.0628 32.5583 0.0000 1.6884 0.0000
# 2 40.0628 94.9576 31.1445 0.0000 2.9762 0.0000
# 3 32.5583 31.1445 76.6193 0.0000 -4.5469 0.0000
# 4 0.0000 0.0000 0.0000 23.5878 0.0000 2.8920
# 5 1.6884 2.9762 -4.5469 0.0000 28.2795 0.0000
# 6 0.0000 0.0000 0.0000 2.8920 0.0000 26.6503
#
#
#
# Elastic Compliance Matrix: (Units=1/GPa)
#
#
# Indices 1 2 3 4 5 6 
#
# 1 0.011824 -0.003803 -0.003530 0.000000 -0.000873 0.000000
# 2 -0.003803 0.013498 -0.003979 0.000000 -0.001833 0.000000
# 3 -0.003530 -0.003979 0.016363 0.000000 0.003260 0.000000
# 4 0.000000 0.000000 0.000000 0.042966 0.000000 -0.004663
# 5 -0.000873 -0.001833 0.003260 0.000000 0.036131 0.000000
# 6 0.000000 0.000000 0.000000 -0.004663 0.000000 0.038029
#
#
# Mechanical properties :
#
#
# Convention : Reuss Voigt Hill
#
# Bulk Modulus (GPa) = 52.46891 54.04608 53.25750
# Shear Modulus (GPa) = 26.62547 27.37803 27.00175
#
# Velocity S-wave (km/s) = 3.69795 3.74984 3.72399
# Velocity P-wave (km/s) = 6.72169 6.81957 6.77080
#
# Compressibility (1/GPa) = 0.01905891
#
# Stress axis : x y z
#
# Youngs Moduli (GPa) = 84.57430 74.08332 61.11438
#
# Poissons Ratio (x) = 0.28176 0.21575
# Poissons Ratio (y) = 0.32166 0.24320
# Poissons Ratio (z) = 0.29857 0.29481
#
# Static dielectric constant tensor:
#      x y z
#    x 3.643550 0.000000 0.017700 
#    y 0.000000 3.538890 0.000000 
#    z 0.017700 0.000000 3.600050 
# 
# 
# High freq. dielectric constant tensor:
#      x y z
#    x 1.761490 0.000000 0.001380 
#    y 0.000000 1.753020 0.000000 
#    z 0.001380 0.000000 1.758620 
# 
# From -- ./inp_files/88245.got.cif
#   From: 2010.06.25/outbox.cif.g09.slc.cpg/sg10_45_cif.got.tgz:88245.got - 2010.06.27 22:07:45.
