data_PCOD8065275
_publ_section_title
;
Structure prediction by ZEFSAII (Michael W. Deem and Ramdas Pophale) SiO2 
 PCOD8065275
Probable space group: P 2/M
;
_chemical_formula_sum "Si O2"
_cell_formula_units_Z 32
_cell_length_a 15.381514
_cell_length_b 24.046155
_cell_length_c 8.906077
_cell_angle_alpha 90.000000
_cell_angle_beta 149.618593
_cell_angle_gamma 90.000000
_cell_volume 1665.982232
_symmetry_space_group_name_H-M "P 2/M"
_symmetry_group_IT_number 10
_symmetry_cell_setting 'monoclinic'
loop_
_space_group_symop_operation_xyz
x,y,z
-x,y,-z
-x,-y,-z
x,-y,z
loop_
_atom_site_type_symbol
_atom_site_label
_atom_site_fract_x
_atom_site_fract_y
_atom_site_fract_z
Si Si1 0.320739 0.746621 0.156863
Si Si2 0.328571 0.249283 0.823540
Si Si3 0.014059 0.064874 0.846674
Si Si4 0.683977 0.373762 0.203954
Si Si5 0.162547 0.858665 0.634120
Si Si6 0.688482 0.132754 0.846437
Si Si7 0.000799 0.565659 0.172722
Si Si8 0.688659 0.625859 0.854165
O O1 0.500000 0.747923 0.500000
O O2 0.227218 0.805121 0.059831
O O3 0.230378 0.687754 0.062386
O O4 0.369916 0.745064 0.057877
O O5 0.269872 0.310109 0.678861
O O6 0.186759 0.201022 0.587972
O O7 0.500000 0.228240 0.000000
O O8 0.859688 0.094793 0.526711
O O9 0.999670 0.000000 0.791930
O O10 0.197012 0.086316 0.061421
O O11 0.000000 0.078897 0.000000
O O12 0.834591 0.410965 0.495300
O O13 0.500000 0.390965 0.000000
O O14 0.674596 0.383166 0.011510
O O15 0.000000 0.855024 0.500000
O O16 0.318241 0.874878 0.980911
O O17 0.500000 0.126433 0.500000
O O18 0.014893 0.500000 0.201095
O O19 0.822097 0.582478 0.984697
O O20 0.000000 0.586991 0.000000
O O21 0.500000 0.617698 0.500000
#
# Coordination Sequence:
#
# PCOD8065275 Si02
#       8
#     4   4   4   4   4   4   4   4
#     4   8  16  31  52  81 113 140 168 210 266 323
#     4   9  18  32  54  84 113 139 172 217 266 320
#     4  10  22  38  52  71 103 140 180 225 269 312
#     4  10  21  38  60  86 116 149 184 225 278 335
#     4   9  19  34  54  78 108 142 174 212 265 322
#     4   9  18  34  56  80 105 136 175 214 258 317
#     4  11  25  42  58  80 111 148 194 240 278 325
#     4  10  20  37  62  87 116 149 182 226 279 334
#
# _framework density 19.207889000000002
#
# number of rings (size 3 to 8) (size 9 to 14) (size 15 to 20)
#    0.000    2.500    0.000    1.125    0.000   12.000 
#    0.000    1.250    0.000    1.875    0.000    0.000 
#    0.000    0.000    0.000    0.000    0.000    0.000 
#
# Total GULP energy -396448.810222 kJ/mol
# GULP energy per Si atom -12389.025319 kJ/mol
# Density = 1.916417 g / cm^3
# Si number density = 19.207889 Si / 1000 Ang^3
#
#
#
# Elastic Constant Matrix: (Units=GPa)
#
#
# Indices 1 2 3 4 5 6 
#
# 1 79.1967 50.1988 40.6107 0.0000 -4.0939 0.0000
# 2 50.1988 105.6368 57.7173 0.0000 -11.6302 0.0000
# 3 40.6107 57.7173 129.2346 0.0000 -16.1432 0.0000
# 4 0.0000 0.0000 0.0000 195.0531 0.0000 90.0035
# 5 -4.0939 -11.6302 -16.1432 0.0000 22.5716 0.0000
# 6 0.0000 0.0000 0.0000 90.0035 0.0000 78.7362
#
#
#
# Elastic Compliance Matrix: (Units=1/GPa)
#
#
# Indices 1 2 3 4 5 6 
#
# 1 0.018801 -0.007689 -0.002792 0.000000 -0.002549 0.000000
# 2 -0.007689 0.015817 -0.004177 0.000000 0.003768 0.000000
# 3 -0.002792 -0.004177 0.011144 0.000000 0.005312 0.000000
# 4 0.000000 0.000000 0.000000 0.010850 0.000000 -0.012402
# 5 -0.002549 0.003768 0.005312 0.000000 0.049581 0.000000
# 6 0.000000 0.000000 0.000000 -0.012402 0.000000 0.026877
#
#
# Mechanical properties :
#
#
# Convention : Reuss Voigt Hill
#
# Bulk Modulus (GPa) = 60.80839 67.90240 64.35539
# Shear Modulus (GPa) = 29.78495 70.30828 50.04661
#
# Velocity S-wave (km/s) = 3.94212 6.05668 5.10997
# Velocity P-wave (km/s) = 7.24204 9.18363 8.27001
#
# Compressibility (1/GPa) = 0.01644510
#
# Stress axis : x y z
#
# Youngs Moduli (GPa) = 53.18985 63.22117 89.73063
#
# Poissons Ratio (x) = 0.48611 0.25055
# Poissons Ratio (y) = 0.40898 0.37484
# Poissons Ratio (z) = 0.14852 0.26410
#
# Static dielectric constant tensor:
#      x y z
#    x 3.500180 0.000000 -0.334400 
#    y 0.000000 4.081510 0.000000 
#    z -0.334400 0.000000 3.672180 
# 
# 
# High freq. dielectric constant tensor:
#      x y z
#    x 1.736680 0.000000 -0.017930 
#    y 0.000000 1.753800 0.000000 
#    z -0.017930 0.000000 1.748860 
# 
# From -- ./inp_files/30614.got.cif
#   From: 2010.06.25/outbox.cif.g09.slc.cpg/sg10_16_cif.got.tgz:30614.got - 2010.06.27 22:07:45.
