data_PCOD8065167
_publ_section_title
;
Structure prediction by ZEFSAII (Michael W. Deem and Ramdas Pophale) SiO2 
 PCOD8065167
Probable space group: P 2/M
;
_chemical_formula_sum "Si O2"
_cell_formula_units_Z 32
_cell_length_a 22.416592
_cell_length_b 8.520363
_cell_length_c 11.335041
_cell_angle_alpha 90.000000
_cell_angle_beta 48.459390
_cell_angle_gamma 90.000000
_cell_volume 1620.445367
_symmetry_space_group_name_H-M "P 2/M"
_symmetry_group_IT_number 10
_symmetry_cell_setting 'monoclinic'
loop_
_space_group_symop_operation_xyz
x,y,z
-x,y,-z
-x,-y,-z
x,-y,z
loop_
_atom_site_type_symbol
_atom_site_label
_atom_site_fract_x
_atom_site_fract_y
_atom_site_fract_z
Si Si1 0.301274 0.682848 0.960129
Si Si2 0.055974 0.682381 0.177771
Si Si3 0.858130 0.320229 0.694702
Si Si4 0.436472 0.182537 0.932984
Si Si5 0.399455 0.316966 0.226739
Si Si6 0.209625 0.817410 0.867674
Si Si7 0.111557 0.179948 0.591413
Si Si8 0.755062 0.681885 0.425898
O O1 0.319327 0.500000 0.923208
O O2 0.380362 0.771167 0.898038
O O3 0.277212 0.749397 0.864749
O O4 0.231598 0.713394 0.145990
O O5 0.037738 0.500000 0.183666
O O6 0.081627 0.717687 0.278231
O O7 0.977648 0.780746 0.249843
O O8 0.125637 0.731041 0.997223
O O9 0.867888 0.500000 0.640616
O O10 0.879528 0.207279 0.559646
O O11 0.518791 0.277721 0.812778
O O12 0.456397 0.000000 0.901850
O O13 0.393271 0.222427 0.112723
O O14 0.396037 0.500000 0.199857
O O15 0.326165 0.266093 0.404068
O O16 0.237138 0.789439 0.698729
O O17 0.198233 0.000000 0.908029
O O18 0.172034 0.290796 0.581409
O O19 0.130159 0.000000 0.596782
O O20 0.752956 0.500000 0.391849
#
# Coordination Sequence:
#
# PCOD8065167 Si02
#       8
#     4   4   4   4   4   4   4   4
#     4  10  20  37  60  84 114 153 194 228 270 335
#     4  10  21  39  60  81 111 151 192 230 275 336
#     4   9  19  35  56  82 113 150 187 227 277 334
#     4  11  21  34  58  91 123 150 182 229 283 332
#     4  10  21  38  60  85 116 153 190 228 275 337
#     4  11  23  40  61  85 113 143 184 238 288 330
#     4  12  24  35  54  85 116 146 185 236 288 334
#     4  11  24  42  61  80 108 150 194 231 276 336
#
# _framework density 19.747658000000001
#
# number of rings (size 3 to 8) (size 9 to 14) (size 15 to 20)
#    0.000    1.500    0.000    7.500    0.000   10.000 
#    0.000    3.125    0.000    3.750    0.000    0.000 
#    0.000    0.000    0.000    0.000    0.000    0.000 
#
# Total GULP energy -397015.977334 kJ/mol
# GULP energy per Si atom -12406.749292 kJ/mol
# Density = 1.970271 g / cm^3
# Si number density = 19.747658 Si / 1000 Ang^3
#
#
#
# Elastic Constant Matrix: (Units=GPa)
#
#
# Indices 1 2 3 4 5 6 
#
# 1 82.7556 18.7998 62.8296 0.0000 -18.2988 0.0000
# 2 18.7998 65.4011 14.0048 0.0000 3.8128 0.0000
# 3 62.8296 14.0048 88.0018 0.0000 3.4418 0.0000
# 4 0.0000 0.0000 0.0000 21.9490 0.0000 2.6037
# 5 -18.2988 3.8128 3.4418 0.0000 20.7651 0.0000
# 6 0.0000 0.0000 0.0000 2.6037 0.0000 29.6595
#
#
#
# Elastic Compliance Matrix: (Units=1/GPa)
#
#
# Indices 1 2 3 4 5 6 
#
# 1 0.068100 -0.013136 -0.049291 0.000000 0.070594 0.000000
# 2 -0.013136 0.018494 0.007067 0.000000 -0.016143 0.000000
# 3 -0.049291 0.007067 0.047488 0.000000 -0.052606 0.000000
# 4 0.000000 0.000000 0.000000 0.046040 0.000000 -0.004042
# 5 0.070594 -0.016143 -0.052606 0.000000 0.122051 0.000000
# 6 0.000000 0.000000 0.000000 -0.004042 0.000000 0.034071
#
#
# Mechanical properties :
#
#
# Convention : Reuss Voigt Hill
#
# Bulk Modulus (GPa) = 42.80558 47.49188 45.14873
# Shear Modulus (GPa) = 10.99500 23.84301 17.41900
#
# Velocity S-wave (km/s) = 2.36217 3.47851 2.97320
# Velocity P-wave (km/s) = 5.40029 6.34311 5.89059
#
# Compressibility (1/GPa) = 0.02336144
#
# Stress axis : x y z
#
# Youngs Moduli (GPa) = 14.68419 54.07114 21.05790
#
# Poissons Ratio (x) = 0.71029 1.03797
# Poissons Ratio (y) = 0.19289 -0.14881
# Poissons Ratio (z) = 0.72380 -0.38211
#
# Static dielectric constant tensor:
#      x y z
#    x 3.658020 0.000000 -0.162690 
#    y 0.000000 3.587480 0.000000 
#    z -0.162690 0.000000 3.522710 
# 
# 
# High freq. dielectric constant tensor:
#      x y z
#    x 1.773890 0.000000 -0.008520 
#    y 0.000000 1.778640 0.000000 
#    z -0.008520 0.000000 1.759650 
# 
# From -- ./inp_files/55256.got.cif
#   From: 2010.06.25/outbox.cif.g09.slc.cpg/sg10_28_cif.got.tgz:55256.got - 2010.06.27 22:07:45.
