data_PCOD8065095
_publ_section_title
;
Structure prediction by ZEFSAII (Michael W. Deem and Ramdas Pophale) SiO2 
 PCOD8065095
Probable space group: P 2/M
;
_chemical_formula_sum "Si O2"
_cell_formula_units_Z 32
_cell_length_a 27.404942
_cell_length_b 9.174872
_cell_length_c 10.768776
_cell_angle_alpha 90.000000
_cell_angle_beta 35.802546
_cell_angle_gamma 90.000000
_cell_volume 1583.968150
_symmetry_space_group_name_H-M "P 2/M"
_symmetry_group_IT_number 10
_symmetry_cell_setting 'monoclinic'
loop_
_space_group_symop_operation_xyz
x,y,z
-x,y,-z
-x,-y,-z
x,-y,z
loop_
_atom_site_type_symbol
_atom_site_label
_atom_site_fract_x
_atom_site_fract_y
_atom_site_fract_z
Si Si1 0.372683 0.837664 0.719052
Si Si2 0.779294 0.833146 0.130734
Si Si3 0.527791 0.831536 0.737908
Si Si4 0.674448 0.666866 0.543569
Si Si5 0.378366 0.669069 0.950197
Si Si6 0.033832 0.827217 0.299650
Si Si7 0.946621 0.173072 0.228611
Si Si8 0.775909 0.336020 0.580840
O O1 0.276464 0.821157 0.877609
O O2 0.431472 0.809451 0.480874
O O3 0.395369 0.720444 0.775394
O O4 0.388402 0.000000 0.740806
O O5 0.744806 0.730596 0.308629
O O6 0.779986 0.000000 0.178565
O O7 0.870895 0.777404 0.907880
O O8 0.587826 0.755599 0.714823
O O9 0.437518 0.756278 0.923693
O O10 0.518897 0.000000 0.792727
O O11 0.656983 0.500000 0.542487
O O12 0.709997 0.681692 0.606960
O O13 0.400772 0.500000 0.916297
O O14 0.280715 0.698690 0.181652
O O15 0.000000 0.761598 0.500000
O O16 0.984472 0.766799 0.280531
O O17 0.025451 0.000000 0.319846
O O18 0.851951 0.225665 0.411707
O O19 0.946129 0.000000 0.229132
O O20 0.000000 0.230513 0.000000
O O21 0.812254 0.500000 0.510304
#
# Coordination Sequence:
#
# PCOD8065095 Si02
#       8
#     4   4   4   4   4   4   4   4
#     4   9  19  34  55  82 112 147 185 228 280 338
#     4   9  18  34  57  83 112 143 182 233 283 334
#     4  10  21  38  59  84 112 143 184 233 284 336
#     4  10  20  37  59  80 107 146 190 228 275 337
#     4  11  23  37  54  79 114 151 189 231 276 332
#     4   9  18  32  54  84 116 148 184 232 292 347
#     4  10  21  37  61  89 113 146 198 248 285 339
#     4  10  24  41  56  80 115 154 188 228 283 339
#
# _framework density 20.202425999999999
#
# number of rings (size 3 to 8) (size 9 to 14) (size 15 to 20)
#    0.000    2.250    0.000    3.000    1.750    7.750 
#    0.000    3.125    0.000    0.750    0.000    0.000 
#    0.000    0.000    0.000    0.000    0.000    0.000 
#
# Total GULP energy -396818.993459 kJ/mol
# GULP energy per Si atom -12400.593546 kJ/mol
# Density = 2.015644 g / cm^3
# Si number density = 20.202426 Si / 1000 Ang^3
#
#
#
# Elastic Constant Matrix: (Units=GPa)
#
#
# Indices 1 2 3 4 5 6 
#
# 1 77.5511 29.6669 33.0973 0.0000 -2.9323 0.0000
# 2 29.6669 80.3768 26.8930 0.0000 -8.6319 0.0000
# 3 33.0973 26.8930 62.1870 0.0000 -17.3746 0.0000
# 4 0.0000 0.0000 0.0000 26.2792 0.0000 -4.0288
# 5 -2.9323 -8.6319 -17.3746 0.0000 33.9221 0.0000
# 6 0.0000 0.0000 0.0000 -4.0288 0.0000 22.4095
#
#
#
# Elastic Compliance Matrix: (Units=1/GPa)
#
#
# Indices 1 2 3 4 5 6 
#
# 1 0.018174 -0.004126 -0.009036 0.000000 -0.004107 0.000000
# 2 -0.004126 0.015492 -0.004087 0.000000 0.001492 0.000000
# 3 -0.009036 -0.004087 0.025847 0.000000 0.011418 0.000000
# 4 0.000000 0.000000 0.000000 0.039131 0.000000 0.007035
# 5 -0.004107 0.001492 0.011418 0.000000 0.035352 0.000000
# 6 0.000000 0.000000 0.000000 0.007035 0.000000 0.045889
#
#
# Mechanical properties :
#
#
# Convention : Reuss Voigt Hill
#
# Bulk Modulus (GPa) = 39.97440 44.38106 42.17773
# Shear Modulus (GPa) = 22.44969 25.21936 23.83453
#
# Velocity S-wave (km/s) = 3.33714 3.53701 3.43853
# Velocity P-wave (km/s) = 5.88885 6.22065 6.05702
#
# Compressibility (1/GPa) = 0.02501601
#
# Stress axis : x y z
#
# Youngs Moduli (GPa) = 55.02348 64.55012 38.68937
#
# Poissons Ratio (x) = 0.26632 0.34959
# Poissons Ratio (y) = 0.22701 0.15811
# Poissons Ratio (z) = 0.49718 0.26380
#
# Static dielectric constant tensor:
#      x y z
#    x 3.765010 0.000000 -0.037520 
#    y 0.000000 3.498640 0.000000 
#    z -0.037520 0.000000 3.702670 
# 
# 
# High freq. dielectric constant tensor:
#      x y z
#    x 1.794200 0.000000 -0.005870 
#    y 0.000000 1.770610 0.000000 
#    z -0.005870 0.000000 1.793030 
# 
# From -- ./inp_files/58143.got.cif
#   From: 2010.06.25/outbox.cif.g09.slc.cpg/sg10_30_cif.got.tgz:58143.got - 2010.06.27 22:07:45.
