data_PCOD8065409
_publ_section_title
;
Structure prediction by ZEFSAII (Michael W. Deem and Ramdas Pophale) SiO2 
 PCOD8065409
Probable space group: P 2/M
;
_chemical_formula_sum "Si O2"
_cell_formula_units_Z 28
_cell_length_a 9.863257
_cell_length_b 9.286442
_cell_length_c 25.899577
_cell_angle_alpha 90.000000
_cell_angle_beta 141.132354
_cell_angle_gamma 90.000000
_cell_volume 1488.649181
_symmetry_space_group_name_H-M "P 2/M"
_symmetry_group_IT_number 10
_symmetry_cell_setting 'monoclinic'
loop_
_space_group_symop_operation_xyz
x,y,z
-x,y,-z
-x,-y,-z
x,-y,z
loop_
_atom_site_type_symbol
_atom_site_label
_atom_site_fract_x
_atom_site_fract_y
_atom_site_fract_z
Si Si1 0.477065 0.168746 0.433495
Si Si2 0.360495 0.335692 0.807610
Si Si3 0.977087 0.169316 0.746324
Si Si4 0.518895 0.665392 0.743365
Si Si5 0.756924 0.668668 0.437708
Si Si6 0.049856 0.170340 0.143001
Si Si7 0.176831 0.331788 0.009938
O O1 0.500000 0.207899 0.500000
O O2 0.247425 0.225855 0.344322
O O3 0.669661 0.248597 0.461472
O O4 0.501890 0.000000 0.430438
O O5 0.306985 0.500000 0.805824
O O6 0.367642 0.313468 0.748226
O O7 0.588606 0.289885 0.899593
O O8 0.174002 0.237206 0.774305
O O9 0.989225 0.215351 0.809518
O O10 0.994996 0.000000 0.744664
O O11 0.599463 0.500000 0.764098
O O12 0.382935 0.711452 0.653423
O O13 0.723530 0.767965 0.809403
O O14 0.746816 0.500000 0.446350
O O15 0.000000 0.720265 0.500000
O O16 0.050293 0.000000 0.135700
O O17 0.859467 0.240223 0.052741
O O18 0.157604 0.500000 0.990979
O O19 0.000000 0.287548 0.000000
#
# Coordination Sequence:
#
# PCOD8065409 Si02
#       7
#     4   4   4   4   4   4   4
#     4  10  22  41  61  83 117 159 196 233 285 345
#     4  10  22  38  60  87 113 151 196 237 286 346
#     4  10  23  41  57  82 120 154 191 239 286 339
#     4  10  20  38  60  84 117 154 192 236 287 341
#     4  10  22  38  60  91 121 149 189 243 291 337
#     4  11  22  37  60  86 115 153 194 236 286 342
#     4  10  20  38  60  84 117 150 190 241 289 340
#
# _framework density 18.808999
#
# number of rings (size 3 to 8) (size 9 to 14) (size 15 to 20)
#    0.000    1.857    2.857    0.429    2.000    4.286 
#    0.000    2.857    0.000    0.000    0.000    0.000 
#    0.000    0.000    0.000    0.000    0.000    0.000 
#
# Total GULP energy -347341.683495 kJ/mol
# GULP energy per Si atom -12405.060125 kJ/mol
# Density = 1.876619 g / cm^3
# Si number density = 18.808999 Si / 1000 Ang^3
#
#
#
# Elastic Constant Matrix: (Units=GPa)
#
#
# Indices 1 2 3 4 5 6 
#
# 1 126.8843 48.3469 59.3421 0.0000 0.8611 0.0000
# 2 48.3469 45.8194 37.7466 0.0000 -4.7658 0.0000
# 3 59.3421 37.7466 101.0699 0.0000 -6.9467 0.0000
# 4 0.0000 0.0000 0.0000 25.1494 0.0000 14.8936
# 5 0.8611 -4.7658 -6.9467 0.0000 36.8943 0.0000
# 6 0.0000 0.0000 0.0000 14.8936 0.0000 -19.5699
#
#
#
# Elastic Compliance Matrix: (Units=1/GPa)
#
#
# Indices 1 2 3 4 5 6 
#
# 1 0.014455 -0.012115 -0.004147 0.000000 -0.002683 0.000000
# 2 -0.012115 0.041807 -0.008216 0.000000 0.004136 0.000000
# 3 -0.004147 -0.008216 0.015532 0.000000 0.001960 0.000000
# 4 0.000000 0.000000 0.000000 0.027409 0.000000 0.020860
# 5 -0.002683 0.004136 0.001960 0.000000 0.028070 0.000000
# 6 0.000000 0.000000 0.000000 0.020860 0.000000 -0.035224
#
#
# Mechanical properties :
#
#
# Convention : Reuss Voigt Hill
#
# Bulk Modulus (GPa) = 43.78693 62.73831 53.26262
# Shear Modulus (GPa) = 33.64292 17.05064 25.34678
#
# Velocity S-wave (km/s) = 4.23384 3.01410 3.67493
# Velocity P-wave (km/s) = 6.87247 6.74841 6.81072
#
# Compressibility (1/GPa) = 0.02283786
#
# Stress axis : x y z
#
# Youngs Moduli (GPa) = 69.17919 23.91930 64.38280
#
# Poissons Ratio (x) = 0.28979 0.26699
# Poissons Ratio (y) = 0.83814 0.52897
# Poissons Ratio (z) = 0.28688 0.19652
#
# Static dielectric constant tensor:
#      x y z
#    x 3.397900 0.000000 -0.132920 
#    y 0.000000 3.344650 0.000000 
#    z -0.132920 0.000000 3.718420 
# 
# 
# High freq. dielectric constant tensor:
#      x y z
#    x 1.733910 0.000000 -0.007610 
#    y 0.000000 1.722660 0.000000 
#    z -0.007610 0.000000 1.743150 
# 
# From -- ./inp_files/37004.got.cif
#   From: 2010.06.25/outbox.cif.g09.slc.cpg/sg10_19_cif.got.tgz:37004.got - 2010.06.27 22:07:45.
