data_PCOD8065268
_publ_section_title
;
Structure prediction by ZEFSAII (Michael W. Deem and Ramdas Pophale) SiO2 
 PCOD8065268
Probable space group: P 2/M
;
_chemical_formula_sum "Si O2"
_cell_formula_units_Z 28
_cell_length_a 9.145368
_cell_length_b 17.165658
_cell_length_c 14.939754
_cell_angle_alpha 90.000000
_cell_angle_beta 140.294400
_cell_angle_gamma 90.000000
_cell_volume 1498.301582
_symmetry_space_group_name_H-M "P 2/M"
_symmetry_group_IT_number 10
_symmetry_cell_setting 'monoclinic'
loop_
_space_group_symop_operation_xyz
x,y,z
-x,y,-z
-x,-y,-z
x,-y,z
loop_
_atom_site_type_symbol
_atom_site_label
_atom_site_fract_x
_atom_site_fract_y
_atom_site_fract_z
Si Si1 0.091867 0.500000 0.943314
Si Si2 0.038466 0.619688 0.621540
Si Si3 0.231809 0.088696 0.375905
Si Si4 0.222195 0.500000 0.379622
Si Si5 0.962666 0.197914 0.379878
Si Si6 0.931801 0.910078 0.066238
Si Si7 0.534849 0.626622 0.911847
Si Si8 0.474483 0.796729 0.090205
O O1 0.892150 0.500000 0.773556
O O2 0.246178 0.576155 0.008175
O O3 0.000000 0.500000 0.000000
O O4 0.004272 0.711019 0.626881
O O5 0.298921 0.592540 0.760938
O O6 0.000000 0.599521 0.500000
O O7 0.860830 0.575223 0.602879
O O8 0.500000 0.101449 0.500000
O O9 0.137243 0.148188 0.403845
O O10 0.134735 0.107715 0.231454
O O11 0.168999 0.000000 0.373651
O O12 0.500000 0.500000 0.500000
O O13 0.708025 0.168805 0.239100
O O14 0.000000 0.178714 0.500000
O O15 0.861114 0.000000 0.033855
O O16 0.712233 0.861967 0.988247
O O17 0.000000 0.882437 0.000000
O O18 0.584250 0.712765 0.893171
O O19 0.500000 0.627042 0.000000
O O20 0.500000 0.776047 0.000000
#
# Coordination Sequence:
#
# PCOD8065268 Si02
#       8
#     2   4   4   2   4   4   4   4
#     4  12  26  39  58  90 119 149 192 236 281 333
#     4  10  22  41  64  85 113 153 192 231 285 344
#     4  10  22  39  57  81 117 157 191 229 285 345
#     4  12  26  40  58  88 121 150 189 237 282 334
#     4  10  22  39  60  89 115 145 192 240 284 335
#     4  10  22  38  57  83 116 154 192 233 285 341
#     4  10  20  40  64  82 111 153 192 234 284 339
#     4  10  20  37  62  87 110 144 194 243 285 331
#
# _framework density 18.687826999999999
#
# number of rings (size 3 to 8) (size 9 to 14) (size 15 to 20)
#    0.000    1.714    2.857    0.857    4.000    2.286 
#    0.000    0.000    0.000    0.000    0.000    0.000 
#    0.000    0.000    0.000    0.000    0.000    0.000 
#
# Total GULP energy -347134.333623 kJ/mol
# GULP energy per Si atom -12397.654772 kJ/mol
# Density = 1.864529 g / cm^3
# Si number density = 18.687827 Si / 1000 Ang^3
#
#
#
# Elastic Constant Matrix: (Units=GPa)
#
#
# Indices 1 2 3 4 5 6 
#
# 1 110.8051 57.0851 65.8117 0.0000 -3.3908 0.0000
# 2 57.0851 77.8492 42.1769 0.0000 3.5211 0.0000
# 3 65.8117 42.1769 164.6333 0.0000 2.5346 0.0000
# 4 0.0000 0.0000 0.0000 34.9456 0.0000 22.1887
# 5 -3.3908 3.5211 2.5346 0.0000 34.8108 0.0000
# 6 0.0000 0.0000 0.0000 22.1887 0.0000 157.3103
#
#
#
# Elastic Compliance Matrix: (Units=1/GPa)
#
#
# Indices 1 2 3 4 5 6 
#
# 1 0.016869 -0.010249 -0.004164 0.000000 0.002983 0.000000
# 2 -0.010249 0.021195 -0.001286 0.000000 -0.003049 0.000000
# 3 -0.004164 -0.001286 0.008081 0.000000 -0.000864 0.000000
# 4 0.000000 0.000000 0.000000 0.031431 0.000000 -0.004433
# 5 0.002983 -0.003049 -0.000864 0.000000 0.029389 0.000000
# 6 0.000000 0.000000 0.000000 -0.004433 0.000000 0.006982
#
#
# Mechanical properties :
#
#
# Convention : Reuss Voigt Hill
#
# Bulk Modulus (GPa) = 67.80370 75.93720 71.87045
# Shear Modulus (GPa) = 33.27543 57.96094 45.61818
#
# Velocity S-wave (km/s) = 4.22429 5.57518 4.94607
# Velocity P-wave (km/s) = 7.75589 9.06457 8.43564
#
# Compressibility (1/GPa) = 0.01474846
#
# Stress axis : x y z
#
# Youngs Moduli (GPa) = 59.27951 47.18022 123.74252
#
# Poissons Ratio (x) = 0.48355 0.51523
# Poissons Ratio (y) = 0.60755 0.15914
# Poissons Ratio (z) = 0.24682 0.06068
#
# Static dielectric constant tensor:
#      x y z
#    x 3.201250 0.000000 -0.102140 
#    y 0.000000 3.645750 0.000000 
#    z -0.102140 0.000000 3.683970 
# 
# 
# High freq. dielectric constant tensor:
#      x y z
#    x 1.709940 0.000000 -0.005860 
#    y 0.000000 1.735100 0.000000 
#    z -0.005860 0.000000 1.747960 
# 
# From -- ./inp_files/62373.got.cif
#   From: 2010.06.25/outbox.cif.g09.slc.cpg/sg10_32_cif.got.tgz:62373.got - 2010.06.27 22:07:45.
