data_PCOD8065455
_publ_section_title
;
Structure prediction by ZEFSAII (Michael W. Deem and Ramdas Pophale) SiO2 
 PCOD8065455
Probable space group: P 2/M
;
_chemical_formula_sum "Si O2"
_cell_formula_units_Z 28
_cell_length_a 25.957908
_cell_length_b 8.654401
_cell_length_c 23.853563
_cell_angle_alpha 90.000000
_cell_angle_beta 163.999660
_cell_angle_gamma 90.000000
_cell_volume 1477.090226
_symmetry_space_group_name_H-M "P 2/M"
_symmetry_group_IT_number 10
_symmetry_cell_setting 'monoclinic'
loop_
_space_group_symop_operation_xyz
x,y,z
-x,y,-z
-x,-y,-z
x,-y,z
loop_
_atom_site_type_symbol
_atom_site_label
_atom_site_fract_x
_atom_site_fract_y
_atom_site_fract_z
Si Si1 0.882373 0.180697 0.147184
Si Si2 0.031460 0.683039 0.594366
Si Si3 0.786283 0.316641 0.439939
Si Si4 0.505119 0.823865 0.441564
Si Si5 0.068682 0.176132 0.132235
Si Si6 0.178276 0.678373 0.034859
Si Si7 0.632611 0.683361 0.978955
O O1 0.709664 0.250592 0.001363
O O2 0.081997 0.250514 0.373714
O O3 0.887647 0.000000 0.163125
O O4 0.849347 0.215927 0.048007
O O5 0.029020 0.500000 0.586889
O O6 0.865297 0.737462 0.462046
O O7 0.000000 0.757787 0.500000
O O8 0.231417 0.737547 0.828184
O O9 0.791062 0.500000 0.449786
O O10 0.575694 0.253047 0.227068
O O11 0.500000 0.763845 0.500000
O O12 0.710329 0.811930 0.631001
O O13 0.377570 0.714562 0.270662
O O14 0.430013 0.000000 0.361047
O O15 0.998985 0.000000 0.067951
O O16 0.000000 0.236167 0.000000
O O17 0.984501 0.285434 0.091409
O O18 0.169312 0.500000 0.007960
O O19 0.632328 0.500000 0.973638
#
# Coordination Sequence:
#
# PCOD8065455 Si02
#       7
#     4   4   4   4   4   4   4
#     4  11  23  39  58  78 105 142 189 235 279 333
#     4   8  14  26  48  83 121 151 183 223 271 329
#     4   9  18  34  56  81 112 148 185 231 283 327
#     4  10  20  38  62  84 110 145 182 218 262 321
#     4  10  20  38  62  84 110 145 182 218 262 321
#     4  12  25  39  58  84 116 145 179 228 281 335
#     4   9  18  34  56  81 112 148 185 231 283 327
#
# _framework density 18.956188000000001
#
# number of rings (size 3 to 8) (size 9 to 14) (size 15 to 20)
#    0.000    2.143    1.429    3.429    0.000    3.429 
#    0.000    2.857    0.000    6.857    0.000    8.000 
#    0.000    0.000    0.000    0.000    0.000    0.000 
#
# Total GULP energy -347239.841928 kJ/mol
# GULP energy per Si atom -12401.422926 kJ/mol
# Density = 1.891304 g / cm^3
# Si number density = 18.956188 Si / 1000 Ang^3
#
#
#
# Elastic Constant Matrix: (Units=GPa)
#
#
# Indices 1 2 3 4 5 6 
#
# 1 119.8293 16.4338 78.2272 0.0000 -2.7984 0.0000
# 2 16.4338 38.3043 22.1420 0.0000 5.3595 0.0000
# 3 78.2272 22.1420 134.4392 0.0000 16.6774 0.0000
# 4 0.0000 0.0000 0.0000 9.1602 0.0000 2.7783
# 5 -2.7984 5.3595 16.6774 0.0000 37.6709 0.0000
# 6 0.0000 0.0000 0.0000 2.7783 0.0000 6.2409
#
#
#
# Elastic Compliance Matrix: (Units=1/GPa)
#
#
# Indices 1 2 3 4 5 6 
#
# 1 0.014421 -0.001869 -0.008729 0.000000 0.005202 0.000000
# 2 -0.001869 0.029257 -0.003383 0.000000 -0.002803 0.000000
# 3 -0.008729 -0.003383 0.013856 0.000000 -0.006302 0.000000
# 4 0.000000 0.000000 0.000000 0.126209 0.000000 -0.056185
# 5 0.005202 -0.002803 -0.006302 0.000000 0.030121 0.000000
# 6 0.000000 0.000000 0.000000 -0.056185 0.000000 0.185245
#
#
# Mechanical properties :
#
#
# Convention : Reuss Voigt Hill
#
# Bulk Modulus (GPa) = 33.81591 58.46430 46.14011
# Shear Modulus (GPa) = 11.44350 22.33238 16.88794
#
# Velocity S-wave (km/s) = 2.45966 3.43608 2.98802
# Velocity P-wave (km/s) = 5.09355 6.83015 6.02475
#
# Compressibility (1/GPa) = 0.02957188
#
# Stress axis : x y z
#
# Youngs Moduli (GPa) = 69.34098 34.18037 72.16884
#
# Poissons Ratio (x) = 0.06389 0.62996
# Poissons Ratio (y) = 0.12962 0.24415
# Poissons Ratio (z) = 0.60527 0.11563
#
# Static dielectric constant tensor:
#      x y z
#    x 3.586110 0.000000 0.043960 
#    y 0.000000 3.207030 0.000000 
#    z 0.043960 0.000000 3.632820 
# 
# 
# High freq. dielectric constant tensor:
#      x y z
#    x 1.739880 0.000000 0.004160 
#    y 0.000000 1.711520 0.000000 
#    z 0.004160 0.000000 1.744270 
# 
# From -- ./inp_files/86539.got.cif
#   From: 2010.06.25/outbox.cif.g09.slc.cpg/sg10_44_cif.got.tgz:86539.got - 2010.06.27 22:07:45.
