data_PCOD8065160
_publ_section_title
;
Structure prediction by ZEFSAII (Michael W. Deem and Ramdas Pophale) SiO2 
 PCOD8065160
Probable space group: P 2/M
;
_chemical_formula_sum "Si O2"
_cell_formula_units_Z 32
_cell_length_a 15.058252
_cell_length_b 11.277135
_cell_length_c 16.232377
_cell_angle_alpha 90.000000
_cell_angle_beta 143.322543
_cell_angle_gamma 90.000000
_cell_volume 1646.474416
_symmetry_space_group_name_H-M "P 2/M"
_symmetry_group_IT_number 10
_symmetry_cell_setting 'monoclinic'
loop_
_space_group_symop_operation_xyz
x,y,z
-x,y,-z
-x,-y,-z
x,-y,z
loop_
_atom_site_type_symbol
_atom_site_label
_atom_site_fract_x
_atom_site_fract_y
_atom_site_fract_z
Si Si1 0.844850 0.306973 0.696161
Si Si2 0.409295 0.629435 0.609384
Si Si3 0.709479 0.636087 0.759699
Si Si4 0.790516 0.136087 0.240295
Si Si5 0.670140 0.132144 0.976245
Si Si6 0.170140 0.632145 0.976248
Si Si7 0.909299 0.129436 0.609387
Si Si8 0.655151 0.193026 0.303840
O O1 0.734372 0.380308 0.555365
O O2 0.770339 0.284822 0.729665
O O3 0.872443 0.183533 0.670627
O O4 0.999636 0.374746 0.821621
O O5 0.468617 0.500000 0.675653
O O6 0.548858 0.691297 0.666693
O O7 0.372443 0.683533 0.670627
O O8 0.695127 0.500000 0.717442
O O9 0.823254 0.645101 0.920276
O O10 0.676741 0.145101 0.079718
O O11 0.729655 0.215178 0.270329
O O12 0.951137 0.191298 0.333302
O O13 0.804868 0.000000 0.282553
O O14 0.750001 0.250000 0.000001
O O15 0.737522 0.000000 0.001742
O O16 0.499637 0.125254 0.821618
O O17 0.237520 0.500000 0.001742
O O18 0.765633 0.119692 0.444637
O O19 0.968618 0.000000 0.675654
#
# Coordination Sequence:
#
# PCOD8065160 Si02
#       8
#     4   4   4   4   4   4   4   4
#     4  11  21  35  61  86 114 150 194 236 286 341
#     4  10  21  37  58  85 118 150 187 237 289 343
#     4  10  20  37  60  84 112 149 193 237 282 341
#     4  10  20  37  60  84 112 149 193 237 282 341
#     4  11  22  38  59  86 117 152 194 242 289 341
#     4  11  22  38  59  86 117 152 194 242 289 341
#     4  10  21  37  58  85 118 150 187 237 289 343
#     4  11  21  35  61  86 114 150 194 236 286 341
#
# _framework density 19.435468
#
# number of rings (size 3 to 8) (size 9 to 14) (size 15 to 20)
#    0.000    1.500    2.500    3.750    0.000    4.000 
#    0.000    1.250    0.000    6.000    0.000    0.000 
#    0.000    0.000    0.000    0.000    0.000    0.000 
#
# Total GULP energy -396463.144989 kJ/mol
# GULP energy per Si atom -12389.473281 kJ/mol
# Density = 1.939123 g / cm^3
# Si number density = 19.435468 Si / 1000 Ang^3
#
#
#
# Elastic Constant Matrix: (Units=GPa)
#
#
# Indices 1 2 3 4 5 6 
#
# 1 146.7253 65.7511 52.6728 0.0000 -13.7415 0.0000
# 2 65.7511 95.0112 30.5221 0.0000 -11.4647 0.0000
# 3 52.6728 30.5221 136.8853 0.0000 6.4209 0.0000
# 4 0.0000 0.0000 0.0000 6.9439 0.0000 5.8037
# 5 -13.7415 -11.4647 6.4209 0.0000 36.6059 0.0000
# 6 0.0000 0.0000 0.0000 5.8037 0.0000 23.7690
#
#
#
# Elastic Compliance Matrix: (Units=1/GPa)
#
#
# Indices 1 2 3 4 5 6 
#
# 1 0.010943 -0.006314 -0.002927 0.000000 0.002644 0.000000
# 2 -0.006314 0.015601 -0.001177 0.000000 0.002722 0.000000
# 3 -0.002927 -0.001177 0.008836 0.000000 -0.003017 0.000000
# 4 0.000000 0.000000 0.000000 0.180937 0.000000 -0.044180
# 5 0.002644 0.002722 -0.003017 0.000000 0.029692 0.000000
# 6 0.000000 0.000000 0.000000 -0.044180 0.000000 0.052859
#
#
# Mechanical properties :
#
#
# Convention : Reuss Voigt Hill
#
# Bulk Modulus (GPa) = 68.75465 75.16821 71.96143
# Shear Modulus (GPa) = 15.40584 28.77549 22.09067
#
# Velocity S-wave (km/s) = 2.81849 3.85199 3.37503
# Velocity P-wave (km/s) = 6.78561 7.65137 7.23146
#
# Compressibility (1/GPa) = 0.01454447
#
# Stress axis : x y z
#
# Youngs Moduli (GPa) = 91.38084 64.09861 113.17771
#
# Poissons Ratio (x) = 0.40470 0.33128
# Poissons Ratio (y) = 0.57695 0.13319
# Poissons Ratio (z) = 0.26748 0.07543
#
# Static dielectric constant tensor:
#      x y z
#    x 3.565470 0.000000 0.107820 
#    y 0.000000 3.409890 0.000000 
#    z 0.107820 0.000000 3.831480 
# 
# 
# High freq. dielectric constant tensor:
#      x y z
#    x 1.747130 0.000000 0.007040 
#    y 0.000000 1.727010 0.000000 
#    z 0.007040 0.000000 1.784720 
# 
# From -- ./inp_files/67370.got.cif
#   From: 2010.06.25/outbox.cif.g09.slc.cpg/sg10_34_cif.got.tgz:67370.got - 2010.06.27 22:07:45.
