data_PCOD8065871
_publ_section_title
;
Structure prediction by ZEFSAII (Michael W. Deem and Ramdas Pophale) SiO2 
 PCOD8065871
Probable space group: P 2/M
;
_chemical_formula_sum "Si O2"
_cell_formula_units_Z 28
_cell_length_a 22.516272
_cell_length_b 8.531072
_cell_length_c 24.865137
_cell_angle_alpha 90.000000
_cell_angle_beta 17.101023
_cell_angle_gamma 90.000000
_cell_volume 1404.504222
_symmetry_space_group_name_H-M "P 2/M"
_symmetry_group_IT_number 10
_symmetry_cell_setting 'monoclinic'
loop_
_space_group_symop_operation_xyz
x,y,z
-x,y,-z
-x,-y,-z
x,-y,z
loop_
_atom_site_type_symbol
_atom_site_label
_atom_site_fract_x
_atom_site_fract_y
_atom_site_fract_z
Si Si1 0.181828 0.678221 0.882825
Si Si2 0.154273 0.316060 0.117656
Si Si3 0.454778 0.178282 0.482398
Si Si4 0.266525 0.185532 0.540549
Si Si5 0.204102 0.313601 0.295871
Si Si6 0.360260 0.313902 0.047512
Si Si7 0.698625 0.817464 0.119422
O O1 0.261476 0.500000 0.809055
O O2 0.342654 0.808774 0.727088
O O3 0.142715 0.721753 0.979288
O O4 0.000000 0.704709 0.000000
O O5 0.188550 0.500000 0.081525
O O6 0.257304 0.249532 0.082574
O O7 0.916930 0.278799 0.326911
O O8 0.260189 0.227667 0.977202
O O9 0.500000 0.269983 0.500000
O O10 0.283104 0.241028 0.589686
O O11 0.402558 0.000000 0.541492
O O12 0.467996 0.229801 0.333184
O O13 0.226915 0.000000 0.572681
O O14 0.189797 0.500000 0.309430
O O15 0.230760 0.253887 0.211168
O O16 0.000000 0.242586 0.500000
O O17 0.405708 0.257222 0.153171
O O18 0.356508 0.500000 0.051797
O O19 0.738926 0.000000 0.092561
#
# Coordination Sequence:
#
# PCOD8065871 Si02
#       7
#     4   4   4   4   4   4   4
#     4  10  21  35  52  79 107 130 165 220 284 337
#     4  11  22  34  54  83 116 148 177 223 285 334
#     4   9  19  35  54  76  99 133 179 221 266 326
#     4   9  20  38  55  75 103 140 186 228 268 324
#     4   8  13  25  46  69 102 146 183 215 254 307
#     4   8  16  28  42  72 110 141 178 217 260 320
#     4  10  22  40  58  75 102 144 190 229 267 326
#
# _framework density 19.935860999999999
#
# number of rings (size 3 to 8) (size 9 to 14) (size 15 to 20)
#    0.000    2.714    0.000    3.000    2.000    5.429 
#    0.000    2.857    0.000    0.000    0.000    8.000 
#    0.000   13.714    0.000    0.000    0.000    0.000 
#
# Total GULP energy -346869.389903 kJ/mol
# GULP energy per Si atom -12388.192497 kJ/mol
# Density = 1.989049 g / cm^3
# Si number density = 19.935861 Si / 1000 Ang^3
#
#
#
# Elastic Constant Matrix: (Units=GPa)
#
#
# Indices 1 2 3 4 5 6 
#
# 1 188.3171 24.0054 76.1754 0.0000 -13.7047 0.0000
# 2 24.0054 25.2232 18.7475 0.0000 -7.0159 0.0000
# 3 76.1754 18.7475 118.3775 0.0000 -1.1365 0.0000
# 4 0.0000 0.0000 0.0000 21.7995 0.0000 4.0603
# 5 -13.7047 -7.0159 -1.1365 0.0000 29.5327 0.0000
# 6 0.0000 0.0000 0.0000 4.0603 0.0000 11.7369
#
#
#
# Elastic Compliance Matrix: (Units=1/GPa)
#
#
# Indices 1 2 3 4 5 6 
#
# 1 0.007708 -0.003333 -0.004407 0.000000 0.002616 0.000000
# 2 -0.003333 0.049817 -0.005648 0.000000 0.010071 0.000000
# 3 -0.004407 -0.005648 0.012150 0.000000 -0.002919 0.000000
# 4 0.000000 0.000000 0.000000 0.049032 0.000000 -0.016962
# 5 0.002616 0.010071 -0.002919 0.000000 0.037355 0.000000
# 6 0.000000 0.000000 0.000000 -0.016962 0.000000 0.091070
#
#
# Mechanical properties :
#
#
# Convention : Reuss Voigt Hill
#
# Bulk Modulus (GPa) = 23.31061 63.30828 43.30945
# Shear Modulus (GPa) = 17.34861 26.81312 22.08086
#
# Velocity S-wave (km/s) = 2.95315 3.67136 3.33167
# Velocity P-wave (km/s) = 4.83180 7.05668 6.04744
#
# Compressibility (1/GPa) = 0.04289891
#
# Stress axis : x y z
#
# Youngs Moduli (GPa) = 129.73333 20.07341 82.30395
#
# Poissons Ratio (x) = 0.06690 0.36273
# Poissons Ratio (y) = 0.43236 0.46488
# Poissons Ratio (z) = 0.57177 0.11338
#
# Static dielectric constant tensor:
#      x y z
#    x 4.093850 0.000000 -0.045360 
#    y 0.000000 3.212400 0.000000 
#    z -0.045360 0.000000 3.637780 
# 
# 
# High freq. dielectric constant tensor:
#      x y z
#    x 1.790500 0.000000 -0.001290 
#    y 0.000000 1.739550 0.000000 
#    z -0.001290 0.000000 1.769720 
# 
# From -- ./inp_files/90367.got.cif
#   From: 2010.06.25/outbox.cif.g09.slc.cpg/sg10_46_cif.got.tgz:90367.got - 2010.06.27 22:07:45.
