data_PCOD8065815
_publ_section_title
;
Structure prediction by ZEFSAII (Michael W. Deem and Ramdas Pophale) SiO2 
 PCOD8065815
Probable space group: P 2/M
;
_chemical_formula_sum "Si O2"
_cell_formula_units_Z 32
_cell_length_a 23.760459
_cell_length_b 8.739056
_cell_length_c 17.663511
_cell_angle_alpha 90.000000
_cell_angle_beta 149.033768
_cell_angle_gamma 90.000000
_cell_volume 1887.163156
_symmetry_space_group_name_H-M "P 2/M"
_symmetry_group_IT_number 10
_symmetry_cell_setting 'monoclinic'
loop_
_space_group_symop_operation_xyz
x,y,z
-x,y,-z
-x,-y,-z
x,-y,z
loop_
_atom_site_type_symbol
_atom_site_label
_atom_site_fract_x
_atom_site_fract_y
_atom_site_fract_z
Si Si1 0.411821 0.181241 0.744138
Si Si2 0.383257 0.181463 0.389225
Si Si3 0.635152 0.679016 0.046227
Si Si4 0.690967 0.180171 0.851897
Si Si5 0.190403 0.321650 0.878813
Si Si6 0.244554 0.319570 0.663034
Si Si7 0.553153 0.819392 0.381727
Si Si8 0.982585 0.820118 0.565620
O O1 0.521843 0.230843 0.913711
O O2 0.306314 0.247987 0.663226
O O3 0.411552 0.250487 0.658263
O O4 0.405047 0.000000 0.736834
O O5 0.500000 0.249916 0.500000
O O6 0.296329 0.227700 0.223168
O O7 0.364254 0.237069 0.454685
O O8 0.391590 0.000000 0.398877
O O9 0.608685 0.500000 0.019494
O O10 0.707696 0.721410 0.057175
O O11 0.699597 0.735266 0.194677
O O12 0.570788 0.228189 0.742046
O O13 0.711679 0.000000 0.887743
O O14 0.779867 0.276148 0.001100
O O15 0.161267 0.500000 0.839288
O O16 0.086987 0.222671 0.735567
O O17 0.247670 0.500000 0.659457
O O18 0.120547 0.263976 0.517230
O O19 0.559566 0.000000 0.382402
O O20 0.000000 0.761941 0.500000
O O21 0.962185 0.000000 0.544598
#
# Coordination Sequence:
#
# PCOD8065815 Si02
#       8
#     4   4   4   4   4   4   4   4
#     4  11  21  32  50  76 104 132 170 213 249 287
#     4   7  11  21  41  67  96 129 163 198 240 292
#     4  10  21  35  50  69  98 137 172 201 242 301
#     4   9  15  27  47  72  99 129 168 207 243 286
#     4  11  21  33  51  74 102 135 167 200 249 304
#     4  11  23  39  54  69  97 135 173 206 248 303
#     4   8  14  25  43  70 101 132 163 201 247 291
#     4  11  23  38  57  77  96 121 164 217 258 291
#
# _framework density 16.956668000000001
#
# number of rings (size 3 to 8) (size 9 to 14) (size 15 to 20)
#    0.000    2.250    2.500    3.375    0.000    3.500 
#    0.000    0.000    0.000    4.875    0.000    0.875 
#    0.000    7.000    0.000    0.000    0.000    0.000 
#
# Total GULP energy -396610.670410 kJ/mol
# GULP energy per Si atom -12394.083450 kJ/mol
# Density = 1.691807 g / cm^3
# Si number density = 16.956668 Si / 1000 Ang^3
#
#
#
# Elastic Constant Matrix: (Units=GPa)
#
#
# Indices 1 2 3 4 5 6 
#
# 1 70.1043 21.2196 47.3827 0.0000 -9.4554 0.0000
# 2 21.2196 34.3901 15.6308 0.0000 -1.7096 0.0000
# 3 47.3827 15.6308 82.5223 0.0000 -15.6527 0.0000
# 4 0.0000 0.0000 0.0000 20.6273 0.0000 4.3338
# 5 -9.4554 -1.7096 -15.6527 0.0000 33.3878 0.0000
# 6 0.0000 0.0000 0.0000 4.3338 0.0000 17.4538
#
#
#
# Elastic Compliance Matrix: (Units=1/GPa)
#
#
# Indices 1 2 3 4 5 6 
#
# 1 0.026248 -0.010259 -0.012971 0.000000 0.000827 0.000000
# 2 -0.010259 0.035880 -0.001216 0.000000 -0.001638 0.000000
# 3 -0.012971 -0.001216 0.020951 0.000000 0.006086 0.000000
# 4 0.000000 0.000000 0.000000 0.051148 0.000000 -0.012700
# 5 0.000827 -0.001638 0.006086 0.000000 0.032955 0.000000
# 6 0.000000 0.000000 0.000000 -0.012700 0.000000 0.060448
#
#
# Mechanical properties :
#
#
# Convention : Reuss Voigt Hill
#
# Bulk Modulus (GPa) = 29.25227 39.49809 34.37518
# Shear Modulus (GPa) = 17.36610 21.14601 19.25606
#
# Velocity S-wave (km/s) = 3.20370 3.53521 3.37353
# Velocity P-wave (km/s) = 5.56539 6.32516 5.95740
#
# Compressibility (1/GPa) = 0.03418538
#
# Stress axis : x y z
#
# Youngs Moduli (GPa) = 38.09747 27.87089 47.73139
#
# Poissons Ratio (x) = 0.28593 0.61914
# Poissons Ratio (y) = 0.39085 0.05805
# Poissons Ratio (z) = 0.49417 0.03390
#
# Static dielectric constant tensor:
#      x y z
#    x 3.409690 0.000000 -0.412900 
#    y 0.000000 2.943340 0.000000 
#    z -0.412900 0.000000 3.198310 
# 
# 
# High freq. dielectric constant tensor:
#      x y z
#    x 1.639950 0.000000 -0.027620 
#    y 0.000000 1.637690 0.000000 
#    z -0.027620 0.000000 1.643610 
# 
# From -- ./inp_files/79963.got.cif
#   From: 2010.06.25/outbox.cif.g09.slc.cpg/sg10_40_cif.got.tgz:79963.got - 2010.06.27 22:07:45.
