data_PCOD8065904
_publ_section_title
;
Structure prediction by ZEFSAII (Michael W. Deem and Ramdas Pophale) SiO2 
 PCOD8065904
Probable space group: P 2/M
;
_chemical_formula_sum "Si O2"
_cell_formula_units_Z 32
_cell_length_a 12.180256
_cell_length_b 16.384322
_cell_length_c 9.932046
_cell_angle_alpha 90.000000
_cell_angle_beta 49.990729
_cell_angle_gamma 90.000000
_cell_volume 1518.163703
_symmetry_space_group_name_H-M "P 2/M"
_symmetry_group_IT_number 10
_symmetry_cell_setting 'monoclinic'
loop_
_space_group_symop_operation_xyz
x,y,z
-x,y,-z
-x,-y,-z
x,-y,z
loop_
_atom_site_type_symbol
_atom_site_label
_atom_site_fract_x
_atom_site_fract_y
_atom_site_fract_z
Si Si1 0.362143 0.406652 0.684256
Si Si2 0.125854 0.593651 0.651695
Si Si3 0.603830 0.091738 0.814148
Si Si4 0.199213 0.404176 0.066488
Si Si5 0.161914 0.330850 0.360533
Si Si6 0.946691 0.904523 0.190439
Si Si7 0.625677 0.902660 0.498629
Si Si8 0.114827 0.147722 0.307992
O O1 0.500000 0.364218 0.500000
O O2 0.407446 0.500000 0.674827
O O3 0.218971 0.399350 0.711020
O O4 0.310978 0.366435 0.867824
O O5 0.116193 0.500000 0.608814
O O6 0.214149 0.648065 0.470614
O O7 0.966256 0.628012 0.814281
O O8 0.605008 0.133651 0.665870
O O9 0.753158 0.087759 0.775520
O O10 0.547377 0.000000 0.836314
O O11 0.500000 0.139583 0.000000
O O12 0.199680 0.500000 0.043681
O O13 0.251593 0.379438 0.175522
O O14 0.165490 0.236504 0.317570
O O15 0.000000 0.365422 0.500000
O O16 0.782547 0.873486 0.326773
O O17 0.049871 0.853538 0.209030
O O18 0.958454 0.000000 0.218354
O O19 0.000000 0.885888 0.000000
O O20 0.500000 0.868370 0.500000
O O21 0.621370 0.000000 0.502728
O O22 0.000000 0.111270 0.500000
#
# Coordination Sequence:
#
# PCOD8065904 Si02
#       8
#     4   4   4   4   4   4   4   4
#     4   9  17  29  48  78 110 136 169 217 269 318
#     4   9  16  30  53  79 106 137 176 222 269 318
#     4  10  21  35  56  82 107 142 183 225 270 320
#     4   9  16  30  53  79 104 135 177 220 263 312
#     4   9  19  33  52  79 104 137 176 224 270 315
#     4  10  21  35  56  85 112 140 177 224 275 328
#     4   9  18  33  53  81 112 137 169 218 270 318
#     4  11  21  37  56  79 111 146 185 225 276 327
#
# _framework density 21.078095999999999
#
# number of rings (size 3 to 8) (size 9 to 14) (size 15 to 20)
#    0.000    2.500    1.250    1.125    1.750    3.500 
#    0.000    5.625    0.000    3.750    0.000    0.000 
#    0.000    0.000    0.000    0.000    0.000    0.125 
#
# Total GULP energy -396424.916763 kJ/mol
# GULP energy per Si atom -12388.278649 kJ/mol
# Density = 2.103012 g / cm^3
# Si number density = 21.078096 Si / 1000 Ang^3
#
#
#
# Elastic Constant Matrix: (Units=GPa)
#
#
# Indices 1 2 3 4 5 6 
#
# 1 98.2474 5.2518 59.4086 0.0000 6.2813 0.0000
# 2 5.2518 29.1739 20.9118 0.0000 6.1345 0.0000
# 3 59.4086 20.9118 211.5878 0.0000 10.2922 0.0000
# 4 0.0000 0.0000 0.0000 11.5203 0.0000 2.5318
# 5 6.2813 6.1345 10.2922 0.0000 32.4343 0.0000
# 6 0.0000 0.0000 0.0000 2.5318 0.0000 10.7124
#
#
#
# Elastic Compliance Matrix: (Units=1/GPa)
#
#
# Indices 1 2 3 4 5 6 
#
# 1 0.012322 0.000545 -0.003446 0.000000 -0.001396 0.000000
# 2 0.000545 0.038066 -0.003616 0.000000 -0.006158 0.000000
# 3 -0.003446 -0.003616 0.006079 0.000000 -0.000578 0.000000
# 4 0.000000 0.000000 0.000000 0.091559 0.000000 -0.021640
# 5 -0.001396 -0.006158 -0.000578 0.000000 0.032450 0.000000
# 6 0.000000 0.000000 0.000000 -0.021640 0.000000 0.098464
#
#
# Mechanical properties :
#
#
# Convention : Reuss Voigt Hill
#
# Bulk Modulus (GPa) = 23.02322 56.68372 39.85347
# Shear Modulus (GPa) = 16.31586 27.82920 22.07253
#
# Velocity S-wave (km/s) = 2.78522 3.63752 3.23952
# Velocity P-wave (km/s) = 4.61409 6.67778 5.73945
#
# Compressibility (1/GPa) = 0.04343442
#
# Stress axis : x y z
#
# Youngs Moduli (GPa) = 81.15523 26.27047 164.49806
#
# Poissons Ratio (x) = -0.01432 0.56681
# Poissons Ratio (y) = -0.04425 0.59477
# Poissons Ratio (z) = 0.27964 0.09499
#
# Static dielectric constant tensor:
#      x y z
#    x 3.502670 0.000000 0.225240 
#    y 0.000000 3.255140 0.000000 
#    z 0.225240 0.000000 4.234670 
# 
# 
# High freq. dielectric constant tensor:
#      x y z
#    x 1.809490 0.000000 0.012000 
#    y 0.000000 1.774330 0.000000 
#    z 0.012000 0.000000 1.844410 
# 
# From -- ./inp_files/26046.got.cif
#   From: 2010.06.25/outbox.cif.g09.slc.cpg/sg10_14_cif.got.tgz:26046.got - 2010.06.27 22:07:45.
