data_PCOD8065272
_publ_section_title
;
Structure prediction by ZEFSAII (Michael W. Deem and Ramdas Pophale) SiO2 
 PCOD8065272
Probable space group: P 2/M
;
_chemical_formula_sum "Si O2"
_cell_formula_units_Z 24
_cell_length_a 22.687946
_cell_length_b 8.825013
_cell_length_c 11.316156
_cell_angle_alpha 90.000000
_cell_angle_beta 31.319093
_cell_angle_gamma 90.000000
_cell_volume 1177.738645
_symmetry_space_group_name_H-M "P 2/M"
_symmetry_group_IT_number 10
_symmetry_cell_setting 'monoclinic'
loop_
_space_group_symop_operation_xyz
x,y,z
-x,y,-z
-x,-y,-z
x,-y,z
loop_
_atom_site_type_symbol
_atom_site_label
_atom_site_fract_x
_atom_site_fract_y
_atom_site_fract_z
Si Si1 0.744905 0.175523 0.343651
Si Si2 0.627265 0.174802 0.306261
Si Si3 0.041513 0.820348 0.162762
Si Si4 0.817598 0.676284 0.597677
Si Si5 0.370040 0.180639 0.224412
Si Si6 0.169096 0.674978 0.152816
O O1 0.652330 0.203897 0.400723
O O2 0.695010 0.248744 0.548734
O O3 0.762127 0.000000 0.338916
O O4 0.867203 0.240245 0.091025
O O5 0.500000 0.222463 0.500000
O O6 0.651811 0.000000 0.230694
O O7 0.701764 0.283214 0.097017
O O8 0.084491 0.775894 0.219848
O O9 0.919885 0.745521 0.343697
O O10 0.029425 0.000000 0.177278
O O11 0.805209 0.500000 0.592098
O O12 0.698408 0.756642 0.771127
O O13 0.850563 0.709204 0.676294
O O14 0.369312 0.000000 0.223064
O O15 0.500000 0.239395 0.000000
O O16 0.145002 0.500000 0.164723
#
# Coordination Sequence:
#
# PCOD8065272 Si02
#       6
#     4   4   4   4   4   4
#     4   8  17  35  55  83 115 141 180 239 290 323
#     4   9  18  32  56  84 112 147 188 236 281 331
#     4  10  20  37  62  87 114 146 188 239 288 339
#     4  11  24  39  56  82 119 155 189 233 285 339
#     4  10  22  39  61  84 110 149 195 237 279 336
#     4  10  21  36  54  82 120 153 183 229 287 343
#
# _framework density 20.378036000000002
#
# number of rings (size 3 to 8) (size 9 to 14) (size 15 to 20)
#    0.000    2.333    0.000    3.000    2.333    6.000 
#    0.000    7.500    0.000    0.000    0.000    0.000 
#    0.000    0.000    0.000    0.000    0.000    0.000 
#
# Total GULP energy -297564.750689 kJ/mol
# GULP energy per Si atom -12398.531279 kJ/mol
# Density = 2.033165 g / cm^3
# Si number density = 20.378036 Si / 1000 Ang^3
#
#
#
# Elastic Constant Matrix: (Units=GPa)
#
#
# Indices 1 2 3 4 5 6 
#
# 1 43.9587 24.2339 48.0367 0.0000 -11.0562 0.0000
# 2 24.2339 38.8898 33.1081 0.0000 0.5035 0.0000
# 3 48.0367 33.1081 125.7813 0.0000 -12.5817 0.0000
# 4 0.0000 0.0000 0.0000 18.4843 0.0000 -1.2622
# 5 -11.0562 0.5035 -12.5817 0.0000 38.8035 0.0000
# 6 0.0000 0.0000 0.0000 -1.2622 0.0000 22.5549
#
#
#
# Elastic Compliance Matrix: (Units=1/GPa)
#
#
# Indices 1 2 3 4 5 6 
#
# 1 0.051137 -0.020987 -0.012940 0.000000 0.010647 0.000000
# 2 -0.020987 0.042184 -0.003867 0.000000 -0.007781 0.000000
# 3 -0.012940 -0.003867 0.014001 0.000000 0.000903 0.000000
# 4 0.000000 0.000000 0.000000 0.054308 0.000000 0.003039
# 5 0.010647 -0.007781 0.000903 0.000000 0.029198 0.000000
# 6 0.000000 0.000000 0.000000 0.003039 0.000000 0.044506
#
#
# Mechanical properties :
#
#
# Convention : Reuss Voigt Hill
#
# Bulk Modulus (GPa) = 31.51270 46.59857 39.05564
# Shear Modulus (GPa) = 15.55208 22.85196 19.20202
#
# Velocity S-wave (km/s) = 2.76557 3.35237 3.07300
# Velocity P-wave (km/s) = 5.06907 6.15639 5.63900
#
# Compressibility (1/GPa) = 0.03173323
#
# Stress axis : x y z
#
# Youngs Moduli (GPa) = 19.55523 23.70551 71.42596
#
# Poissons Ratio (x) = 0.49751 0.92429
# Poissons Ratio (y) = 0.41040 0.27620
# Poissons Ratio (z) = 0.25305 0.09167
#
# Static dielectric constant tensor:
#      x y z
#    x 3.616480 0.000000 0.010810 
#    y 0.000000 3.426400 0.000000 
#    z 0.010810 0.000000 4.098660 
# 
# 
# High freq. dielectric constant tensor:
#      x y z
#    x 1.792250 0.000000 -0.007360 
#    y 0.000000 1.771030 0.000000 
#    z -0.007360 0.000000 1.808280 
# 
# From -- ./inp_files/56534.got.cif
#   From: 2010.06.25/outbox.cif.g09.slc.cpg/sg10_29_cif.got.tgz:56534.got - 2010.06.27 22:07:45.
