data_PCOD8065342
_publ_section_title
;
Structure prediction by ZEFSAII (Michael W. Deem and Ramdas Pophale) SiO2 
 PCOD8065342
Probable space group: P 2/M
;
_chemical_formula_sum "Si O2"
_cell_formula_units_Z 28
_cell_length_a 8.828290
_cell_length_b 13.816577
_cell_length_c 12.066920
_cell_angle_alpha 90.000000
_cell_angle_beta 115.182462
_cell_angle_gamma 90.000000
_cell_volume 1331.991927
_symmetry_space_group_name_H-M "P 2/M"
_symmetry_group_IT_number 10
_symmetry_cell_setting 'monoclinic'
loop_
_space_group_symop_operation_xyz
x,y,z
-x,y,-z
-x,-y,-z
x,-y,z
loop_
_atom_site_type_symbol
_atom_site_label
_atom_site_fract_x
_atom_site_fract_y
_atom_site_fract_z
Si Si1 0.148059 0.106708 0.962398
Si Si2 0.811135 0.389863 0.482170
Si Si3 0.633925 0.751590 0.845393
Si Si4 0.687124 0.229643 0.602990
Si Si5 0.695593 0.607523 0.038269
Si Si6 0.739916 0.727612 0.260681
Si Si7 0.007563 0.113455 0.679494
O O1 0.074691 0.135325 0.821845
O O2 0.221232 0.000000 0.982237
O O3 0.300093 0.169529 0.049139
O O4 0.000000 0.120081 0.000000
O O5 0.764398 0.500000 0.495918
O O6 0.764265 0.327984 0.576309
O O7 0.705688 0.352775 0.344865
O O8 0.000000 0.378275 0.500000
O O9 0.688031 0.760811 0.735415
O O10 0.440274 0.775321 0.805119
O O11 0.708892 0.651106 0.917949
O O12 0.500000 0.207972 0.500000
O O13 0.811146 0.141090 0.607989
O O14 0.775740 0.500000 0.064993
O O15 0.789913 0.673170 0.161131
O O16 0.500000 0.602241 0.000000
O O17 0.873771 0.808852 0.348465
O O18 0.029470 0.000000 0.649706
#
# Coordination Sequence:
#
# PCOD8065342 Si02
#       7
#     4   4   4   4   4   4   4
#     4  10  20  37  63  93 126 165 207 257 323 388
#     4  11  24  43  68  94 126 177 223 260 311 383
#     4  11  22  37  65  97 129 168 206 270 319 376
#     4  12  25  44  65  93 133 170 217 266 317 382
#     4   9  19  35  58  91 126 163 203 256 320 378
#     4  11  21  41  65  93 131 166 214 267 324 381
#     4  11  24  42  68  94 125 168 215 269 332 389
#
# _framework density 21.021148
#
# number of rings (size 3 to 8) (size 9 to 14) (size 15 to 20)
#    0.000    1.286    5.714    0.429    0.000    2.286 
#    0.000    2.857    0.000    1.286    0.000    0.000 
#    0.000    0.000    0.000    0.000    0.000    0.000 
#
# Total GULP energy -346921.014557 kJ/mol
# GULP energy per Si atom -12390.036234 kJ/mol
# Density = 2.097330 g / cm^3
# Si number density = 21.021148 Si / 1000 Ang^3
#
#
#
# Elastic Constant Matrix: (Units=GPa)
#
#
# Indices 1 2 3 4 5 6 
#
# 1 71.0964 43.4554 20.0591 0.0000 16.5501 0.0000
# 2 43.4554 142.1313 41.1795 0.0000 18.0101 0.0000
# 3 20.0591 41.1795 84.8822 0.0000 -1.8714 0.0000
# 4 0.0000 0.0000 0.0000 23.7048 0.0000 0.3555
# 5 16.5501 18.0101 -1.8714 0.0000 37.5892 0.0000
# 6 0.0000 0.0000 0.0000 0.3555 0.0000 24.7189
#
#
#
# Elastic Compliance Matrix: (Units=1/GPa)
#
#
# Indices 1 2 3 4 5 6 
#
# 1 0.018852 -0.004212 -0.002553 0.000000 -0.006409 0.000000
# 2 -0.004212 0.009820 -0.003836 0.000000 -0.003042 0.000000
# 3 -0.002553 -0.003836 0.014326 0.000000 0.003675 0.000000
# 4 0.000000 0.000000 0.000000 0.042195 0.000000 -0.000607
# 5 -0.006409 -0.003042 0.003675 0.000000 0.031066 0.000000
# 6 0.000000 0.000000 0.000000 -0.000607 0.000000 0.040464
#
#
# Mechanical properties :
#
#
# Convention : Reuss Voigt Hill
#
# Bulk Modulus (GPa) = 45.87793 56.38867 51.13330
# Shear Modulus (GPa) = 26.99924 30.09695 28.54810
#
# Velocity S-wave (km/s) = 3.58772 3.78795 3.68919
# Velocity P-wave (km/s) = 6.24775 6.78339 6.52107
#
# Compressibility (1/GPa) = 0.02179698
#
# Stress axis : x y z
#
# Youngs Moduli (GPa) = 53.04427 101.82941 69.80163
#
# Poissons Ratio (x) = 0.42891 0.17820
# Poissons Ratio (y) = 0.22343 0.26775
# Poissons Ratio (z) = 0.13542 0.39061
#
# Static dielectric constant tensor:
#      x y z
#    x 3.740110 0.000000 0.182130 
#    y 0.000000 4.048350 0.000000 
#    z 0.182130 0.000000 4.258850 
# 
# 
# High freq. dielectric constant tensor:
#      x y z
#    x 1.807960 0.000000 0.001530 
#    y 0.000000 1.824540 0.000000 
#    z 0.001530 0.000000 1.837480 
# 
# From -- ./inp_files/25407.got.cif
#   From: 2010.06.25/outbox.cif.g09.slc.cpg/sg10_13_cif.got.tgz:25407.got - 2010.06.27 22:07:45.
