data_PCOD8065034
_publ_section_title
;
Structure prediction by ZEFSAII (Michael W. Deem and Ramdas Pophale) SiO2 
 PCOD8065034
Probable space group: P 2/M
;
_chemical_formula_sum "Si O2"
_cell_formula_units_Z 28
_cell_length_a 9.771056
_cell_length_b 14.432669
_cell_length_c 12.308346
_cell_angle_alpha 90.000000
_cell_angle_beta 65.808648
_cell_angle_gamma 90.000000
_cell_volume 1583.322333
_symmetry_space_group_name_H-M "P 2/M"
_symmetry_group_IT_number 10
_symmetry_cell_setting 'monoclinic'
loop_
_space_group_symop_operation_xyz
x,y,z
-x,y,-z
-x,-y,-z
x,-y,z
loop_
_atom_site_type_symbol
_atom_site_label
_atom_site_fract_x
_atom_site_fract_y
_atom_site_fract_z
Si Si1 0.403096 0.394959 0.742832
Si Si2 0.781869 0.289159 0.371527
Si Si3 0.150948 0.898802 0.312222
Si Si4 0.798656 0.898740 0.463984
Si Si5 0.123775 0.709929 0.232843
Si Si6 0.341440 0.607421 0.007403
Si Si7 0.750253 0.607418 0.606056
O O1 0.371763 0.500000 0.714359
O O2 0.336500 0.325877 0.676518
O O3 0.579218 0.377475 0.697270
O O4 0.327433 0.376409 0.883617
O O5 0.726763 0.184770 0.418289
O O6 0.781418 0.352562 0.477694
O O7 0.946866 0.289806 0.264964
O O8 0.241384 0.886021 0.395742
O O9 0.190445 0.814790 0.218254
O O10 0.976198 0.893231 0.394721
O O11 0.190844 0.000000 0.248006
O O12 0.740220 0.000000 0.442373
O O13 0.204818 0.660775 0.106881
O O14 0.146355 0.658700 0.340173
O O15 0.326368 0.500000 0.044230
O O16 0.500000 0.645632 0.000000
O O17 0.794343 0.500000 0.591204
#
# Coordination Sequence:
#
# PCOD8065034 Si02
#       7
#     4   4   4   4   4   4   4
#     4  10  22  38  53  70 101 147 181 203 248 313
#     4  11  21  32  51  83 111 128 164 218 269 304
#     4   8  14  27  48  76 105 131 165 207 255 309
#     4   8  14  27  48  73 105 138 164 199 252 315
#     4  11  20  32  55  82 102 131 174 222 256 289
#     4  10  20  37  56  72  96 139 188 214 239 302
#     4  11  21  34  51  74 107 143 171 202 257 319
#
# _framework density 17.684332999999999
#
# number of rings (size 3 to 8) (size 9 to 14) (size 15 to 20)
#    0.000    2.143    2.857    2.571    0.000    4.571 
#    0.000    1.429    0.000    3.857    0.000    4.000 
#    0.000    0.000    0.000    0.000    0.000    0.000 
#
# Total GULP energy -347141.292960 kJ/mol
# GULP energy per Si atom -12397.903320 kJ/mol
# Density = 1.764408 g / cm^3
# Si number density = 17.684333 Si / 1000 Ang^3
#
#
#
# Elastic Constant Matrix: (Units=GPa)
#
#
# Indices 1 2 3 4 5 6 
#
# 1 24.8624 16.1695 -1.5789 0.0000 9.0934 0.0000
# 2 16.1695 113.4305 21.6663 0.0000 5.3767 0.0000
# 3 -1.5789 21.6663 56.0156 0.0000 -5.4050 0.0000
# 4 0.0000 0.0000 0.0000 10.9352 0.0000 15.6439
# 5 9.0934 5.3767 -5.4050 0.0000 23.2173 0.0000
# 6 0.0000 0.0000 0.0000 15.6439 0.0000 13.3908
#
#
#
# Elastic Compliance Matrix: (Units=1/GPa)
#
#
# Indices 1 2 3 4 5 6 
#
# 1 0.051469 -0.006943 0.002400 0.000000 -0.017992 0.000000
# 2 -0.006943 0.010684 -0.004403 0.000000 -0.000780 0.000000
# 3 0.002400 -0.004403 0.020082 0.000000 0.004755 0.000000
# 4 0.000000 0.000000 0.000000 -0.136222 0.000000 0.159143
# 5 -0.017992 -0.000780 0.004755 0.000000 0.051406 0.000000
# 6 0.000000 0.000000 0.000000 0.159143 0.000000 -0.111242
#
#
# Mechanical properties :
#
#
# Convention : Reuss Voigt Hill
#
# Bulk Modulus (GPa) = 15.54165 29.64691 22.59428
# Shear Modulus (GPa) = -67.12841 20.04542 -23.54149
#
# Velocity S-wave (km/s) = -6.16779 3.37042 -3.65253
# Velocity P-wave (km/s) = 6.47416 5.65219 2.23244
#
# Compressibility (1/GPa) = 0.06434322
#
# Stress axis : x y z
#
# Youngs Moduli (GPa) = 19.42901 93.60074 49.79639
#
# Poissons Ratio (x) = 0.64983 -0.11951
# Poissons Ratio (y) = 0.13489 0.21927
# Poissons Ratio (z) = -0.04663 0.41215
#
# Static dielectric constant tensor:
#      x y z
#    x 3.016520 0.000000 0.010660 
#    y 0.000000 3.728920 0.000000 
#    z 0.010660 0.000000 3.090030 
# 
# 
# High freq. dielectric constant tensor:
#      x y z
#    x 1.660700 0.000000 0.001470 
#    y 0.000000 1.693630 0.000000 
#    z 0.001470 0.000000 1.662390 
# 
# From -- ./inp_files/25027.got.cif
#   From: 2010.06.25/outbox.cif.g09.slc.cpg/sg10_13_cif.got.tgz:25027.got - 2010.06.27 22:07:45.
