data_PCOD8065020
_publ_section_title
;
Structure prediction by ZEFSAII (Michael W. Deem and Ramdas Pophale) SiO2 
 PCOD8065020
Probable space group: P 2/M
;
_chemical_formula_sum "Si O2"
_cell_formula_units_Z 28
_cell_length_a 30.650702
_cell_length_b 10.872372
_cell_length_c 23.383619
_cell_angle_alpha 90.000000
_cell_angle_beta 169.296736
_cell_angle_gamma 90.000000
_cell_volume 1447.242114
_symmetry_space_group_name_H-M "P 2/M"
_symmetry_group_IT_number 10
_symmetry_cell_setting 'monoclinic'
loop_
_space_group_symop_operation_xyz
x,y,z
-x,y,-z
-x,-y,-z
x,-y,z
loop_
_atom_site_type_symbol
_atom_site_label
_atom_site_fract_x
_atom_site_fract_y
_atom_site_fract_z
Si Si1 0.748830 0.639118 0.663945
Si Si2 0.675093 0.000000 0.627137
Si Si3 0.799017 0.000000 0.654129
Si Si4 0.049329 0.642670 0.285451
Si Si5 0.554054 0.252959 0.634024
Si Si6 0.877255 0.356797 0.281103
Si Si7 0.244005 0.355717 0.659197
Si Si8 0.385140 0.748283 0.624748
O O1 0.799491 0.500000 0.712213
O O2 0.587105 0.647250 0.511023
O O3 0.615168 0.701471 0.440220
O O4 0.000000 0.706163 0.000000
O O5 0.523785 0.883365 0.450227
O O6 0.699453 0.000000 0.590181
O O7 0.918369 0.000000 0.976038
O O8 0.705341 0.112352 0.494964
O O9 0.972342 0.500000 0.185392
O O10 0.179774 0.677244 0.511837
O O11 0.216609 0.667718 0.447415
O O12 0.828741 0.732659 0.998613
O O13 0.500000 0.286543 0.500000
O O14 0.805138 0.500000 0.177677
O O15 0.000000 0.342371 0.500000
O O16 0.050990 0.305938 0.455474
O O17 0.649899 0.268618 0.988343
O O18 0.260182 0.500000 0.690678
O O19 0.500000 0.295626 0.000000
#
# Coordination Sequence:
#
# PCOD8065020 Si02
#       8
#     4   2   2   4   4   4   4   4
#     4  11  22  36  56  83 117 157 197 246 312 373
#     4  11  23  44  64  84 114 162 216 267 299 362
#     4  11  24  42  67  86 113 158 223 266 305 345
#     4  11  23  37  58  91 127 159 195 250 316 376
#     4  12  24  38  59  85 119 157 201 251 306 364
#     4  10  20  36  63  96 127 163 204 246 305 378
#     4   9  18  34  56  86 124 158 192 238 293 359
#     4  12  23  40  62  88 119 163 210 262 304 364
#
# _framework density 19.347144
#
# number of rings (size 3 to 8) (size 9 to 14) (size 15 to 20)
#    0.000    1.143    1.429    6.214    0.000    6.286 
#    0.000    0.357    0.000    0.000    0.000    2.500 
#    0.000    0.000    0.000    0.000    0.000    0.000 
#
# Total GULP energy -347259.858318 kJ/mol
# GULP energy per Si atom -12402.137797 kJ/mol
# Density = 1.930311 g / cm^3
# Si number density = 19.347144 Si / 1000 Ang^3
#
#
#
# Elastic Constant Matrix: (Units=GPa)
#
#
# Indices 1 2 3 4 5 6 
#
# 1 110.7481 29.4774 43.3776 0.0000 4.3781 0.0000
# 2 29.4774 79.9591 46.3662 0.0000 -11.2439 0.0000
# 3 43.3776 46.3662 159.8381 0.0000 -0.5533 0.0000
# 4 0.0000 0.0000 0.0000 26.2260 0.0000 6.3304
# 5 4.3781 -11.2439 -0.5533 0.0000 35.9979 0.0000
# 6 0.0000 0.0000 0.0000 6.3304 0.0000 27.5292
#
#
#
# Elastic Compliance Matrix: (Units=1/GPa)
#
#
# Indices 1 2 3 4 5 6 
#
# 1 0.010741 -0.003113 -0.002020 0.000000 -0.002310 0.000000
# 2 -0.003113 0.016751 -0.003995 0.000000 0.005549 0.000000
# 3 -0.002020 -0.003995 0.007960 0.000000 -0.000880 0.000000
# 4 0.000000 0.000000 0.000000 0.040371 0.000000 -0.009283
# 5 -0.002310 0.005549 -0.000880 0.000000 0.029780 0.000000
# 6 0.000000 0.000000 0.000000 -0.009283 0.000000 0.038460
#
#
# Mechanical properties :
#
#
# Convention : Reuss Voigt Hill
#
# Bulk Modulus (GPa) = 58.15336 65.44310 61.79823
# Shear Modulus (GPa) = 29.75291 33.37223 31.56257
#
# Velocity S-wave (km/s) = 3.92579 4.15772 4.04342
# Velocity P-wave (km/s) = 7.11844 7.54639 7.33554
#
# Compressibility (1/GPa) = 0.01719591
#
# Stress axis : x y z
#
# Youngs Moduli (GPa) = 93.10549 59.69749 125.62299
#
# Poissons Ratio (x) = 0.18585 0.25372
# Poissons Ratio (y) = 0.28985 0.50188
# Poissons Ratio (z) = 0.18805 0.23850
#
# Static dielectric constant tensor:
#      x y z
#    x 3.641210 0.000000 0.043910 
#    y 0.000000 3.381030 0.000000 
#    z 0.043910 0.000000 3.698730 
# 
# 
# High freq. dielectric constant tensor:
#      x y z
#    x 1.769130 0.000000 0.005280 
#    y 0.000000 1.723670 0.000000 
#    z 0.005280 0.000000 1.765030 
# 
# From -- ./inp_files/91455.got.cif
#   From: 2010.06.25/outbox.cif.g09.slc.cpg/sg10_46_cif.got.tgz:91455.got - 2010.06.27 22:07:45.
