data_PCOD8065505
_publ_section_title
;
Structure prediction by ZEFSAII (Michael W. Deem and Ramdas Pophale) SiO2 
 PCOD8065505
Probable space group: P 2/M
;
_chemical_formula_sum "Si O2"
_cell_formula_units_Z 28
_cell_length_a 15.285204
_cell_length_b 18.265487
_cell_length_c 8.938357
_cell_angle_alpha 90.000000
_cell_angle_beta 145.381324
_cell_angle_gamma 90.000000
_cell_volume 1417.732097
_symmetry_space_group_name_H-M "P 2/M"
_symmetry_group_IT_number 10
_symmetry_cell_setting 'monoclinic'
loop_
_space_group_symop_operation_xyz
x,y,z
-x,y,-z
-x,-y,-z
x,-y,z
loop_
_atom_site_type_symbol
_atom_site_label
_atom_site_fract_x
_atom_site_fract_y
_atom_site_fract_z
Si Si1 0.147212 0.204395 0.288949
Si Si2 0.848347 0.083153 0.480429
Si Si3 0.853040 0.328537 0.201870
Si Si4 0.668734 0.584281 0.188935
Si Si5 0.327007 0.782643 0.250664
Si Si6 0.060510 0.364033 0.246329
Si Si7 0.794020 0.082376 0.068803
O O1 0.220263 0.143065 0.500922
O O2 0.268877 0.229799 0.336740
O O3 0.093923 0.276841 0.302653
O O4 0.000000 0.168164 0.000000
O O5 0.765453 0.095327 0.204992
O O6 0.029120 0.098182 0.720470
O O7 0.817639 0.000000 0.493823
O O8 0.732826 0.371498 0.136840
O O9 0.000000 0.297560 0.500000
O O10 0.923944 0.381651 0.172915
O O11 0.767064 0.261317 0.005564
O O12 0.656367 0.500000 0.123986
O O13 0.784580 0.592626 0.492605
O O14 0.500000 0.613972 0.000000
O O15 0.500000 0.754436 0.500000
O O16 0.316186 0.867095 0.186017
O O17 0.000000 0.389812 0.000000
O O18 0.750032 0.000000 0.963661
#
# Coordination Sequence:
#
# PCOD8065505 Si02
#       7
#     4   4   4   4   4   4   4
#     4  11  20  36  57  86 122 151 201 253 292 354
#     4   9  18  33  59  85 110 153 208 254 291 345
#     4  10  22  39  65  88 118 160 200 246 287 353
#     4  10  24  43  64  93 125 159 195 238 291 356
#     4  12  25  37  57  89 122 158 195 248 310 355
#     4  10  20  38  63  92 121 157 198 251 294 341
#     4   9  19  35  55  83 116 155 202 248 298 353
#
# _framework density 19.749851
#
# number of rings (size 3 to 8) (size 9 to 14) (size 15 to 20)
#    0.000    1.857    4.286    0.857    8.000    4.000 
#    0.000    0.714    0.000    3.857    0.000    0.000 
#    0.000    0.000    0.000    0.000    0.000    0.000 
#
# Total GULP energy -347166.987401 kJ/mol
# GULP energy per Si atom -12398.820979 kJ/mol
# Density = 1.970490 g / cm^3
# Si number density = 19.749851 Si / 1000 Ang^3
#
#
#
# Elastic Constant Matrix: (Units=GPa)
#
#
# Indices 1 2 3 4 5 6 
#
# 1 140.3962 39.5254 53.9705 0.0000 1.6335 0.0000
# 2 39.5254 68.9626 19.8852 0.0000 -0.8941 0.0000
# 3 53.9705 19.8852 81.7223 0.0000 8.1195 0.0000
# 4 0.0000 0.0000 0.0000 13.2270 0.0000 3.1144
# 5 1.6335 -0.8941 8.1195 0.0000 30.3858 0.0000
# 6 0.0000 0.0000 0.0000 3.1144 0.0000 21.5003
#
#
#
# Elastic Compliance Matrix: (Units=1/GPa)
#
#
# Indices 1 2 3 4 5 6 
#
# 1 0.010676 -0.004353 -0.006083 0.000000 0.000923 0.000000
# 2 -0.004353 0.017438 -0.001482 0.000000 0.001143 0.000000
# 3 -0.006083 -0.001482 0.017039 0.000000 -0.004270 0.000000
# 4 0.000000 0.000000 0.000000 0.078273 0.000000 -0.011338
# 5 0.000923 0.001143 -0.004270 0.000000 0.034035 0.000000
# 6 0.000000 0.000000 0.000000 -0.011338 0.000000 0.048153
#
#
# Mechanical properties :
#
#
# Convention : Reuss Voigt Hill
#
# Bulk Modulus (GPa) = 46.91209 57.53816 52.22513
# Shear Modulus (GPa) = 21.13683 24.86929 23.00306
#
# Velocity S-wave (km/s) = 3.27498 3.55239 3.41650
# Velocity P-wave (km/s) = 6.17296 6.78400 6.48568
#
# Compressibility (1/GPa) = 0.02131646
#
# Stress axis : x y z
#
# Youngs Moduli (GPa) = 93.66980 57.34761 58.68992
#
# Poissons Ratio (x) = 0.24962 0.35701
# Poissons Ratio (y) = 0.40772 0.08698
# Poissons Ratio (z) = 0.56980 0.08499
#
# Static dielectric constant tensor:
#      x y z
#    x 3.772020 0.000000 -0.179360 
#    y 0.000000 3.395270 0.000000 
#    z -0.179360 0.000000 3.499480 
# 
# 
# High freq. dielectric constant tensor:
#      x y z
#    x 1.771000 0.000000 -0.015710 
#    y 0.000000 1.756950 0.000000 
#    z -0.015710 0.000000 1.754430 
# 
# From -- ./inp_files/30164.got.cif
#   From: 2010.06.25/outbox.cif.g09.slc.cpg/sg10_16_cif.got.tgz:30164.got - 2010.06.27 22:07:45.
