data_PCOD8065880
_publ_section_title
;
Structure prediction by ZEFSAII (Michael W. Deem and Ramdas Pophale) SiO2 
 PCOD8065880
Probable space group: P 2/M
;
_chemical_formula_sum "Si O2"
_cell_formula_units_Z 24
_cell_length_a 5.110555
_cell_length_b 13.462490
_cell_length_c 21.049740
_cell_angle_alpha 90.000000
_cell_angle_beta 52.827228
_cell_angle_gamma 90.000000
_cell_volume 1153.981552
_symmetry_space_group_name_H-M "P 2/M"
_symmetry_group_IT_number 10
_symmetry_cell_setting 'monoclinic'
loop_
_space_group_symop_operation_xyz
x,y,z
-x,y,-z
-x,-y,-z
x,-y,z
loop_
_atom_site_type_symbol
_atom_site_label
_atom_site_fract_x
_atom_site_fract_y
_atom_site_fract_z
Si Si1 0.776523 0.229355 0.414415
Si Si2 0.215254 0.691932 0.248923
Si Si3 0.080679 0.613564 0.834895
Si Si4 0.441811 0.111532 0.794269
Si Si5 0.375457 0.887532 0.373805
Si Si6 0.874978 0.209908 0.947179
O O1 0.500000 0.279695 0.500000
O O2 0.612161 0.143819 0.396000
O O3 0.938654 0.311844 0.344617
O O4 0.049703 0.179632 0.419316
O O5 0.537477 0.639215 0.229217
O O6 0.299308 0.806676 0.217307
O O7 0.094265 0.632533 0.206136
O O8 0.031495 0.500000 0.862045
O O9 0.912514 0.679116 0.914191
O O10 0.421183 0.124327 0.721390
O O11 0.081704 0.131728 0.875260
O O12 0.558119 0.000000 0.795831
O O13 0.264044 0.000000 0.401606
O O14 0.500000 0.174838 0.000000
O O15 0.000000 0.209829 0.000000
#
# Coordination Sequence:
#
# PCOD8065880 Si02
#       6
#     4   4   4   4   4   4
#     4  11  21  34  55  82 117 155 185 234 299 336
#     4  10  21  40  61  88 117 147 199 240 273 345
#     4  11  23  42  67  86 109 149 191 240 297 347
#     4   9  20  39  60  82 117 163 200 231 275 333
#     4  10  21  35  53  79 112 156 207 243 270 325
#     4  11  23  38  57  87 122 148 186 240 288 344
#
# _framework density 20.797559
#
# number of rings (size 3 to 8) (size 9 to 14) (size 15 to 20)
#    0.000    1.667    0.000    6.500    0.000    5.333 
#    0.000   10.000    0.000    3.000    0.000    0.000 
#    0.000    0.000    0.000    0.000    0.000    0.000 
#
# Total GULP energy -297640.735968 kJ/mol
# GULP energy per Si atom -12401.697332 kJ/mol
# Density = 2.075022 g / cm^3
# Si number density = 20.797559 Si / 1000 Ang^3
#
#
#
# Elastic Constant Matrix: (Units=GPa)
#
#
# Indices 1 2 3 4 5 6 
#
# 1 93.1178 7.0649 23.2156 0.0000 -4.8933 0.0000
# 2 7.0649 76.5861 3.3955 0.0000 -0.4936 0.0000
# 3 23.2156 3.3955 116.3047 0.0000 -23.5689 0.0000
# 4 0.0000 0.0000 0.0000 13.5675 0.0000 6.0782
# 5 -4.8933 -0.4936 -23.5689 0.0000 30.0793 0.0000
# 6 0.0000 0.0000 0.0000 6.0782 0.0000 26.3334
#
#
#
# Elastic Compliance Matrix: (Units=1/GPa)
#
#
# Indices 1 2 3 4 5 6 
#
# 1 0.011370 -0.000950 -0.002223 0.000000 0.000092 0.000000
# 2 -0.000950 0.013154 -0.000216 0.000000 -0.000108 0.000000
# 3 -0.002223 -0.000216 0.010668 0.000000 0.007994 0.000000
# 4 0.000000 0.000000 0.000000 0.082206 0.000000 -0.018975
# 5 0.000092 -0.000108 0.007994 0.000000 0.039522 0.000000
# 6 0.000000 0.000000 0.000000 -0.018975 0.000000 0.042354
#
#
# Mechanical properties :
#
#
# Convention : Reuss Voigt Hill
#
# Bulk Modulus (GPa) = 35.19457 39.26229 37.22843
# Shear Modulus (GPa) = 23.19923 30.81821 27.00872
#
# Velocity S-wave (km/s) = 3.34350 3.85362 3.60759
# Velocity P-wave (km/s) = 5.64487 6.22252 5.94072
#
# Compressibility (1/GPa) = 0.02841347
#
# Stress axis : x y z
#
# Youngs Moduli (GPa) = 87.94875 76.02424 93.73703
#
# Poissons Ratio (x) = 0.07220 0.20840
# Poissons Ratio (y) = 0.08353 0.02028
# Poissons Ratio (z) = 0.19553 0.01645
#
# Static dielectric constant tensor:
#      x y z
#    x 3.745870 0.000000 -0.077430 
#    y 0.000000 3.645620 0.000000 
#    z -0.077430 0.000000 3.964140 
# 
# 
# High freq. dielectric constant tensor:
#      x y z
#    x 1.823400 0.000000 -0.003960 
#    y 0.000000 1.781630 0.000000 
#    z -0.003960 0.000000 1.824300 
# 
# From -- ./inp_files/81284.got.cif
#   From: 2010.06.25/outbox.cif.g09.slc.cpg/sg10_41_cif.got.tgz:81284.got - 2010.06.27 22:07:45.
