data_PCOD8065362
_publ_section_title
;
Structure prediction by ZEFSAII (Michael W. Deem and Ramdas Pophale) SiO2 
 PCOD8065362
Probable space group: P 2/M
;
_chemical_formula_sum "Si O2"
_cell_formula_units_Z 20
_cell_length_a 15.146868
_cell_length_b 11.663019
_cell_length_c 7.426135
_cell_angle_alpha 90.000000
_cell_angle_beta 143.098000
_cell_angle_gamma 90.000000
_cell_volume 787.720535
_symmetry_space_group_name_H-M "P 2/M"
_symmetry_group_IT_number 10
_symmetry_cell_setting 'monoclinic'
loop_
_space_group_symop_operation_xyz
x,y,z
-x,y,-z
-x,-y,-z
x,-y,z
loop_
_atom_site_type_symbol
_atom_site_label
_atom_site_fract_x
_atom_site_fract_y
_atom_site_fract_z
Si Si1 0.090048 0.264836 0.961484
Si Si2 0.841722 0.866311 0.365540
Si Si3 0.525483 0.500000 0.769393
Si Si4 0.763295 0.500000 0.844849
Si Si5 0.676431 0.129660 0.466720
Si Si6 0.419031 0.741962 0.176926
O O1 0.002387 0.190055 0.665743
O O2 0.129548 0.391689 0.955459
O O3 0.241323 0.201713 0.247147
O O4 0.000000 0.274703 0.000000
O O5 0.744686 0.850297 0.384236
O O6 0.860687 0.000000 0.342608
O O7 0.747600 0.791513 0.065980
O O8 0.619737 0.500000 0.736804
O O9 0.344057 0.500000 0.505734
O O10 0.581414 0.622320 0.939873
O O11 0.505713 0.164642 0.198206
O O12 0.692296 0.000000 0.553164
O O13 0.500000 0.720382 0.500000
#
# Coordination Sequence:
#
# PCOD8065362 Si02
#       6
#     4   4   2   2   4   4
#     4  10  20  37  65  93 124 157 201 253 308 364
#     4  10  23  40  60  93 128 157 199 253 306 366
#     4  11  22  41  64  83 121 164 210 253 297 363
#     4  11  19  41  63  89 120 163 204 252 307 362
#     4  10  20  38  63  88 122 166 203 246 306 362
#     4  12  22  40  62  87 121 167 208 251 299 357
#
# _framework density 25.389717000000001
#
# number of rings (size 3 to 8) (size 9 to 14) (size 15 to 20)
#    0.000    1.400    4.000    2.100    0.000    6.400 
#    0.000    8.000    0.000    6.000    0.000    0.000 
#    0.000    0.000    0.000    0.000    0.000    0.000 
#
# Total GULP energy -247766.444879 kJ/mol
# GULP energy per Si atom -12388.322244 kJ/mol
# Density = 2.533193 g / cm^3
# Si number density = 25.389717 Si / 1000 Ang^3
#
#
#
# Elastic Constant Matrix: (Units=GPa)
#
#
# Indices 1 2 3 4 5 6 
#
# 1 16.2410 -12.7199 10.5643 0.0000 4.3731 0.0000
# 2 -12.7199 173.9147 71.9542 0.0000 0.1942 0.0000
# 3 10.5643 71.9542 145.5488 0.0000 25.7033 0.0000
# 4 0.0000 0.0000 0.0000 95.7906 0.0000 -0.2617
# 5 4.3731 0.1942 25.7033 0.0000 41.0119 0.0000
# 6 0.0000 0.0000 0.0000 -0.2617 0.0000 29.3460
#
#
#
# Elastic Compliance Matrix: (Units=1/GPa)
#
#
# Indices 1 2 3 4 5 6 
#
# 1 0.076190 0.009709 -0.009993 0.000000 -0.001907 0.000000
# 2 0.009709 0.008697 -0.005413 0.000000 0.002316 0.000000
# 3 -0.009993 -0.005413 0.011334 0.000000 -0.006012 0.000000
# 4 0.000000 0.000000 0.000000 0.010440 0.000000 0.000093
# 5 -0.001907 0.002316 -0.006012 0.000000 0.028343 0.000000
# 6 0.000000 0.000000 0.000000 0.000093 0.000000 0.034077
#
#
# Mechanical properties :
#
#
# Convention : Reuss Voigt Hill
#
# Bulk Modulus (GPa) = 11.78878 52.81131 32.30004
# Shear Modulus (GPa) = 23.95194 50.95678 37.45436
#
# Velocity S-wave (km/s) = 3.07477 4.48480 3.84497
# Velocity P-wave (km/s) = 4.15437 6.90386 5.69746
#
# Compressibility (1/GPa) = 0.08482645
#
# Stress axis : x y z
#
# Youngs Moduli (GPa) = 13.12503 114.98069 88.23254
#
# Poissons Ratio (x) = -1.11635 0.88172
# Poissons Ratio (y) = -0.12743 0.47763
# Poissons Ratio (z) = 0.13116 0.62242
#
# Static dielectric constant tensor:
#      x y z
#    x 4.553970 0.000000 0.279000 
#    y 0.000000 4.766770 0.000000 
#    z 0.279000 0.000000 4.678850 
# 
# 
# High freq. dielectric constant tensor:
#      x y z
#    x 2.035300 0.000000 0.026980 
#    y 0.000000 2.023070 0.000000 
#    z 0.026980 0.000000 2.006790 
# 
# From -- ./inp_files/32481.got.cif
#   From: 2010.06.25/outbox.cif.g09.slc.cpg/sg10_17_cif.got.tgz:32481.got - 2010.06.27 22:07:45.
