data_PCOD8065790
_publ_section_title
;
Structure prediction by ZEFSAII (Michael W. Deem and Ramdas Pophale) SiO2 
 PCOD8065790
Probable space group: P 2/M
;
_chemical_formula_sum "Si O2"
_cell_formula_units_Z 22
_cell_length_a 9.615957
_cell_length_b 15.858751
_cell_length_c 14.779159
_cell_angle_alpha 90.000000
_cell_angle_beta 29.898442
_cell_angle_gamma 90.000000
_cell_volume 1123.427777
_symmetry_space_group_name_H-M "P 2/M"
_symmetry_group_IT_number 10
_symmetry_cell_setting 'monoclinic'
loop_
_space_group_symop_operation_xyz
x,y,z
-x,y,-z
-x,-y,-z
x,-y,z
loop_
_atom_site_type_symbol
_atom_site_label
_atom_site_fract_x
_atom_site_fract_y
_atom_site_fract_z
Si Si1 0.262253 0.689461 0.498376
Si Si2 0.755952 0.904879 0.798505
Si Si3 0.196699 0.840741 0.670203
Si Si4 0.000000 0.206416 0.500000
Si Si5 0.188616 0.598425 0.148693
Si Si6 0.108268 0.302046 0.839728
O O1 0.188428 0.757832 0.614410
O O2 0.226339 0.733164 0.420421
O O3 0.577627 0.658788 0.337614
O O4 0.032510 0.616048 0.644699
O O5 0.997108 0.909721 0.738559
O O6 0.832465 0.850553 0.667049
O O7 0.690123 0.000000 0.802954
O O8 0.500000 0.864987 0.000000
O O9 0.500000 0.883854 0.500000
O O10 0.111454 0.799564 0.815076
O O11 0.193866 0.500000 0.124877
O O12 0.093691 0.645200 0.111183
O O13 0.500000 0.629892 0.000000
O O14 0.000000 0.312946 0.000000
#
# Coordination Sequence:
#
# PCOD8065790 Si02
#       6
#     4   4   4   2   4   4
#     4   9  20  35  57  85 108 150 194 235 290 338
#     4  10  21  35  56  84 117 157 193 231 290 350
#     4   8  17  35  52  78 110 145 189 235 284 335
#     4  10  21  36  61  86 118 148 200 248 285 336
#     4  10  22  40  59  82 117 153 186 235 296 351
#     4  10  21  34  58  87 113 147 195 238 284 342
#
# _framework density 19.582923999999998
#
# number of rings (size 3 to 8) (size 9 to 14) (size 15 to 20)
#    0.000    2.545    0.000    1.909    5.091    7.273 
#    0.000    0.455    0.000    0.545    0.000    0.000 
#    0.000    0.000    0.000    0.000    0.000    0.000 
#
# Total GULP energy -272574.595011 kJ/mol
# GULP energy per Si atom -12389.754319 kJ/mol
# Density = 1.953835 g / cm^3
# Si number density = 19.582924 Si / 1000 Ang^3
#
#
#
# Elastic Constant Matrix: (Units=GPa)
#
#
# Indices 1 2 3 4 5 6 
#
# 1 131.0251 38.4174 72.6800 0.0000 -7.0602 0.0000
# 2 38.4174 42.6306 27.3794 0.0000 5.6088 0.0000
# 3 72.6800 27.3794 123.0333 0.0000 0.7474 0.0000
# 4 0.0000 0.0000 0.0000 -218.4873 0.0000 68.2889
# 5 -7.0602 5.6088 0.7474 0.0000 38.3997 0.0000
# 6 0.0000 0.0000 0.0000 68.2889 0.0000 4.8870
#
#
#
# Elastic Compliance Matrix: (Units=1/GPa)
#
#
# Indices 1 2 3 4 5 6 
#
# 1 0.013998 -0.009122 -0.006264 0.000000 0.004028 0.000000
# 2 -0.009122 0.033904 -0.002116 0.000000 -0.006588 0.000000
# 3 -0.006264 -0.002116 0.012306 0.000000 -0.001082 0.000000
# 4 0.000000 0.000000 0.000000 -0.000853 0.000000 0.011915
# 5 0.004028 -0.006588 -0.001082 0.000000 0.027766 0.000000
# 6 0.000000 0.000000 0.000000 0.011915 0.000000 0.038123
#
#
# Mechanical properties :
#
#
# Convention : Reuss Voigt Hill
#
# Bulk Modulus (GPa) = 39.67652 63.73804 51.70728
# Shear Modulus (GPa) = 29.64748 -24.49263 2.57742
#
# Velocity S-wave (km/s) = 3.89517 -3.54038 1.14848
# Velocity P-wave (km/s) = 6.36667 3.98824 5.31228
#
# Compressibility (1/GPa) = 0.02520382
#
# Stress axis : x y z
#
# Youngs Moduli (GPa) = 71.43713 29.49544 81.26368
#
# Poissons Ratio (x) = 0.26905 0.50902
# Poissons Ratio (y) = 0.65164 0.17196
# Poissons Ratio (z) = 0.44747 0.06242
#
# Static dielectric constant tensor:
#      x y z
#    x 5.517540 0.000000 -0.960540 
#    y 0.000000 3.309610 0.000000 
#    z -0.960540 0.000000 4.202800 
# 
# 
# High freq. dielectric constant tensor:
#      x y z
#    x 1.771420 0.000000 -0.010800 
#    y 0.000000 1.733230 0.000000 
#    z -0.010800 0.000000 1.766910 
# 
# From -- ./inp_files/62259.got.cif
#   From: 2010.06.25/outbox.cif.g09.slc.cpg/sg10_32_cif.got.tgz:62259.got - 2010.06.27 22:07:45.
