data_PCOD8065215
_publ_section_title
;
Structure prediction by ZEFSAII (Michael W. Deem and Ramdas Pophale) SiO2 
 PCOD8065215
Probable space group: P 2/M
;
_chemical_formula_sum "Si O2"
_cell_formula_units_Z 32
_cell_length_a 11.851547
_cell_length_b 15.176481
_cell_length_c 13.362097
_cell_angle_alpha 90.000000
_cell_angle_beta 133.589477
_cell_angle_gamma 90.000000
_cell_volume 1740.757740
_symmetry_space_group_name_H-M "P 2/M"
_symmetry_group_IT_number 10
_symmetry_cell_setting 'monoclinic'
loop_
_space_group_symop_operation_xyz
x,y,z
-x,y,-z
-x,-y,-z
x,-y,z
loop_
_atom_site_type_symbol
_atom_site_label
_atom_site_fract_x
_atom_site_fract_y
_atom_site_fract_z
Si Si1 0.892057 0.601688 0.339626
Si Si2 0.439916 0.903275 0.728256
Si Si3 0.958930 0.748605 0.224316
Si Si4 0.657871 0.246598 0.911045
Si Si5 0.138916 0.781894 0.151252
Si Si6 0.459360 0.598683 0.859881
Si Si7 0.909591 0.896998 0.547111
Si Si8 0.375291 0.905276 0.356752
O O1 0.896019 0.500000 0.306098
O O2 0.953563 0.661542 0.287461
O O3 0.718237 0.629606 0.264825
O O4 0.000000 0.618525 0.500000
O O5 0.523037 0.827878 0.846029
O O6 0.271831 0.873315 0.583676
O O7 0.563600 0.915556 0.716714
O O8 0.424111 0.000000 0.772876
O O9 0.069483 0.720142 0.197135
O O10 0.020841 0.833221 0.324343
O O11 0.788456 0.771748 0.075006
O O12 0.728210 0.256132 0.841092
O O13 0.577109 0.340604 0.871700
O O14 0.207557 0.861903 0.256912
O O15 0.000000 0.820367 0.000000
O O16 0.482604 0.500000 0.832786
O O17 0.500000 0.604517 0.000000
O O18 0.000000 0.877198 0.500000
O O19 0.928995 0.000000 0.590370
O O20 0.500000 0.850851 0.500000
O O21 0.349879 0.000000 0.393834
#
# Coordination Sequence:
#
# PCOD8065215 Si02
#       8
#     4   4   4   4   4   4   4   4
#     4  10  22  39  60  86 110 136 177 227 275 326
#     4   9  19  34  51  73 106 144 182 223 265 315
#     4  11  21  35  57  80 111 148 183 221 275 326
#     4  10  21  35  56  82 112 145 184 224 273 320
#     4   9  20  35  48  75 111 143 178 221 263 323
#     4  10  20  37  61  85 109 138 179 227 271 322
#     4  10  22  37  53  78 111 148 189 231 276 326
#     4   9  16  29  49  71  95 133 183 227 263 302
#
# _framework density 18.382798999999999
#
# number of rings (size 3 to 8) (size 9 to 14) (size 15 to 20)
#    0.000    2.250    1.250    1.125    3.500    2.250 
#    0.000    3.125    0.000    4.875    0.000    2.625 
#    0.000    0.000    0.000    0.000    0.000    0.000 
#
# Total GULP energy -396433.560595 kJ/mol
# GULP energy per Si atom -12388.548769 kJ/mol
# Density = 1.834096 g / cm^3
# Si number density = 18.382799 Si / 1000 Ang^3
#
#
#
# Elastic Constant Matrix: (Units=GPa)
#
#
# Indices 1 2 3 4 5 6 
#
# 1 85.0858 54.3621 51.8366 0.0000 10.0494 0.0000
# 2 54.3621 98.1346 59.6798 0.0000 6.2910 0.0000
# 3 51.8366 59.6798 126.4780 0.0000 13.2310 0.0000
# 4 0.0000 0.0000 0.0000 23.2958 0.0000 27.3772
# 5 10.0494 6.2910 13.2310 0.0000 27.6086 0.0000
# 6 0.0000 0.0000 0.0000 27.3772 0.0000 -110.5826
#
#
#
# Elastic Compliance Matrix: (Units=1/GPa)
#
#
# Indices 1 2 3 4 5 6 
#
# 1 0.019899 -0.008501 -0.003779 0.000000 -0.003495 0.000000
# 2 -0.008501 0.017923 -0.005126 0.000000 0.001467 0.000000
# 3 -0.003779 -0.005126 0.012221 0.000000 -0.003313 0.000000
# 4 0.000000 0.000000 0.000000 0.033252 0.000000 0.008232
# 5 -0.003495 0.001467 -0.003313 0.000000 0.038746 0.000000
# 6 0.000000 0.000000 0.000000 0.008232 0.000000 -0.007005
#
#
# Mechanical properties :
#
#
# Convention : Reuss Voigt Hill
#
# Bulk Modulus (GPa) = 65.65835 71.27282 68.46558
# Shear Modulus (GPa) = 32.27369 -2.34764 14.96303
#
# Velocity S-wave (km/s) = 4.19459 -1.13131 2.85611
# Velocity P-wave (km/s) = 7.69768 6.09501 6.94274
#
# Compressibility (1/GPa) = 0.01523035
#
# Stress axis : x y z
#
# Youngs Moduli (GPa) = 50.25327 55.79460 81.82876
#
# Poissons Ratio (x) = 0.47432 0.30920
# Poissons Ratio (y) = 0.42722 0.41948
# Poissons Ratio (z) = 0.18989 0.28602
#
# Static dielectric constant tensor:
#      x y z
#    x 3.290330 0.000000 0.182010 
#    y 0.000000 3.540480 0.000000 
#    z 0.182010 0.000000 3.621820 
# 
# 
# High freq. dielectric constant tensor:
#      x y z
#    x 1.710210 0.000000 0.012640 
#    y 0.000000 1.694230 0.000000 
#    z 0.012640 0.000000 1.727160 
# 
# From -- ./inp_files/65134.got.cif
#   From: 2010.06.25/outbox.cif.g09.slc.cpg/sg10_33_cif.got.tgz:65134.got - 2010.06.27 22:07:45.
