data_PCOD8065221
_publ_section_title
;
Structure prediction by ZEFSAII (Michael W. Deem and Ramdas Pophale) SiO2 
 PCOD8065221
Probable space group: P 2/M
;
_chemical_formula_sum "Si O2"
_cell_formula_units_Z 28
_cell_length_a 9.341890
_cell_length_b 8.898964
_cell_length_c 27.013407
_cell_angle_alpha 90.000000
_cell_angle_beta 141.457733
_cell_angle_gamma 90.000000
_cell_volume 1399.283117
_symmetry_space_group_name_H-M "P 2/M"
_symmetry_group_IT_number 10
_symmetry_cell_setting 'monoclinic'
loop_
_space_group_symop_operation_xyz
x,y,z
-x,y,-z
-x,-y,-z
x,-y,z
loop_
_atom_site_type_symbol
_atom_site_label
_atom_site_fract_x
_atom_site_fract_y
_atom_site_fract_z
Si Si1 0.454086 0.173965 0.270672
Si Si2 0.274785 0.329782 0.463327
Si Si3 0.844308 0.824444 0.300260
Si Si4 0.188946 0.321239 0.012272
Si Si5 0.966513 0.322055 0.136093
Si Si6 0.292605 0.678504 0.836009
Si Si7 0.258422 0.330578 0.571326
O O1 0.605283 0.211885 0.263211
O O2 0.593990 0.214677 0.357468
O O3 0.228495 0.273419 0.209324
O O4 0.386453 0.000000 0.254262
O O5 0.500000 0.257001 0.500000
O O6 0.230501 0.500000 0.432663
O O7 0.346655 0.329095 0.539700
O O8 0.050272 0.234065 0.390214
O O9 0.847576 0.745547 0.247840
O O10 0.878102 0.000000 0.301378
O O11 0.177488 0.500000 0.009250
O O12 0.139559 0.259057 0.943763
O O13 0.443366 0.265948 0.095894
O O14 0.000000 0.256653 0.000000
O O15 0.956812 0.500000 0.133623
O O16 0.821535 0.261243 0.143850
O O17 0.277208 0.500000 0.829274
O O18 0.270616 0.500000 0.597426
O O19 0.000000 0.271101 0.500000
#
# Coordination Sequence:
#
# PCOD8065221 Si02
#       7
#     4   4   4   4   4   4   4
#     4  11  24  39  57  83 118 156 195 238 286 342
#     4  10  22  39  60  85 114 147 190 241 291 343
#     4  11  24  40  57  82 117 157 197 236 285 343
#     4   9  17  33  60  91 118 148 188 235 286 339
#     4  10  21  37  60  89 119 151 190 237 288 341
#     4  10  21  37  60  88 119 152 190 238 288 339
#     4  10  20  37  61  86 111 146 192 241 290 340
#
# _framework density 20.010249000000002
#
# number of rings (size 3 to 8) (size 9 to 14) (size 15 to 20)
#    0.000    1.857    1.429    2.143    2.000    6.286 
#    0.000    0.714    0.000    4.286    0.000    0.000 
#    0.000    0.000    0.000    0.000    0.000    0.000 
#
# Total GULP energy -347232.322118 kJ/mol
# GULP energy per Si atom -12401.154361 kJ/mol
# Density = 1.996470 g / cm^3
# Si number density = 20.010249 Si / 1000 Ang^3
#
#
#
# Elastic Constant Matrix: (Units=GPa)
#
#
# Indices 1 2 3 4 5 6 
#
# 1 117.5307 27.1671 27.1194 0.0000 -6.0770 0.0000
# 2 27.1671 25.2331 16.0037 0.0000 -4.1974 0.0000
# 3 27.1194 16.0037 77.0374 0.0000 -13.3171 0.0000
# 4 0.0000 0.0000 0.0000 0.9901 0.0000 2.0832
# 5 -6.0770 -4.1974 -13.3171 0.0000 38.0230 0.0000
# 6 0.0000 0.0000 0.0000 2.0832 0.0000 21.3696
#
#
#
# Elastic Compliance Matrix: (Units=1/GPa)
#
#
# Indices 1 2 3 4 5 6 
#
# 1 0.011518 -0.011321 -0.001704 0.000000 -0.000006 0.000000
# 2 -0.011321 0.056892 -0.007515 0.000000 0.001839 0.000000
# 3 -0.001704 -0.007515 0.015915 0.000000 0.004472 0.000000
# 4 0.000000 0.000000 0.000000 1.270693 0.000000 -0.123875
# 5 -0.000006 0.001839 0.004472 0.000000 0.028068 0.000000
# 6 0.000000 0.000000 0.000000 -0.123875 0.000000 0.058871
#
#
# Mechanical properties :
#
#
# Convention : Reuss Voigt Hill
#
# Bulk Modulus (GPa) = 23.12469 40.04242 31.58355
# Shear Modulus (GPa) = 3.33900 22.04394 12.69147
#
# Velocity S-wave (km/s) = 1.29316 3.32269 2.52116
# Velocity P-wave (km/s) = 3.71634 5.89701 4.92879
#
# Compressibility (1/GPa) = 0.04324382
#
# Stress axis : x y z
#
# Youngs Moduli (GPa) = 86.81922 17.57717 62.83455
#
# Poissons Ratio (x) = 0.19900 0.10706
# Poissons Ratio (y) = 0.98291 0.47223
# Poissons Ratio (z) = 0.14792 0.13210
#
# Static dielectric constant tensor:
#      x y z
#    x 3.924610 0.000000 -0.094580 
#    y 0.000000 3.339150 0.000000 
#    z -0.094580 0.000000 3.749040 
# 
# 
# High freq. dielectric constant tensor:
#      x y z
#    x 1.798340 0.000000 -0.001780 
#    y 0.000000 1.749110 0.000000 
#    z -0.001780 0.000000 1.786840 
# 
# From -- ./inp_files/91956.got.cif
#   From: 2010.06.25/outbox.cif.g09.slc.cpg/sg10_46_cif.got.tgz:91956.got - 2010.06.27 22:07:45.
