data_PCOD8065527
_publ_section_title
;
Structure prediction by ZEFSAII (Michael W. Deem and Ramdas Pophale) SiO2 
 PCOD8065527
Probable space group: P 2/M
;
_chemical_formula_sum "Si O2"
_cell_formula_units_Z 28
_cell_length_a 25.027463
_cell_length_b 8.873782
_cell_length_c 9.448640
_cell_angle_alpha 90.000000
_cell_angle_beta 139.842156
_cell_angle_gamma 90.000000
_cell_volume 1353.269396
_symmetry_space_group_name_H-M "P 2/M"
_symmetry_group_IT_number 10
_symmetry_cell_setting 'monoclinic'
loop_
_space_group_symop_operation_xyz
x,y,z
-x,y,-z
-x,-y,-z
x,-y,z
loop_
_atom_site_type_symbol
_atom_site_label
_atom_site_fract_x
_atom_site_fract_y
_atom_site_fract_z
Si Si1 0.592540 0.675425 0.154428
Si Si2 0.416895 0.328793 0.401716
Si Si3 0.151638 0.678032 0.965606
Si Si4 0.146849 0.825704 0.653860
Si Si5 0.691637 0.331787 0.085433
Si Si6 0.683846 0.176348 0.580222
Si Si7 0.009452 0.824894 0.855600
O O1 0.598085 0.500000 0.206727
O O2 0.615909 0.706064 0.038187
O O3 0.662874 0.767096 0.380991
O O4 0.500000 0.736258 0.000000
O O5 0.500000 0.265650 0.500000
O O6 0.431106 0.500000 0.485765
O O7 0.396527 0.219550 0.490013
O O8 0.341415 0.322245 0.140104
O O9 0.157778 0.500000 0.971527
O O10 0.131664 0.735495 0.767628
O O11 0.080784 0.725874 0.930683
O O12 0.237452 0.740524 0.197212
O O13 0.231888 0.782004 0.746860
O O14 0.075033 0.789166 0.397364
O O15 0.149444 0.000000 0.700357
O O16 0.724751 0.500000 0.184532
O O17 0.700884 0.000000 0.615200
O O18 0.034021 0.000000 0.892556
O O19 0.000000 0.777502 0.000000
#
# Coordination Sequence:
#
# PCOD8065527 Si02
#       7
#     4   4   4   4   4   4   4
#     4  10  22  42  65  91 126 172 218 264 321 380
#     4  10  20  38  64  92 123 163 210 261 313 370
#     4  12  25  43  67  95 127 167 215 263 312 372
#     4  11  23  41  66  95 129 168 206 256 320 381
#     4  10  21  37  62  93 125 164 212 262 309 373
#     4  12  25  40  62  93 129 169 213 263 319 377
#     4  10  24  45  68  97 131 166 203 251 317 384
#
# _framework density 20.690631
#
# number of rings (size 3 to 8) (size 9 to 14) (size 15 to 20)
#    0.000    1.286    1.429    4.286    2.000    6.571 
#    0.000    1.429    0.000    0.000    0.000    0.000 
#    0.000    0.000    0.000    0.000    0.000    0.000 
#
# Total GULP energy -347320.567944 kJ/mol
# GULP energy per Si atom -12404.305998 kJ/mol
# Density = 2.064354 g / cm^3
# Si number density = 20.690631 Si / 1000 Ang^3
#
#
#
# Elastic Constant Matrix: (Units=GPa)
#
#
# Indices 1 2 3 4 5 6 
#
# 1 108.9556 44.3240 26.4426 0.0000 1.6373 0.0000
# 2 44.3240 111.0014 44.7319 0.0000 0.0756 0.0000
# 3 26.4426 44.7319 94.3798 0.0000 -4.0740 0.0000
# 4 0.0000 0.0000 0.0000 16.9882 0.0000 -17.6594
# 5 1.6373 0.0756 -4.0740 0.0000 35.4883 0.0000
# 6 0.0000 0.0000 0.0000 -17.6594 0.0000 12.3870
#
#
#
# Elastic Compliance Matrix: (Units=1/GPa)
#
#
# Indices 1 2 3 4 5 6 
#
# 1 0.011090 -0.003912 -0.001281 0.000000 -0.000650 0.000000
# 2 -0.003912 0.012530 -0.004860 0.000000 -0.000404 0.000000
# 3 -0.001281 -0.004860 0.013327 0.000000 0.001599 0.000000
# 4 0.000000 0.000000 0.000000 -0.122134 0.000000 -0.174119
# 5 -0.000650 -0.000404 0.001599 0.000000 0.028393 0.000000
# 6 0.000000 0.000000 0.000000 -0.174119 0.000000 -0.167501
#
#
# Mechanical properties :
#
#
# Convention : Reuss Voigt Hill
#
# Bulk Modulus (GPa) = 59.37946 60.59263 59.98605
# Shear Modulus (GPa) = -25.17931 26.22859 0.52464
#
# Velocity S-wave (km/s) = -3.49225 3.56428 0.50410
# Velocity P-wave (km/s) = 3.53552 6.80348 5.42159
#
# Compressibility (1/GPa) = 0.01684084
#
# Stress axis : x y z
#
# Youngs Moduli (GPa) = 90.17101 79.81088 75.03598
#
# Poissons Ratio (x) = 0.31219 0.09614
# Poissons Ratio (y) = 0.35271 0.36468
# Poissons Ratio (z) = 0.11553 0.38788
#
# Static dielectric constant tensor:
#      x y z
#    x 3.945620 0.000000 -0.003140 
#    y 0.000000 3.657150 0.000000 
#    z -0.003140 0.000000 3.788220 
# 
# 
# High freq. dielectric constant tensor:
#      x y z
#    x 1.822310 0.000000 -0.000900 
#    y 0.000000 1.798180 0.000000 
#    z -0.000900 0.000000 1.817430 
# 
# From -- ./inp_files/37255.got.cif
#   From: 2010.06.25/outbox.cif.g09.slc.cpg/sg10_19_cif.got.tgz:37255.got - 2010.06.27 22:07:45.
