data_PCOD8065041
_publ_section_title
;
Structure prediction by ZEFSAII (Michael W. Deem and Ramdas Pophale) SiO2 
 PCOD8065041
Probable space group: P 2/M
;
_chemical_formula_sum "Si O2"
_cell_formula_units_Z 28
_cell_length_a 18.076080
_cell_length_b 8.900798
_cell_length_c 21.158782
_cell_angle_alpha 90.000000
_cell_angle_beta 27.209879
_cell_angle_gamma 90.000000
_cell_volume 1556.606316
_symmetry_space_group_name_H-M "P 2/M"
_symmetry_group_IT_number 10
_symmetry_cell_setting 'monoclinic'
loop_
_space_group_symop_operation_xyz
x,y,z
-x,y,-z
-x,-y,-z
x,-y,z
loop_
_atom_site_type_symbol
_atom_site_label
_atom_site_fract_x
_atom_site_fract_y
_atom_site_fract_z
Si Si1 0.470041 0.676032 0.172486
Si Si2 0.538933 0.179414 0.377687
Si Si3 0.769797 0.170897 0.883115
Si Si4 0.681376 0.669385 0.835690
Si Si5 0.594359 0.175308 0.192915
Si Si6 0.263976 0.322045 0.664530
Si Si7 0.057791 0.171008 0.125922
O O1 0.469177 0.500000 0.183448
O O2 0.325251 0.721278 0.233324
O O3 0.458079 0.752709 0.250358
O O4 0.638232 0.721240 0.013344
O O5 0.564213 0.231247 0.286650
O O6 0.366950 0.242954 0.531098
O O7 0.682303 0.254331 0.309105
O O8 0.543853 0.000000 0.382113
O O9 0.800857 0.225996 0.787183
O O10 0.927172 0.182794 0.808816
O O11 0.705785 0.000000 0.930967
O O12 0.746940 0.500000 0.790643
O O13 0.500000 0.681108 0.000000
O O14 0.569014 0.000000 0.206229
O O15 0.775138 0.220037 0.034468
O O16 0.292604 0.500000 0.641906
O O17 0.076744 0.285389 0.796163
O O18 0.012501 0.000000 0.141313
#
# Coordination Sequence:
#
# PCOD8065041 Si02
#       7
#     4   4   4   4   4   4   4
#     4   9  16  25  39  61  93 128 156 190 238 284
#     4  10  20  37  57  73  94 126 159 197 243 284
#     4   9  16  25  40  62  89 123 162 200 234 274
#     4   8  14  23  35  56  88 125 159 189 231 283
#     4   9  19  33  51  74  97 125 163 200 237 285
#     4  11  22  35  52  75  98 124 161 198 234 285
#     4   9  18  33  49  70 100 129 159 197 241 285
#
# _framework density 17.987850999999999
#
# number of rings (size 3 to 8) (size 9 to 14) (size 15 to 20)
#    0.000    2.714    0.000    5.143    0.000    7.714 
#    0.000    2.857    0.000    0.000    0.000    1.000 
#    0.000    8.000    0.000    0.000    0.000    0.000 
#
# Total GULP energy -346962.572908 kJ/mol
# GULP energy per Si atom -12391.520461 kJ/mol
# Density = 1.794691 g / cm^3
# Si number density = 17.987851 Si / 1000 Ang^3
#
#
#
# Elastic Constant Matrix: (Units=GPa)
#
#
# Indices 1 2 3 4 5 6 
#
# 1 151.1493 54.6698 49.4753 0.0000 39.0246 0.0000
# 2 54.6698 65.4924 22.4365 0.0000 14.1101 0.0000
# 3 49.4753 22.4365 36.3969 0.0000 16.3647 0.0000
# 4 0.0000 0.0000 0.0000 14.7544 0.0000 0.5799
# 5 39.0246 14.1101 16.3647 0.0000 12.5592 0.0000
# 6 0.0000 0.0000 0.0000 0.5799 0.0000 32.7062
#
#
#
# Elastic Compliance Matrix: (Units=1/GPa)
#
#
# Indices 1 2 3 4 5 6 
#
# 1 0.036787 -0.008483 0.005632 0.000000 -0.112114 0.000000
# 2 -0.008483 0.022553 -0.006834 0.000000 0.009925 0.000000
# 3 0.005632 -0.006834 0.068690 0.000000 -0.099326 0.000000
# 4 0.000000 0.000000 0.000000 0.067824 0.000000 -0.001202
# 5 -0.112114 0.009925 -0.099326 0.000000 0.546259 0.000000
# 6 0.000000 0.000000 0.000000 -0.001202 0.000000 0.030597
#
#
# Mechanical properties :
#
#
# Convention : Reuss Voigt Hill
#
# Bulk Modulus (GPa) = 9.20294 56.24465 32.72379
# Shear Modulus (GPa) = 6.03647 20.43443 13.23545
#
# Velocity S-wave (km/s) = 1.83389 3.37414 2.71551
# Velocity P-wave (km/s) = 3.10024 6.82024 5.29751
#
# Compressibility (1/GPa) = 0.10866096
#
# Stress axis : x y z
#
# Youngs Moduli (GPa) = 27.18374 44.34034 14.55806
#
# Poissons Ratio (x) = 0.37612 -0.08199
# Poissons Ratio (y) = 0.23059 0.09949
# Poissons Ratio (z) = -0.15310 0.30302
#
# Static dielectric constant tensor:
#      x y z
#    x 4.018530 0.000000 0.221180 
#    y 0.000000 3.350540 0.000000 
#    z 0.221180 0.000000 2.836910 
# 
# 
# High freq. dielectric constant tensor:
#      x y z
#    x 1.720280 0.000000 0.011100 
#    y 0.000000 1.701540 0.000000 
#    z 0.011100 0.000000 1.628730 
# 
# From -- ./inp_files/85606.got.cif
#   From: 2010.06.25/outbox.cif.g09.slc.cpg/sg10_43_cif.got.tgz:85606.got - 2010.06.27 22:07:45.
