data_PCOD8065132
_publ_section_title
;
Structure prediction by ZEFSAII (Michael W. Deem and Ramdas Pophale) SiO2 
 PCOD8065132
Probable space group: P 2/M
;
_chemical_formula_sum "Si O2"
_cell_formula_units_Z 32
_cell_length_a 12.271895
_cell_length_b 9.080500
_cell_length_c 29.369926
_cell_angle_alpha 90.000000
_cell_angle_beta 30.970916
_cell_angle_gamma 90.000000
_cell_volume 1684.210907
_symmetry_space_group_name_H-M "P 2/M"
_symmetry_group_IT_number 10
_symmetry_cell_setting 'monoclinic'
loop_
_space_group_symop_operation_xyz
x,y,z
-x,y,-z
-x,-y,-z
x,-y,z
loop_
_atom_site_type_symbol
_atom_site_label
_atom_site_fract_x
_atom_site_fract_y
_atom_site_fract_z
Si Si1 0.644551 0.173914 0.015522
Si Si2 0.794107 0.829617 0.333474
Si Si3 0.039889 0.829357 0.625808
Si Si4 0.359005 0.674024 0.260718
Si Si5 0.772056 0.328623 0.594119
Si Si6 0.383352 0.671455 0.445927
Si Si7 0.203403 0.173946 0.136241
Si Si8 0.221090 0.326938 0.941362
O O1 0.406169 0.233280 0.091786
O O2 0.745987 0.252334 0.021998
O O3 0.645797 0.000000 0.023325
O O4 0.784240 0.216705 0.921243
O O5 0.587041 0.738750 0.396418
O O6 0.840734 0.808409 0.369593
O O7 0.987802 0.762312 0.234770
O O8 0.753068 0.000000 0.336209
O O9 0.807980 0.756759 0.712005
O O10 0.170661 0.747164 0.540032
O O11 0.017362 0.000000 0.621248
O O12 0.321884 0.500000 0.270094
O O13 0.328016 0.735114 0.323438
O O14 0.593311 0.717373 0.160168
O O15 0.810716 0.500000 0.588617
O O16 0.608040 0.301264 0.611555
O O17 0.000000 0.255939 0.500000
O O18 0.371076 0.500000 0.462290
O O19 0.206005 0.000000 0.141196
O O20 0.214331 0.500000 0.952228
O O21 0.000000 0.269676 0.000000
#
# Coordination Sequence:
#
# PCOD8065132 Si02
#       8
#     4   4   4   4   4   4   4   4
#     4   9  17  34  60  82 103 139 186 226 266 322
#     4  10  21  36  52  76 113 147 176 219 276 326
#     4  11  22  36  56  81 110 142 178 223 274 323
#     4  10  20  37  60  80 104 144 187 225 268 323
#     4   9  17  34  57  77 100 135 180 224 265 311
#     4  11  22  36  56  80 107 143 184 224 266 322
#     4   8  16  33  57  81 105 139 180 224 274 324
#     4  10  22  37  53  79 115 148 177 219 276 327
#
# _framework density 18.999994999999998
#
# number of rings (size 3 to 8) (size 9 to 14) (size 15 to 20)
#    0.000    2.250    1.250    2.625    0.000    5.250 
#    0.000    5.625    0.000    0.000    0.000    0.000 
#    0.000    0.000    0.000    0.000    0.000    0.000 
#
# Total GULP energy -396791.627241 kJ/mol
# GULP energy per Si atom -12399.738351 kJ/mol
# Density = 1.895675 g / cm^3
# Si number density = 18.999995 Si / 1000 Ang^3
#
#
#
# Elastic Constant Matrix: (Units=GPa)
#
#
# Indices 1 2 3 4 5 6 
#
# 1 122.6091 43.0783 52.9940 0.0000 -6.0931 0.0000
# 2 43.0783 52.5413 32.5106 0.0000 -7.3039 0.0000
# 3 52.9940 32.5106 101.3598 0.0000 -11.6637 0.0000
# 4 0.0000 0.0000 0.0000 -27.4504 0.0000 -14.9774
# 5 -6.0931 -7.3039 -11.6637 0.0000 31.3129 0.0000
# 6 0.0000 0.0000 0.0000 -14.9774 0.0000 18.0045
#
#
#
# Elastic Compliance Matrix: (Units=1/GPa)
#
#
# Indices 1 2 3 4 5 6 
#
# 1 0.012725 -0.007961 -0.004209 0.000000 -0.000948 0.000000
# 2 -0.007961 0.028967 -0.004732 0.000000 0.003445 0.000000
# 3 -0.004209 -0.004732 0.013961 0.000000 0.003278 0.000000
# 4 0.000000 0.000000 0.000000 -0.025057 0.000000 -0.020844
# 5 -0.000948 0.003445 0.003278 0.000000 0.033776 0.000000
# 6 0.000000 0.000000 0.000000 -0.020844 0.000000 0.038202
#
#
# Mechanical properties :
#
#
# Convention : Reuss Voigt Hill
#
# Bulk Modulus (GPa) = 45.76819 59.29733 52.53276
# Shear Modulus (GPa) = 34.80410 14.23522 24.51966
#
# Velocity S-wave (km/s) = 4.28459 2.74016 3.59626
# Velocity P-wave (km/s) = 6.97264 6.42559 6.70470
#
# Compressibility (1/GPa) = 0.02184924
#
# Stress axis : x y z
#
# Youngs Moduli (GPa) = 78.58562 34.52235 71.62616
#
# Poissons Ratio (x) = 0.27482 0.30146
# Poissons Ratio (y) = 0.62560 0.33896
# Poissons Ratio (z) = 0.33075 0.16337
#
# Static dielectric constant tensor:
#      x y z
#    x 3.476560 0.000000 0.058080 
#    y 0.000000 3.198710 0.000000 
#    z 0.058080 0.000000 3.866050 
# 
# 
# High freq. dielectric constant tensor:
#      x y z
#    x 1.746470 0.000000 0.004710 
#    y 0.000000 1.709450 0.000000 
#    z 0.004710 0.000000 1.745990 
# 
# From -- ./inp_files/94961.got.cif
#   From: 2010.06.25/outbox.cif.g09.slc.cpg/sg10_48_cif.got.tgz:94961.got - 2010.06.27 22:07:45.
