data_PCOD8065157
_publ_section_title
;
Structure prediction by ZEFSAII (Michael W. Deem and Ramdas Pophale) SiO2 
 PCOD8065157
Probable space group: P 2/M
;
_chemical_formula_sum "Si O2"
_cell_formula_units_Z 24
_cell_length_a 20.545710
_cell_length_b 8.628669
_cell_length_c 9.081294
_cell_angle_alpha 90.000000
_cell_angle_beta 48.099682
_cell_angle_gamma 90.000000
_cell_volume 1198.299264
_symmetry_space_group_name_H-M "P 2/M"
_symmetry_group_IT_number 10
_symmetry_cell_setting 'monoclinic'
loop_
_space_group_symop_operation_xyz
x,y,z
-x,y,-z
-x,-y,-z
x,-y,z
loop_
_atom_site_type_symbol
_atom_site_label
_atom_site_fract_x
_atom_site_fract_y
_atom_site_fract_z
Si Si1 0.089328 0.680439 0.521696
Si Si2 0.582179 0.180144 0.972162
Si Si3 0.246435 0.318555 0.798127
Si Si4 0.738794 0.320880 0.564648
Si Si5 0.094153 0.819041 0.203524
Si Si6 0.416122 0.682786 0.710975
O O1 0.065695 0.500000 0.557787
O O2 0.164766 0.719999 0.523602
O O3 0.120918 0.728130 0.311137
O O4 0.003634 0.775198 0.699102
O O5 0.670296 0.212813 0.750586
O O6 0.576179 0.000000 0.019864
O O7 0.500000 0.235649 0.000000
O O8 0.581152 0.275680 0.123113
O O9 0.230320 0.500000 0.848868
O O10 0.266273 0.282105 0.599094
O O11 0.327676 0.253222 0.770099
O O12 0.159964 0.226630 0.974711
O O13 0.715955 0.500000 0.631349
O O14 0.099031 0.000000 0.229117
O O15 0.500000 0.754808 0.500000
O O16 0.417292 0.500000 0.690822
#
# Coordination Sequence:
#
# PCOD8065157 Si02
#       6
#     4   4   4   4   4   4
#     4  10  20  37  60  84 110 144 188 235 281 328
#     4  11  24  39  57  84 118 152 184 225 279 334
#     4  10  21  38  58  83 114 146 185 233 282 329
#     4  10  22  39  61  85 110 146 190 234 278 328
#     4  11  22  36  56  83 114 150 188 227 278 336
#     4  10  21  38  62  87 111 145 189 234 277 326
#
# _framework density 20.028386999999999
#
# number of rings (size 3 to 8) (size 9 to 14) (size 15 to 20)
#    0.000    1.667    0.000    5.500    0.000   10.333 
#    0.000    3.333    0.000    0.000    0.000    0.000 
#    0.000    0.000    0.000    0.000    0.000    0.000 
#
# Total GULP energy -297739.271396 kJ/mol
# GULP energy per Si atom -12405.802975 kJ/mol
# Density = 1.998280 g / cm^3
# Si number density = 20.028387 Si / 1000 Ang^3
#
#
#
# Elastic Constant Matrix: (Units=GPa)
#
#
# Indices 1 2 3 4 5 6 
#
# 1 130.3296 19.5302 43.8223 0.0000 5.1389 0.0000
# 2 19.5302 33.9428 15.4856 0.0000 -7.6661 0.0000
# 3 43.8223 15.4856 116.7961 0.0000 -9.1887 0.0000
# 4 0.0000 0.0000 0.0000 11.0303 0.0000 -11.8674
# 5 5.1389 -7.6661 -9.1887 0.0000 25.9895 0.0000
# 6 0.0000 0.0000 0.0000 -11.8674 0.0000 16.7466
#
#
#
# Elastic Compliance Matrix: (Units=1/GPa)
#
#
# Indices 1 2 3 4 5 6 
#
# 1 0.009747 -0.005128 -0.003341 0.000000 -0.004621 0.000000
# 2 -0.005128 0.035762 -0.001963 0.000000 0.010869 0.000000
# 3 -0.003341 -0.001963 0.010370 0.000000 0.003748 0.000000
# 4 0.000000 0.000000 0.000000 0.381601 0.000000 0.270420
# 5 -0.004621 0.010869 0.003748 0.000000 0.043922 0.000000
# 6 0.000000 0.000000 0.000000 0.270420 0.000000 0.251346
#
#
# Mechanical properties :
#
#
# Convention : Reuss Voigt Hill
#
# Bulk Modulus (GPa) = 28.55736 48.74941 38.65339
# Shear Modulus (GPa) = 6.53354 24.23533 15.38443
#
# Velocity S-wave (km/s) = 1.80810 3.48235 2.77453
# Velocity P-wave (km/s) = 4.31837 6.36883 5.44106
#
# Compressibility (1/GPa) = 0.03501724
#
# Stress axis : x y z
#
# Youngs Moduli (GPa) = 102.59853 27.96278 96.42782
#
# Poissons Ratio (x) = 0.14338 0.32214
# Poissons Ratio (y) = 0.52609 0.18924
# Poissons Ratio (z) = 0.34275 0.05488
#
# Static dielectric constant tensor:
#      x y z
#    x 3.816850 0.000000 -0.100340 
#    y 0.000000 3.499610 0.000000 
#    z -0.100340 0.000000 3.603470 
# 
# 
# High freq. dielectric constant tensor:
#      x y z
#    x 1.794100 0.000000 -0.005680 
#    y 0.000000 1.773080 0.000000 
#    z -0.005680 0.000000 1.787940 
# 
# From -- ./inp_files/33793.got.cif
#   From: 2010.06.25/outbox.cif.g09.slc.cpg/sg10_17_cif.got.tgz:33793.got - 2010.06.27 22:07:45.
