data_PCOD8065615
_publ_section_title
;
Structure prediction by ZEFSAII (Michael W. Deem and Ramdas Pophale) SiO2 
 PCOD8065615
Probable space group: P 2/M
;
_chemical_formula_sum "Si O2"
_cell_formula_units_Z 28
_cell_length_a 29.097190
_cell_length_b 8.818742
_cell_length_c 9.719496
_cell_angle_alpha 90.000000
_cell_angle_beta 32.919331
_cell_angle_gamma 90.000000
_cell_volume 1355.399051
_symmetry_space_group_name_H-M "P 2/M"
_symmetry_group_IT_number 10
_symmetry_cell_setting 'monoclinic'
loop_
_space_group_symop_operation_xyz
x,y,z
-x,y,-z
-x,-y,-z
x,-y,z
loop_
_atom_site_type_symbol
_atom_site_label
_atom_site_fract_x
_atom_site_fract_y
_atom_site_fract_z
Si Si1 0.370101 0.822838 0.695778
Si Si2 0.643137 0.678874 0.991031
Si Si3 0.128476 0.675711 0.924445
Si Si4 0.487495 0.178681 0.875472
Si Si5 0.815595 0.177158 0.484324
Si Si6 0.801327 0.674060 0.954023
Si Si7 0.934951 0.324700 0.387123
O O1 0.431170 0.772735 0.418048
O O2 0.377117 0.000000 0.707520
O O3 0.399466 0.738175 0.761004
O O4 0.274958 0.782594 0.894544
O O5 0.639808 0.500000 0.996528
O O6 0.739832 0.733095 0.747610
O O7 0.595481 0.742781 0.977512
O O8 0.138062 0.500000 0.859488
O O9 0.177850 0.778159 0.691225
O O10 0.171833 0.711415 0.959435
O O11 0.030603 0.722849 0.178477
O O12 0.472225 0.000000 0.910748
O O13 0.500000 0.236568 0.000000
O O14 0.902057 0.224127 0.343020
O O15 0.798220 0.000000 0.542281
O O16 0.772017 0.500000 0.010508
O O17 0.881653 0.709643 0.657468
O O18 0.928616 0.500000 0.359312
#
# Coordination Sequence:
#
# PCOD8065615 Si02
#       7
#     4   4   4   4   4   4   4
#     4  11  23  41  66  95 128 167 207 251 308 369
#     4  12  25  43  67  94 124 164 213 259 308 365
#     4  10  22  39  61  91 127 167 211 261 316 369
#     4  10  24  45  68  97 132 165 198 246 310 374
#     4  12  25  40  61  90 126 167 212 260 316 372
#     4  10  21  38  63  93 126 165 211 258 307 367
#     4  10  20  39  64  90 123 165 212 261 312 371
#
# _framework density 20.658123
#
# number of rings (size 3 to 8) (size 9 to 14) (size 15 to 20)
#    0.000    1.286    1.429    4.286    2.000    7.714 
#    0.000    0.000    0.000    2.571    0.000    0.000 
#    0.000    0.000    0.000    0.000    0.000    0.000 
#
# Total GULP energy -347411.808451 kJ/mol
# GULP energy per Si atom -12407.564588 kJ/mol
# Density = 2.061110 g / cm^3
# Si number density = 20.658123 Si / 1000 Ang^3
#
#
#
# Elastic Constant Matrix: (Units=GPa)
#
#
# Indices 1 2 3 4 5 6 
#
# 1 116.9030 35.3865 24.1766 0.0000 13.4698 0.0000
# 2 35.3865 67.8011 27.9467 0.0000 6.6740 0.0000
# 3 24.1766 27.9467 83.8797 0.0000 12.1165 0.0000
# 4 0.0000 0.0000 0.0000 20.0832 0.0000 1.6026
# 5 13.4698 6.6740 12.1165 0.0000 38.2259 0.0000
# 6 0.0000 0.0000 0.0000 1.6026 0.0000 33.3384
#
#
#
# Elastic Compliance Matrix: (Units=1/GPa)
#
#
# Indices 1 2 3 4 5 6 
#
# 1 0.010520 -0.004802 -0.001067 0.000000 -0.002530 0.000000
# 2 -0.004802 0.019345 -0.005049 0.000000 -0.000085 0.000000
# 3 -0.001067 -0.005049 0.014389 0.000000 -0.003303 0.000000
# 4 0.000000 0.000000 0.000000 0.049985 0.000000 -0.002403
# 5 -0.002530 -0.000085 -0.003303 0.000000 0.028114 0.000000
# 6 0.000000 0.000000 0.000000 -0.002403 0.000000 0.030111
#
#
# Mechanical properties :
#
#
# Convention : Reuss Voigt Hill
#
# Bulk Modulus (GPa) = 44.60633 49.28926 46.94779
# Shear Modulus (GPa) = 27.50732 30.40109 28.95421
#
# Velocity S-wave (km/s) = 3.65300 3.84034 3.74784
# Velocity P-wave (km/s) = 6.27949 6.60118 6.44235
#
# Compressibility (1/GPa) = 0.02241835
#
# Stress axis : x y z
#
# Youngs Moduli (GPa) = 95.05956 51.69425 69.49913
#
# Poissons Ratio (x) = 0.24822 0.07414
# Poissons Ratio (y) = 0.45644 0.35089
# Poissons Ratio (z) = 0.10141 0.26100
#
# Static dielectric constant tensor:
#      x y z
#    x 3.816290 0.000000 0.094180 
#    y 0.000000 3.582890 0.000000 
#    z 0.094180 0.000000 3.865270 
# 
# 
# High freq. dielectric constant tensor:
#      x y z
#    x 1.820230 0.000000 0.004790 
#    y 0.000000 1.797570 0.000000 
#    z 0.004790 0.000000 1.818360 
# 
# From -- ./inp_files/37081.got.cif
#   From: 2010.06.25/outbox.cif.g09.slc.cpg/sg10_19_cif.got.tgz:37081.got - 2010.06.27 22:07:45.
