data_PCOD8065850
_publ_section_title
;
Structure prediction by ZEFSAII (Michael W. Deem and Ramdas Pophale) SiO2 
 PCOD8065850
Probable space group: P 2/M
;
_chemical_formula_sum "Si O2"
_cell_formula_units_Z 32
_cell_length_a 20.763900
_cell_length_b 9.193575
_cell_length_c 26.064589
_cell_angle_alpha 90.000000
_cell_angle_beta 158.678062
_cell_angle_gamma 90.000000
_cell_volume 1809.162556
_symmetry_space_group_name_H-M "P 2/M"
_symmetry_group_IT_number 10
_symmetry_cell_setting 'monoclinic'
loop_
_space_group_symop_operation_xyz
x,y,z
-x,y,-z
-x,-y,-z
x,-y,z
loop_
_atom_site_type_symbol
_atom_site_label
_atom_site_fract_x
_atom_site_fract_y
_atom_site_fract_z
Si Si1 0.400684 0.834190 0.081956
Si Si2 0.964913 0.173424 0.417649
Si Si3 0.528697 0.832865 0.604510
Si Si4 0.846645 0.671439 0.028721
Si Si5 0.559794 0.328687 0.732174
Si Si6 0.692378 0.834386 0.383959
Si Si7 0.423475 0.173468 0.890477
Si Si8 0.213341 0.167291 0.298011
O O1 0.573907 0.823689 0.245398
O O2 0.455387 0.772180 0.066824
O O3 0.332524 0.000000 0.028042
O O4 0.241902 0.737303 0.986043
O O5 0.113736 0.225478 0.487555
O O6 0.000000 0.238120 0.500000
O O7 0.775493 0.234326 0.259801
O O8 0.970282 0.000000 0.423980
O O9 0.579326 0.732488 0.689727
O O10 0.677870 0.805921 0.672906
O O11 0.336602 0.792344 0.438286
O O12 0.528705 0.000000 0.622437
O O13 0.853941 0.500000 0.040595
O O14 0.043885 0.730436 0.169913
O O15 0.732003 0.716292 0.893490
O O16 0.538878 0.500000 0.713728
O O17 0.382768 0.264357 0.626298
O O18 0.699937 0.000000 0.409733
O O19 0.419780 0.000000 0.886362
O O20 0.500000 0.235575 0.000000
O O21 0.152428 0.000000 0.256619
#
# Coordination Sequence:
#
# PCOD8065850 Si02
#       8
#     4   4   4   4   4   4   4   4
#     4   9  16  29  49  70  96 131 167 208 257 303
#     4   9  14  24  44  68  91 121 163 207 252 302
#     4   9  19  37  59  81 105 132 166 211 259 303
#     4  10  21  35  52  76 106 141 177 210 249 302
#     4  10  21  35  51  75 109 142 173 211 252 300
#     4   9  16  28  49  72  95 128 170 212 253 299
#     4   9  16  26  42  68  98 122 154 208 264 303
#     4   9  19  37  59  81 104 132 169 211 254 305
#
# _framework density 17.687742
#
# number of rings (size 3 to 8) (size 9 to 14) (size 15 to 20)
#    0.000    2.750    1.250    1.500    0.000    3.000 
#    2.250    3.750    0.000    1.500    0.000    0.000 
#    0.000    0.000    0.000    0.000    0.000    0.000 
#
# Total GULP energy -396757.858467 kJ/mol
# GULP energy per Si atom -12398.683077 kJ/mol
# Density = 1.764748 g / cm^3
# Si number density = 17.687742 Si / 1000 Ang^3
#
#
#
# Elastic Constant Matrix: (Units=GPa)
#
#
# Indices 1 2 3 4 5 6 
#
# 1 106.2801 44.1034 59.5975 0.0000 0.9306 0.0000
# 2 44.1034 60.9417 43.2321 0.0000 5.9982 0.0000
# 3 59.5975 43.2321 118.0256 0.0000 12.0859 0.0000
# 4 0.0000 0.0000 0.0000 16.4567 0.0000 -8.0804
# 5 0.9306 5.9982 12.0859 0.0000 25.6244 0.0000
# 6 0.0000 0.0000 0.0000 -8.0804 0.0000 5.9390
#
#
#
# Elastic Compliance Matrix: (Units=1/GPa)
#
#
# Indices 1 2 3 4 5 6 
#
# 1 0.015690 -0.007881 -0.005429 0.000000 0.003836 0.000000
# 2 -0.007881 0.026179 -0.005265 0.000000 -0.003358 0.000000
# 3 -0.005429 -0.005265 0.013656 0.000000 -0.005011 0.000000
# 4 0.000000 0.000000 0.000000 0.183057 0.000000 0.249062
# 5 0.003836 -0.003358 -0.005011 0.000000 0.042036 0.000000
# 6 0.000000 0.000000 0.000000 0.249062 0.000000 0.507244
#
#
# Mechanical properties :
#
#
# Convention : Reuss Voigt Hill
#
# Bulk Modulus (GPa) = 54.42572 64.34594 59.38583
# Shear Modulus (GPa) = 6.01585 18.82501 12.42043
#
# Velocity S-wave (km/s) = 1.84622 3.26590 2.65279
# Velocity P-wave (km/s) = 5.94826 7.11894 6.55977
#
# Compressibility (1/GPa) = 0.01837367
#
# Stress axis : x y z
#
# Youngs Moduli (GPa) = 63.73372 38.19891 73.22868
#
# Poissons Ratio (x) = 0.30106 0.39754
# Poissons Ratio (y) = 0.50231 0.38558
# Poissons Ratio (z) = 0.34599 0.20114
#
# Static dielectric constant tensor:
#      x y z
#    x 3.323100 0.000000 0.035770 
#    y 0.000000 2.972530 0.000000 
#    z 0.035770 0.000000 3.321570 
# 
# 
# High freq. dielectric constant tensor:
#      x y z
#    x 1.689270 0.000000 0.007740 
#    y 0.000000 1.651190 0.000000 
#    z 0.007740 0.000000 1.681210 
# 
# From -- ./inp_files/93710.got.cif
#   From: 2010.06.25/outbox.cif.g09.slc.cpg/sg10_47_cif.got.tgz:93710.got - 2010.06.27 22:07:45.
