data_PCOD8065289
_publ_section_title
;
Structure prediction by ZEFSAII (Michael W. Deem and Ramdas Pophale) SiO2 
 PCOD8065289
Probable space group: P 2/M
;
_chemical_formula_sum "Si O2"
_cell_formula_units_Z 32
_cell_length_a 17.682376
_cell_length_b 15.337769
_cell_length_c 12.573672
_cell_angle_alpha 90.000000
_cell_angle_beta 151.523557
_cell_angle_gamma 90.000000
_cell_volume 1625.918664
_symmetry_space_group_name_H-M "P 2/M"
_symmetry_group_IT_number 10
_symmetry_cell_setting 'monoclinic'
loop_
_space_group_symop_operation_xyz
x,y,z
-x,y,-z
-x,-y,-z
x,-y,z
loop_
_atom_site_type_symbol
_atom_site_label
_atom_site_fract_x
_atom_site_fract_y
_atom_site_fract_z
Si Si1 0.373312 0.248454 0.754289
Si Si2 0.272355 0.903696 0.487897
Si Si3 0.197364 0.401678 0.964736
Si Si4 0.320455 0.852477 0.314441
Si Si5 0.673411 0.343679 0.666486
Si Si6 0.019999 0.257261 0.400536
Si Si7 0.937035 0.902548 0.168051
Si Si8 0.537415 0.599685 0.288503
O O1 0.379395 0.169751 0.676568
O O2 0.203992 0.256576 0.599994
O O3 0.418276 0.339444 0.755071
O O4 0.500000 0.224754 0.000000
O O5 0.300720 0.906205 0.397521
O O6 0.087898 0.883572 0.280092
O O7 0.317372 0.000000 0.588041
O O8 0.150282 0.500000 0.875740
O O9 0.058897 0.338509 0.756259
O O10 0.213031 0.395970 0.112398
O O11 0.362435 0.374266 0.113093
O O12 0.500000 0.855967 0.500000
O O13 0.261718 0.754278 0.263964
O O14 0.218933 0.894898 0.095580
O O15 0.500000 0.344015 0.500000
O O16 0.667228 0.388312 0.543000
O O17 0.000000 0.269914 0.500000
O O18 0.934446 0.167267 0.260443
O O19 0.943023 0.000000 0.224724
O O20 0.542293 0.500000 0.255299
#
# Coordination Sequence:
#
# PCOD8065289 Si02
#       8
#     4   4   4   4   4   4   4   4
#     4  11  24  41  61  83 112 150 195 243 290 338
#     4  10  22  40  60  84 117 155 191 232 287 346
#     4  10  20  37  62  89 118 153 190 231 283 341
#     4  11  20  33  59  91 121 152 189 234 281 336
#     4   9  17  32  57  88 120 149 182 228 281 335
#     4  11  24  41  61  83 112 150 195 243 290 338
#     4  10  22  40  60  84 117 155 191 232 287 346
#     4  10  20  37  62  89 118 153 190 231 283 341
#
# _framework density 19.681182
#
# number of rings (size 3 to 8) (size 9 to 14) (size 15 to 20)
#    0.000    1.750    2.500    1.875    0.000    6.000 
#    0.000    0.625    0.000    1.500    0.000    0.000 
#    0.000    0.000    0.000    0.000    0.000    0.000 
#
# Total GULP energy -396872.576853 kJ/mol
# GULP energy per Si atom -12402.268027 kJ/mol
# Density = 1.963639 g / cm^3
# Si number density = 19.681182 Si / 1000 Ang^3
#
#
#
# Elastic Constant Matrix: (Units=GPa)
#
#
# Indices 1 2 3 4 5 6 
#
# 1 35.3132 9.4023 24.4826 0.0000 2.1460 0.0000
# 2 9.4023 113.9901 44.8705 0.0000 5.3724 0.0000
# 3 24.4826 44.8705 118.8712 0.0000 -7.8679 0.0000
# 4 0.0000 0.0000 0.0000 13.0888 0.0000 6.5944
# 5 2.1460 5.3724 -7.8679 0.0000 19.4876 0.0000
# 6 0.0000 0.0000 0.0000 6.5944 0.0000 25.0313
#
#
#
# Elastic Compliance Matrix: (Units=1/GPa)
#
#
# Indices 1 2 3 4 5 6 
#
# 1 0.033900 0.000543 -0.007648 0.000000 -0.006971 0.000000
# 2 0.000543 0.010717 -0.004476 0.000000 -0.004822 0.000000
# 3 -0.007648 -0.004476 0.012139 0.000000 0.006977 0.000000
# 4 0.000000 0.000000 0.000000 0.088094 0.000000 -0.023208
# 5 -0.006971 -0.004822 0.006977 0.000000 0.056229 0.000000
# 6 0.000000 0.000000 0.000000 -0.023208 0.000000 0.046064
#
#
# Mechanical properties :
#
#
# Convention : Reuss Voigt Hill
#
# Bulk Modulus (GPa) = 29.76840 47.29838 38.53339
# Shear Modulus (GPa) = 17.76175 24.14946 20.95560
#
# Velocity S-wave (km/s) = 3.00738 3.50670 3.26660
# Velocity P-wave (km/s) = 5.21702 6.36242 5.81797
#
# Compressibility (1/GPa) = 0.03359267
#
# Stress axis : x y z
#
# Youngs Moduli (GPa) = 29.49887 93.30765 82.37745
#
# Poissons Ratio (x) = -0.05067 0.63004
# Poissons Ratio (y) = -0.01602 0.36876
# Poissons Ratio (z) = 0.22562 0.41769
#
# Static dielectric constant tensor:
#      x y z
#    x 3.408780 0.000000 -0.064130 
#    y 0.000000 3.765570 0.000000 
#    z -0.064130 0.000000 3.567040 
# 
# 
# High freq. dielectric constant tensor:
#      x y z
#    x 1.751220 0.000000 -0.004660 
#    y 0.000000 1.781580 0.000000 
#    z -0.004660 0.000000 1.761480 
# 
# From -- ./inp_files/54046.got.cif
#   From: 2010.06.25/outbox.cif.g09.slc.cpg/sg10_28_cif.got.tgz:54046.got - 2010.06.27 22:07:45.
