data_PCOD8065705
_publ_section_title
;
Structure prediction by ZEFSAII (Michael W. Deem and Ramdas Pophale) SiO2 
 PCOD8065705
Probable space group: P 2/M
;
_chemical_formula_sum "Si O2"
_cell_formula_units_Z 20
_cell_length_a 8.512096
_cell_length_b 12.147267
_cell_length_c 11.014276
_cell_angle_alpha 90.000000
_cell_angle_beta 45.061506
_cell_angle_gamma 90.000000
_cell_volume 806.160946
_symmetry_space_group_name_H-M "P 2/M"
_symmetry_group_IT_number 10
_symmetry_cell_setting 'monoclinic'
loop_
_space_group_symop_operation_xyz
x,y,z
-x,y,-z
-x,-y,-z
x,-y,z
loop_
_atom_site_type_symbol
_atom_site_label
_atom_site_fract_x
_atom_site_fract_y
_atom_site_fract_z
Si Si1 0.630681 0.877331 0.164726
Si Si2 0.257228 0.720371 0.358894
Si Si3 0.760380 0.124559 0.348640
Si Si4 0.950422 0.500000 0.883286
Si Si5 0.803628 0.500000 0.504844
Si Si6 0.166773 0.270621 0.145475
O O1 0.399266 0.820583 0.335723
O O2 0.808372 0.872957 0.176904
O O3 0.565839 0.000000 0.164011
O O4 0.723672 0.822521 0.994223
O O5 0.331900 0.610832 0.392363
O O6 0.313254 0.706942 0.185114
O O7 0.000000 0.747642 0.500000
O O8 0.500000 0.150947 0.500000
O O9 0.918398 0.221766 0.317878
O O10 0.813703 0.000000 0.368934
O O11 0.824763 0.385202 0.932444
O O12 0.133741 0.500000 0.672787
O O13 0.000000 0.500000 0.000000
O O14 0.000000 0.500000 0.500000
#
# Coordination Sequence:
#
# PCOD8065705 Si02
#       6
#     4   4   4   2   2   4
#     4  11  25  42  63  99 138 177 228 283 341 400
#     4  11  22  42  71  94 132 181 224 277 336 403
#     4  10  22  41  65  93 132 181 228 278 341 405
#     4  12  24  41  72 106 134 174 228 280 342 409
#     4  10  20  45  69  97 135 179 227 276 339 409
#     4  12  23  42  67  97 138 175 222 280 342 403
#
# _framework density 24.80894
#
# number of rings (size 3 to 8) (size 9 to 14) (size 15 to 20)
#    0.000    1.000    4.000    4.200    0.000    5.200 
#    0.000    3.500    0.000    0.000    0.000    0.000 
#    0.000    0.000    0.000    0.000    0.000    0.000 
#
# Total GULP energy -247769.342965 kJ/mol
# GULP energy per Si atom -12388.467148 kJ/mol
# Density = 2.475247 g / cm^3
# Si number density = 24.808940 Si / 1000 Ang^3
#
#
#
# Elastic Constant Matrix: (Units=GPa)
#
#
# Indices 1 2 3 4 5 6 
#
# 1 79.1953 57.2920 4.1133 0.0000 31.4078 0.0000
# 2 57.2920 213.2519 34.8700 0.0000 8.1900 0.0000
# 3 4.1133 34.8700 50.6358 0.0000 19.8294 0.0000
# 4 0.0000 0.0000 0.0000 45.3278 0.0000 0.5415
# 5 31.4078 8.1900 19.8294 0.0000 50.0450 0.0000
# 6 0.0000 0.0000 0.0000 0.5415 0.0000 26.1099
#
#
#
# Elastic Compliance Matrix: (Units=1/GPa)
#
#
# Indices 1 2 3 4 5 6 
#
# 1 0.025109 -0.007766 0.010631 0.000000 -0.018700 0.000000
# 2 -0.007766 0.007706 -0.007209 0.000000 0.006469 0.000000
# 3 0.010631 -0.007209 0.030776 0.000000 -0.017687 0.000000
# 4 0.000000 0.000000 0.000000 0.022067 0.000000 -0.000458
# 5 -0.018700 0.006469 -0.017687 0.000000 0.037667 0.000000
# 6 0.000000 0.000000 0.000000 -0.000458 0.000000 0.038309
#
#
# Mechanical properties :
#
#
# Convention : Reuss Voigt Hill
#
# Bulk Modulus (GPa) = 18.21390 59.51486 38.86438
# Shear Modulus (GPa) = 26.50783 40.75036 33.62910
#
# Velocity S-wave (km/s) = 3.27231 4.05726 3.68574
# Velocity P-wave (km/s) = 4.65134 6.78158 5.81484
#
# Compressibility (1/GPa) = 0.05490312
#
# Stress axis : x y z
#
# Youngs Moduli (GPa) = 39.82647 129.76804 32.49266
#
# Poissons Ratio (x) = 1.00777 -0.34544
# Poissons Ratio (y) = 0.30929 0.23425
# Poissons Ratio (z) = -0.42340 0.93554
#
# Static dielectric constant tensor:
#      x y z
#    x 4.535870 0.000000 0.412090 
#    y 0.000000 4.792240 0.000000 
#    z 0.412090 0.000000 4.897580 
# 
# 
# High freq. dielectric constant tensor:
#      x y z
#    x 1.967310 0.000000 0.031080 
#    y 0.000000 1.998620 0.000000 
#    z 0.031080 0.000000 2.011220 
# 
# From -- ./inp_files/41904.got.cif
#   From: 2010.06.25/outbox.cif.g09.slc.cpg/sg10_21_cif.got.tgz:41904.got - 2010.06.27 22:07:45.
