data_PCOD8065996
_publ_section_title
;
Structure prediction by ZEFSAII (Michael W. Deem and Ramdas Pophale) SiO2 
 PCOD8065996
Probable space group: P 2/M
;
_chemical_formula_sum "Si O2"
_cell_formula_units_Z 32
_cell_length_a 22.752787
_cell_length_b 8.962183
_cell_length_c 15.183538
_cell_angle_alpha 90.000000
_cell_angle_beta 148.887533
_cell_angle_gamma 90.000000
_cell_volume 1599.839266
_symmetry_space_group_name_H-M "P 2/M"
_symmetry_group_IT_number 10
_symmetry_cell_setting 'monoclinic'
loop_
_space_group_symop_operation_xyz
x,y,z
-x,y,-z
-x,-y,-z
x,-y,z
loop_
_atom_site_type_symbol
_atom_site_label
_atom_site_fract_x
_atom_site_fract_y
_atom_site_fract_z
Si Si1 0.703990 0.328874 0.903322
Si Si2 0.908572 0.828504 0.956308
Si Si3 0.076581 0.325547 0.516257
Si Si4 0.937894 0.825890 0.193207
Si Si5 0.512420 0.171208 0.325981
Si Si6 0.679732 0.329659 0.667706
Si Si7 0.336266 0.675847 0.828807
Si Si8 0.553329 0.826917 0.184361
O O1 0.722457 0.500000 0.953206
O O2 0.605081 0.260327 0.835863
O O3 0.665454 0.309266 0.753277
O O4 0.819757 0.244269 0.073501
O O5 0.959336 0.790207 0.117616
O O6 0.867968 0.000000 0.901384
O O7 0.803491 0.724214 0.797344
O O8 0.000000 0.792649 0.000000
O O9 0.056952 0.500000 0.476668
O O10 0.209703 0.289224 0.702565
O O11 0.000000 0.267981 0.500000
O O12 0.040080 0.243657 0.379993
O O13 0.932965 0.000000 0.205372
O O14 0.584705 0.231847 0.499531
O O15 0.581964 0.190766 0.324324
O O16 0.483060 0.000000 0.307416
O O17 0.663275 0.500000 0.617485
O O18 0.361191 0.500000 0.862577
O O19 0.351626 0.736123 0.748403
O O20 0.427372 0.761825 0.005484
O O21 0.555515 0.000000 0.159045
#
# Coordination Sequence:
#
# PCOD8065996 Si02
#       8
#     4   4   4   4   4   4   4   4
#     4  10  21  37  57  80 114 152 187 232 284 339
#     4   9  19  37  59  82 113 152 190 231 283 341
#     4  10  23  41  60  86 118 154 194 239 295 347
#     4  10  21  37  58  86 115 149 193 236 285 345
#     4  11  23  36  55  84 113 147 190 233 281 339
#     4  10  21  36  54  81 113 148 188 231 282 334
#     4  10  21  39  62  85 113 149 192 236 286 346
#     4  10  22  39  59  84 115 150 189 236 291 343
#
# _framework density 20.002008
#
# number of rings (size 3 to 8) (size 9 to 14) (size 15 to 20)
#    0.000    2.000    0.000    3.375    1.750    8.000 
#    0.000    3.750    0.000    0.000    0.000    0.000 
#    0.000    0.000    0.000    0.000    0.000    0.000 
#
# Total GULP energy -396883.246071 kJ/mol
# GULP energy per Si atom -12402.601440 kJ/mol
# Density = 1.995648 g / cm^3
# Si number density = 20.002008 Si / 1000 Ang^3
#
#
#
# Elastic Constant Matrix: (Units=GPa)
#
#
# Indices 1 2 3 4 5 6 
#
# 1 89.2883 32.0242 19.3561 0.0000 20.7260 0.0000
# 2 32.0242 76.0511 28.0799 0.0000 2.9326 0.0000
# 3 19.3561 28.0799 60.4695 0.0000 9.2858 0.0000
# 4 0.0000 0.0000 0.0000 32.8193 0.0000 0.5247
# 5 20.7260 2.9326 9.2858 0.0000 20.1914 0.0000
# 6 0.0000 0.0000 0.0000 0.5247 0.0000 28.7671
#
#
#
# Elastic Compliance Matrix: (Units=1/GPa)
#
#
# Indices 1 2 3 4 5 6 
#
# 1 0.017581 -0.006802 0.000162 0.000000 -0.017133 0.000000
# 2 -0.006802 0.018528 -0.007624 0.000000 0.007798 0.000000
# 3 0.000162 -0.007624 0.021392 0.000000 -0.008897 0.000000
# 4 0.000000 0.000000 0.000000 0.030479 0.000000 -0.000556
# 5 -0.017133 0.007798 -0.008897 0.000000 0.070072 0.000000
# 6 0.000000 0.000000 0.000000 -0.000556 0.000000 0.034772
#
#
# Mechanical properties :
#
#
# Convention : Reuss Voigt Hill
#
# Bulk Modulus (GPa) = 34.51500 42.74771 38.63136
# Shear Modulus (GPa) = 21.64416 26.11213 23.87815
#
# Velocity S-wave (km/s) = 3.29310 3.61706 3.45887
# Velocity P-wave (km/s) = 5.63494 6.23396 5.94200
#
# Compressibility (1/GPa) = 0.02897291
#
# Stress axis : x y z
#
# Youngs Moduli (GPa) = 56.87834 53.97349 46.74707
#
# Poissons Ratio (x) = 0.36715 -0.00758
# Poissons Ratio (y) = 0.38691 0.35638
# Poissons Ratio (z) = -0.00922 0.41147
#
# Static dielectric constant tensor:
#      x y z
#    x 3.671220 0.000000 0.005410 
#    y 0.000000 3.715360 0.000000 
#    z 0.005410 0.000000 3.523980 
# 
# 
# High freq. dielectric constant tensor:
#      x y z
#    x 1.783150 0.000000 -0.001720 
#    y 0.000000 1.790070 0.000000 
#    z -0.001720 0.000000 1.773840 
# 
# From -- ./inp_files/71667.got.cif
#   From: 2010.06.25/outbox.cif.g09.slc.cpg/sg10_36_cif.got.tgz:71667.got - 2010.06.27 22:07:45.
