data_PCOD8065305
_publ_section_title
;
Structure prediction by ZEFSAII (Michael W. Deem and Ramdas Pophale) SiO2 
 PCOD8065305
Probable space group: P 2/M
;
_chemical_formula_sum "Si O2"
_cell_formula_units_Z 20
_cell_length_a 11.833571
_cell_length_b 8.872996
_cell_length_c 9.505433
_cell_angle_alpha 90.000000
_cell_angle_beta 102.787113
_cell_angle_gamma 90.000000
_cell_volume 973.310325
_symmetry_space_group_name_H-M "P 2/M"
_symmetry_group_IT_number 10
_symmetry_cell_setting 'monoclinic'
loop_
_space_group_symop_operation_xyz
x,y,z
-x,y,-z
-x,-y,-z
x,-y,z
loop_
_atom_site_type_symbol
_atom_site_label
_atom_site_fract_x
_atom_site_fract_y
_atom_site_fract_z
Si Si1 0.028115 0.178094 0.850076
Si Si2 0.217875 0.675885 0.724012
Si Si3 0.837345 0.674778 0.605904
Si Si4 0.544497 0.172078 0.158575
Si Si5 0.392777 0.828893 0.376386
O O1 0.150613 0.244635 0.833232
O O2 0.929867 0.226802 0.714101
O O3 0.037821 0.000000 0.852600
O O4 0.000000 0.236959 0.000000
O O5 0.219388 0.500000 0.755240
O O6 0.154962 0.710891 0.558227
O O7 0.349067 0.733514 0.750953
O O8 0.863223 0.500000 0.641743
O O9 0.710946 0.714044 0.628963
O O10 0.432641 0.181718 0.226899
O O11 0.586945 0.000000 0.152947
O O12 0.500000 0.240731 0.000000
O O13 0.500000 0.776583 0.500000
O O14 0.354737 0.000000 0.405522
#
# Coordination Sequence:
#
# PCOD8065305 Si02
#       5
#     4   4   4   4   4
#     4  11  26  45  66  91 120 158 206 257 309 365
#     4  11  24  42  64  92 126 163 205 251 306 368
#     4  11  24  41  64  93 127 163 202 252 307 365
#     4  10  22  39  61  90 126 165 206 253 300 355
#     4  10  20  37  62  91 123 162 207 250 297 356
#
# _framework density 20.54843
#
# number of rings (size 3 to 8) (size 9 to 14) (size 15 to 20)
#    0.000    1.400    2.000    2.400    2.800    8.000 
#    0.000    0.000    0.000    0.000    0.000    0.000 
#    0.000    0.000    0.000    0.000    0.000    0.000 
#
# Total GULP energy -248095.855438 kJ/mol
# GULP energy per Si atom -12404.792772 kJ/mol
# Density = 2.050166 g / cm^3
# Si number density = 20.548430 Si / 1000 Ang^3
#
#
#
# Elastic Constant Matrix: (Units=GPa)
#
#
# Indices 1 2 3 4 5 6 
#
# 1 71.1174 28.4341 11.5154 0.0000 -16.0436 0.0000
# 2 28.4341 73.0581 36.8363 0.0000 -6.2609 0.0000
# 3 11.5154 36.8363 94.7410 0.0000 -10.8298 0.0000
# 4 0.0000 0.0000 0.0000 25.0958 0.0000 5.3919
# 5 -16.0436 -6.2609 -10.8298 0.0000 33.7914 0.0000
# 6 0.0000 0.0000 0.0000 5.3919 0.0000 6.3946
#
#
#
# Elastic Compliance Matrix: (Units=1/GPa)
#
#
# Indices 1 2 3 4 5 6 
#
# 1 0.018517 -0.007276 0.001484 0.000000 0.007919 0.000000
# 2 -0.007276 0.019922 -0.007094 0.000000 -0.002037 0.000000
# 3 0.001484 -0.007094 0.013560 0.000000 0.003736 0.000000
# 4 0.000000 0.000000 0.000000 0.048663 0.000000 -0.041033
# 5 0.007919 -0.002037 0.003736 0.000000 0.034173 0.000000
# 6 0.000000 0.000000 0.000000 -0.041033 0.000000 0.190982
#
#
# Mechanical properties :
#
#
# Convention : Reuss Voigt Hill
#
# Bulk Modulus (GPa) = 38.13142 43.60978 40.87060
# Shear Modulus (GPa) = 13.87608 23.86507 18.87057
#
# Velocity S-wave (km/s) = 2.60145 3.41164 3.03371
# Velocity P-wave (km/s) = 5.25552 6.06531 5.67488
#
# Compressibility (1/GPa) = 0.02622509
#
# Stress axis : x y z
#
# Youngs Moduli (GPa) = 54.00573 50.19581 73.74540
#
# Poissons Ratio (x) = 0.36523 -0.10941
# Poissons Ratio (y) = 0.39295 0.52318
# Poissons Ratio (z) = -0.08012 0.35611
#
# Static dielectric constant tensor:
#      x y z
#    x 3.774060 0.000000 -0.151670 
#    y 0.000000 3.648040 0.000000 
#    z -0.151670 0.000000 3.911790 
# 
# 
# High freq. dielectric constant tensor:
#      x y z
#    x 1.809070 0.000000 -0.006880 
#    y 0.000000 1.798860 0.000000 
#    z -0.006880 0.000000 1.814890 
# 
# From -- ./inp_files/22106.got.cif
#   From: 2010.06.25/outbox.cif.g09.slc.cpg/sg10_12_cif.got.tgz:22106.got - 2010.06.27 22:07:45.
