data_PCOD8065586
_publ_section_title
;
Structure prediction by ZEFSAII (Michael W. Deem and Ramdas Pophale) SiO2 
 PCOD8065586
Probable space group: P 2/M
;
_chemical_formula_sum "Si O2"
_cell_formula_units_Z 24
_cell_length_a 11.217880
_cell_length_b 13.451425
_cell_length_c 12.951207
_cell_angle_alpha 90.000000
_cell_angle_beta 146.549265
_cell_angle_gamma 90.000000
_cell_volume 1077.244088
_symmetry_space_group_name_H-M "P 2/M"
_symmetry_group_IT_number 10
_symmetry_cell_setting 'monoclinic'
loop_
_space_group_symop_operation_xyz
x,y,z
-x,y,-z
-x,-y,-z
x,-y,z
loop_
_atom_site_type_symbol
_atom_site_label
_atom_site_fract_x
_atom_site_fract_y
_atom_site_fract_z
Si Si1 0.837230 0.889879 0.651619
Si Si2 0.344470 0.694898 0.976243
Si Si3 0.491259 0.612983 0.283814
Si Si4 0.088977 0.267874 0.449974
Si Si5 0.751581 0.219912 0.790064
Si Si6 0.331993 0.891507 0.072456
O O1 0.814929 0.836448 0.523752
O O2 0.717424 0.821483 0.650065
O O3 0.082935 0.899822 0.863316
O O4 0.733703 0.000000 0.569103
O O5 0.436639 0.804401 0.077614
O O6 0.099519 0.697243 0.762434
O O7 0.500000 0.653004 0.000000
O O8 0.345447 0.622366 0.075200
O O9 0.498503 0.500000 0.327375
O O10 0.730815 0.647364 0.423913
O O11 0.383529 0.677818 0.297106
O O12 0.000000 0.250874 0.500000
O O13 0.351117 0.138068 0.206736
O O14 0.000000 0.240766 0.000000
O O15 0.442578 0.000000 0.134146
#
# Coordination Sequence:
#
# PCOD8065586 Si02
#       6
#     4   4   4   4   4   4
#     4   9  18  35  62  91 125 168 203 243 304 371
#     4  10  20  39  62  88 122 161 203 254 305 360
#     4  11  25  43  65  92 121 161 211 261 320 371
#     4  11  23  42  63  90 132 165 205 259 305 361
#     4   9  18  37  63  92 127 161 202 260 308 366
#     4   8  15  29  56  91 123 158 199 243 300 368
#
# _framework density 22.279074000000001
#
# number of rings (size 3 to 8) (size 9 to 14) (size 15 to 20)
#    0.000    2.333    1.667    1.500    0.000    5.000 
#    0.000    6.667    0.000    0.000    0.000    0.000 
#    0.000    0.000    0.000    0.000    0.000    0.000 
#
# Total GULP energy -297578.289317 kJ/mol
# GULP energy per Si atom -12399.095388 kJ/mol
# Density = 2.222837 g / cm^3
# Si number density = 22.279074 Si / 1000 Ang^3
#
#
#
# Elastic Constant Matrix: (Units=GPa)
#
#
# Indices 1 2 3 4 5 6 
#
# 1 105.4676 52.5279 29.1792 0.0000 -5.4909 0.0000
# 2 52.5279 164.1118 31.8388 0.0000 -3.7192 0.0000
# 3 29.1792 31.8388 51.0597 0.0000 -9.1311 0.0000
# 4 0.0000 0.0000 0.0000 11.3654 0.0000 -2.4238
# 5 -5.4909 -3.7192 -9.1311 0.0000 29.6451 0.0000
# 6 0.0000 0.0000 0.0000 -2.4238 0.0000 18.4033
#
#
#
# Elastic Compliance Matrix: (Units=1/GPa)
#
#
# Indices 1 2 3 4 5 6 
#
# 1 0.012407 -0.002957 -0.005187 0.000000 0.000329 0.000000
# 2 -0.002957 0.007644 -0.003178 0.000000 -0.000568 0.000000
# 3 -0.005187 -0.003178 0.025703 0.000000 0.006558 0.000000
# 4 0.000000 0.000000 0.000000 0.090529 0.000000 0.011923
# 5 0.000329 -0.000568 0.006558 0.000000 0.035742 0.000000
# 6 0.000000 0.000000 0.000000 0.011923 0.000000 0.055908
#
#
# Mechanical properties :
#
#
# Convention : Reuss Voigt Hill
#
# Bulk Modulus (GPa) = 43.27248 60.85898 52.06573
# Shear Modulus (GPa) = 19.35882 25.68898 22.52390
#
# Velocity S-wave (km/s) = 2.95095 3.39935 3.18306
# Velocity P-wave (km/s) = 5.57458 6.54090 6.07698
#
# Compressibility (1/GPa) = 0.02310938
#
# Stress axis : x y z
#
# Youngs Moduli (GPa) = 80.60173 130.82855 38.90529
#
# Poissons Ratio (x) = 0.38689 0.20181
# Poissons Ratio (y) = 0.23836 0.12363
# Poissons Ratio (z) = 0.41809 0.41574
#
# Static dielectric constant tensor:
#      x y z
#    x 4.001140 0.000000 -0.039250 
#    y 0.000000 4.001040 0.000000 
#    z -0.039250 0.000000 3.998680 
# 
# 
# High freq. dielectric constant tensor:
#      x y z
#    x 1.868590 0.000000 -0.001790 
#    y 0.000000 1.855600 0.000000 
#    z -0.001790 0.000000 1.887270 
# 
# From -- ./inp_files/64496.got.cif
#   From: 2010.06.25/outbox.cif.g09.slc.cpg/sg10_33_cif.got.tgz:64496.got - 2010.06.27 22:07:45.
