data_PCOD8065106
_publ_section_title
;
Structure prediction by ZEFSAII (Michael W. Deem and Ramdas Pophale) SiO2 
 PCOD8065106
Probable space group: P 2/M
;
_chemical_formula_sum "Si O2"
_cell_formula_units_Z 32
_cell_length_a 29.900911
_cell_length_b 9.270885
_cell_length_c 12.850478
_cell_angle_alpha 90.000000
_cell_angle_beta 152.281291
_cell_angle_gamma 90.000000
_cell_volume 1656.915288
_symmetry_space_group_name_H-M "P 2/M"
_symmetry_group_IT_number 10
_symmetry_cell_setting 'monoclinic'
loop_
_space_group_symop_operation_xyz
x,y,z
-x,y,-z
-x,-y,-z
x,-y,z
loop_
_atom_site_type_symbol
_atom_site_label
_atom_site_fract_x
_atom_site_fract_y
_atom_site_fract_z
Si Si1 0.591229 0.339064 0.944187
Si Si2 0.801804 0.166636 0.100173
Si Si3 0.571364 0.334052 0.236170
Si Si4 0.783877 0.335028 0.449741
Si Si5 0.099896 0.833988 0.913388
Si Si6 0.404620 0.168005 0.251908
Si Si7 0.766540 0.168201 0.615775
Si Si8 0.903487 0.329020 0.494901
O O1 0.603760 0.500000 0.924302
O O2 0.669564 0.316020 0.196865
O O3 0.484752 0.317747 0.770344
O O4 0.612576 0.228527 0.897547
O O5 0.836271 0.203197 0.055573
O O6 0.859587 0.263471 0.300038
O O7 0.820683 0.000000 0.168036
O O8 0.688275 0.202637 0.869242
O O9 0.601195 0.500000 0.276026
O O10 0.664959 0.237113 0.435659
O O11 0.500000 0.277600 0.000000
O O12 0.810845 0.500000 0.530596
O O13 0.813035 0.238008 0.608259
O O14 0.840030 0.281463 0.463115
O O15 0.009833 0.729102 0.730846
O O16 0.065431 0.000000 0.839296
O O17 0.161713 0.801248 0.142385
O O18 0.500000 0.238141 0.500000
O O19 0.421204 0.000000 0.271743
O O20 0.751019 0.000000 0.564085
O O21 0.905823 0.500000 0.486779
#
# Coordination Sequence:
#
# PCOD8065106 Si02
#       8
#     4   4   4   4   4   4   4   4
#     4  10  20  37  59  83 116 158 197 238 291 350
#     4  10  21  40  63  86 119 161 195 235 299 358
#     4  10  20  37  59  82 115 158 193 229 286 348
#     4  10  21  40  62  85 121 158 193 244 300 353
#     4  10  24  43  60  84 122 160 193 240 303 358
#     4  10  22  37  58  88 121 157 194 239 292 347
#     4  11  24  39  60  90 121 156 200 247 288 346
#     4  11  23  40  65  92 114 147 200 254 297 347
#
# _framework density 19.312996999999999
#
# number of rings (size 3 to 8) (size 9 to 14) (size 15 to 20)
#    0.000    1.750    2.500    1.125    1.750    6.000 
#    0.000    2.500    0.000    0.000    0.000    0.000 
#    0.000    0.000    0.000    0.000    0.000    0.000 
#
# Total GULP energy -396916.421125 kJ/mol
# GULP energy per Si atom -12403.638160 kJ/mol
# Density = 1.926904 g / cm^3
# Si number density = 19.312997 Si / 1000 Ang^3
#
#
#
# Elastic Constant Matrix: (Units=GPa)
#
#
# Indices 1 2 3 4 5 6 
#
# 1 89.1150 35.2908 42.4818 0.0000 -11.4186 0.0000
# 2 35.2908 64.1917 52.4702 0.0000 -5.0301 0.0000
# 3 42.4818 52.4702 106.4539 0.0000 -1.6446 0.0000
# 4 0.0000 0.0000 0.0000 6.1456 0.0000 9.4903
# 5 -11.4186 -5.0301 -1.6446 0.0000 31.6525 0.0000
# 6 0.0000 0.0000 0.0000 9.4903 0.0000 29.1240
#
#
#
# Elastic Compliance Matrix: (Units=1/GPa)
#
#
# Indices 1 2 3 4 5 6 
#
# 1 0.015605 -0.005337 -0.003526 0.000000 0.004598 0.000000
# 2 -0.005337 0.028304 -0.011791 0.000000 0.001960 0.000000
# 3 -0.003526 -0.011791 0.016577 0.000000 -0.002284 0.000000
# 4 0.000000 0.000000 0.000000 0.327536 0.000000 -0.106731
# 5 0.004598 0.001960 -0.002284 0.000000 0.033445 0.000000
# 6 0.000000 0.000000 0.000000 -0.106731 0.000000 0.069115
#
#
# Mechanical properties :
#
#
# Convention : Reuss Voigt Hill
#
# Bulk Modulus (GPa) = 52.14049 57.80512 54.97281
# Shear Modulus (GPa) = 9.28883 22.01894 15.65389
#
# Velocity S-wave (km/s) = 2.19547 3.38021 2.85008
# Velocity P-wave (km/s) = 5.78645 6.72534 6.27348
#
# Compressibility (1/GPa) = 0.01917895
#
# Stress axis : x y z
#
# Youngs Moduli (GPa) = 64.08258 35.33128 60.32476
#
# Poissons Ratio (x) = 0.18856 0.21269
# Poissons Ratio (y) = 0.34200 0.71126
# Poissons Ratio (z) = 0.22594 0.41658
#
# Static dielectric constant tensor:
#      x y z
#    x 3.649430 0.000000 0.090600 
#    y 0.000000 3.465740 0.000000 
#    z 0.090600 0.000000 3.530150 
# 
# 
# High freq. dielectric constant tensor:
#      x y z
#    x 1.765720 0.000000 0.003820 
#    y 0.000000 1.746310 0.000000 
#    z 0.003820 0.000000 1.750000 
# 
# From -- ./inp_files/58282.got.cif
#   From: 2010.06.25/outbox.cif.g09.slc.cpg/sg10_30_cif.got.tgz:58282.got - 2010.06.27 22:07:45.
