data_PCOD8065421
_publ_section_title
;
Structure prediction by ZEFSAII (Michael W. Deem and Ramdas Pophale) SiO2 
 PCOD8065421
Probable space group: P 2/M
;
_chemical_formula_sum "Si O2"
_cell_formula_units_Z 24
_cell_length_a 13.806906
_cell_length_b 9.133215
_cell_length_c 16.974770
_cell_angle_alpha 90.000000
_cell_angle_beta 144.344618
_cell_angle_gamma 90.000000
_cell_volume 1247.740984
_symmetry_space_group_name_H-M "P 2/M"
_symmetry_group_IT_number 10
_symmetry_cell_setting 'monoclinic'
loop_
_space_group_symop_operation_xyz
x,y,z
-x,y,-z
-x,-y,-z
x,-y,z
loop_
_atom_site_type_symbol
_atom_site_label
_atom_site_fract_x
_atom_site_fract_y
_atom_site_fract_z
Si Si1 0.794093 0.328241 0.704696
Si Si2 0.697368 0.173685 0.486880
Si Si3 0.985680 0.173896 0.402255
Si Si4 0.682406 0.826462 0.096656
Si Si5 0.626277 0.330792 0.756994
Si Si6 0.175202 0.669236 0.956002
O O1 0.773872 0.500000 0.675344
O O2 0.695925 0.240717 0.573073
O O3 0.716116 0.283083 0.736204
O O4 0.985146 0.279191 0.830011
O O5 0.858743 0.229689 0.546113
O O6 0.535561 0.232150 0.334648
O O7 0.692164 0.000000 0.488598
O O8 0.000000 0.239230 0.500000
O O9 0.815985 0.230515 0.249377
O O10 0.985853 0.000000 0.406275
O O11 0.721113 0.763105 0.036983
O O12 0.689210 0.000000 0.094797
O O13 0.500000 0.770936 0.000000
O O14 0.572174 0.500000 0.718556
O O15 0.755327 0.300019 0.911615
O O16 0.191051 0.500000 0.943146
#
# Coordination Sequence:
#
# PCOD8065421 Si02
#       6
#     4   4   4   4   4   4
#     4  10  20  38  61  81 110 153 193 229 279 338
#     4  11  22  36  58  86 116 147 186 235 283 331
#     4   9  19  36  56  80 110 145 183 225 274 333
#     4  10  21  37  60  85 111 146 187 228 280 342
#     4  10  22  38  57  83 114 152 193 229 273 337
#     4  10  21  38  60  84 114 148 189 237 281 326
#
# _framework density 19.234760999999999
#
# number of rings (size 3 to 8) (size 9 to 14) (size 15 to 20)
#    0.000    2.000    1.667    1.500    2.333    5.667 
#    0.000    0.000    0.000    5.500    0.000    0.000 
#    0.000    0.000    0.000    0.000    0.000    0.000 
#
# Total GULP energy -297701.114772 kJ/mol
# GULP energy per Si atom -12404.213116 kJ/mol
# Density = 1.919098 g / cm^3
# Si number density = 19.234761 Si / 1000 Ang^3
#
#
#
# Elastic Constant Matrix: (Units=GPa)
#
#
# Indices 1 2 3 4 5 6 
#
# 1 111.6620 24.6462 29.3200 0.0000 1.2935 0.0000
# 2 24.6462 31.4415 19.5538 0.0000 3.1254 0.0000
# 3 29.3200 19.5538 77.3452 0.0000 6.9803 0.0000
# 4 0.0000 0.0000 0.0000 28.0316 0.0000 2.0667
# 5 1.2935 3.1254 6.9803 0.0000 41.8290 0.0000
# 6 0.0000 0.0000 0.0000 2.0667 0.0000 27.2428
#
#
#
# Elastic Compliance Matrix: (Units=1/GPa)
#
#
# Indices 1 2 3 4 5 6 
#
# 1 0.011209 -0.007321 -0.002453 0.000000 0.000610 0.000000
# 2 -0.007321 0.042585 -0.007842 0.000000 -0.001647 0.000000
# 3 -0.002453 -0.007842 0.016023 0.000000 -0.002012 0.000000
# 4 0.000000 0.000000 0.000000 0.035875 0.000000 -0.002721
# 5 0.000610 -0.001647 -0.002012 0.000000 0.024347 0.000000
# 6 0.000000 0.000000 0.000000 -0.002721 0.000000 0.036913
#
#
# Mechanical properties :
#
#
# Convention : Reuss Voigt Hill
#
# Bulk Modulus (GPa) = 28.91518 40.83206 34.87362
# Shear Modulus (GPa) = 23.39600 29.21592 26.30596
#
# Velocity S-wave (km/s) = 3.49139 3.90155 3.70215
# Velocity P-wave (km/s) = 5.59629 6.44752 6.03693
#
# Compressibility (1/GPa) = 0.03458391
#
# Stress axis : x y z
#
# Youngs Moduli (GPa) = 89.21721 23.48262 62.40983
#
# Poissons Ratio (x) = 0.17192 0.15310
# Poissons Ratio (y) = 0.65317 0.48942
# Poissons Ratio (z) = 0.21886 0.18415
#
# Static dielectric constant tensor:
#      x y z
#    x 3.613850 0.000000 0.057730 
#    y 0.000000 3.244560 0.000000 
#    z 0.057730 0.000000 3.731720 
# 
# 
# High freq. dielectric constant tensor:
#      x y z
#    x 1.756930 0.000000 0.002210 
#    y 0.000000 1.721440 0.000000 
#    z 0.002210 0.000000 1.765350 
# 
# From -- ./inp_files/42000.got.cif
#   From: 2010.06.25/outbox.cif.g09.slc.cpg/sg10_21_cif.got.tgz:42000.got - 2010.06.27 22:07:45.
