data_PCOD8065488
_publ_section_title
;
Structure prediction by ZEFSAII (Michael W. Deem and Ramdas Pophale) SiO2 
 PCOD8065488
Probable space group: P 2/M
;
_chemical_formula_sum "Si O2"
_cell_formula_units_Z 24
_cell_length_a 7.950315
_cell_length_b 7.549356
_cell_length_c 22.358224
_cell_angle_alpha 90.000000
_cell_angle_beta 122.234340
_cell_angle_gamma 90.000000
_cell_volume 1135.107607
_symmetry_space_group_name_H-M "P 2/M"
_symmetry_group_IT_number 10
_symmetry_cell_setting 'monoclinic'
loop_
_space_group_symop_operation_xyz
x,y,z
-x,y,-z
-x,-y,-z
x,-y,z
loop_
_atom_site_type_symbol
_atom_site_label
_atom_site_fract_x
_atom_site_fract_y
_atom_site_fract_z
Si Si1 0.826317 0.000000 0.919441
Si Si2 0.380060 0.288505 0.420039
Si Si3 0.562024 0.289793 0.331712
Si Si4 0.933113 0.710206 0.331711
Si Si5 0.567993 0.000000 0.080558
Si Si6 0.827906 0.699109 0.181833
Si Si7 0.782403 0.300891 0.818166
O O1 0.848174 0.823586 0.884579
O O2 0.615963 0.000000 0.910642
O O3 0.000000 0.000000 0.000000
O O4 0.500000 0.217753 0.500000
O O5 0.376810 0.500000 0.417873
O O6 0.491047 0.212063 0.382031
O O7 0.155050 0.212062 0.382030
O O8 0.551651 0.500000 0.333225
O O9 0.786408 0.226260 0.357604
O O10 0.416590 0.226097 0.250931
O O11 0.948028 0.500000 0.333226
O O12 0.836203 0.773902 0.250931
O O13 0.694439 0.176414 0.115421
O O14 0.500000 0.000000 0.000000
O O15 0.738277 0.500000 0.162450
O O16 0.052325 0.698211 0.201549
O O17 0.750923 0.500000 0.837549
#
# Coordination Sequence:
#
# PCOD8065488 Si02
#       7
#     2   4   4   4   2   4   4
#     4  12  26  42  60  88 122 153 194 244 299 364
#     4   9  16  26  42  71 113 153 192 247 303 346
#     4   9  16  28  48  75 107 148 199 244 289 351
#     4   9  16  28  48  75 107 148 199 244 289 351
#     4  12  26  42  60  88 122 153 194 244 299 364
#     4  10  20  38  63  87 116 156 199 247 299 352
#     4  10  20  38  63  87 116 156 199 247 299 352
#
# _framework density 21.143370000000001
#
# number of rings (size 3 to 8) (size 9 to 14) (size 15 to 20)
#    0.000    2.167    1.667    2.500    0.000    3.333 
#    0.000    3.333    0.000    0.000    0.000    2.333 
#    0.000    4.000    0.000    0.333    0.000    0.000 
#
# Total GULP energy -297563.955469 kJ/mol
# GULP energy per Si atom -12398.498145 kJ/mol
# Density = 2.109525 g / cm^3
# Si number density = 21.143370 Si / 1000 Ang^3
#
#
#
# Elastic Constant Matrix: (Units=GPa)
#
#
# Indices 1 2 3 4 5 6 
#
# 1 156.6058 20.0406 69.9295 0.0000 -0.0017 0.0000
# 2 20.0406 72.3309 44.3726 0.0000 0.0008 0.0000
# 3 69.9295 44.3726 167.6354 0.0000 0.0002 0.0000
# 4 0.0000 0.0000 0.0000 -7.5288 0.0000 -0.0010
# 5 -0.0017 0.0008 0.0002 0.0000 32.8545 0.0000
# 6 0.0000 0.0000 0.0000 -0.0010 0.0000 14.2554
#
#
#
# Elastic Compliance Matrix: (Units=1/GPa)
#
#
# Indices 1 2 3 4 5 6 
#
# 1 0.007850 -0.000198 -0.003222 0.000000 0.000000 0.000000
# 2 -0.000198 0.016511 -0.004288 0.000000 0.000000 0.000000
# 3 -0.003222 -0.004288 0.008444 0.000000 0.000000 0.000000
# 4 0.000000 0.000000 0.000000 -0.132823 0.000000 -0.000009
# 5 0.000000 0.000000 0.000000 0.000000 0.030437 0.000000
# 6 0.000000 0.000000 0.000000 -0.000009 0.000000 0.070149
#
#
# Mechanical properties :
#
#
# Convention : Reuss Voigt Hill
#
# Bulk Modulus (GPa) = 57.50849 73.91746 65.71298
# Shear Modulus (GPa) = 229.57243 25.39818 127.48530
#
# Velocity S-wave (km/s) = 10.43143 3.46965 7.77345
# Velocity P-wave (km/s) = 13.12801 7.14754 10.56957
#
# Compressibility (1/GPa) = 0.01738874
#
# Stress axis : x y z
#
# Youngs Moduli (GPa) = 127.39587 60.56721 118.42320
#
# Poissons Ratio (x) = 0.01201 0.38156
# Poissons Ratio (y) = 0.02526 0.50775
# Poissons Ratio (z) = 0.41047 0.25969
#
# Static dielectric constant tensor:
#      x y z
#    x 4.146540 0.000000 -0.000020 
#    y 0.000000 3.380710 0.000000 
#    z -0.000020 0.000000 3.695830 
# 
# 
# High freq. dielectric constant tensor:
#      x y z
#    x 1.846660 0.000000 0.000000 
#    y 0.000000 1.802510 0.000000 
#    z 0.000000 0.000000 1.816580 
# 
# From -- ./inp_files/82080.got.cif
#   From: 2010.06.25/outbox.cif.g09.slc.cpg/sg10_42_cif.got.tgz:82080.got - 2010.06.27 22:07:45.
