data_PCOD8065977
_publ_section_title
;
Structure prediction by ZEFSAII (Michael W. Deem and Ramdas Pophale) SiO2 
 PCOD8065977
Probable space group: P 2/M
;
_chemical_formula_sum "Si O2"
_cell_formula_units_Z 28
_cell_length_a 9.260652
_cell_length_b 9.350964
_cell_length_c 29.233092
_cell_angle_alpha 90.000000
_cell_angle_beta 37.220676
_cell_angle_gamma 90.000000
_cell_volume 1531.251776
_symmetry_space_group_name_H-M "P 2/M"
_symmetry_group_IT_number 10
_symmetry_cell_setting 'monoclinic'
loop_
_space_group_symop_operation_xyz
x,y,z
-x,y,-z
-x,-y,-z
x,-y,z
loop_
_atom_site_type_symbol
_atom_site_label
_atom_site_fract_x
_atom_site_fract_y
_atom_site_fract_z
Si Si1 0.516802 0.831738 0.130843
Si Si2 0.645898 0.335735 0.008401
Si Si3 0.723720 0.661123 0.563691
Si Si4 0.448677 0.832083 0.562604
Si Si5 0.971631 0.166041 0.267944
Si Si6 0.311067 0.665221 0.734266
Si Si7 0.205482 0.664895 0.861797
O O1 0.565506 0.767716 0.068972
O O2 0.687873 0.760963 0.125004
O O3 0.242692 0.798477 0.212798
O O4 0.569743 0.000000 0.116339
O O5 0.592351 0.500000 0.035508
O O6 0.500000 0.292307 0.000000
O O7 0.923916 0.311918 0.929221
O O8 0.668908 0.500000 0.561121
O O9 0.652236 0.771523 0.543319
O O10 0.576010 0.692511 0.647411
O O11 0.000000 0.687148 0.500000
O O12 0.500000 0.765053 0.500000
O O13 0.188094 0.788675 0.647821
O O14 0.481196 0.000000 0.552979
O O15 0.889343 0.250937 0.243761
O O16 0.936631 0.000000 0.265128
O O17 0.234709 0.500000 0.751359
O O18 0.316243 0.716072 0.785550
O O19 0.268403 0.500000 0.856580
#
# Coordination Sequence:
#
# PCOD8065977 Si02
#       7
#     4   4   4   4   4   4   4
#     4  11  23  36  52  77 108 137 165 204 255 304
#     4  10  21  38  59  79 100 131 171 211 249 294
#     4   9  18  32  50  75 106 134 164 208 257 302
#     4   9  18  33  52  73  99 133 173 212 248 294
#     4   9  19  35  52  73 102 134 169 210 253 297
#     4   9  18  34  55  76  99 133 174 210 249 300
#     4  10  21  36  54  77 104 133 168 210 251 294
#
# _framework density 18.285692999999998
#
# number of rings (size 3 to 8) (size 9 to 14) (size 15 to 20)
#    0.000    2.429    0.000    1.714    0.000    7.143 
#    0.000    0.000    0.000    0.000    0.000    0.000 
#    0.000    0.000    0.000    0.000    0.000    0.000 
#
# Total GULP energy -347208.663665 kJ/mol
# GULP energy per Si atom -12400.309417 kJ/mol
# Density = 1.824407 g / cm^3
# Si number density = 18.285693 Si / 1000 Ang^3
#
#
#
# Elastic Constant Matrix: (Units=GPa)
#
#
# Indices 1 2 3 4 5 6 
#
# 1 129.5893 56.0452 71.9785 0.0000 10.2282 0.0000
# 2 56.0452 56.6071 49.7640 0.0000 7.1932 0.0000
# 3 71.9785 49.7640 111.5766 0.0000 14.6795 0.0000
# 4 0.0000 0.0000 0.0000 26.8584 0.0000 0.9490
# 5 10.2282 7.1932 14.6795 0.0000 34.5224 0.0000
# 6 0.0000 0.0000 0.0000 0.9490 0.0000 30.6459
#
#
#
# Elastic Compliance Matrix: (Units=1/GPa)
#
#
# Indices 1 2 3 4 5 6 
#
# 1 0.015039 -0.010461 -0.005017 0.000000 -0.000143 0.000000
# 2 -0.010461 0.036347 -0.009400 0.000000 -0.000477 0.000000
# 3 -0.005017 -0.009400 0.016883 0.000000 -0.003734 0.000000
# 4 0.000000 0.000000 0.000000 0.037273 0.000000 -0.001154
# 5 -0.000143 -0.000477 -0.003734 0.000000 0.030696 0.000000
# 6 0.000000 0.000000 0.000000 -0.001154 0.000000 0.032666
#
#
# Mechanical properties :
#
#
# Convention : Reuss Voigt Hill
#
# Bulk Modulus (GPa) = 54.01752 72.59427 63.30589
# Shear Modulus (GPa) = 22.23903 26.40439 24.32171
#
# Velocity S-wave (km/s) = 3.49119 3.80411 3.65100
# Velocity P-wave (km/s) = 6.77172 7.68643 7.24353
#
# Compressibility (1/GPa) = 0.01851251
#
# Stress axis : x y z
#
# Youngs Moduli (GPa) = 66.49486 27.51292 59.23197
#
# Poissons Ratio (x) = 0.28780 0.29718
# Poissons Ratio (y) = 0.69558 0.55678
# Poissons Ratio (z) = 0.33362 0.25862
#
# Static dielectric constant tensor:
#      x y z
#    x 3.273770 0.000000 0.031680 
#    y 0.000000 3.381090 0.000000 
#    z 0.031680 0.000000 3.671110 
# 
# 
# High freq. dielectric constant tensor:
#      x y z
#    x 1.702640 0.000000 -0.000780 
#    y 0.000000 1.705730 0.000000 
#    z -0.000780 0.000000 1.724790 
# 
# From -- ./inp_files/31653.got.cif
#   From: 2010.06.25/outbox.cif.g09.slc.cpg/sg10_16_cif.got.tgz:31653.got - 2010.06.27 22:07:45.
