data_PCOD8065575
_publ_section_title
;
Structure prediction by ZEFSAII (Michael W. Deem and Ramdas Pophale) SiO2 
 PCOD8065575
Probable space group: P 2/M
;
_chemical_formula_sum "Si O2"
_cell_formula_units_Z 28
_cell_length_a 25.405420
_cell_length_b 9.275520
_cell_length_c 9.681141
_cell_angle_alpha 90.000000
_cell_angle_beta 139.834089
_cell_angle_gamma 90.000000
_cell_volume 1471.475449
_symmetry_space_group_name_H-M "P 2/M"
_symmetry_group_IT_number 10
_symmetry_cell_setting 'monoclinic'
loop_
_space_group_symop_operation_xyz
x,y,z
-x,y,-z
-x,-y,-z
x,-y,z
loop_
_atom_site_type_symbol
_atom_site_label
_atom_site_fract_x
_atom_site_fract_y
_atom_site_fract_z
Si Si1 0.845012 0.833018 0.954302
Si Si2 0.255874 0.165369 0.983915
Si Si3 0.265135 0.666271 0.474437
Si Si4 0.001782 0.668888 0.844237
Si Si5 0.578512 0.833510 0.250550
Si Si6 0.426036 0.171157 0.444069
Si Si7 0.821143 0.662970 0.411326
O O1 0.819545 0.816253 0.062579
O O2 0.931674 0.758158 0.106543
O O3 0.850121 0.000000 0.920701
O O4 0.774442 0.756113 0.727558
O O5 0.233054 0.239799 0.795604
O O6 0.271623 0.000000 0.979768
O O7 0.339701 0.231801 0.213970
O O8 0.273991 0.500000 0.448293
O O9 0.352897 0.734486 0.681713
O O10 0.207935 0.682885 0.491319
O O11 0.023800 0.500000 0.880247
O O12 0.916327 0.705178 0.599533
O O13 0.000000 0.718485 0.000000
O O14 0.561267 0.779874 0.372107
O O15 0.607020 0.000000 0.307524
O O16 0.500000 0.810586 0.000000
O O17 0.500000 0.234702 0.500000
O O18 0.426031 0.000000 0.436208
O O19 0.809544 0.500000 0.337692
#
# Coordination Sequence:
#
# PCOD8065575 Si02
#       7
#     4   4   4   4   4   4   4
#     4  11  22  38  61  89 119 152 196 244 292 349
#     4  10  22  39  59  85 120 154 191 243 292 346
#     4  11  22  39  61  85 119 160 197 240 292 347
#     4  10  20  39  61  84 118 155 195 241 293 347
#     4  10  21  37  60  90 119 149 194 246 291 343
#     4   9  18  35  57  83 116 152 189 232 289 346
#     4  10  23  40  59  85 117 154 198 242 285 350
#
# _framework density 19.02852
#
# number of rings (size 3 to 8) (size 9 to 14) (size 15 to 20)
#    0.000    1.857    2.857    0.857    2.000    4.000 
#    0.000    2.857    0.000    0.857    0.000    0.000 
#    0.000    0.000    0.000    0.000    0.000    0.000 
#
# Total GULP energy -347272.696557 kJ/mol
# GULP energy per Si atom -12402.596306 kJ/mol
# Density = 1.898521 g / cm^3
# Si number density = 19.028520 Si / 1000 Ang^3
#
#
#
# Elastic Constant Matrix: (Units=GPa)
#
#
# Indices 1 2 3 4 5 6 
#
# 1 72.5137 30.5214 17.1800 0.0000 24.7007 0.0000
# 2 30.5214 68.4558 32.2298 0.0000 9.3148 0.0000
# 3 17.1800 32.2298 92.3988 0.0000 2.6457 0.0000
# 4 0.0000 0.0000 0.0000 20.7443 0.0000 -1.9535
# 5 24.7007 9.3148 2.6457 0.0000 27.9911 0.0000
# 6 0.0000 0.0000 0.0000 -1.9535 0.0000 27.1311
#
#
#
# Elastic Compliance Matrix: (Units=1/GPa)
#
#
# Indices 1 2 3 4 5 6 
#
# 1 0.023319 -0.007355 -0.001254 0.000000 -0.018011 0.000000
# 2 -0.007355 0.020605 -0.005825 0.000000 0.000185 0.000000
# 3 -0.001254 -0.005825 0.013036 0.000000 0.001813 0.000000
# 4 0.000000 0.000000 0.000000 0.048535 0.000000 0.003495
# 5 -0.018011 0.000185 0.001813 0.000000 0.051387 0.000000
# 6 0.000000 0.000000 0.000000 0.003495 0.000000 0.037110
#
#
# Mechanical properties :
#
#
# Convention : Reuss Voigt Hill
#
# Bulk Modulus (GPa) = 35.59976 43.69229 39.64602
# Shear Modulus (GPa) = 21.53094 25.40244 23.46669
#
# Velocity S-wave (km/s) = 3.36744 3.65768 3.51556
# Velocity P-wave (km/s) = 5.81969 6.39136 6.11221
#
# Compressibility (1/GPa) = 0.02809008
#
# Stress axis : x y z
#
# Youngs Moduli (GPa) = 42.88356 48.53253 76.71227
#
# Poissons Ratio (x) = 0.35698 0.09622
# Poissons Ratio (y) = 0.31543 0.44684
# Poissons Ratio (z) = 0.05379 0.28269
#
# Static dielectric constant tensor:
#      x y z
#    x 3.585920 0.000000 0.137490 
#    y 0.000000 3.361910 0.000000 
#    z 0.137490 0.000000 3.450750 
# 
# 
# High freq. dielectric constant tensor:
#      x y z
#    x 1.747920 0.000000 0.007030 
#    y 0.000000 1.722030 0.000000 
#    z 0.007030 0.000000 1.744490 
# 
# From -- ./inp_files/37238.got.cif
#   From: 2010.06.25/outbox.cif.g09.slc.cpg/sg10_19_cif.got.tgz:37238.got - 2010.06.27 22:07:45.
