data_PCOD8065639
_publ_section_title
;
Structure prediction by ZEFSAII (Michael W. Deem and Ramdas Pophale) SiO2 
 PCOD8065639
Probable space group: P 2/M
;
_chemical_formula_sum "Si O2"
_cell_formula_units_Z 22
_cell_length_a 6.309585
_cell_length_b 14.176958
_cell_length_c 15.151714
_cell_angle_alpha 90.000000
_cell_angle_beta 125.343377
_cell_angle_gamma 90.000000
_cell_volume 1105.543941
_symmetry_space_group_name_H-M "P 2/M"
_symmetry_group_IT_number 10
_symmetry_cell_setting 'monoclinic'
loop_
_space_group_symop_operation_xyz
x,y,z
-x,y,-z
-x,-y,-z
x,-y,z
loop_
_atom_site_type_symbol
_atom_site_label
_atom_site_fract_x
_atom_site_fract_y
_atom_site_fract_z
Si Si1 0.000000 0.175207 0.500000
Si Si2 0.718827 0.247802 0.123165
Si Si3 0.673802 0.608697 0.259040
Si Si4 0.222347 0.684608 0.428404
Si Si5 0.280866 0.747390 0.251163
Si Si6 0.652861 0.892406 0.265468
O O1 0.780221 0.243497 0.489276
O O2 0.878420 0.112009 0.393672
O O3 0.651959 0.345390 0.157172
O O4 0.735746 0.162594 0.197632
O O5 0.993354 0.260025 0.138002
O O6 0.500000 0.223817 0.000000
O O7 0.597880 0.500000 0.234695
O O8 0.466587 0.659403 0.272544
O O9 0.967770 0.618100 0.368838
O O10 0.500000 0.628391 0.500000
O O11 0.218324 0.747933 0.339813
O O12 0.397535 0.845899 0.246444
O O13 0.593718 0.000000 0.226783
#
# Coordination Sequence:
#
# PCOD8065639 Si02
#       6
#     2   4   4   4   4   4
#     4  12  19  40  59  92 124 162 203 246 295 358
#     4  10  23  44  65  86 121 163 202 251 309 362
#     4  10  22  39  61  93 122 154 207 255 298 359
#     4  11  19  36  63  84 127 169 198 240 299 362
#     4  10  20  40  60  86 123 160 199 251 308 353
#     4  11  23  38  62  95 125 157 204 251 296 360
#
# _framework density 19.899705000000001
#
# number of rings (size 3 to 8) (size 9 to 14) (size 15 to 20)
#    0.000    1.455    7.273    0.273    0.000    7.636 
#    0.000    5.909    0.000    0.000    0.000    0.000 
#    0.000    0.000    0.000    0.000    0.000    0.000 
#
# Total GULP energy -272674.121368 kJ/mol
# GULP energy per Si atom -12394.278244 kJ/mol
# Density = 1.985441 g / cm^3
# Si number density = 19.899705 Si / 1000 Ang^3
#
#
#
# Elastic Constant Matrix: (Units=GPa)
#
#
# Indices 1 2 3 4 5 6 
#
# 1 130.6670 51.5306 43.4556 0.0000 18.9698 0.0000
# 2 51.5306 148.5831 32.9970 0.0000 0.0468 0.0000
# 3 43.4556 32.9970 110.5028 0.0000 17.8062 0.0000
# 4 0.0000 0.0000 0.0000 11.3351 0.0000 -0.3351
# 5 18.9698 0.0468 17.8062 0.0000 30.4194 0.0000
# 6 0.0000 0.0000 0.0000 -0.3351 0.0000 9.8302
#
#
#
# Elastic Compliance Matrix: (Units=1/GPa)
#
#
# Indices 1 2 3 4 5 6 
#
# 1 0.010388 -0.003081 -0.002343 0.000000 -0.005102 0.000000
# 2 -0.003081 0.008175 -0.001697 0.000000 0.002902 0.000000
# 3 -0.002343 -0.001697 0.011309 0.000000 -0.005156 0.000000
# 4 0.000000 0.000000 0.000000 0.088310 0.000000 0.003010
# 5 -0.005102 0.002902 -0.005156 0.000000 0.039069 0.000000
# 6 0.000000 0.000000 0.000000 0.003010 0.000000 0.101830
#
#
# Mechanical properties :
#
#
# Convention : Reuss Voigt Hill
#
# Bulk Modulus (GPa) = 63.98271 71.74658 67.86465
# Shear Modulus (GPa) = 17.95127 27.76824 22.85976
#
# Velocity S-wave (km/s) = 3.00673 3.73957 3.39300
# Velocity P-wave (km/s) = 6.65405 7.40123 7.03756
#
# Compressibility (1/GPa) = 0.01562922
#
# Stress axis : x y z
#
# Youngs Moduli (GPa) = 96.26640 122.32935 88.42888
#
# Poissons Ratio (x) = 0.37686 0.20719
# Poissons Ratio (y) = 0.29657 0.15008
# Poissons Ratio (z) = 0.22556 0.20761
#
# Static dielectric constant tensor:
#      x y z
#    x 3.984970 0.000000 0.189990 
#    y 0.000000 3.222100 0.000000 
#    z 0.189990 0.000000 3.620030 
# 
# 
# High freq. dielectric constant tensor:
#      x y z
#    x 1.796930 0.000000 0.005160 
#    y 0.000000 1.741040 0.000000 
#    z 0.005160 0.000000 1.769250 
# 
# From -- ./inp_files/9170.got.cif
#   From: 2010.06.25/outbox.cif.g09.slc.cpg/sg10_5_cif.got.tgz:9170.got - 2010.06.27 22:07:45.
