data_PCOD8065682
_publ_section_title
;
Structure prediction by ZEFSAII (Michael W. Deem and Ramdas Pophale) SiO2 
 PCOD8065682
Probable space group: P 2/M
;
_chemical_formula_sum "Si O2"
_cell_formula_units_Z 28
_cell_length_a 10.682348
_cell_length_b 14.914993
_cell_length_c 9.629173
_cell_angle_alpha 90.000000
_cell_angle_beta 119.357746
_cell_angle_gamma 90.000000
_cell_volume 1337.161395
_symmetry_space_group_name_H-M "P 2/M"
_symmetry_group_IT_number 10
_symmetry_cell_setting 'monoclinic'
loop_
_space_group_symop_operation_xyz
x,y,z
-x,y,-z
-x,-y,-z
x,-y,z
loop_
_atom_site_type_symbol
_atom_site_label
_atom_site_fract_x
_atom_site_fract_y
_atom_site_fract_z
Si Si1 0.695297 0.762460 0.001029
Si Si2 0.618877 0.395096 0.451502
Si Si3 0.659670 0.103847 0.531154
Si Si4 0.616295 0.235684 0.260977
Si Si5 0.167488 0.097690 0.106077
Si Si6 0.937333 0.399145 0.603532
Si Si7 0.126164 0.601372 0.968517
O O1 0.715468 0.760084 0.178266
O O2 0.736329 0.666364 0.953498
O O3 0.540141 0.796649 0.870113
O O4 0.801467 0.836870 0.003014
O O5 0.500000 0.364942 0.500000
O O6 0.599732 0.500000 0.408039
O O7 0.592967 0.337404 0.299899
O O8 0.783408 0.366562 0.583807
O O9 0.500000 0.121213 0.500000
O O10 0.684359 0.167975 0.411217
O O11 0.774928 0.132755 0.712461
O O12 0.681328 0.000000 0.498389
O O13 0.241009 0.000000 0.123556
O O14 0.000000 0.086281 0.000000
O O15 0.903089 0.500000 0.538403
O O16 0.000000 0.347811 0.500000
O O17 0.063464 0.394167 0.781388
O O18 0.174303 0.500000 0.036513
O O19 0.000000 0.636006 0.000000
#
# Coordination Sequence:
#
# PCOD8065682 Si02
#       7
#     4   4   4   4   4   4   4
#     4  11  24  39  57  90 127 165 200 251 316 361
#     4  10  22  37  58  85 118 161 208 262 317 362
#     4  10  20  40  68  91 116 160 207 247 299 364
#     4  11  24  38  59  90 127 161 206 254 298 373
#     4  10  22  42  68  96 126 158 199 255 312 367
#     4   9  18  35  57  79 106 147 202 255 303 361
#     4  10  22  38  58  82 114 157 207 253 297 359
#
# _framework density 20.939881
#
# number of rings (size 3 to 8) (size 9 to 14) (size 15 to 20)
#    0.000    1.857    1.429    1.714    2.000    4.000 
#    0.000    5.000    0.000    2.571    0.000    0.000 
#    0.000    0.000    0.000    0.000    0.000    0.000 
#
# Total GULP energy -346968.835758 kJ/mol
# GULP energy per Si atom -12391.744134 kJ/mol
# Density = 2.089222 g / cm^3
# Si number density = 20.939881 Si / 1000 Ang^3
#
#
#
# Elastic Constant Matrix: (Units=GPa)
#
#
# Indices 1 2 3 4 5 6 
#
# 1 97.2026 43.8105 37.8459 0.0000 -11.8669 0.0000
# 2 43.8105 104.2151 43.9152 0.0000 -21.6994 0.0000
# 3 37.8459 43.9152 104.8670 0.0000 -13.4679 0.0000
# 4 0.0000 0.0000 0.0000 30.5559 0.0000 3.0983
# 5 -11.8669 -21.6994 -13.4679 0.0000 39.8170 0.0000
# 6 0.0000 0.0000 0.0000 3.0983 0.0000 8.2328
#
#
#
# Elastic Compliance Matrix: (Units=1/GPa)
#
#
# Indices 1 2 3 4 5 6 
#
# 1 0.013451 -0.004255 -0.002985 0.000000 0.000680 0.000000
# 2 -0.004255 0.013996 -0.003668 0.000000 0.005119 0.000000
# 3 -0.002985 -0.003668 0.012313 0.000000 0.001276 0.000000
# 4 0.000000 0.000000 0.000000 0.034025 0.000000 -0.012805
# 5 0.000680 0.005119 0.001276 0.000000 0.028539 0.000000
# 6 0.000000 0.000000 0.000000 -0.012805 0.000000 0.126284
#
#
# Mechanical properties :
#
#
# Convention : Reuss Voigt Hill
#
# Bulk Modulus (GPa) = 55.73058 61.93644 58.83351
# Shear Modulus (GPa) = 19.50040 27.76868 23.63454
#
# Velocity S-wave (km/s) = 3.05496 3.64554 3.36324
# Velocity P-wave (km/s) = 6.25428 6.88203 6.57565
#
# Compressibility (1/GPa) = 0.01794347
#
# Stress axis : x y z
#
# Youngs Moduli (GPa) = 74.34452 71.45038 81.21400
#
# Poissons Ratio (x) = 0.30402 0.24243
# Poissons Ratio (y) = 0.31634 0.29789
# Poissons Ratio (z) = 0.22193 0.26208
#
# Static dielectric constant tensor:
#      x y z
#    x 3.984190 0.000000 -0.022980 
#    y 0.000000 3.789790 0.000000 
#    z -0.022980 0.000000 3.707360 
# 
# 
# High freq. dielectric constant tensor:
#      x y z
#    x 1.817810 0.000000 0.000350 
#    y 0.000000 1.811020 0.000000 
#    z 0.000350 0.000000 1.817390 
# 
# From -- ./inp_files/25441.got.cif
#   From: 2010.06.25/outbox.cif.g09.slc.cpg/sg10_13_cif.got.tgz:25441.got - 2010.06.27 22:07:45.
