data_PCOD8065201
_publ_section_title
;
Structure prediction by ZEFSAII (Michael W. Deem and Ramdas Pophale) SiO2 
 PCOD8065201
Probable space group: P 2/M
;
_chemical_formula_sum "Si O2"
_cell_formula_units_Z 24
_cell_length_a 12.173990
_cell_length_b 8.803328
_cell_length_c 24.716897
_cell_angle_alpha 90.000000
_cell_angle_beta 25.316102
_cell_angle_gamma 90.000000
_cell_volume 1132.722633
_symmetry_space_group_name_H-M "P 2/M"
_symmetry_group_IT_number 10
_symmetry_cell_setting 'monoclinic'
loop_
_space_group_symop_operation_xyz
x,y,z
-x,y,-z
-x,-y,-z
x,-y,z
loop_
_atom_site_type_symbol
_atom_site_label
_atom_site_fract_x
_atom_site_fract_y
_atom_site_fract_z
Si Si1 0.631873 0.178120 0.283784
Si Si2 0.945516 0.327806 0.964039
Si Si3 0.692119 0.679487 0.366794
Si Si4 0.349627 0.671441 0.208577
Si Si5 0.241583 0.821070 0.145990
Si Si6 0.266715 0.832536 0.352672
O O1 0.923322 0.218584 0.138251
O O2 0.555425 0.264743 0.372664
O O3 0.461710 0.239725 0.309514
O O4 0.593583 0.000000 0.310332
O O5 0.050456 0.500000 0.911892
O O6 0.000000 0.265620 0.000000
O O7 0.650818 0.318571 0.081360
O O8 0.500000 0.733982 0.500000
O O9 0.722083 0.500000 0.353929
O O10 0.978598 0.748720 0.240987
O O11 0.258206 0.500000 0.236703
O O12 0.259216 0.780249 0.201079
O O13 0.224833 0.724698 0.320145
O O14 0.218189 0.000000 0.148762
O O15 0.500000 0.760603 0.000000
O O16 0.000000 0.852031 0.500000
O O17 0.366547 0.000000 0.289804
#
# Coordination Sequence:
#
# PCOD8065201 Si02
#       6
#     4   4   4   4   4   4
#     4  11  23  39  64  94 126 165 209 260 316 375
#     4  10  20  37  60  90 127 164 203 251 310 372
#     4  11  26  46  68  96 129 169 218 269 323 385
#     4  11  23  39  64  95 127 165 208 258 315 375
#     4  11  25  45  69  97 130 170 218 269 323 384
#     4  10  23  41  60  89 126 167 210 255 313 375
#
# _framework density 21.187888999999998
#
# number of rings (size 3 to 8) (size 9 to 14) (size 15 to 20)
#    0.000    1.333    1.667    3.000    2.333    8.000 
#    0.000    0.000    0.000    0.000    0.000    0.000 
#    0.000    0.000    0.000    0.000    0.000    0.000 
#
# Total GULP energy -297645.474829 kJ/mol
# GULP energy per Si atom -12401.894785 kJ/mol
# Density = 2.113966 g / cm^3
# Si number density = 21.187889 Si / 1000 Ang^3
#
#
#
# Elastic Constant Matrix: (Units=GPa)
#
#
# Indices 1 2 3 4 5 6 
#
# 1 101.7304 22.8073 25.2226 0.0000 19.1880 0.0000
# 2 22.8073 64.9231 31.5974 0.0000 5.0649 0.0000
# 3 25.2226 31.5974 96.1369 0.0000 14.2398 0.0000
# 4 0.0000 0.0000 0.0000 39.4291 0.0000 -10.7524
# 5 19.1880 5.0649 14.2398 0.0000 36.0444 0.0000
# 6 0.0000 0.0000 0.0000 -10.7524 0.0000 43.2875
#
#
#
# Elastic Compliance Matrix: (Units=1/GPa)
#
#
# Indices 1 2 3 4 5 6 
#
# 1 0.011862 -0.003120 -0.001292 0.000000 -0.005366 0.000000
# 2 -0.003120 0.019158 -0.005656 0.000000 0.001203 0.000000
# 3 -0.001292 -0.005656 0.013150 0.000000 -0.003712 0.000000
# 4 0.000000 0.000000 0.000000 0.027205 0.000000 0.006758
# 5 -0.005366 0.001203 -0.003712 0.000000 0.031898 0.000000
# 6 0.000000 0.000000 0.000000 0.006758 0.000000 0.024780
#
#
# Mechanical properties :
#
#
# Convention : Reuss Voigt Hill
#
# Bulk Modulus (GPa) = 41.60880 46.89388 44.25134
# Shear Modulus (GPa) = 32.01057 35.96305 33.98681
#
# Velocity S-wave (km/s) = 3.89111 4.12435 4.00943
# Velocity P-wave (km/s) = 6.31414 6.69782 6.50881
#
# Compressibility (1/GPa) = 0.02403337
#
# Stress axis : x y z
#
# Youngs Moduli (GPa) = 84.30507 52.19814 76.04705
#
# Poissons Ratio (x) = 0.16284 0.09825
# Poissons Ratio (y) = 0.26300 0.43015
# Poissons Ratio (z) = 0.10892 0.29525
#
# Static dielectric constant tensor:
#      x y z
#    x 3.381550 0.000000 -0.007640 
#    y 0.000000 3.950620 0.000000 
#    z -0.007640 0.000000 3.898080 
# 
# 
# High freq. dielectric constant tensor:
#      x y z
#    x 1.843140 0.000000 0.003780 
#    y 0.000000 1.828450 0.000000 
#    z 0.003780 0.000000 1.832560 
# 
# From -- ./inp_files/88607.got.cif
#   From: 2010.06.25/outbox.cif.g09.slc.cpg/sg10_45_cif.got.tgz:88607.got - 2010.06.27 22:07:45.
