data_PCOD8065900
_publ_section_title
;
Structure prediction by ZEFSAII (Michael W. Deem and Ramdas Pophale) SiO2 
 PCOD8065900
Probable space group: P 2/M
;
_chemical_formula_sum "Si O2"
_cell_formula_units_Z 28
_cell_length_a 9.299099
_cell_length_b 8.990339
_cell_length_c 27.007579
_cell_angle_alpha 90.000000
_cell_angle_beta 139.149265
_cell_angle_gamma 90.000000
_cell_volume 1476.864132
_symmetry_space_group_name_H-M "P 2/M"
_symmetry_group_IT_number 10
_symmetry_cell_setting 'monoclinic'
loop_
_space_group_symop_operation_xyz
x,y,z
-x,y,-z
-x,-y,-z
x,-y,z
loop_
_atom_site_type_symbol
_atom_site_label
_atom_site_fract_x
_atom_site_fract_y
_atom_site_fract_z
Si Si1 0.653648 0.173905 0.710707
Si Si2 0.742223 0.668352 0.934712
Si Si3 0.855171 0.825305 0.417156
Si Si4 0.049346 0.322672 0.765335
Si Si5 0.561324 0.824757 0.071758
Si Si6 0.127470 0.662475 0.674419
Si Si7 0.633450 0.336259 0.800316
O O1 0.398263 0.217508 0.637292
O O2 0.803088 0.264237 0.711019
O O3 0.734350 0.223907 0.786385
O O4 0.696256 0.000000 0.714997
O O5 0.649709 0.500000 0.918364
O O6 0.652596 0.776930 0.953210
O O7 0.664831 0.734411 0.862301
O O8 0.000000 0.668356 0.000000
O O9 0.000000 0.761761 0.500000
O O10 0.962138 0.764311 0.393672
O O11 0.877137 0.000000 0.418228
O O12 0.060352 0.500000 0.772499
O O13 0.103076 0.268843 0.723180
O O14 0.222257 0.255250 0.849817
O O15 0.601193 0.000000 0.085810
O O16 0.500000 0.775923 0.000000
O O17 0.011755 0.500000 0.642971
O O18 0.378370 0.643644 0.724985
O O19 0.748715 0.500000 0.826448
#
# Coordination Sequence:
#
# PCOD8065900 Si02
#       7
#     4   4   4   4   4   4   4
#     4  10  21  35  55  85 115 145 185 230 279 332
#     4  10  21  37  57  81 107 143 191 234 279 336
#     4   9  19  37  60  86 116 149 185 224 273 336
#     4  11  22  39  60  82 112 151 192 234 280 339
#     4  11  25  41  56  81 115 150 190 239 292 338
#     4   9  18  34  57  82 108 141 186 230 272 326
#     4   9  17  34  54  77 106 140 185 232 273 326
#
# _framework density 18.959088999999999
#
# number of rings (size 3 to 8) (size 9 to 14) (size 15 to 20)
#    0.000    2.143    1.429    1.286    2.000    4.000 
#    0.000    0.714    0.000    4.286    0.000    0.000 
#    0.000    0.000    0.000    0.000    0.000    0.000 
#
# Total GULP energy -347024.584692 kJ/mol
# GULP energy per Si atom -12393.735168 kJ/mol
# Density = 1.891594 g / cm^3
# Si number density = 18.959089 Si / 1000 Ang^3
#
#
#
# Elastic Constant Matrix: (Units=GPa)
#
#
# Indices 1 2 3 4 5 6 
#
# 1 109.5581 48.6004 55.3677 0.0000 -15.8299 0.0000
# 2 48.6004 67.2341 46.5079 0.0000 -8.3052 0.0000
# 3 55.3677 46.5079 109.4901 0.0000 -26.8358 0.0000
# 4 0.0000 0.0000 0.0000 25.2215 0.0000 -1.4116
# 5 -15.8299 -8.3052 -26.8358 0.0000 30.4920 0.0000
# 6 0.0000 0.0000 0.0000 -1.4116 0.0000 35.7293
#
#
#
# Elastic Compliance Matrix: (Units=1/GPa)
#
#
# Indices 1 2 3 4 5 6 
#
# 1 0.014778 -0.007965 -0.003495 0.000000 0.002427 0.000000
# 2 -0.007965 0.025534 -0.007812 0.000000 -0.004056 0.000000
# 3 -0.003495 -0.007812 0.016898 0.000000 0.010929 0.000000
# 4 0.000000 0.000000 0.000000 0.039737 0.000000 0.001570
# 5 0.002427 -0.004056 0.010929 0.000000 0.042569 0.000000
# 6 0.000000 0.000000 0.000000 0.001570 0.000000 0.028050
#
#
# Mechanical properties :
#
#
# Convention : Reuss Voigt Hill
#
# Bulk Modulus (GPa) = 53.57576 65.24826 59.41201
# Shear Modulus (GPa) = 23.54812 27.34231 25.44521
#
# Velocity S-wave (km/s) = 3.52809 3.80172 3.66746
# Velocity P-wave (km/s) = 6.70198 7.33217 7.02415
#
# Compressibility (1/GPa) = 0.01866516
#
# Stress axis : x y z
#
# Youngs Moduli (GPa) = 67.66987 39.16380 59.17938
#
# Poissons Ratio (x) = 0.31193 0.20683
# Poissons Ratio (y) = 0.53897 0.46233
# Poissons Ratio (z) = 0.23650 0.30596
#
# Static dielectric constant tensor:
#      x y z
#    x 3.508340 0.000000 -0.122580 
#    y 0.000000 3.637050 0.000000 
#    z -0.122580 0.000000 3.345130 
# 
# 
# High freq. dielectric constant tensor:
#      x y z
#    x 1.738110 0.000000 -0.012120 
#    y 0.000000 1.732460 0.000000 
#    z -0.012120 0.000000 1.725550 
# 
# From -- ./inp_files/37242.got.cif
#   From: 2010.06.25/outbox.cif.g09.slc.cpg/sg10_19_cif.got.tgz:37242.got - 2010.06.27 22:07:45.
