data_PCOD8065322
_publ_section_title
;
Structure prediction by ZEFSAII (Michael W. Deem and Ramdas Pophale) SiO2 
 PCOD8065322
Probable space group: P 2/M
;
_chemical_formula_sum "Si O2"
_cell_formula_units_Z 32
_cell_length_a 22.525326
_cell_length_b 14.338935
_cell_length_c 15.757866
_cell_angle_alpha 90.000000
_cell_angle_beta 18.071549
_cell_angle_gamma 90.000000
_cell_volume 1578.822611
_symmetry_space_group_name_H-M "P 2/M"
_symmetry_group_IT_number 10
_symmetry_cell_setting 'monoclinic'
loop_
_space_group_symop_operation_xyz
x,y,z
-x,y,-z
-x,-y,-z
x,-y,z
loop_
_atom_site_type_symbol
_atom_site_label
_atom_site_fract_x
_atom_site_fract_y
_atom_site_fract_z
Si Si1 0.944847 0.392060 0.879523
Si Si2 0.647531 0.393216 0.591520
Si Si3 0.683089 0.104183 0.309154
Si Si4 0.205641 0.282888 0.760767
Si Si5 0.460094 0.893994 0.152564
Si Si6 0.035788 0.274399 0.312615
Si Si7 0.033522 0.105397 0.708480
Si Si8 0.691070 0.727082 0.903254
O O1 0.882171 0.500000 0.964475
O O2 0.163676 0.380281 0.609296
O O3 0.922171 0.350405 0.816709
O O4 0.809339 0.335996 0.128737
O O5 0.602996 0.500000 0.633539
O O6 0.664843 0.344278 0.476896
O O7 0.473516 0.350121 0.880907
O O8 0.500000 0.121252 0.500000
O O9 0.687768 0.183058 0.375042
O O10 0.674540 0.000000 0.361102
O O11 0.877353 0.117282 0.993111
O O12 0.000000 0.265679 0.000000
O O13 0.238093 0.867490 0.471817
O O14 0.503617 0.000000 0.120620
O O15 0.500000 0.877354 0.000000
O O16 0.599240 0.829355 0.018110
O O17 0.018313 0.170653 0.299539
O O18 0.840080 0.298430 0.627044
O O19 0.213193 0.276017 0.134954
O O20 0.041140 0.000000 0.662312
#
# Coordination Sequence:
#
# PCOD8065322 Si02
#       8
#     4   4   4   4   4   4   4   4
#     4  10  21  40  66  90 117 157 205 256 313 372
#     4  10  23  41  62  91 122 158 205 258 312 367
#     4  10  22  39  60  90 127 165 203 245 301 367
#     4  10  21  38  65  93 122 155 201 257 309 361
#     4  10  20  37  63  92 121 160 210 257 303 362
#     4  11  23  40  58  90 124 166 205 247 313 372
#     4  10  20  37  63  88 121 165 206 252 302 364
#     4  11  25  38  60  89 130 163 201 258 306 363
#
# _framework density 20.268269
#
# number of rings (size 3 to 8) (size 9 to 14) (size 15 to 20)
#    0.000    1.750    2.500    1.125    3.500    3.250 
#    0.000    4.375    0.000    2.250    0.000    0.000 
#    0.000    0.000    0.000    0.000    0.000    0.000 
#
# Total GULP energy -396917.284689 kJ/mol
# GULP energy per Si atom -12403.665147 kJ/mol
# Density = 2.022214 g / cm^3
# Si number density = 20.268269 Si / 1000 Ang^3
#
#
#
# Elastic Constant Matrix: (Units=GPa)
#
#
# Indices 1 2 3 4 5 6 
#
# 1 80.3435 48.8846 6.8061 0.0000 5.7061 0.0000
# 2 48.8846 139.2482 20.8886 0.0000 -1.6292 0.0000
# 3 6.8061 20.8886 66.9585 0.0000 -6.8148 0.0000
# 4 0.0000 0.0000 0.0000 124.0870 0.0000 -249.9182
# 5 5.7061 -1.6292 -6.8148 0.0000 17.1360 0.0000
# 6 0.0000 0.0000 0.0000 -249.9182 0.0000 626.8692
#
#
#
# Elastic Compliance Matrix: (Units=1/GPa)
#
#
# Indices 1 2 3 4 5 6 
#
# 1 0.016442 -0.005769 -0.000505 0.000000 -0.006224 0.000000
# 2 -0.005769 0.009559 -0.002197 0.000000 0.001956 0.000000
# 3 -0.000505 -0.002197 0.016328 0.000000 0.006453 0.000000
# 4 0.000000 0.000000 0.000000 0.040899 0.000000 0.016305
# 5 -0.006224 0.001956 0.006453 0.000000 0.063182 0.000000
# 6 0.000000 0.000000 0.000000 0.016305 0.000000 0.008096
#
#
# Mechanical properties :
#
#
# Convention : Reuss Voigt Hill
#
# Bulk Modulus (GPa) = 39.38963 48.85653 44.12308
# Shear Modulus (GPa) = 27.79189 167.61650 97.70419
#
# Velocity S-wave (km/s) = 3.70699 9.10376 6.95055
# Velocity P-wave (km/s) = 6.14807 11.60439 9.28603
#
# Compressibility (1/GPa) = 0.02538740
#
# Stress axis : x y z
#
# Youngs Moduli (GPa) = 60.82158 104.61223 61.24467
#
# Poissons Ratio (x) = 0.60351 0.03093
# Poissons Ratio (y) = 0.35088 0.13453
# Poissons Ratio (z) = 0.03071 0.22979
#
# Static dielectric constant tensor:
#      x y z
#    x 3.483010 0.000000 0.009040 
#    y 0.000000 3.855710 0.000000 
#    z 0.009040 0.000000 3.815520 
# 
# 
# High freq. dielectric constant tensor:
#      x y z
#    x 1.776690 0.000000 0.000450 
#    y 0.000000 1.802680 0.000000 
#    z 0.000450 0.000000 1.799940 
# 
# From -- ./inp_files/42958.got.cif
#   From: 2010.06.25/outbox.cif.g09.slc.cpg/sg10_22_cif.got.tgz:42958.got - 2010.06.27 22:07:45.
