data_PCOD8065494
_publ_section_title
;
Structure prediction by ZEFSAII (Michael W. Deem and Ramdas Pophale) SiO2 
 PCOD8065494
Probable space group: P 2/M
;
_chemical_formula_sum "Si O2"
_cell_formula_units_Z 32
_cell_length_a 12.798237
_cell_length_b 8.777643
_cell_length_c 30.080405
_cell_angle_alpha 90.000000
_cell_angle_beta 152.233199
_cell_angle_gamma 90.000000
_cell_volume 1574.273633
_symmetry_space_group_name_H-M "P 2/M"
_symmetry_group_IT_number 10
_symmetry_cell_setting 'monoclinic'
loop_
_space_group_symop_operation_xyz
x,y,z
-x,y,-z
-x,-y,-z
x,-y,z
loop_
_atom_site_type_symbol
_atom_site_label
_atom_site_fract_x
_atom_site_fract_y
_atom_site_fract_z
Si Si1 0.749372 0.179904 0.602410
Si Si2 0.339627 0.174829 0.226364
Si Si3 0.069841 0.321315 0.788506
Si Si4 0.093111 0.677799 0.899525
Si Si5 0.487130 0.822864 0.896799
Si Si6 0.414434 0.825207 0.768306
Si Si7 0.043430 0.322692 0.403908
Si Si8 0.786447 0.177414 0.448122
O O1 0.500000 0.244541 0.500000
O O2 0.912319 0.232204 0.624632
O O3 0.845580 0.243451 0.684894
O O4 0.747726 0.000000 0.604626
O O5 0.384866 0.202464 0.191066
O O6 0.562142 0.217043 0.337344
O O7 0.145777 0.287845 0.168577
O O8 0.268702 0.000000 0.208498
O O9 0.040689 0.500000 0.772541
O O10 0.093079 0.271808 0.848241
O O11 0.288843 0.271837 0.844180
O O12 0.149333 0.500000 0.925845
O O13 0.278372 0.777067 0.993761
O O14 0.503717 0.785148 0.850802
O O15 0.439584 0.000000 0.887332
O O16 0.208989 0.717696 0.676718
O O17 0.331087 0.000000 0.733509
O O18 0.071570 0.500000 0.405320
O O19 0.216963 0.271000 0.507246
O O20 0.000000 0.230381 0.500000
O O21 0.803605 0.000000 0.466344
#
# Coordination Sequence:
#
# PCOD8065494 Si02
#       8
#     4   4   4   4   4   4   4   4
#     4  11  25  43  64  92 125 165 211 257 306 369
#     4  10  22  41  65  91 124 167 215 262 311 370
#     4  11  24  43  66  94 128 166 206 258 322 377
#     4  11  26  44  62  90 132 168 203 261 325 379
#     4  11  23  41  70  97 120 160 214 264 313 378
#     4  10  21  41  66  93 125 163 212 266 311 365
#     4  12  24  37  60  92 128 166 204 255 313 377
#     4  10  20  38  63  88 120 165 211 255 300 359
#
# _framework density 20.326834999999999
#
# number of rings (size 3 to 8) (size 9 to 14) (size 15 to 20)
#    0.000    1.250    2.500    3.000    1.750    6.750 
#    0.000    2.500    0.000    0.000    0.000    0.000 
#    0.000    0.000    0.000    0.000    0.000    0.000 
#
# Total GULP energy -397010.334270 kJ/mol
# GULP energy per Si atom -12406.572946 kJ/mol
# Density = 2.028057 g / cm^3
# Si number density = 20.326835 Si / 1000 Ang^3
#
#
#
# Elastic Constant Matrix: (Units=GPa)
#
#
# Indices 1 2 3 4 5 6 
#
# 1 106.9225 30.2240 43.4159 0.0000 -19.1906 0.0000
# 2 30.2240 59.4076 32.1890 0.0000 -10.7776 0.0000
# 3 43.4159 32.1890 118.0516 0.0000 -10.5301 0.0000
# 4 0.0000 0.0000 0.0000 24.0151 0.0000 0.1718
# 5 -19.1906 -10.7776 -10.5301 0.0000 34.2060 0.0000
# 6 0.0000 0.0000 0.0000 0.1718 0.0000 24.1374
#
#
#
# Elastic Compliance Matrix: (Units=1/GPa)
#
#
# Indices 1 2 3 4 5 6 
#
# 1 0.012588 -0.003807 -0.003155 0.000000 0.004891 0.000000
# 2 -0.003807 0.021664 -0.004204 0.000000 0.003396 0.000000
# 3 -0.003155 -0.004204 0.010798 0.000000 0.000229 0.000000
# 4 0.000000 0.000000 0.000000 0.041643 0.000000 -0.000296
# 5 0.004891 0.003396 0.000229 0.000000 0.033119 0.000000
# 6 0.000000 0.000000 0.000000 -0.000296 0.000000 0.041432
#
#
# Mechanical properties :
#
#
# Convention : Reuss Voigt Hill
#
# Bulk Modulus (GPa) = 44.01988 55.11550 49.56769
# Shear Modulus (GPa) = 26.15779 28.37521 27.26650
#
# Velocity S-wave (km/s) = 3.59117 3.74029 3.66649
# Velocity P-wave (km/s) = 6.23686 6.76953 6.50865
#
# Compressibility (1/GPa) = 0.02271701
#
# Stress axis : x y z
#
# Youngs Moduli (GPa) = 79.44234 46.16017 92.61037
#
# Poissons Ratio (x) = 0.17574 0.29218
# Poissons Ratio (y) = 0.30246 0.38933
# Poissons Ratio (z) = 0.25064 0.19405
#
# Static dielectric constant tensor:
#      x y z
#    x 3.800480 0.000000 -0.153520 
#    y 0.000000 3.589120 0.000000 
#    z -0.153520 0.000000 3.797150 
# 
# 
# High freq. dielectric constant tensor:
#      x y z
#    x 1.802120 0.000000 -0.009930 
#    y 0.000000 1.790560 0.000000 
#    z -0.009930 0.000000 1.800450 
# 
# From -- ./inp_files/95096.got.cif
#   From: 2010.06.25/outbox.cif.g09.slc.cpg/sg10_48_cif.got.tgz:95096.got - 2010.06.27 22:07:45.
