data_PCOD8065466
_publ_section_title
;
Structure prediction by ZEFSAII (Michael W. Deem and Ramdas Pophale) SiO2 
 PCOD8065466
Probable space group: P 2/M
;
_chemical_formula_sum "Si O2"
_cell_formula_units_Z 32
_cell_length_a 16.277946
_cell_length_b 8.647541
_cell_length_c 24.613219
_cell_angle_alpha 90.000000
_cell_angle_beta 152.857373
_cell_angle_gamma 90.000000
_cell_volume 1580.602530
_symmetry_space_group_name_H-M "P 2/M"
_symmetry_group_IT_number 10
_symmetry_cell_setting 'monoclinic'
loop_
_space_group_symop_operation_xyz
x,y,z
-x,y,-z
-x,-y,-z
x,-y,z
loop_
_atom_site_type_symbol
_atom_site_label
_atom_site_fract_x
_atom_site_fract_y
_atom_site_fract_z
Si Si1 0.067101 0.320669 0.321374
Si Si2 0.188238 0.178474 0.501110
Si Si3 0.309792 0.682997 0.366129
Si Si4 0.683022 0.678881 0.136657
Si Si5 0.796152 0.177502 0.311257
Si Si6 0.577086 0.678211 0.275285
Si Si7 0.844391 0.316492 0.838472
Si Si8 0.783994 0.181038 0.917717
O O1 0.108310 0.500000 0.356861
O O2 0.168620 0.223258 0.426978
O O3 0.147787 0.267353 0.311155
O O4 0.852485 0.288435 0.196468
O O5 0.345594 0.280065 0.619983
O O6 0.005868 0.213708 0.426707
O O7 0.241893 0.000000 0.537146
O O8 0.500000 0.751852 0.500000
O O9 0.324264 0.500000 0.372062
O O10 0.261276 0.744303 0.277309
O O11 0.680583 0.500000 0.153204
O O12 0.691715 0.785004 0.194571
O O13 0.500000 0.727521 0.000000
O O14 0.725906 0.284804 0.317894
O O15 0.763667 0.000000 0.308052
O O16 0.524208 0.500000 0.242670
O O17 0.398279 0.777464 0.157670
O O18 0.827969 0.500000 0.835362
O O19 0.759208 0.234415 0.840746
O O20 0.054001 0.270825 0.957448
O O21 0.824170 0.000000 0.943637
#
# Coordination Sequence:
#
# PCOD8065466 Si02
#       8
#     4   4   4   4   4   4   4   4
#     4   9  18  34  55  80 110 149 192 233 284 340
#     4  10  21  37  56  81 117 153 185 229 285 345
#     4   9  19  34  56  87 119 151 193 244 289 337
#     4   9  18  33  54  80 111 149 194 239 280 332
#     4  10  21  37  55  80 116 152 186 230 287 345
#     4  12  24  37  58  85 111 145 193 240 285 343
#     4  10  20  38  62  87 118 154 198 241 289 348
#     4  11  23  40  60  84 117 154 194 241 300 352
#
# _framework density 20.245443000000002
#
# number of rings (size 3 to 8) (size 9 to 14) (size 15 to 20)
#    0.000    2.000    0.000    4.500    1.750    4.250 
#    0.000    3.750    0.000    1.875    0.000    0.000 
#    0.000    0.000    0.000    0.000    0.000    0.000 
#
# Total GULP energy -396875.472005 kJ/mol
# GULP energy per Si atom -12402.358500 kJ/mol
# Density = 2.019936 g / cm^3
# Si number density = 20.245443 Si / 1000 Ang^3
#
#
#
# Elastic Constant Matrix: (Units=GPa)
#
#
# Indices 1 2 3 4 5 6 
#
# 1 74.3058 12.2310 29.8578 0.0000 -8.2229 0.0000
# 2 12.2310 53.6391 12.2542 0.0000 -0.8575 0.0000
# 3 29.8578 12.2542 106.4418 0.0000 -8.6320 0.0000
# 4 0.0000 0.0000 0.0000 16.5199 0.0000 3.9873
# 5 -8.2229 -0.8575 -8.6320 0.0000 21.4882 0.0000
# 6 0.0000 0.0000 0.0000 3.9873 0.0000 24.7618
#
#
#
# Elastic Compliance Matrix: (Units=1/GPa)
#
#
# Indices 1 2 3 4 5 6 
#
# 1 0.015919 -0.002692 -0.003794 0.000000 0.004460 0.000000
# 2 -0.002692 0.019602 -0.001573 0.000000 -0.000880 0.000000
# 3 -0.003794 -0.001573 0.010871 0.000000 0.002853 0.000000
# 4 0.000000 0.000000 0.000000 0.062981 0.000000 -0.010142
# 5 0.004460 -0.000880 0.002853 0.000000 0.049355 0.000000
# 6 0.000000 0.000000 0.000000 -0.010142 0.000000 0.042018
#
#
# Mechanical properties :
#
#
# Convention : Reuss Voigt Hill
#
# Bulk Modulus (GPa) = 33.03016 38.11918 35.57467
# Shear Modulus (GPa) = 22.03073 24.55686 23.29380
#
# Velocity S-wave (km/s) = 3.30234 3.48653 3.39569
# Velocity P-wave (km/s) = 5.55796 5.92261 5.74318
#
# Compressibility (1/GPa) = 0.03027536
#
# Stress axis : x y z
#
# Youngs Moduli (GPa) = 62.81797 51.01457 91.98423
#
# Poissons Ratio (x) = 0.13733 0.34897
# Poissons Ratio (y) = 0.16910 0.14469
# Poissons Ratio (z) = 0.23832 0.08024
#
# Static dielectric constant tensor:
#      x y z
#    x 3.686350 0.000000 0.042610 
#    y 0.000000 3.515140 0.000000 
#    z 0.042610 0.000000 3.788310 
# 
# 
# High freq. dielectric constant tensor:
#      x y z
#    x 1.788230 0.000000 0.005590 
#    y 0.000000 1.778970 0.000000 
#    z 0.005590 0.000000 1.795200 
# 
# From -- ./inp_files/89649.got.cif
#   From: 2010.06.25/outbox.cif.g09.slc.cpg/sg10_45_cif.got.tgz:89649.got - 2010.06.27 22:07:45.
