data_PCOD8065005
_publ_section_title
;
Structure prediction by ZEFSAII (Michael W. Deem and Ramdas Pophale) SiO2 
 PCOD8065005
Probable space group: P 2/M
;
_chemical_formula_sum "Si O2"
_cell_formula_units_Z 32
_cell_length_a 21.276343
_cell_length_b 14.066882
_cell_length_c 14.654571
_cell_angle_alpha 90.000000
_cell_angle_beta 161.722845
_cell_angle_gamma 90.000000
_cell_volume 1375.508272
_symmetry_space_group_name_H-M "P 2/M"
_symmetry_group_IT_number 10
_symmetry_cell_setting 'monoclinic'
loop_
_space_group_symop_operation_xyz
x,y,z
-x,y,-z
-x,-y,-z
x,-y,z
loop_
_atom_site_type_symbol
_atom_site_label
_atom_site_fract_x
_atom_site_fract_y
_atom_site_fract_z
Si Si1 0.415978 0.391674 0.205986
Si Si2 0.816587 0.887088 0.377927
Si Si3 0.778328 0.258626 0.688159
Si Si4 0.580546 0.110411 0.511974
Si Si5 0.747070 0.112367 0.082028
Si Si6 0.285777 0.745411 0.604408
Si Si7 0.998271 0.610191 0.706194
Si Si8 0.642593 0.607910 0.082891
O O1 0.471827 0.500000 0.302793
O O2 0.618869 0.334957 0.505504
O O3 0.333013 0.376438 0.990404
O O4 0.228703 0.358905 0.009418
O O5 0.702953 0.856151 0.126630
O O6 0.724058 0.833346 0.337652
O O7 0.043473 0.852881 0.672189
O O8 0.798641 0.000000 0.372061
O O9 0.779015 0.169333 0.760247
O O10 0.714699 0.219234 0.500488
O O11 0.000000 0.303195 0.000000
O O12 0.500000 0.135886 0.500000
O O13 0.628387 0.000000 0.568902
O O14 0.423180 0.149851 0.219903
O O15 0.757792 0.000000 0.096656
O O16 0.088757 0.677812 0.335361
O O17 0.475519 0.679605 0.891505
O O18 0.985850 0.500000 0.717807
O O19 0.858575 0.630118 0.424695
O O20 0.571906 0.500000 0.006842
#
# Coordination Sequence:
#
# PCOD8065005 Si02
#       8
#     4   4   4   4   4   4   4   4
#     4   9  20  40  64  90 122 165 217 263 311 375
#     4   9  19  36  61  93 132 171 206 251 311 382
#     4  11  27  44  62  91 130 167 211 271 324 378
#     4  10  23  43  70  95 122 168 222 270 317 368
#     4   8  17  37  61  90 123 163 214 262 309 364
#     4  11  23  36  59  96 131 172 211 251 326 393
#     4  10  20  36  62  93 125 163 209 261 312 379
#     4   9  18  36  59  89 132 168 200 252 319 386
#
# _framework density 23.264126999999998
#
# number of rings (size 3 to 8) (size 9 to 14) (size 15 to 20)
#    0.000    2.375    0.000    1.875    3.500    7.000 
#    2.250    0.000    0.000    5.625    0.000    0.000 
#    0.000    0.125    0.000    0.000    0.000    0.000 
#
# Total GULP energy -396667.205554 kJ/mol
# GULP energy per Si atom -12395.850174 kJ/mol
# Density = 2.321118 g / cm^3
# Si number density = 23.264127 Si / 1000 Ang^3
#
#
#
# Elastic Constant Matrix: (Units=GPa)
#
#
# Indices 1 2 3 4 5 6 
#
# 1 101.6463 59.9905 26.2982 0.0000 10.9564 0.0000
# 2 59.9905 93.4621 45.8764 0.0000 16.7845 0.0000
# 3 26.2982 45.8764 103.0697 0.0000 15.1080 0.0000
# 4 0.0000 0.0000 0.0000 26.0975 0.0000 7.5502
# 5 10.9564 16.7845 15.1080 0.0000 29.6825 0.0000
# 6 0.0000 0.0000 0.0000 7.5502 0.0000 36.7558
#
#
#
# Elastic Compliance Matrix: (Units=1/GPa)
#
#
# Indices 1 2 3 4 5 6 
#
# 1 0.015871 -0.010454 0.000644 0.000000 -0.000275 0.000000
# 2 -0.010454 0.021303 -0.006067 0.000000 -0.005100 0.000000
# 3 0.000644 -0.006067 0.012719 0.000000 -0.003281 0.000000
# 4 0.000000 0.000000 0.000000 0.040739 0.000000 -0.008368
# 5 -0.000275 -0.005100 -0.003281 0.000000 0.038345 0.000000
# 6 0.000000 0.000000 0.000000 -0.008368 0.000000 0.028926
#
#
# Mechanical properties :
#
#
# Convention : Reuss Voigt Hill
#
# Bulk Modulus (GPa) = 55.12986 62.50091 58.81538
# Shear Modulus (GPa) = 25.54885 29.57468 27.56177
#
# Velocity S-wave (km/s) = 3.31752 3.56934 3.44573
# Velocity P-wave (km/s) = 6.19866 6.62654 6.41617
#
# Compressibility (1/GPa) = 0.01813899
#
# Stress axis : x y z
#
# Youngs Moduli (GPa) = 63.00943 46.94093 78.61985
#
# Poissons Ratio (x) = 0.49070 -0.05061
# Poissons Ratio (y) = 0.65867 0.47702
# Poissons Ratio (z) = -0.04056 0.28481
#
# Static dielectric constant tensor:
#      x y z
#    x 4.243470 0.000000 0.102020 
#    y 0.000000 4.163260 0.000000 
#    z 0.102020 0.000000 4.359250 
# 
# 
# High freq. dielectric constant tensor:
#      x y z
#    x 1.921100 0.000000 0.012240 
#    y 0.000000 1.922400 0.000000 
#    z 0.012240 0.000000 1.907470 
# 
# From -- ./inp_files/70807.got.cif
#   From: 2010.06.25/outbox.cif.g09.slc.cpg/sg10_36_cif.got.tgz:70807.got - 2010.06.27 22:07:45.
