data_PCOD8065316
_publ_section_title
;
Structure prediction by ZEFSAII (Michael W. Deem and Ramdas Pophale) SiO2 
 PCOD8065316
Probable space group: P 2/M
;
_chemical_formula_sum "Si O2"
_cell_formula_units_Z 20
_cell_length_a 16.552831
_cell_length_b 7.853912
_cell_length_c 27.054679
_cell_angle_alpha 90.000000
_cell_angle_beta 163.751715
_cell_angle_gamma 90.000000
_cell_volume 984.121768
_symmetry_space_group_name_H-M "P 2/M"
_symmetry_group_IT_number 10
_symmetry_cell_setting 'monoclinic'
loop_
_space_group_symop_operation_xyz
x,y,z
-x,y,-z
-x,-y,-z
x,-y,z
loop_
_atom_site_type_symbol
_atom_site_label
_atom_site_fract_x
_atom_site_fract_y
_atom_site_fract_z
Si Si1 0.802810 0.500000 0.108967
Si Si2 0.825032 0.800927 0.442628
Si Si3 0.171694 0.196785 0.050348
Si Si4 0.500000 0.754961 0.000000
Si Si5 0.011981 0.500000 0.126086
Si Si6 0.671549 0.500000 0.517145
Si Si7 0.066839 0.184750 0.385098
O O1 0.632108 0.342540 0.031091
O O2 0.794973 0.500000 0.045195
O O3 0.137667 0.500000 0.321576
O O4 0.495853 0.736527 0.250039
O O5 0.979854 0.756375 0.585501
O O6 0.000000 0.713343 0.500000
O O7 0.820374 0.000000 0.430689
O O8 0.158917 0.000000 0.023661
O O9 0.031851 0.325032 0.929125
O O10 0.000000 0.214832 0.000000
O O11 0.237260 0.854962 0.820592
O O12 0.340499 0.500000 0.337863
O O13 0.744377 0.329773 0.529319
O O14 0.231186 0.000000 0.480905
#
# Coordination Sequence:
#
# PCOD8065316 Si02
#       7
#     2   4   4   2   2   2   4
#     4   9  21  39  58  86 120 153 191 252 304 345
#     4   9  19  35  55  85 121 152 189 243 299 349
#     4  10  22  40  59  85 122 160 199 243 295 356
#     4   9  19  38  62  87 117 150 203 247 296 353
#     4  12  23  37  64  87 114 158 204 243 292 355
#     4  10  22  40  58  84 118 152 198 242 295 353
#     4  10  20  37  63  85 115 157 196 240 298 358
#
# _framework density 20.322687999999999
#
# number of rings (size 3 to 8) (size 9 to 14) (size 15 to 20)
#    0.000    2.200    0.000    2.700    2.800    3.200 
#    0.000    5.000    0.000    6.000    0.000    0.000 
#    0.000    0.000    0.000    0.000    0.000    0.000 
#
# Total GULP energy -247794.044989 kJ/mol
# GULP energy per Si atom -12389.702249 kJ/mol
# Density = 2.027643 g / cm^3
# Si number density = 20.322688 Si / 1000 Ang^3
#
#
#
# Elastic Constant Matrix: (Units=GPa)
#
#
# Indices 1 2 3 4 5 6 
#
# 1 124.9137 45.6089 29.1111 0.0000 6.9406 0.0000
# 2 45.6089 107.7327 15.8690 0.0000 -3.5486 0.0000
# 3 29.1111 15.8690 80.3688 0.0000 15.4419 0.0000
# 4 0.0000 0.0000 0.0000 15.9703 0.0000 -13.3962
# 5 6.9406 -3.5486 15.4419 0.0000 31.7451 0.0000
# 6 0.0000 0.0000 0.0000 -13.3962 0.0000 42.6134
#
#
#
# Elastic Compliance Matrix: (Units=1/GPa)
#
#
# Indices 1 2 3 4 5 6 
#
# 1 0.010137 -0.003950 -0.002627 0.000000 -0.001380 0.000000
# 2 -0.003950 0.011240 -0.001319 0.000000 0.002762 0.000000
# 3 -0.002627 -0.001319 0.014972 0.000000 -0.006856 0.000000
# 4 0.000000 0.000000 0.000000 0.085041 0.000000 0.026734
# 5 -0.001380 0.002762 -0.006856 0.000000 0.035446 0.000000
# 6 0.000000 0.000000 0.000000 0.026734 0.000000 0.031871
#
#
# Mechanical properties :
#
#
# Convention : Reuss Voigt Hill
#
# Bulk Modulus (GPa) = 48.64587 54.91036 51.77812
# Shear Modulus (GPa) = 23.65742 32.89417 28.27580
#
# Velocity S-wave (km/s) = 3.41558 4.02754 3.73412
# Velocity P-wave (km/s) = 6.28837 6.97897 6.64265
#
# Compressibility (1/GPa) = 0.02055673
#
# Stress axis : x y z
#
# Youngs Moduli (GPa) = 98.65309 88.97015 66.79212
#
# Poissons Ratio (x) = 0.35142 0.17543
# Poissons Ratio (y) = 0.38967 0.08811
# Poissons Ratio (z) = 0.25912 0.11737
#
# Static dielectric constant tensor:
#      x y z
#    x 3.664360 0.000000 0.037300 
#    y 0.000000 3.559340 0.000000 
#    z 0.037300 0.000000 3.802800 
# 
# 
# High freq. dielectric constant tensor:
#      x y z
#    x 1.788860 0.000000 -0.002090 
#    y 0.000000 1.789230 0.000000 
#    z -0.002090 0.000000 1.799700 
# 
# From -- ./inp_files/71266.got.cif
#   From: 2010.06.25/outbox.cif.g09.slc.cpg/sg10_36_cif.got.tgz:71266.got - 2010.06.27 22:07:45.
