data_PCOD8065540
_publ_section_title
;
Structure prediction by ZEFSAII (Michael W. Deem and Ramdas Pophale) SiO2 
 PCOD8065540
Probable space group: P 2/M
;
_chemical_formula_sum "Si O2"
_cell_formula_units_Z 20
_cell_length_a 12.411248
_cell_length_b 11.250391
_cell_length_c 16.212437
_cell_angle_alpha 90.000000
_cell_angle_beta 25.177390
_cell_angle_gamma 90.000000
_cell_volume 963.055946
_symmetry_space_group_name_H-M "P 2/M"
_symmetry_group_IT_number 10
_symmetry_cell_setting 'monoclinic'
loop_
_space_group_symop_operation_xyz
x,y,z
-x,y,-z
-x,-y,-z
x,-y,z
loop_
_atom_site_type_symbol
_atom_site_label
_atom_site_fract_x
_atom_site_fract_y
_atom_site_fract_z
Si Si1 0.172833 0.756077 0.460055
Si Si2 0.846871 0.500000 0.847419
Si Si3 0.307576 0.865572 0.906489
Si Si4 0.000000 0.696181 0.000000
Si Si5 0.173644 0.500000 0.458467
Si Si6 0.771179 0.500000 0.267704
Si Si7 0.734656 0.754316 0.892280
O O1 0.389874 0.853888 0.315101
O O2 0.320051 0.626423 0.354395
O O3 0.000000 0.777678 0.500000
O O4 0.998057 0.763532 0.661453
O O5 0.675805 0.619031 0.963628
O O6 0.016990 0.500000 0.649822
O O7 0.009110 0.500000 0.817586
O O8 0.160357 0.778169 0.948856
O O9 0.230010 0.000000 0.939003
O O10 0.236200 0.839918 0.050280
O O11 0.198150 0.616221 0.810817
O O12 0.000000 0.500000 0.500000
O O13 0.500000 0.500000 0.500000
O O14 0.500000 0.798446 0.000000
#
# Coordination Sequence:
#
# PCOD8065540 Si02
#       7
#     4   2   4   2   2   2   4
#     4  10  21  40  64 100 133 170 214 268 336 397
#     4  10  20  38  65  98 135 166 206 261 340 411
#     4  12  27  45  66  90 131 184 232 273 313 380
#     4  11  27  48  70  98 129 173 228 272 332 389
#     4   8  18  32  60  98 132 162 195 254 327 405
#     4  11  25  44  72 105 130 163 208 283 345 397
#     4  11  22  41  65 101 137 170 212 270 336 402
#
# _framework density 20.767225
#
# number of rings (size 3 to 8) (size 9 to 14) (size 15 to 20)
#    0.000    1.400    4.000    0.600    5.600    3.200 
#    0.000    0.000    0.000    3.600    0.000    0.000 
#    0.000    0.000    0.000    0.000    0.000    0.000 
#
# Total GULP energy -247920.861734 kJ/mol
# GULP energy per Si atom -12396.043087 kJ/mol
# Density = 2.071996 g / cm^3
# Si number density = 20.767225 Si / 1000 Ang^3
#
#
#
# Elastic Constant Matrix: (Units=GPa)
#
#
# Indices 1 2 3 4 5 6 
#
# 1 138.9221 54.6631 41.5064 0.0000 10.5882 0.0000
# 2 54.6631 134.9090 46.4803 0.0000 6.5857 0.0000
# 3 41.5064 46.4803 119.6500 0.0000 14.6412 0.0000
# 4 0.0000 0.0000 0.0000 -3.1704 0.0000 24.1529
# 5 10.5882 6.5857 14.6412 0.0000 28.1596 0.0000
# 6 0.0000 0.0000 0.0000 24.1529 0.0000 -13.8598
#
#
#
# Elastic Compliance Matrix: (Units=1/GPa)
#
#
# Indices 1 2 3 4 5 6 
#
# 1 0.009027 -0.002963 -0.001762 0.000000 -0.001785 0.000000
# 2 -0.002963 0.009533 -0.002711 0.000000 0.000294 0.000000
# 3 -0.001762 -0.002711 0.010534 0.000000 -0.004180 0.000000
# 4 0.000000 0.000000 0.000000 0.025694 0.000000 0.044775
# 5 -0.001785 0.000294 -0.004180 0.000000 0.038288 0.000000
# 6 0.000000 0.000000 0.000000 0.044775 0.000000 0.005877
#
#
# Mechanical properties :
#
#
# Convention : Reuss Voigt Hill
#
# Bulk Modulus (GPa) = 70.32131 75.42007 72.87069
# Shear Modulus (GPa) = 42.17102 18.94798 30.55950
#
# Velocity S-wave (km/s) = 4.51117 3.02387 3.84021
# Velocity P-wave (km/s) = 7.81469 6.97047 7.40462
#
# Compressibility (1/GPa) = 0.01422044
#
# Stress axis : x y z
#
# Youngs Moduli (GPa) = 110.78213 104.90030 94.93409
#
# Poissons Ratio (x) = 0.31086 0.16725
# Poissons Ratio (y) = 0.32829 0.25739
# Poissons Ratio (z) = 0.19517 0.28441
#
# Static dielectric constant tensor:
#      x y z
#    x 3.882480 0.000000 0.271020 
#    y 0.000000 3.994520 0.000000 
#    z 0.271020 0.000000 3.646930 
# 
# 
# High freq. dielectric constant tensor:
#      x y z
#    x 1.820330 0.000000 0.020610 
#    y 0.000000 1.808610 0.000000 
#    z 0.020610 0.000000 1.807160 
# 
# From -- ./inp_files/64619.got.cif
#   From: 2010.06.25/outbox.cif.g09.slc.cpg/sg10_33_cif.got.tgz:64619.got - 2010.06.27 22:07:45.
