data_PCOD8065204
_publ_section_title
;
Structure prediction by ZEFSAII (Michael W. Deem and Ramdas Pophale) SiO2 
 PCOD8065204
Probable space group: P 2/M
;
_chemical_formula_sum "Si O2"
_cell_formula_units_Z 26
_cell_length_a 10.721712
_cell_length_b 17.130211
_cell_length_c 12.631820
_cell_angle_alpha 90.000000
_cell_angle_beta 35.755286
_cell_angle_gamma 90.000000
_cell_volume 1355.647889
_symmetry_space_group_name_H-M "P 2/M"
_symmetry_group_IT_number 10
_symmetry_cell_setting 'monoclinic'
loop_
_space_group_symop_operation_xyz
x,y,z
-x,y,-z
-x,-y,-z
x,-y,z
loop_
_atom_site_type_symbol
_atom_site_label
_atom_site_fract_x
_atom_site_fract_y
_atom_site_fract_z
Si Si1 0.752257 0.799918 0.523550
Si Si2 0.415888 0.650344 0.444305
Si Si3 0.809051 0.407916 0.053195
Si Si4 0.144304 0.910751 0.226977
Si Si5 0.967806 0.411608 0.714066
Si Si6 0.468398 0.911831 0.188313
Si Si7 0.000000 0.692761 0.500000
O O1 0.664344 0.740754 0.495046
O O2 0.560209 0.856909 0.690321
O O3 0.950979 0.850744 0.344790
O O4 0.813861 0.746340 0.581342
O O5 0.500000 0.624324 0.500000
O O6 0.599023 0.639536 0.230648
O O7 0.223234 0.593002 0.547389
O O8 0.766227 0.500000 0.090839
O O9 0.000000 0.383460 0.000000
O O10 0.863520 0.382375 0.895678
O O11 0.252514 0.903933 0.267496
O O12 0.064970 0.000000 0.264712
O O13 0.321281 0.886912 0.019308
O O14 0.899673 0.500000 0.736854
O O15 0.891052 0.358904 0.668156
O O16 0.492561 0.000000 0.211629
#
# Coordination Sequence:
#
# PCOD8065204 Si02
#       7
#     4   4   4   4   4   4   2
#     4  11  20  33  52  77 115 149 170 217 274 331
#     4  11  23  37  54  83 111 140 185 230 280 326
#     4  10  20  37  61  82 101 137 190 242 278 313
#     4   9  17  31  53  80 107 141 182 218 259 314
#     4  10  21  38  59  78 108 146 184 231 272 326
#     4   9  17  31  53  79 107 141 181 221 258 312
#     4  10  21  34  51  82 118 150 174 206 285 346
#
# _framework density 19.179022
#
# number of rings (size 3 to 8) (size 9 to 14) (size 15 to 20)
#    0.000    2.000    3.077    2.077    0.000    4.308 
#    0.000    2.308    0.000   10.154    0.000    2.154 
#    0.000    0.000    0.000    0.000    0.000    0.000 
#
# Total GULP energy -322376.004717 kJ/mol
# GULP energy per Si atom -12399.077104 kJ/mol
# Density = 1.913537 g / cm^3
# Si number density = 19.179022 Si / 1000 Ang^3
#
#
#
# Elastic Constant Matrix: (Units=GPa)
#
#
# Indices 1 2 3 4 5 6 
#
# 1 46.7822 14.2204 24.4111 0.0000 8.3737 0.0000
# 2 14.2204 82.1247 45.6001 0.0000 4.5686 0.0000
# 3 24.4111 45.6001 118.4821 0.0000 6.8009 0.0000
# 4 0.0000 0.0000 0.0000 27.9486 0.0000 -1.6959
# 5 8.3737 4.5686 6.8009 0.0000 26.8812 0.0000
# 6 0.0000 0.0000 0.0000 -1.6959 0.0000 18.3313
#
#
#
# Elastic Compliance Matrix: (Units=1/GPa)
#
#
# Indices 1 2 3 4 5 6 
#
# 1 0.025234 -0.001689 -0.004175 0.000000 -0.006517 0.000000
# 2 -0.001689 0.015634 -0.005628 0.000000 -0.000707 0.000000
# 3 -0.004175 -0.005628 0.011504 0.000000 -0.000653 0.000000
# 4 0.000000 0.000000 0.000000 0.035982 0.000000 0.003329
# 5 -0.006517 -0.000707 -0.000653 0.000000 0.039516 0.000000
# 6 0.000000 0.000000 0.000000 0.003329 0.000000 0.054859
#
#
# Mechanical properties :
#
#
# Convention : Reuss Voigt Hill
#
# Bulk Modulus (GPa) = 34.02815 46.20580 40.11697
# Shear Modulus (GPa) = 23.20087 25.50939 24.35513
#
# Velocity S-wave (km/s) = 3.48185 3.65097 3.56741
# Velocity P-wave (km/s) = 5.82626 6.47432 6.15882
#
# Compressibility (1/GPa) = 0.02938744
#
# Stress axis : x y z
#
# Youngs Moduli (GPa) = 39.62899 63.96519 86.92661
#
# Poissons Ratio (x) = 0.10802 0.36292
# Poissons Ratio (y) = 0.06692 0.48925
# Poissons Ratio (z) = 0.16545 0.36002
#
# Static dielectric constant tensor:
#      x y z
#    x 3.237940 0.000000 0.082200 
#    y 0.000000 3.577550 0.000000 
#    z 0.082200 0.000000 3.489390 
# 
# 
# High freq. dielectric constant tensor:
#      x y z
#    x 1.705370 0.000000 0.007880 
#    y 0.000000 1.751420 0.000000 
#    z 0.007880 0.000000 1.751170 
# 
# From -- ./inp_files/65261.got.cif
#   From: 2010.06.25/outbox.cif.g09.slc.cpg/sg10_33_cif.got.tgz:65261.got - 2010.06.27 22:07:45.
