data_PCOD8065278
_publ_section_title
;
Structure prediction by ZEFSAII (Michael W. Deem and Ramdas Pophale) SiO2 
 PCOD8065278
Probable space group: P 2/M
;
_chemical_formula_sum "Si O2"
_cell_formula_units_Z 28
_cell_length_a 22.325938
_cell_length_b 8.870061
_cell_length_c 16.634680
_cell_angle_alpha 90.000000
_cell_angle_beta 24.883611
_cell_angle_gamma 90.000000
_cell_volume 1386.124012
_symmetry_space_group_name_H-M "P 2/M"
_symmetry_group_IT_number 10
_symmetry_cell_setting 'monoclinic'
loop_
_space_group_symop_operation_xyz
x,y,z
-x,y,-z
-x,-y,-z
x,-y,z
loop_
_atom_site_type_symbol
_atom_site_label
_atom_site_fract_x
_atom_site_fract_y
_atom_site_fract_z
Si Si1 0.793494 0.672486 0.622958
Si Si2 0.083161 0.823080 0.280504
Si Si3 0.794249 0.326863 0.439812
Si Si4 0.885798 0.322949 0.925530
Si Si5 0.332806 0.672943 0.062556
Si Si6 0.608856 0.822580 0.297784
Si Si7 0.466770 0.822865 0.305455
O O1 0.851409 0.500000 0.553629
O O2 0.746108 0.711474 0.589988
O O3 0.662650 0.691216 0.845265
O O4 0.919512 0.784099 0.495601
O O5 0.132658 0.773482 0.132306
O O6 0.177322 0.731720 0.228750
O O7 0.109622 0.000000 0.259187
O O8 0.765108 0.500000 0.455749
O O9 0.697173 0.231090 0.497269
O O10 0.960390 0.286490 0.222431
O O11 0.874728 0.500000 0.920117
O O12 0.755476 0.266586 0.139613
O O13 0.352478 0.500000 0.013221
O O14 0.455516 0.765894 0.869508
O O15 0.500000 0.778704 0.500000
O O16 0.543721 0.764198 0.292431
O O17 0.640128 0.000000 0.258560
O O18 0.468535 0.000000 0.303326
#
# Coordination Sequence:
#
# PCOD8065278 Si02
#       7
#     4   4   4   4   4   4   4
#     4   9  20  36  53  77 110 155 203 239 279 335
#     4  11  20  31  51  81 116 151 191 241 291 338
#     4   9  20  39  59  81 115 156 197 236 280 339
#     4  10  20  37  62  88 114 152 196 235 282 343
#     4  11  21  34  54  78 112 154 196 243 288 333
#     4  10  22  41  64  90 119 148 183 234 293 351
#     4  11  23  38  58  86 116 150 192 237 291 350
#
# _framework density 20.200212000000001
#
# number of rings (size 3 to 8) (size 9 to 14) (size 15 to 20)
#    0.000    1.857    1.429    3.857    0.000    7.143 
#    0.000    3.571    0.000    4.286    0.000    0.000 
#    0.000    0.000    0.000    0.000    0.000    0.000 
#
# Total GULP energy -347158.009598 kJ/mol
# GULP energy per Si atom -12398.500343 kJ/mol
# Density = 2.015424 g / cm^3
# Si number density = 20.200212 Si / 1000 Ang^3
#
#
#
# Elastic Constant Matrix: (Units=GPa)
#
#
# Indices 1 2 3 4 5 6 
#
# 1 63.5080 28.4309 48.9093 0.0000 -18.9816 0.0000
# 2 28.4309 48.2539 35.0004 0.0000 -10.6750 0.0000
# 3 48.9093 35.0004 124.5595 0.0000 1.0391 0.0000
# 4 0.0000 0.0000 0.0000 33.2466 0.0000 -4.8080
# 5 -18.9816 -10.6750 1.0391 0.0000 18.8547 0.0000
# 6 0.0000 0.0000 0.0000 -4.8080 0.0000 25.6889
#
#
#
# Elastic Compliance Matrix: (Units=1/GPa)
#
#
# Indices 1 2 3 4 5 6 
#
# 1 0.041679 -0.004429 -0.015457 0.000000 0.040304 0.000000
# 2 -0.004429 0.031684 -0.007280 0.000000 0.013881 0.000000
# 3 -0.015457 -0.007280 0.016315 0.000000 -0.020582 0.000000
# 4 0.000000 0.000000 0.000000 0.030915 0.000000 0.005786
# 5 0.040304 0.013881 -0.020582 0.000000 0.102606 0.000000
# 6 0.000000 0.000000 0.000000 0.005786 0.000000 0.040010
#
#
# Mechanical properties :
#
#
# Convention : Reuss Voigt Hill
#
# Bulk Modulus (GPa) = 28.29153 51.22250 39.75701
# Shear Modulus (GPa) = 15.18259 23.82344 19.50302
#
# Velocity S-wave (km/s) = 2.74452 3.43791 3.11060
# Velocity P-wave (km/s) = 4.90705 6.41650 5.71186
#
# Compressibility (1/GPa) = 0.03534627
#
# Stress axis : x y z
#
# Youngs Moduli (GPa) = 23.99272 31.56119 61.29304
#
# Poissons Ratio (x) = 0.13979 0.94743
# Poissons Ratio (y) = 0.10626 0.44620
# Poissons Ratio (z) = 0.37087 0.22976
#
# Static dielectric constant tensor:
#      x y z
#    x 3.629150 0.000000 -0.035800 
#    y 0.000000 3.576220 0.000000 
#    z -0.035800 0.000000 3.683840 
# 
# 
# High freq. dielectric constant tensor:
#      x y z
#    x 1.768610 0.000000 -0.009070 
#    y 0.000000 1.786310 0.000000 
#    z -0.009070 0.000000 1.788810 
# 
# From -- ./inp_files/70172.got.cif
#   From: 2010.06.25/outbox.cif.g09.slc.cpg/sg10_36_cif.got.tgz:70172.got - 2010.06.27 22:07:45.
