data_PCOD8065568
_publ_section_title
;
Structure prediction by ZEFSAII (Michael W. Deem and Ramdas Pophale) SiO2 
 PCOD8065568
Probable space group: P 2/M
;
_chemical_formula_sum "Si O2"
_cell_formula_units_Z 28
_cell_length_a 10.220978
_cell_length_b 9.053097
_cell_length_c 30.198243
_cell_angle_alpha 90.000000
_cell_angle_beta 146.521729
_cell_angle_gamma 90.000000
_cell_volume 1541.387590
_symmetry_space_group_name_H-M "P 2/M"
_symmetry_group_IT_number 10
_symmetry_cell_setting 'monoclinic'
loop_
_space_group_symop_operation_xyz
x,y,z
-x,y,-z
-x,-y,-z
x,-y,z
loop_
_atom_site_type_symbol
_atom_site_label
_atom_site_fract_x
_atom_site_fract_y
_atom_site_fract_z
Si Si1 0.368588 0.327863 0.338780
Si Si2 0.866965 0.325466 0.083196
Si Si3 0.184007 0.172526 0.672115
Si Si4 0.597068 0.674285 0.093806
Si Si5 0.671295 0.824581 0.766242
Si Si6 0.162806 0.828182 0.504457
Si Si7 0.896490 0.328337 0.258688
O O1 0.392307 0.500000 0.334005
O O2 0.319343 0.240665 0.280068
O O3 0.603581 0.270669 0.429205
O O4 0.155110 0.297684 0.312100
O O5 0.918908 0.500000 0.098734
O O6 0.756726 0.267382 0.098279
O O7 0.109474 0.237363 0.143013
O O8 0.679686 0.284367 0.991306
O O9 0.432553 0.230076 0.722761
O O10 0.126465 0.247788 0.701736
O O11 0.975910 0.212028 0.579263
O O12 0.198885 0.000000 0.684684
O O13 0.627874 0.500000 0.101619
O O14 0.697464 0.736294 0.168516
O O15 0.682131 0.000000 0.765997
O O16 0.000000 0.786228 0.500000
O O17 0.234532 0.000000 0.526931
O O18 0.852702 0.500000 0.254651
#
# Coordination Sequence:
#
# PCOD8065568 Si02
#       7
#     4   4   4   4   4   4   4
#     4  11  22  36  59  87 112 141 185 233 277 326
#     4   9  16  31  57  84 109 141 186 232 273 320
#     4  10  23  40  57  78 110 152 187 221 276 336
#     4   8  15  31  55  81 112 146 178 225 279 324
#     4  11  21  36  56  82 114 147 186 230 275 327
#     4  10  20  39  60  80 111 147 185 229 275 325
#     4  10  21  38  57  82 115 147 182 227 278 329
#
# _framework density 18.16545
#
# number of rings (size 3 to 8) (size 9 to 14) (size 15 to 20)
#    0.000    2.143    2.857    1.714    0.000    3.714 
#    0.000    5.714    0.000    4.286    0.000    0.000 
#    0.000    0.000    0.000    0.000    0.000    0.000 
#
# Total GULP energy -347189.232163 kJ/mol
# GULP energy per Si atom -12399.615434 kJ/mol
# Density = 1.812410 g / cm^3
# Si number density = 18.165450 Si / 1000 Ang^3
#
#
#
# Elastic Constant Matrix: (Units=GPa)
#
#
# Indices 1 2 3 4 5 6 
#
# 1 77.4086 34.7898 62.9757 0.0000 -8.2580 0.0000
# 2 34.7898 48.5972 53.4991 0.0000 4.2479 0.0000
# 3 62.9757 53.4991 139.8056 0.0000 5.1541 0.0000
# 4 0.0000 0.0000 0.0000 31.9601 0.0000 -2.1616
# 5 -8.2580 4.2479 5.1541 0.0000 34.0380 0.0000
# 6 0.0000 0.0000 0.0000 -2.1616 0.0000 30.7311
#
#
#
# Elastic Compliance Matrix: (Units=1/GPa)
#
#
# Indices 1 2 3 4 5 6 
#
# 1 0.024339 -0.009921 -0.007472 0.000000 0.008274 0.000000
# 2 -0.009921 0.039795 -0.010546 0.000000 -0.005776 0.000000
# 3 -0.007472 -0.010546 0.014654 0.000000 -0.002716 0.000000
# 4 0.000000 0.000000 0.000000 0.031439 0.000000 0.002211
# 5 0.008274 -0.005776 -0.002716 0.000000 0.032519 0.000000
# 6 0.000000 0.000000 0.000000 0.002211 0.000000 0.032696
#
#
# Mechanical properties :
#
#
# Convention : Reuss Voigt Hill
#
# Bulk Modulus (GPa) = 43.65100 63.14895 53.39997
# Shear Modulus (GPa) = 20.92435 26.98229 23.95332
#
# Velocity S-wave (km/s) = 3.39761 3.85822 3.63522
# Velocity P-wave (km/s) = 6.28280 7.39503 6.86149
#
# Compressibility (1/GPa) = 0.02290898
#
# Stress axis : x y z
#
# Youngs Moduli (GPa) = 41.08633 25.12905 68.23954
#
# Poissons Ratio (x) = 0.24932 0.50988
# Poissons Ratio (y) = 0.40764 0.71965
# Poissons Ratio (z) = 0.30700 0.26501
#
# Static dielectric constant tensor:
#      x y z
#    x 3.319080 0.000000 0.186640 
#    y 0.000000 3.206420 0.000000 
#    z 0.186640 0.000000 3.915570 
# 
# 
# High freq. dielectric constant tensor:
#      x y z
#    x 1.687760 0.000000 0.007090 
#    y 0.000000 1.686780 0.000000 
#    z 0.007090 0.000000 1.724310 
# 
# From -- ./inp_files/37265.got.cif
#   From: 2010.06.25/outbox.cif.g09.slc.cpg/sg10_19_cif.got.tgz:37265.got - 2010.06.27 22:07:45.
