data_PCOD8065652
_publ_section_title
;
Structure prediction by ZEFSAII (Michael W. Deem and Ramdas Pophale) SiO2 
 PCOD8065652
Probable space group: P 2/M
;
_chemical_formula_sum "Si O2"
_cell_formula_units_Z 32
_cell_length_a 14.379206
_cell_length_b 8.792917
_cell_length_c 24.421075
_cell_angle_alpha 90.000000
_cell_angle_beta 148.715240
_cell_angle_gamma 90.000000
_cell_volume 1603.408332
_symmetry_space_group_name_H-M "P 2/M"
_symmetry_group_IT_number 10
_symmetry_cell_setting 'monoclinic'
loop_
_space_group_symop_operation_xyz
x,y,z
-x,y,-z
-x,-y,-z
x,-y,z
loop_
_atom_site_type_symbol
_atom_site_label
_atom_site_fract_x
_atom_site_fract_y
_atom_site_fract_z
Si Si1 0.971048 0.323538 0.153512
Si Si2 0.749871 0.677375 0.224401
Si Si3 0.585283 0.320327 0.485066
Si Si4 0.183858 0.676824 0.616811
Si Si5 0.310480 0.675211 0.254074
Si Si6 0.387283 0.179161 0.066097
Si Si7 0.055292 0.820427 0.308101
Si Si8 0.455428 0.821790 0.222888
O O1 0.919208 0.500000 0.133647
O O2 0.109409 0.298845 0.173786
O O3 0.067053 0.265876 0.256404
O O4 0.796182 0.224181 0.054964
O O5 0.762168 0.500000 0.215594
O O6 0.815118 0.711195 0.318469
O O7 0.546619 0.734171 0.114878
O O8 0.873034 0.774099 0.246270
O O9 0.500000 0.272517 0.500000
O O10 0.619883 0.500000 0.500140
O O11 0.453152 0.264865 0.370499
O O12 0.772999 0.233707 0.570572
O O13 0.203488 0.500000 0.613628
O O14 0.345652 0.758747 0.667185
O O15 0.000000 0.742736 0.500000
O O16 0.349109 0.500000 0.261852
O O17 0.324304 0.763544 0.204053
O O18 0.381433 0.232193 0.126592
O O19 0.419148 0.000000 0.076848
O O20 0.058809 0.000000 0.300958
O O21 0.463829 0.000000 0.230137
#
# Coordination Sequence:
#
# PCOD8065652 Si02
#       8
#     4   4   4   4   4   4   4   4
#     4  11  23  42  65  89 115 155 206 251 295 350
#     4  10  21  39  62  87 118 158 202 245 291 352
#     4  10  20  40  63  84 118 161 202 247 294 345
#     4   9  19  36  58  84 113 152 200 245 289 343
#     4  10  22  39  62  88 118 157 203 249 290 345
#     4  10  22  42  63  88 122 157 193 248 308 352
#     4  12  25  39  59  91 126 158 195 244 301 362
#     4  10  22  38  58  86 123 158 191 239 300 359
#
# _framework density 19.957485999999999
#
# number of rings (size 3 to 8) (size 9 to 14) (size 15 to 20)
#    0.000    1.750    1.250    2.625    1.750    5.000 
#    0.000    5.000    0.000    0.000    0.000    0.000 
#    0.000    0.000    0.000    0.000    0.000    0.000 
#
# Total GULP energy -396976.672095 kJ/mol
# GULP energy per Si atom -12405.521003 kJ/mol
# Density = 1.991206 g / cm^3
# Si number density = 19.957486 Si / 1000 Ang^3
#
#
#
# Elastic Constant Matrix: (Units=GPa)
#
#
# Indices 1 2 3 4 5 6 
#
# 1 78.4980 30.3217 4.1657 0.0000 10.6232 0.0000
# 2 30.3217 54.6062 13.0977 0.0000 4.7072 0.0000
# 3 4.1657 13.0977 80.5038 0.0000 17.0033 0.0000
# 4 0.0000 0.0000 0.0000 16.5396 0.0000 -4.8326
# 5 10.6232 4.7072 17.0033 0.0000 23.0785 0.0000
# 6 0.0000 0.0000 0.0000 -4.8326 0.0000 31.0149
#
#
#
# Elastic Compliance Matrix: (Units=1/GPa)
#
#
# Indices 1 2 3 4 5 6 
#
# 1 0.017335 -0.009507 0.002280 0.000000 -0.007721 0.000000
# 2 -0.009507 0.024341 -0.003960 0.000000 0.002329 0.000000
# 3 0.002280 -0.003960 0.015395 0.000000 -0.011584 0.000000
# 4 0.000000 0.000000 0.000000 0.063345 0.000000 0.009870
# 5 -0.007721 0.002329 -0.011584 0.000000 0.054944 0.000000
# 6 0.000000 0.000000 0.000000 0.009870 0.000000 0.033781
#
#
# Mechanical properties :
#
#
# Convention : Reuss Voigt Hill
#
# Bulk Modulus (GPa) = 28.82081 34.30867 31.56474
# Shear Modulus (GPa) = 20.56926 25.19479 22.88203
#
# Velocity S-wave (km/s) = 3.21386 3.55691 3.38973
# Velocity P-wave (km/s) = 5.31454 5.83927 5.58307
#
# Compressibility (1/GPa) = 0.03469715
#
# Stress axis : x y z
#
# Youngs Moduli (GPa) = 57.68515 41.08243 64.95702
#
# Poissons Ratio (x) = 0.39059 -0.14813
# Poissons Ratio (y) = 0.54844 0.25725
# Poissons Ratio (z) = -0.13155 0.16270
#
# Static dielectric constant tensor:
#      x y z
#    x 3.652680 0.000000 -0.015460 
#    y 0.000000 3.535690 0.000000 
#    z -0.015460 0.000000 3.665820 
# 
# 
# High freq. dielectric constant tensor:
#      x y z
#    x 1.782510 0.000000 0.005900 
#    y 0.000000 1.777200 0.000000 
#    z 0.005900 0.000000 1.780940 
# 
# From -- ./inp_files/71421.got.cif
#   From: 2010.06.25/outbox.cif.g09.slc.cpg/sg10_36_cif.got.tgz:71421.got - 2010.06.27 22:07:45.
