data_PCOD8065958
_publ_section_title
;
Structure prediction by ZEFSAII (Michael W. Deem and Ramdas Pophale) SiO2 
 PCOD8065958
Probable space group: P 2/M
;
_chemical_formula_sum "Si O2"
_cell_formula_units_Z 28
_cell_length_a 29.159804
_cell_length_b 9.056930
_cell_length_c 9.227198
_cell_angle_alpha 90.000000
_cell_angle_beta 37.921293
_cell_angle_gamma 90.000000
_cell_volume 1497.658340
_symmetry_space_group_name_H-M "P 2/M"
_symmetry_group_IT_number 10
_symmetry_cell_setting 'monoclinic'
loop_
_space_group_symop_operation_xyz
x,y,z
-x,y,-z
-x,-y,-z
x,-y,z
loop_
_atom_site_type_symbol
_atom_site_label
_atom_site_fract_x
_atom_site_fract_y
_atom_site_fract_z
Si Si1 0.427962 0.668675 0.760984
Si Si2 0.863540 0.170919 0.683292
Si Si3 0.010159 0.327383 0.808932
Si Si4 0.722445 0.828756 0.845262
Si Si5 0.568548 0.332321 0.911611
Si Si6 0.134639 0.327253 0.014932
Si Si7 0.267976 0.324128 0.476853
O O1 0.500000 0.733772 0.500000
O O2 0.412133 0.500000 0.752894
O O3 0.355657 0.764425 0.902338
O O4 0.447750 0.678987 0.879226
O O5 0.921037 0.239902 0.427610
O O6 0.780832 0.197064 0.828599
O O7 0.871041 0.243629 0.820707
O O8 0.882617 0.000000 0.652279
O O9 0.028190 0.500000 0.753307
O O10 0.936015 0.285802 0.906257
O O11 0.000000 0.277873 0.000000
O O12 0.751960 0.746616 0.628093
O O13 0.712588 0.000000 0.832079
O O14 0.570790 0.500000 0.850247
O O15 0.650593 0.264757 0.673678
O O16 0.500000 0.249556 0.000000
O O17 0.137618 0.500000 0.041217
O O18 0.208134 0.275322 0.745294
O O19 0.268953 0.500000 0.449843
#
# Coordination Sequence:
#
# PCOD8065958 Si02
#       7
#     4   4   4   4   4   4   4
#     4   9  18  32  52  77 102 133 176 221 263 309
#     4  11  24  38  53  78 111 145 179 215 260 316
#     4  10  21  38  60  83 106 135 175 222 268 316
#     4  10  21  36  53  75 106 144 181 216 260 315
#     4   8  14  26  46  73 102 128 160 207 257 304
#     4  10  21  36  56  82 108 137 175 220 271 318
#     4   9  18  34  56  79 103 136 178 221 265 314
#
# _framework density 18.695851999999999
#
# number of rings (size 3 to 8) (size 9 to 14) (size 15 to 20)
#    0.000    2.429    0.000    3.000    0.000    8.000 
#    0.000    2.857    0.000    6.857    0.000    0.000 
#    0.000    0.000    0.000    0.000    0.000    0.000 
#
# Total GULP energy -347190.098357 kJ/mol
# GULP energy per Si atom -12399.646370 kJ/mol
# Density = 1.865330 g / cm^3
# Si number density = 18.695852 Si / 1000 Ang^3
#
#
#
# Elastic Constant Matrix: (Units=GPa)
#
#
# Indices 1 2 3 4 5 6 
#
# 1 126.8200 49.2188 60.7045 0.0000 -3.4412 0.0000
# 2 49.2188 60.4581 50.3396 0.0000 -0.8641 0.0000
# 3 60.7045 50.3396 149.6283 0.0000 -1.2869 0.0000
# 4 0.0000 0.0000 0.0000 12.3543 0.0000 -7.8842
# 5 -3.4412 -0.8641 -1.2869 0.0000 26.1904 0.0000
# 6 0.0000 0.0000 0.0000 -7.8842 0.0000 20.8281
#
#
#
# Elastic Compliance Matrix: (Units=1/GPa)
#
#
# Indices 1 2 3 4 5 6 
#
# 1 0.012066 -0.007972 -0.002203 0.000000 0.001214 0.000000
# 2 -0.007972 0.028247 -0.006273 0.000000 -0.000424 0.000000
# 3 -0.002203 -0.006273 0.009687 0.000000 -0.000020 0.000000
# 4 0.000000 0.000000 0.000000 0.106725 0.000000 0.040399
# 5 0.001214 -0.000424 -0.000020 0.000000 0.038326 0.000000
# 6 0.000000 0.000000 0.000000 0.040399 0.000000 0.063304
#
#
# Mechanical properties :
#
#
# Convention : Reuss Voigt Hill
#
# Bulk Modulus (GPa) = 58.45958 73.04802 65.75380
# Shear Modulus (GPa) = 16.83768 23.65080 20.24424
#
# Velocity S-wave (km/s) = 3.00427 3.56058 3.29419
# Velocity P-wave (km/s) = 6.58565 7.48734 7.05093
#
# Compressibility (1/GPa) = 0.01710584
#
# Stress axis : x y z
#
# Youngs Moduli (GPa) = 82.87459 35.40222 103.22951
#
# Poissons Ratio (x) = 0.28221 0.22742
# Poissons Ratio (y) = 0.66064 0.64752
# Poissons Ratio (z) = 0.18258 0.22207
#
# Static dielectric constant tensor:
#      x y z
#    x 3.539210 0.000000 -0.180700 
#    y 0.000000 3.259850 0.000000 
#    z -0.180700 0.000000 3.635090 
# 
# 
# High freq. dielectric constant tensor:
#      x y z
#    x 1.733090 0.000000 -0.009160 
#    y 0.000000 1.702020 0.000000 
#    z -0.009160 0.000000 1.737280 
# 
# From -- ./inp_files/37083.got.cif
#   From: 2010.06.25/outbox.cif.g09.slc.cpg/sg10_19_cif.got.tgz:37083.got - 2010.06.27 22:07:45.
