data_PCOD8065959
_publ_section_title
;
Structure prediction by ZEFSAII (Michael W. Deem and Ramdas Pophale) SiO2 
 PCOD8065959
Probable space group: P 2/M
;
_chemical_formula_sum "Si O2"
_cell_formula_units_Z 32
_cell_length_a 9.258273
_cell_length_b 13.644816
_cell_length_c 22.112957
_cell_angle_alpha 90.000000
_cell_angle_beta 143.029254
_cell_angle_gamma 90.000000
_cell_volume 1680.014753
_symmetry_space_group_name_H-M "P 2/M"
_symmetry_group_IT_number 10
_symmetry_cell_setting 'monoclinic'
loop_
_space_group_symop_operation_xyz
x,y,z
-x,y,-z
-x,-y,-z
x,-y,z
loop_
_atom_site_type_symbol
_atom_site_label
_atom_site_fract_x
_atom_site_fract_y
_atom_site_fract_z
Si Si1 0.568195 0.389469 0.625568
Si Si2 0.562122 0.888761 0.443642
Si Si3 0.894057 0.887514 0.900989
Si Si4 0.953452 0.887605 0.702238
Si Si5 0.489739 0.209949 0.304552
Si Si6 0.239586 0.112361 0.907785
Si Si7 0.129328 0.608484 0.387706
Si Si8 0.942351 0.209250 0.375969
O O1 0.611027 0.500000 0.665250
O O2 0.562481 0.314365 0.680264
O O3 0.775759 0.360035 0.646974
O O4 0.326526 0.389020 0.506164
O O5 0.329359 0.856875 0.407906
O O6 0.449945 0.879372 0.338477
O O7 0.780994 0.812148 0.512844
O O8 0.649418 0.000000 0.486041
O O9 0.685243 0.812215 0.810420
O O10 0.115746 0.878346 0.930337
O O11 0.798562 0.000000 0.872752
O O12 0.000000 0.851716 0.000000
O O13 0.076073 0.835052 0.801143
O O14 0.114449 0.868660 0.696612
O O15 0.933110 0.000000 0.712126
O O16 0.763454 0.204169 0.371929
O O17 0.280594 0.000000 0.901662
O O18 0.500000 0.164355 0.000000
O O19 0.017500 0.500000 0.346498
O O20 0.923084 0.683774 0.338787
#
# Coordination Sequence:
#
# PCOD8065959 Si02
#       8
#     4   4   4   4   4   4   4   4
#     4   9  19  37  60  81 106 144 185 228 277 328
#     4  11  22  37  51  71 111 158 193 221 261 319
#     4  10  22  39  57  78 111 150 184 229 283 328
#     4  10  21  36  53  75 106 148 193 231 270 318
#     4  12  23  36  54  82 115 146 186 225 277 335
#     4   9  18  34  56  77  98 134 189 241 276 310
#     4   9  19  36  57  80 107 143 187 230 270 318
#     4  12  24  32  51  82 114 151 183 224 270 323
#
# _framework density 19.047453000000001
#
# number of rings (size 3 to 8) (size 9 to 14) (size 15 to 20)
#    0.000    1.750    2.500    3.000    3.500    4.000 
#    0.000    1.250    0.000    0.375    0.000    0.000 
#    0.000    3.000    0.000    0.000    0.000    0.000 
#
# Total GULP energy -396489.536323 kJ/mol
# GULP energy per Si atom -12390.298010 kJ/mol
# Density = 1.900410 g / cm^3
# Si number density = 19.047453 Si / 1000 Ang^3
#
#
#
# Elastic Constant Matrix: (Units=GPa)
#
#
# Indices 1 2 3 4 5 6 
#
# 1 77.8353 34.1107 6.1517 0.0000 1.0149 0.0000
# 2 34.1107 81.8945 23.7770 0.0000 1.6239 0.0000
# 3 6.1517 23.7770 73.8082 0.0000 -3.9037 0.0000
# 4 0.0000 0.0000 0.0000 16.3689 0.0000 -8.1955
# 5 1.0149 1.6239 -3.9037 0.0000 30.5719 0.0000
# 6 0.0000 0.0000 0.0000 -8.1955 0.0000 25.2527
#
#
#
# Elastic Compliance Matrix: (Units=1/GPa)
#
#
# Indices 1 2 3 4 5 6 
#
# 1 0.015769 -0.006823 0.000881 0.000000 -0.000049 0.000000
# 2 -0.006823 0.016473 -0.004805 0.000000 -0.001262 0.000000
# 3 0.000881 -0.004805 0.015137 0.000000 0.002159 0.000000
# 4 0.000000 0.000000 0.000000 0.072944 0.000000 0.023673
# 5 -0.000049 -0.001262 0.002159 0.000000 0.033054 0.000000
# 6 0.000000 0.000000 0.000000 0.023673 0.000000 0.047283
#
#
# Mechanical properties :
#
#
# Convention : Reuss Voigt Hill
#
# Bulk Modulus (GPa) = 38.63133 40.17964 39.40549
# Shear Modulus (GPa) = 21.66561 25.73862 23.70211
#
# Velocity S-wave (km/s) = 3.37628 3.67998 3.53139
# Velocity P-wave (km/s) = 5.96025 6.26072 6.11233
#
# Compressibility (1/GPa) = 0.02588572
#
# Stress axis : x y z
#
# Youngs Moduli (GPa) = 63.41682 60.70661 66.06251
#
# Poissons Ratio (x) = 0.41419 -0.05821
# Poissons Ratio (y) = 0.43268 0.31741
# Poissons Ratio (z) = -0.05588 0.29168
#
# Static dielectric constant tensor:
#      x y z
#    x 3.472400 0.000000 -0.101850 
#    y 0.000000 3.542310 0.000000 
#    z -0.101850 0.000000 3.503890 
# 
# 
# High freq. dielectric constant tensor:
#      x y z
#    x 1.744550 0.000000 -0.016230 
#    y 0.000000 1.713960 0.000000 
#    z -0.016230 0.000000 1.719090 
# 
# From -- ./inp_files/82801.got.cif
#   From: 2010.06.25/outbox.cif.g09.slc.cpg/sg10_42_cif.got.tgz:82801.got - 2010.06.27 22:07:45.
