data_PCOD8065628
_publ_section_title
;
Structure prediction by ZEFSAII (Michael W. Deem and Ramdas Pophale) SiO2 
 PCOD8065628
Probable space group: P 2/M
;
_chemical_formula_sum "Si O2"
_cell_formula_units_Z 28
_cell_length_a 24.210788
_cell_length_b 9.135862
_cell_length_c 21.767908
_cell_angle_alpha 90.000000
_cell_angle_beta 17.524217
_cell_angle_gamma 90.000000
_cell_volume 1449.768661
_symmetry_space_group_name_H-M "P 2/M"
_symmetry_group_IT_number 10
_symmetry_cell_setting 'monoclinic'
loop_
_space_group_symop_operation_xyz
x,y,z
-x,y,-z
-x,-y,-z
x,-y,z
loop_
_atom_site_type_symbol
_atom_site_label
_atom_site_fract_x
_atom_site_fract_y
_atom_site_fract_z
Si Si1 0.407859 0.831026 0.812576
Si Si2 0.671321 0.673477 0.978970
Si Si3 0.216617 0.664713 0.778201
Si Si4 0.422180 0.831417 0.147934
Si Si5 0.760745 0.831960 0.364123
Si Si6 0.995891 0.168484 0.433879
Si Si7 0.175562 0.829310 0.941019
O O1 0.619015 0.805500 0.569666
O O2 0.274814 0.784320 0.898330
O O3 0.374572 0.000000 0.866762
O O4 0.363349 0.725144 0.915427
O O5 0.671241 0.500000 0.976327
O O6 0.868061 0.731478 0.748892
O O7 0.509143 0.733157 0.108339
O O8 0.290403 0.500000 0.703484
O O9 0.306750 0.741583 0.623553
O O10 0.272323 0.745445 0.781978
O O11 0.000000 0.672941 0.000000
O O12 0.204834 0.809801 0.381329
O O13 0.477789 0.000000 0.100217
O O14 0.500000 0.778791 0.000000
O O15 0.761147 0.000000 0.342778
O O16 0.961874 0.784296 0.174244
O O17 0.000000 0.219880 0.500000
O O18 0.060092 0.000000 0.361243
O O19 0.199266 0.000000 0.902374
#
# Coordination Sequence:
#
# PCOD8065628 Si02
#       7
#     4   4   4   4   4   4   4
#     4  10  22  39  57  78 107 148 200 242 276 334
#     4  12  26  40  57  87 128 160 189 236 296 359
#     4   9  17  30  51  80 111 143 178 223 283 348
#     4  10  20  39  67  92 115 149 195 240 282 335
#     4   9  18  34  56  79 105 140 186 239 287 329
#     4  10  20  39  67  92 115 149 195 240 282 335
#     4   9  18  34  56  79 105 140 186 239 287 329
#
# _framework density 19.313424999999999
#
# number of rings (size 3 to 8) (size 9 to 14) (size 15 to 20)
#    0.000    2.143    1.429    1.714    0.000    5.714 
#    0.000    5.714    0.000    0.000    0.000    0.000 
#    0.000    0.000    0.000    0.000    0.000    0.000 
#
# Total GULP energy -347291.297509 kJ/mol
# GULP energy per Si atom -12403.260625 kJ/mol
# Density = 1.926947 g / cm^3
# Si number density = 19.313425 Si / 1000 Ang^3
#
#
#
# Elastic Constant Matrix: (Units=GPa)
#
#
# Indices 1 2 3 4 5 6 
#
# 1 109.9756 54.5938 28.9527 0.0000 7.1647 0.0000
# 2 54.5938 97.1116 28.5558 0.0000 11.3031 0.0000
# 3 28.9527 28.5558 61.0482 0.0000 1.4801 0.0000
# 4 0.0000 0.0000 0.0000 15.1180 0.0000 -2.9067
# 5 7.1647 11.3031 1.4801 0.0000 31.1946 0.0000
# 6 0.0000 0.0000 0.0000 -2.9067 0.0000 10.3754
#
#
#
# Elastic Compliance Matrix: (Units=1/GPa)
#
#
# Indices 1 2 3 4 5 6 
#
# 1 0.013146 -0.006373 -0.003240 0.000000 -0.000556 0.000000
# 2 -0.006373 0.015567 -0.004163 0.000000 -0.003979 0.000000
# 3 -0.003240 -0.004163 0.019833 0.000000 0.001312 0.000000
# 4 0.000000 0.000000 0.000000 0.069912 0.000000 0.019586
# 5 -0.000556 -0.003979 0.001312 0.000000 0.033564 0.000000
# 6 0.000000 0.000000 0.000000 0.019586 0.000000 0.101869
#
#
# Mechanical properties :
#
#
# Convention : Reuss Voigt Hill
#
# Bulk Modulus (GPa) = 47.63234 54.70444 51.16839
# Shear Modulus (GPa) = 17.33460 21.73983 19.53721
#
# Velocity S-wave (km/s) = 2.99915 3.35869 3.18400
# Velocity P-wave (km/s) = 6.05884 6.58992 6.32995
#
# Compressibility (1/GPa) = 0.02099414
#
# Stress axis : x y z
#
# Youngs Moduli (GPa) = 76.07065 64.23735 50.42201
#
# Poissons Ratio (x) = 0.40936 0.16337
# Poissons Ratio (y) = 0.48477 0.20990
# Poissons Ratio (z) = 0.24648 0.26742
#
# Static dielectric constant tensor:
#      x y z
#    x 3.481540 0.000000 0.013110 
#    y 0.000000 3.438040 0.000000 
#    z 0.013110 0.000000 3.420280 
# 
# 
# High freq. dielectric constant tensor:
#      x y z
#    x 1.751920 0.000000 -0.005370 
#    y 0.000000 1.738760 0.000000 
#    z -0.005370 0.000000 1.757620 
# 
# From -- ./inp_files/86484.got.cif
#   From: 2010.06.25/outbox.cif.g09.slc.cpg/sg10_44_cif.got.tgz:86484.got - 2010.06.27 22:07:45.
