data_PCOD8065645
_publ_section_title
;
Structure prediction by ZEFSAII (Michael W. Deem and Ramdas Pophale) SiO2 
 PCOD8065645
Probable space group: P 2/M
;
_chemical_formula_sum "Si O2"
_cell_formula_units_Z 32
_cell_length_a 30.946679
_cell_length_b 8.990449
_cell_length_c 12.062639
_cell_angle_alpha 90.000000
_cell_angle_beta 28.254004
_cell_angle_gamma 90.000000
_cell_volume 1588.725229
_symmetry_space_group_name_H-M "P 2/M"
_symmetry_group_IT_number 10
_symmetry_cell_setting 'monoclinic'
loop_
_space_group_symop_operation_xyz
x,y,z
-x,y,-z
-x,-y,-z
x,-y,z
loop_
_atom_site_type_symbol
_atom_site_label
_atom_site_fract_x
_atom_site_fract_y
_atom_site_fract_z
Si Si1 0.505669 0.833146 0.673520
Si Si2 0.107935 0.173602 0.591778
Si Si3 0.179861 0.672366 0.222804
Si Si4 0.229083 0.676549 0.503498
Si Si5 0.096189 0.827741 0.967369
Si Si6 0.357571 0.167738 0.818774
Si Si7 0.095023 0.830099 0.224888
Si Si8 0.561311 0.324422 0.962688
O O1 0.601028 0.797682 0.396544
O O2 0.430275 0.816969 0.750566
O O3 0.506054 0.000000 0.721600
O O4 0.488602 0.720050 0.811359
O O5 0.115006 0.234855 0.451206
O O6 0.180113 0.256068 0.506515
O O7 0.002736 0.199559 0.866425
O O8 0.131865 0.000000 0.538568
O O9 0.158744 0.500000 0.285683
O O10 0.166164 0.724387 0.127073
O O11 0.283977 0.708464 0.016342
O O12 0.225987 0.500000 0.500269
O O13 0.333768 0.735039 0.276973
O O14 0.173601 0.727584 0.736816
O O15 0.090297 0.780378 0.108526
O O16 0.123565 0.000000 0.891328
O O17 0.316655 0.000000 0.911217
O O18 0.000000 0.804629 0.500000
O O19 0.127554 0.000000 0.161077
O O20 0.563910 0.500000 0.949313
O O21 0.500000 0.259852 0.000000
#
# Coordination Sequence:
#
# PCOD8065645 Si02
#       8
#     4   4   4   4   4   4   4   4
#     4   9  19  37  62  88 112 144 192 247 293 340
#     4  11  22  40  63  86 118 160 203 245 294 353
#     4  12  24  35  55  90 124 156 197 241 293 349
#     4  11  24  40  60  90 122 153 195 248 301 350
#     4  10  22  40  63  87 115 158 204 242 290 352
#     4   9  19  37  59  86 119 151 187 238 298 351
#     4  10  20  40  62  81 112 156 200 238 284 342
#     4  10  23  42  60  80 116 160 194 233 294 360
#
# _framework density 20.141935
#
# number of rings (size 3 to 8) (size 9 to 14) (size 15 to 20)
#    0.000    1.750    1.250    3.750    0.000    8.500 
#    0.000    3.750    0.000    0.000    0.000    0.000 
#    0.000    0.000    0.000    0.000    0.000    0.000 
#
# Total GULP energy -396778.642526 kJ/mol
# GULP energy per Si atom -12399.332579 kJ/mol
# Density = 2.009609 g / cm^3
# Si number density = 20.141935 Si / 1000 Ang^3
#
#
#
# Elastic Constant Matrix: (Units=GPa)
#
#
# Indices 1 2 3 4 5 6 
#
# 1 102.8250 31.3491 34.4975 0.0000 13.2468 0.0000
# 2 31.3491 61.9736 26.8573 0.0000 3.5088 0.0000
# 3 34.4975 26.8573 76.3494 0.0000 11.3015 0.0000
# 4 0.0000 0.0000 0.0000 22.0011 0.0000 -3.3577
# 5 13.2468 3.5088 11.3015 0.0000 27.4949 0.0000
# 6 0.0000 0.0000 0.0000 -3.3577 0.0000 27.2623
#
#
#
# Elastic Compliance Matrix: (Units=1/GPa)
#
#
# Indices 1 2 3 4 5 6 
#
# 1 0.012898 -0.004755 -0.003540 0.000000 -0.004152 0.000000
# 2 -0.004755 0.020794 -0.005444 0.000000 0.001875 0.000000
# 3 -0.003540 -0.005444 0.017310 0.000000 -0.004715 0.000000
# 4 0.000000 0.000000 0.000000 0.046323 0.000000 0.005705
# 5 -0.004152 0.001875 -0.004715 0.000000 0.040069 0.000000
# 6 0.000000 0.000000 0.000000 0.005705 0.000000 0.037383
#
#
# Mechanical properties :
#
#
# Convention : Reuss Voigt Hill
#
# Bulk Modulus (GPa) = 42.51012 47.39507 44.95259
# Shear Modulus (GPa) = 23.79852 25.24794 24.52323
#
# Velocity S-wave (km/s) = 3.44108 3.54432 3.49309
# Velocity P-wave (km/s) = 6.07776 6.35069 6.21572
#
# Compressibility (1/GPa) = 0.02352381
#
# Stress axis : x y z
#
# Youngs Moduli (GPa) = 77.53380 48.09048 57.76929
#
# Poissons Ratio (x) = 0.22866 0.20453
# Poissons Ratio (y) = 0.36866 0.31449
# Poissons Ratio (z) = 0.27450 0.26180
#
# Static dielectric constant tensor:
#      x y z
#    x 3.809410 0.000000 0.036560 
#    y 0.000000 3.497540 0.000000 
#    z 0.036560 0.000000 3.876890 
# 
# 
# High freq. dielectric constant tensor:
#      x y z
#    x 1.791730 0.000000 0.002090 
#    y 0.000000 1.773450 0.000000 
#    z 0.002090 0.000000 1.791250 
# 
# From -- ./inp_files/58127.got.cif
#   From: 2010.06.25/outbox.cif.g09.slc.cpg/sg10_30_cif.got.tgz:58127.got - 2010.06.27 22:07:45.
