data_PCOD8065700
_publ_section_title
;
Structure prediction by ZEFSAII (Michael W. Deem and Ramdas Pophale) SiO2 
 PCOD8065700
Probable space group: P 2/M
;
_chemical_formula_sum "Si O2"
_cell_formula_units_Z 32
_cell_length_a 27.248587
_cell_length_b 13.233153
_cell_length_c 9.677813
_cell_angle_alpha 90.000000
_cell_angle_beta 28.186852
_cell_angle_gamma 90.000000
_cell_volume 1648.341149
_symmetry_space_group_name_H-M "P 2/M"
_symmetry_group_IT_number 10
_symmetry_cell_setting 'monoclinic'
loop_
_space_group_symop_operation_xyz
x,y,z
-x,y,-z
-x,-y,-z
x,-y,z
loop_
_atom_site_type_symbol
_atom_site_label
_atom_site_fract_x
_atom_site_fract_y
_atom_site_fract_z
Si Si1 0.946968 0.617501 0.772851
Si Si2 0.282706 0.112360 0.102625
Si Si3 0.407616 0.385380 0.121276
Si Si4 0.233603 0.756293 0.682525
Si Si5 0.661199 0.118800 0.338406
Si Si6 0.533505 0.246317 0.264490
Si Si7 0.911799 0.392636 0.327823
Si Si8 0.875743 0.809848 0.310941
O O1 0.915797 0.500000 0.857956
O O2 0.000000 0.648205 0.500000
O O3 0.033563 0.646222 0.669527
O O4 0.843442 0.681593 0.047244
O O5 0.171850 0.114704 0.456977
O O6 0.329458 0.000000 0.996700
O O7 0.271233 0.139487 0.968518
O O8 0.358768 0.186556 0.994769
O O9 0.365348 0.500000 0.205625
O O10 0.319345 0.311448 0.395682
O O11 0.500000 0.385604 0.000000
O O12 0.451553 0.345062 0.866255
O O13 0.281430 0.833576 0.673121
O O14 0.172140 0.824813 0.722416
O O15 0.549549 0.170669 0.597232
O O16 0.645497 0.000000 0.405082
O O17 0.500000 0.282753 0.500000
O O18 0.850791 0.500000 0.502555
O O19 0.839600 0.303307 0.449971
O O20 0.000000 0.415261 0.000000
O O21 0.000000 0.822925 0.000000
#
# Coordination Sequence:
#
# PCOD8065700 Si02
#       8
#     4   4   4   4   4   4   4   4
#     4  10  21  36  57  86 118 160 209 253 294 347
#     4  10  22  41  64  89 118 154 198 251 311 361
#     4  11  23  40  60  92 132 164 192 234 303 370
#     4  12  22  38  62  87 124 163 201 245 304 352
#     4  10  23  41  64  91 119 152 201 255 304 363
#     4  10  20  42  69  92 118 153 197 249 302 358
#     4   9  17  33  54  77 110 148 196 247 289 336
#     4  11  22  37  58  87 117 158 203 249 299 350
#
# _framework density 19.413457999999999
#
# number of rings (size 3 to 8) (size 9 to 14) (size 15 to 20)
#    0.000    1.625    5.000    0.750    1.750    3.000 
#    0.000    0.625    0.000    1.875    0.000    0.000 
#    0.000    0.000    0.000    0.000    0.000    0.000 
#
# Total GULP energy -396675.567341 kJ/mol
# GULP energy per Si atom -12396.111479 kJ/mol
# Density = 1.936927 g / cm^3
# Si number density = 19.413458 Si / 1000 Ang^3
#
#
#
# Elastic Constant Matrix: (Units=GPa)
#
#
# Indices 1 2 3 4 5 6 
#
# 1 144.5221 50.5286 47.8828 0.0000 10.1640 0.0000
# 2 50.5286 83.3385 31.5630 0.0000 9.8096 0.0000
# 3 47.8828 31.5630 98.6195 0.0000 12.7634 0.0000
# 4 0.0000 0.0000 0.0000 21.8504 0.0000 14.2657
# 5 10.1640 9.8096 12.7634 0.0000 25.3141 0.0000
# 6 0.0000 0.0000 0.0000 14.2657 0.0000 8.2788
#
#
#
# Elastic Compliance Matrix: (Units=1/GPa)
#
#
# Indices 1 2 3 4 5 6 
#
# 1 0.009589 -0.004570 -0.003128 0.000000 -0.000502 0.000000
# 2 -0.004570 0.016096 -0.002528 0.000000 -0.003128 0.000000
# 3 -0.003128 -0.002528 0.013029 0.000000 -0.004334 0.000000
# 4 0.000000 0.000000 0.000000 -0.366094 0.000000 0.630835
# 5 -0.000502 -0.003128 -0.004334 0.000000 0.043102 0.000000
# 6 0.000000 0.000000 0.000000 0.630835 0.000000 -0.966233
#
#
# Mechanical properties :
#
#
# Convention : Reuss Voigt Hill
#
# Bulk Modulus (GPa) = 54.76005 65.15875 59.95940
# Shear Modulus (GPa) = -4.08506 24.18905 10.05199
#
# Velocity S-wave (km/s) = -1.45217 3.53369 2.27796
# Velocity P-wave (km/s) = 5.04547 7.09125 6.15397
#
# Compressibility (1/GPa) = 0.01826149
#
# Stress axis : x y z
#
# Youngs Moduli (GPa) = 104.28801 62.12903 76.75426
#
# Poissons Ratio (x) = 0.28393 0.24009
# Poissons Ratio (y) = 0.47659 0.19401
# Poissons Ratio (z) = 0.32622 0.15704
#
# Static dielectric constant tensor:
#      x y z
#    x 3.654230 0.000000 0.125400 
#    y 0.000000 3.702290 0.000000 
#    z 0.125400 0.000000 3.461170 
# 
# 
# High freq. dielectric constant tensor:
#      x y z
#    x 1.766370 0.000000 0.009860 
#    y 0.000000 1.751990 0.000000 
#    z 0.009860 0.000000 1.747190 
# 
# From -- ./inp_files/36361.got.cif
#   From: 2010.06.25/outbox.cif.g09.slc.cpg/sg10_19_cif.got.tgz:36361.got - 2010.06.27 22:07:45.
