data_PCOD8065716
_publ_section_title
;
Structure prediction by ZEFSAII (Michael W. Deem and Ramdas Pophale) SiO2 
 PCOD8065716
Probable space group: P 2/M
;
_chemical_formula_sum "Si O2"
_cell_formula_units_Z 32
_cell_length_a 17.359317
_cell_length_b 14.361950
_cell_length_c 10.786146
_cell_angle_alpha 90.000000
_cell_angle_beta 139.754547
_cell_angle_gamma 90.000000
_cell_volume 1737.350656
_symmetry_space_group_name_H-M "P 2/M"
_symmetry_group_IT_number 10
_symmetry_cell_setting 'monoclinic'
loop_
_space_group_symop_operation_xyz
x,y,z
-x,y,-z
-x,-y,-z
x,-y,z
loop_
_atom_site_type_symbol
_atom_site_label
_atom_site_fract_x
_atom_site_fract_y
_atom_site_fract_z
Si Si1 0.654281 0.104390 0.561806
Si Si2 0.825565 0.608019 0.601334
Si Si3 0.228390 0.267889 0.005984
Si Si4 0.041881 0.398196 0.688474
Si Si5 0.863895 0.764523 0.840539
Si Si6 0.609884 0.894995 0.798721
Si Si7 0.565952 0.609870 0.203817
Si Si8 0.444182 0.389914 0.304825
O O1 0.766430 0.166933 0.656920
O O2 0.528012 0.132840 0.341923
O O3 0.633252 0.110453 0.681878
O O4 0.686762 0.000000 0.561699
O O5 0.818469 0.500000 0.632020
O O6 0.933583 0.630970 0.643543
O O7 0.846172 0.664706 0.753457
O O8 0.705542 0.636552 0.379258
O O9 0.135496 0.313695 0.797441
O O10 0.158307 0.238099 0.041418
O O11 0.299923 0.181151 0.030354
O O12 0.311646 0.353278 0.144630
O O13 0.092953 0.500000 0.794889
O O14 0.000000 0.411832 0.500000
O O15 0.000000 0.801298 0.000000
O O16 0.636843 0.000000 0.880731
O O17 0.547248 0.500000 0.177421
O O18 0.509802 0.649230 0.262686
O O19 0.500000 0.652465 0.000000
O O20 0.500000 0.348880 0.500000
O O21 0.445767 0.500000 0.308984
#
# Coordination Sequence:
#
# PCOD8065716 Si02
#       8
#     4   4   4   4   4   4   4   4
#     4   8  16  31  51  75 106 137 167 207 261 317
#     4  10  21  36  51  70 106 144 173 214 260 310
#     4  11  21  32  54  77 103 138 176 218 257 316
#     4  10  22  38  54  72 100 143 188 224 253 296
#     4  11  21  33  49  77 109 140 176 209 255 321
#     4   8  16  31  52  77 103 134 168 210 266 320
#     4   9  19  34  52  72  97 134 178 220 265 314
#     4  10  21  33  48  76 109 135 168 219 275 320
#
# _framework density 18.418849999999999
#
# number of rings (size 3 to 8) (size 9 to 14) (size 15 to 20)
#    0.000    2.375    1.250    1.875    7.000    2.500 
#    0.000    0.000    0.000    0.375    0.000    0.000 
#    0.000    3.000    0.000    0.000    0.000    0.000 
#
# Total GULP energy -396505.022163 kJ/mol
# GULP energy per Si atom -12390.781943 kJ/mol
# Density = 1.837693 g / cm^3
# Si number density = 18.418850 Si / 1000 Ang^3
#
#
#
# Elastic Constant Matrix: (Units=GPa)
#
#
# Indices 1 2 3 4 5 6 
#
# 1 58.6248 34.2953 37.7742 0.0000 11.3173 0.0000
# 2 34.2953 83.3861 57.9838 0.0000 17.7128 0.0000
# 3 37.7742 57.9838 106.2752 0.0000 24.8677 0.0000
# 4 0.0000 0.0000 0.0000 42.1436 0.0000 16.6328
# 5 11.3173 17.7128 24.8677 0.0000 32.9503 0.0000
# 6 0.0000 0.0000 0.0000 16.6328 0.0000 18.1360
#
#
#
# Elastic Compliance Matrix: (Units=1/GPa)
#
#
# Indices 1 2 3 4 5 6 
#
# 1 0.024092 -0.006272 -0.004851 0.000000 -0.001243 0.000000
# 2 -0.006272 0.021196 -0.008712 0.000000 -0.002665 0.000000
# 3 -0.004851 -0.008712 0.017490 0.000000 -0.006850 0.000000
# 4 0.000000 0.000000 0.000000 0.037189 0.000000 -0.034107
# 5 -0.001243 -0.002665 -0.006850 0.000000 0.037378 0.000000
# 6 0.000000 0.000000 0.000000 -0.034107 0.000000 0.086419
#
#
# Mechanical properties :
#
#
# Convention : Reuss Voigt Hill
#
# Bulk Modulus (GPa) = 43.27224 56.48808 49.88016
# Shear Modulus (GPa) = 18.44107 26.52818 22.48462
#
# Velocity S-wave (km/s) = 3.16762 3.79921 3.49770
# Velocity P-wave (km/s) = 6.07642 7.06969 6.59179
#
# Compressibility (1/GPa) = 0.02310951
#
# Stress axis : x y z
#
# Youngs Moduli (GPa) = 41.50791 47.17939 57.17697
#
# Poissons Ratio (x) = 0.29590 0.27734
# Poissons Ratio (y) = 0.26033 0.49810
# Poissons Ratio (z) = 0.20134 0.41100
#
# Static dielectric constant tensor:
#      x y z
#    x 2.944150 0.000000 0.247320 
#    y 0.000000 3.522250 0.000000 
#    z 0.247320 0.000000 3.526180 
# 
# 
# High freq. dielectric constant tensor:
#      x y z
#    x 1.694040 0.000000 0.026600 
#    y 0.000000 1.699490 0.000000 
#    z 0.026600 0.000000 1.706850 
# 
# From -- ./inp_files/54043.got.cif
#   From: 2010.06.25/outbox.cif.g09.slc.cpg/sg10_28_cif.got.tgz:54043.got - 2010.06.27 22:07:45.
