data_PCOD8065148
_publ_section_title
;
Structure prediction by ZEFSAII (Michael W. Deem and Ramdas Pophale) SiO2 
 PCOD8065148
Probable space group: P 2/M
;
_chemical_formula_sum "Si O2"
_cell_formula_units_Z 28
_cell_length_a 15.317285
_cell_length_b 9.574918
_cell_length_c 20.683021
_cell_angle_alpha 90.000000
_cell_angle_beta 28.944177
_cell_angle_gamma 90.000000
_cell_volume 1468.039807
_symmetry_space_group_name_H-M "P 2/M"
_symmetry_group_IT_number 10
_symmetry_cell_setting 'monoclinic'
loop_
_space_group_symop_operation_xyz
x,y,z
-x,y,-z
-x,-y,-z
x,-y,z
loop_
_atom_site_type_symbol
_atom_site_label
_atom_site_fract_x
_atom_site_fract_y
_atom_site_fract_z
Si Si1 0.924917 0.340506 0.361992
Si Si2 0.779248 0.338374 0.932834
Si Si3 0.457132 0.158572 0.102575
Si Si4 0.286770 0.157309 0.786109
Si Si5 0.914182 0.157810 0.956414
Si Si6 0.048924 0.836567 0.395627
Si Si7 0.556176 0.336637 0.534633
O O1 0.903603 0.500000 0.398725
O O2 0.764448 0.302068 0.415970
O O3 0.115223 0.317846 0.202762
O O4 0.919953 0.244366 0.428947
O O5 0.746594 0.500000 0.969469
O O6 0.900537 0.271539 0.909663
O O7 0.587836 0.261074 0.056627
O O8 0.254720 0.205927 0.248872
O O9 0.489860 0.000000 0.105132
O O10 0.500000 0.173184 0.000000
O O11 0.439201 0.263893 0.665665
O O12 0.105967 0.184838 0.863899
O O13 0.356327 0.000000 0.729232
O O14 0.245762 0.180920 0.888257
O O15 0.902805 0.000000 0.935954
O O16 0.000000 0.791647 0.500000
O O17 0.015810 0.000000 0.405770
O O18 0.500000 0.278930 0.500000
O O19 0.515150 0.500000 0.564577
#
# Coordination Sequence:
#
# PCOD8065148 Si02
#       7
#     4   4   4   4   4   4   4
#     4  10  22  38  56  81 114 151 188 231 282 335
#     4  11  22  35  57  86 112 143 189 233 275 333
#     4  10  20  37  60  83 110 145 182 227 284 332
#     4   9  19  36  56  79 108 145 189 234 277 328
#     4   9  19  36  56  79 111 146 182 231 286 332
#     4  10  22  40  61  85 113 148 190 235 286 343
#     4  10  21  37  56  80 116 154 186 227 281 339
#
# _framework density 19.073052000000001
#
# number of rings (size 3 to 8) (size 9 to 14) (size 15 to 20)
#    0.000    2.143    1.429    2.143    0.000    6.000 
#    0.000    5.714    0.000    0.000    0.000    0.000 
#    0.000    0.000    0.000    0.000    0.000    0.000 
#
# Total GULP energy -347255.111398 kJ/mol
# GULP energy per Si atom -12401.968264 kJ/mol
# Density = 1.902964 g / cm^3
# Si number density = 19.073052 Si / 1000 Ang^3
#
#
#
# Elastic Constant Matrix: (Units=GPa)
#
#
# Indices 1 2 3 4 5 6 
#
# 1 102.9532 54.4706 27.8359 0.0000 1.8834 0.0000
# 2 54.4706 84.5525 35.8791 0.0000 -1.0478 0.0000
# 3 27.8359 35.8791 92.0413 0.0000 -1.3112 0.0000
# 4 0.0000 0.0000 0.0000 24.4777 0.0000 -0.0123
# 5 1.8834 -1.0478 -1.3112 0.0000 24.3062 0.0000
# 6 0.0000 0.0000 0.0000 -0.0123 0.0000 37.1401
#
#
#
# Elastic Compliance Matrix: (Units=1/GPa)
#
#
# Indices 1 2 3 4 5 6 
#
# 1 0.014861 -0.009198 -0.000932 0.000000 -0.001598 0.000000
# 2 -0.009198 0.019867 -0.004944 0.000000 0.001302 0.000000
# 3 -0.000932 -0.004944 0.013082 0.000000 0.000565 0.000000
# 4 0.000000 0.000000 0.000000 0.040854 0.000000 0.000014
# 5 -0.001598 0.001302 0.000565 0.000000 0.041352 0.000000
# 6 0.000000 0.000000 0.000000 0.000014 0.000000 0.026925
#
#
# Mechanical properties :
#
#
# Convention : Reuss Voigt Hill
#
# Bulk Modulus (GPa) = 56.61926 57.32426 56.97176
# Shear Modulus (GPa) = 25.91008 27.94221 26.92614
#
# Velocity S-wave (km/s) = 3.68974 3.83170 3.76139
# Velocity P-wave (km/s) = 6.92114 7.04955 6.98564
#
# Compressibility (1/GPa) = 0.01766183
#
# Stress axis : x y z
#
# Youngs Moduli (GPa) = 67.29085 50.33530 76.44267
#
# Poissons Ratio (x) = 0.46300 0.07121
# Poissons Ratio (y) = 0.61896 0.37793
# Poissons Ratio (z) = 0.06268 0.24886
#
# Static dielectric constant tensor:
#      x y z
#    x 3.409450 0.000000 0.013940 
#    y 0.000000 3.444070 0.000000 
#    z 0.013940 0.000000 3.524380 
# 
# 
# High freq. dielectric constant tensor:
#      x y z
#    x 1.740240 0.000000 -0.001750 
#    y 0.000000 1.738770 0.000000 
#    z -0.001750 0.000000 1.739980 
# 
# From -- ./inp_files/70277.got.cif
#   From: 2010.06.25/outbox.cif.g09.slc.cpg/sg10_36_cif.got.tgz:70277.got - 2010.06.27 22:07:45.
