data_PCOD8065232
_publ_section_title
;
Structure prediction by ZEFSAII (Michael W. Deem and Ramdas Pophale) SiO2 
 PCOD8065232
Probable space group: P 2/M
;
_chemical_formula_sum "Si O2"
_cell_formula_units_Z 26
_cell_length_a 22.045809
_cell_length_b 13.475697
_cell_length_c 19.848149
_cell_angle_alpha 90.000000
_cell_angle_beta 12.494586
_cell_angle_gamma 90.000000
_cell_volume 1275.700985
_symmetry_space_group_name_H-M "P 2/M"
_symmetry_group_IT_number 10
_symmetry_cell_setting 'monoclinic'
loop_
_space_group_symop_operation_xyz
x,y,z
-x,y,-z
-x,-y,-z
x,-y,z
loop_
_atom_site_type_symbol
_atom_site_label
_atom_site_fract_x
_atom_site_fract_y
_atom_site_fract_z
Si Si1 0.128814 0.109065 0.126546
Si Si2 0.696205 0.385118 0.350049
Si Si3 0.306260 0.500000 0.144451
Si Si4 0.823614 0.615801 0.455475
Si Si5 0.526659 0.303023 0.891372
Si Si6 0.589026 0.693320 0.210677
Si Si7 0.492512 0.891052 0.159905
O O1 0.304674 0.193215 0.897484
O O2 0.241795 0.105752 0.079844
O O3 0.174067 0.000000 0.043501
O O4 0.797697 0.135301 0.486711
O O5 0.500000 0.364738 0.500000
O O6 0.706796 0.500000 0.359465
O O7 0.594068 0.324895 0.525092
O O8 0.000000 0.345135 0.000000
O O9 0.000000 0.500000 0.500000
O O10 0.500000 0.500000 0.000000
O O11 0.346683 0.397526 0.057870
O O12 0.745130 0.500000 0.547066
O O13 0.818173 0.672293 0.535039
O O14 0.599148 0.672149 0.651040
O O15 0.137400 0.623036 0.086341
O O16 0.424739 0.192777 0.984138
O O17 0.500000 0.309675 0.000000
O O18 0.459427 0.000000 0.160933
#
# Coordination Sequence:
#
# PCOD8065232 Si02
#       7
#     4   4   2   4   4   4   4
#     4  10  20  37  61  87 115 150 197 249 301 351
#     4  10  21  37  58  87 123 158 189 229 287 355
#     4  10  24  40  56  78 110 156 192 234 302 370
#     4  12  24  38  58  90 119 156 205 253 293 350
#     4  11  23  40  58  83 117 158 198 249 307 361
#     4  12  22  40  64  89 120 159 199 244 295 349
#     4  10  21  39  59  83 114 151 201 257 309 354
#
# _framework density 20.380953000000002
#
# number of rings (size 3 to 8) (size 9 to 14) (size 15 to 20)
#    0.000    1.231    3.846    2.308    0.000    6.462 
#    0.000    0.000    0.000    4.154    0.000    0.000 
#    0.000    0.000    0.000    0.000    0.000    0.000 
#
# Total GULP energy -322118.916069 kJ/mol
# GULP energy per Si atom -12389.189080 kJ/mol
# Density = 2.033457 g / cm^3
# Si number density = 20.380953 Si / 1000 Ang^3
#
#
#
# Elastic Constant Matrix: (Units=GPa)
#
#
# Indices 1 2 3 4 5 6 
#
# 1 47.2917 33.1052 22.1807 0.0000 14.9217 0.0000
# 2 33.1052 161.0720 28.4523 0.0000 17.6195 0.0000
# 3 22.1807 28.4523 80.4261 0.0000 -2.4571 0.0000
# 4 0.0000 0.0000 0.0000 30.0650 0.0000 5.1638
# 5 14.9217 17.6195 -2.4571 0.0000 38.7900 0.0000
# 6 0.0000 0.0000 0.0000 5.1638 0.0000 25.5802
#
#
#
# Elastic Compliance Matrix: (Units=1/GPa)
#
#
# Indices 1 2 3 4 5 6 
#
# 1 0.030620 -0.003835 -0.007409 0.000000 -0.010506 0.000000
# 2 -0.003835 0.007514 -0.001663 0.000000 -0.002043 0.000000
# 3 -0.007409 -0.001663 0.015205 0.000000 0.004568 0.000000
# 4 0.000000 0.000000 0.000000 0.034456 0.000000 -0.006956
# 5 -0.010506 -0.002043 0.004568 0.000000 0.031039 0.000000
# 6 0.000000 0.000000 0.000000 -0.006956 0.000000 0.040497
#
#
# Mechanical properties :
#
#
# Convention : Reuss Voigt Hill
#
# Bulk Modulus (GPa) = 36.33103 50.69626 43.51365
# Shear Modulus (GPa) = 25.73089 32.55716 29.14402
#
# Velocity S-wave (km/s) = 3.55702 4.00112 3.78559
# Velocity P-wave (km/s) = 5.89360 6.80247 6.36428
#
# Compressibility (1/GPa) = 0.02752468
#
# Stress axis : x y z
#
# Youngs Moduli (GPa) = 32.65844 133.08667 65.76834
#
# Poissons Ratio (x) = 0.51044 0.48726
# Poissons Ratio (y) = 0.12526 0.10936
# Poissons Ratio (z) = 0.24196 0.22130
#
# Static dielectric constant tensor:
#      x y z
#    x 3.397670 0.000000 -0.056730 
#    y 0.000000 4.469860 0.000000 
#    z -0.056730 0.000000 3.752920 
# 
# 
# High freq. dielectric constant tensor:
#      x y z
#    x 1.762430 0.000000 -0.010430 
#    y 0.000000 1.818230 0.000000 
#    z -0.010430 0.000000 1.798730 
# 
# From -- ./inp_files/86619.got.cif
#   From: 2010.06.25/outbox.cif.g09.slc.cpg/sg10_44_cif.got.tgz:86619.got - 2010.06.27 22:07:45.
