data_PCOD8065176
_publ_section_title
;
Structure prediction by ZEFSAII (Michael W. Deem and Ramdas Pophale) SiO2 
 PCOD8065176
Probable space group: P 2/M
;
_chemical_formula_sum "Si O2"
_cell_formula_units_Z 28
_cell_length_a 14.560822
_cell_length_b 8.524269
_cell_length_c 20.184149
_cell_angle_alpha 90.000000
_cell_angle_beta 147.508753
_cell_angle_gamma 90.000000
_cell_volume 1345.754516
_symmetry_space_group_name_H-M "P 2/M"
_symmetry_group_IT_number 10
_symmetry_cell_setting 'monoclinic'
loop_
_space_group_symop_operation_xyz
x,y,z
-x,y,-z
-x,-y,-z
x,-y,z
loop_
_atom_site_type_symbol
_atom_site_label
_atom_site_fract_x
_atom_site_fract_y
_atom_site_fract_z
Si Si1 0.803480 0.681573 0.574794
Si Si2 0.474396 0.181153 0.684108
Si Si3 0.579665 0.819892 0.199430
Si Si4 0.175507 0.316568 0.140588
Si Si5 0.257271 0.317166 0.937491
Si Si6 0.859307 0.817794 0.266122
Si Si7 0.085201 0.183106 0.222141
O O1 0.814674 0.500000 0.599771
O O2 0.625553 0.716455 0.430643
O O3 0.814699 0.779279 0.649376
O O4 0.960278 0.727952 0.621983
O O5 0.399002 0.219912 0.710531
O O6 0.673316 0.224532 0.804024
O O7 0.448773 0.000000 0.650769
O O8 0.762073 0.788151 0.275960
O O9 0.521935 0.000000 0.153672
O O10 0.439306 0.707553 0.081906
O O11 0.204731 0.500000 0.147599
O O12 0.175836 0.276844 0.218346
O O13 0.000000 0.259663 0.000000
O O14 0.214720 0.500000 0.907194
O O15 0.260098 0.245064 0.865743
O O16 0.111952 0.234702 0.893063
O O17 0.897263 0.000000 0.276878
O O18 0.096359 0.000000 0.213464
#
# Coordination Sequence:
#
# PCOD8065176 Si02
#       7
#     4   4   4   4   4   4   4
#     4  11  23  41  62  87 119 153 195 245 296 346
#     4  11  24  42  62  86 117 155 200 243 287 345
#     4  10  22  38  58  84 117 158 200 244 292 346
#     4  11  24  42  64  93 125 154 188 235 292 348
#     4  11  21  34  56  88 123 155 193 244 297 349
#     4  10  20  37  60  85 116 156 200 243 291 348
#     4  11  22  39  64  89 117 156 198 240 289 347
#
# _framework density 20.806172
#
# number of rings (size 3 to 8) (size 9 to 14) (size 15 to 20)
#    0.000    1.286    0.000    8.143    0.000    8.571 
#    0.000    5.714    0.000    0.000    0.000    0.000 
#    0.000    0.000    0.000    0.000    0.000    0.000 
#
# Total GULP energy -347402.690700 kJ/mol
# GULP energy per Si atom -12407.238954 kJ/mol
# Density = 2.075882 g / cm^3
# Si number density = 20.806172 Si / 1000 Ang^3
#
#
#
# Elastic Constant Matrix: (Units=GPa)
#
#
# Indices 1 2 3 4 5 6 
#
# 1 114.1295 17.1916 22.0846 0.0000 -5.8319 0.0000
# 2 17.1916 70.2745 18.3241 0.0000 -0.4898 0.0000
# 3 22.0846 18.3241 85.1695 0.0000 4.9886 0.0000
# 4 0.0000 0.0000 0.0000 32.1299 0.0000 8.7980
# 5 -5.8319 -0.4898 4.9886 0.0000 15.5192 0.0000
# 6 0.0000 0.0000 0.0000 8.7980 0.0000 14.0031
#
#
#
# Elastic Compliance Matrix: (Units=1/GPa)
#
#
# Indices 1 2 3 4 5 6 
#
# 1 0.009709 -0.001718 -0.002404 0.000000 0.004367 0.000000
# 2 -0.001718 0.015416 -0.002917 0.000000 0.000779 0.000000
# 3 -0.002404 -0.002917 0.013301 0.000000 -0.005271 0.000000
# 4 0.000000 0.000000 0.000000 0.037591 0.000000 -0.023618
# 5 0.004367 0.000779 -0.005271 0.000000 0.067796 0.000000
# 6 0.000000 0.000000 0.000000 -0.023618 0.000000 0.086252
#
#
# Mechanical properties :
#
#
# Convention : Reuss Voigt Hill
#
# Bulk Modulus (GPa) = 41.06961 42.75269 41.91115
# Shear Modulus (GPa) = 19.82093 26.46199 23.14146
#
# Velocity S-wave (km/s) = 3.08985 3.57015 3.33864
# Velocity P-wave (km/s) = 5.70189 6.13085 5.92025
#
# Compressibility (1/GPa) = 0.02434890
#
# Stress axis : x y z
#
# Youngs Moduli (GPa) = 102.99681 64.86683 75.18298
#
# Poissons Ratio (x) = 0.11144 0.18072
# Poissons Ratio (y) = 0.17694 0.21930
# Poissons Ratio (z) = 0.24758 0.18921
#
# Static dielectric constant tensor:
#      x y z
#    x 3.868000 0.000000 0.013510 
#    y 0.000000 3.769050 0.000000 
#    z 0.013510 0.000000 3.556940 
# 
# 
# High freq. dielectric constant tensor:
#      x y z
#    x 1.820950 0.000000 0.000470 
#    y 0.000000 1.823570 0.000000 
#    z 0.000470 0.000000 1.806480 
# 
# From -- ./inp_files/70312.got.cif
#   From: 2010.06.25/outbox.cif.g09.slc.cpg/sg10_36_cif.got.tgz:70312.got - 2010.06.27 22:07:45.
