data_PCOD8065577
_publ_section_title
;
Structure prediction by ZEFSAII (Michael W. Deem and Ramdas Pophale) SiO2 
 PCOD8065577
Probable space group: P 2/M
;
_chemical_formula_sum "Si O2"
_cell_formula_units_Z 32
_cell_length_a 14.927019
_cell_length_b 8.830693
_cell_length_c 22.914338
_cell_angle_alpha 90.000000
_cell_angle_beta 31.083400
_cell_angle_gamma 90.000000
_cell_volume 1559.426407
_symmetry_space_group_name_H-M "P 2/M"
_symmetry_group_IT_number 10
_symmetry_cell_setting 'monoclinic'
loop_
_space_group_symop_operation_xyz
x,y,z
-x,y,-z
-x,-y,-z
x,-y,z
loop_
_atom_site_type_symbol
_atom_site_label
_atom_site_fract_x
_atom_site_fract_y
_atom_site_fract_z
Si Si1 0.805194 0.670541 0.970066
Si Si2 0.633410 0.827872 0.478074
Si Si3 0.462596 0.178365 0.337379
Si Si4 0.983068 0.325359 0.256457
Si Si5 0.874412 0.176079 0.716053
Si Si6 0.184371 0.822895 0.916592
Si Si7 0.883115 0.320752 0.510681
Si Si8 0.534457 0.673150 0.915922
O O1 0.815204 0.500000 0.989842
O O2 0.971475 0.705605 0.836613
O O3 0.794796 0.791117 0.026952
O O4 0.636129 0.692335 0.025947
O O5 0.500000 0.812812 0.500000
O O6 0.551488 0.781107 0.586089
O O7 0.784146 0.711957 0.378690
O O8 0.705114 0.000000 0.441964
O O9 0.649591 0.242790 0.211449
O O10 0.311511 0.253505 0.382023
O O11 0.449479 0.000000 0.334080
O O12 0.021616 0.500000 0.250472
O O13 0.106473 0.219318 0.226726
O O14 0.684020 0.227438 0.801453
O O15 0.024504 0.267226 0.599583
O O16 0.901960 0.000000 0.689232
O O17 0.177782 0.000000 0.908648
O O18 0.000000 0.749050 0.000000
O O19 0.867131 0.500000 0.521419
O O20 0.000000 0.261968 0.500000
O O21 0.598864 0.500000 0.882335
O O22 0.500000 0.734905 0.000000
#
# Coordination Sequence:
#
# PCOD8065577 Si02
#       8
#     4   4   4   4   4   4   4   4
#     4  10  23  41  63  90 123 165 212 260 308 363
#     4  10  22  39  64  95 125 161 200 253 322 380
#     4  10  22  42  64  94 130 163 208 263 314 369
#     4  11  22  40  63  91 125 162 208 259 314 372
#     4  12  24  38  60  91 126 162 204 256 313 371
#     4  10  24  44  66  91 125 169 212 261 318 375
#     4  11  25  43  64  90 122 168 213 255 313 377
#     4  10  20  39  61  85 124 166 200 246 306 365
#
# _framework density 20.520365000000002
#
# number of rings (size 3 to 8) (size 9 to 14) (size 15 to 20)
#    0.000    1.500    2.500    1.875    3.500    3.750 
#    0.000    0.000    0.000    0.000    0.000    0.000 
#    0.000    0.000    0.000    0.000    0.000    0.000 
#
# Total GULP energy -396845.413510 kJ/mol
# GULP energy per Si atom -12401.419172 kJ/mol
# Density = 2.047366 g / cm^3
# Si number density = 20.520365 Si / 1000 Ang^3
#
#
#
# Elastic Constant Matrix: (Units=GPa)
#
#
# Indices 1 2 3 4 5 6 
#
# 1 105.6068 28.5051 55.0822 0.0000 -1.5575 0.0000
# 2 28.5051 41.7320 37.1246 0.0000 -4.5259 0.0000
# 3 55.0822 37.1246 162.3111 0.0000 -7.1720 0.0000
# 4 0.0000 0.0000 0.0000 24.2801 0.0000 -1.8386
# 5 -1.5575 -4.5259 -7.1720 0.0000 28.8596 0.0000
# 6 0.0000 0.0000 0.0000 -1.8386 0.0000 27.7435
#
#
#
# Elastic Compliance Matrix: (Units=1/GPa)
#
#
# Indices 1 2 3 4 5 6 
#
# 1 0.012639 -0.006135 -0.002930 0.000000 -0.001008 0.000000
# 2 -0.006135 0.033328 -0.005384 0.000000 0.003558 0.000000
# 3 -0.002930 -0.005384 0.008435 0.000000 0.001094 0.000000
# 4 0.000000 0.000000 0.000000 0.041394 0.000000 0.002743
# 5 -0.001008 0.003558 0.001094 0.000000 0.035426 0.000000
# 6 0.000000 0.000000 0.000000 0.002743 0.000000 0.036226
#
#
# Mechanical properties :
#
#
# Convention : Reuss Voigt Hill
#
# Bulk Modulus (GPa) = 39.21054 61.23042 50.22048
# Shear Modulus (GPa) = 24.40834 28.77250 26.59042
#
# Velocity S-wave (km/s) = 3.45261 3.74858 3.60364
# Velocity P-wave (km/s) = 5.91976 6.97420 6.46850
#
# Compressibility (1/GPa) = 0.02550335
#
# Stress axis : x y z
#
# Youngs Moduli (GPa) = 79.12241 30.00447 118.55131
#
# Poissons Ratio (x) = 0.18409 0.34739
# Poissons Ratio (y) = 0.48545 0.63825
# Poissons Ratio (z) = 0.23185 0.16154
#
# Static dielectric constant tensor:
#      x y z
#    x 3.795310 0.000000 -0.024190 
#    y 0.000000 3.590010 0.000000 
#    z -0.024190 0.000000 4.060500 
# 
# 
# High freq. dielectric constant tensor:
#      x y z
#    x 1.801740 0.000000 -0.004250 
#    y 0.000000 1.788110 0.000000 
#    z -0.004250 0.000000 1.815750 
# 
# From -- ./inp_files/89569.got.cif
#   From: 2010.06.25/outbox.cif.g09.slc.cpg/sg10_45_cif.got.tgz:89569.got - 2010.06.27 22:07:45.
