data_PCOD8065599
_publ_section_title
;
Structure prediction by ZEFSAII (Michael W. Deem and Ramdas Pophale) SiO2 
 PCOD8065599
Probable space group: P 2/M
;
_chemical_formula_sum "Si O2"
_cell_formula_units_Z 32
_cell_length_a 22.255060
_cell_length_b 8.887708
_cell_length_c 14.928382
_cell_angle_alpha 90.000000
_cell_angle_beta 31.891122
_cell_angle_gamma 90.000000
_cell_volume 1559.974398
_symmetry_space_group_name_H-M "P 2/M"
_symmetry_group_IT_number 10
_symmetry_cell_setting 'monoclinic'
loop_
_space_group_symop_operation_xyz
x,y,z
-x,y,-z
-x,-y,-z
x,-y,z
loop_
_atom_site_type_symbol
_atom_site_label
_atom_site_fract_x
_atom_site_fract_y
_atom_site_fract_z
Si Si1 0.748585 0.677358 0.503896
Si Si2 0.408659 0.677251 0.766623
Si Si3 0.367970 0.324221 0.163286
Si Si4 0.228210 0.172884 0.870195
Si Si5 0.689815 0.174489 0.944373
Si Si6 0.981278 0.177160 0.244319
Si Si7 0.053226 0.824744 0.344167
Si Si8 0.637998 0.174378 0.474963
O O1 0.748186 0.500000 0.493146
O O2 0.693711 0.726732 0.667619
O O3 0.672086 0.746345 0.523324
O O4 0.876570 0.737519 0.331906
O O5 0.422750 0.500000 0.747145
O O6 0.300778 0.723955 0.844458
O O7 0.522350 0.752615 0.582936
O O8 0.397059 0.732047 0.884259
O O9 0.350945 0.500000 0.166143
O O10 0.310185 0.231471 0.157047
O O11 0.500000 0.281157 0.000000
O O12 0.264130 0.199469 0.722432
O O13 0.247595 0.000000 0.875796
O O14 0.095404 0.215249 0.044528
O O15 0.813228 0.203522 0.829896
O O16 0.656125 0.000000 0.989206
O O17 0.996218 0.240746 0.326560
O O18 0.956160 0.000000 0.274563
O O19 0.000000 0.745941 0.500000
O O20 0.024889 0.000000 0.383350
O O21 0.616564 0.000000 0.520896
#
# Coordination Sequence:
#
# PCOD8065599 Si02
#       8
#     4   4   4   4   4   4   4   4
#     4  11  24  41  61  90 129 166 206 256 314 373
#     4  12  24  39  62  93 131 164 197 250 318 381
#     4  10  22  40  59  83 121 166 206 251 310 369
#     4  10  22  42  66  92 121 160 209 262 311 363
#     4  11  21  36  61  90 120 157 205 252 300 359
#     4  10  20  39  63  86 123 164 206 255 306 365
#     4   9  17  31  55  86 116 150 195 248 297 347
#     4  11  24  42  66  91 118 158 213 264 310 367
#
# _framework density 20.513158000000001
#
# number of rings (size 3 to 8) (size 9 to 14) (size 15 to 20)
#    0.000    1.500    1.250    4.125    0.000    6.750 
#    0.000    2.500    0.000    2.625    0.000    0.000 
#    0.000    0.000    0.000    0.000    0.000    0.000 
#
# Total GULP energy -396955.394907 kJ/mol
# GULP energy per Si atom -12404.856091 kJ/mol
# Density = 2.046647 g / cm^3
# Si number density = 20.513158 Si / 1000 Ang^3
#
#
#
# Elastic Constant Matrix: (Units=GPa)
#
#
# Indices 1 2 3 4 5 6 
#
# 1 77.0502 38.3069 20.8455 0.0000 -0.9593 0.0000
# 2 38.3069 91.1046 46.3149 0.0000 0.3627 0.0000
# 3 20.8455 46.3149 117.6953 0.0000 -0.6131 0.0000
# 4 0.0000 0.0000 0.0000 20.0334 0.0000 -0.9057
# 5 -0.9593 0.3627 -0.6131 0.0000 30.4379 0.0000
# 6 0.0000 0.0000 0.0000 -0.9057 0.0000 32.0402
#
#
#
# Elastic Compliance Matrix: (Units=1/GPa)
#
#
# Indices 1 2 3 4 5 6 
#
# 1 0.016425 -0.006789 -0.000234 0.000000 0.000594 0.000000
# 2 -0.006789 0.016530 -0.005305 0.000000 -0.000518 0.000000
# 3 -0.000234 -0.005305 0.010627 0.000000 0.000270 0.000000
# 4 0.000000 0.000000 0.000000 0.049981 0.000000 0.001413
# 5 0.000594 -0.000518 0.000270 0.000000 0.032884 0.000000
# 6 0.000000 0.000000 0.000000 0.001413 0.000000 0.031251
#
#
# Mechanical properties :
#
#
# Convention : Reuss Voigt Hill
#
# Bulk Modulus (GPa) = 52.84146 55.19829 54.01987
# Shear Modulus (GPa) = 26.50228 28.52783 27.51506
#
# Velocity S-wave (km/s) = 3.59829 3.73327 3.66640
# Velocity P-wave (km/s) = 6.56348 6.74909 6.65693
#
# Compressibility (1/GPa) = 0.01892453
#
# Stress axis : x y z
#
# Youngs Moduli (GPa) = 60.88345 60.49548 94.09977
#
# Poissons Ratio (x) = 0.41073 0.02204
# Poissons Ratio (y) = 0.41337 0.49920
# Poissons Ratio (z) = 0.01426 0.32093
#
# Static dielectric constant tensor:
#      x y z
#    x 3.659220 0.000000 0.081610 
#    y 0.000000 3.513080 0.000000 
#    z 0.081610 0.000000 3.940640 
# 
# 
# High freq. dielectric constant tensor:
#      x y z
#    x 1.803900 0.000000 0.002470 
#    y 0.000000 1.785590 0.000000 
#    z 0.002470 0.000000 1.818690 
# 
# From -- ./inp_files/71508.got.cif
#   From: 2010.06.25/outbox.cif.g09.slc.cpg/sg10_36_cif.got.tgz:71508.got - 2010.06.27 22:07:45.
