data_PCOD8065191
_publ_section_title
;
Structure prediction by ZEFSAII (Michael W. Deem and Ramdas Pophale) SiO2 
 PCOD8065191
Probable space group: P 2/M
;
_chemical_formula_sum "Si O2"
_cell_formula_units_Z 32
_cell_length_a 16.190264
_cell_length_b 8.986972
_cell_length_c 24.517201
_cell_angle_alpha 90.000000
_cell_angle_beta 26.601711
_cell_angle_gamma 90.000000
_cell_volume 1597.380997
_symmetry_space_group_name_H-M "P 2/M"
_symmetry_group_IT_number 10
_symmetry_cell_setting 'monoclinic'
loop_
_space_group_symop_operation_xyz
x,y,z
-x,y,-z
-x,-y,-z
x,-y,z
loop_
_atom_site_type_symbol
_atom_site_label
_atom_site_fract_x
_atom_site_fract_y
_atom_site_fract_z
Si Si1 0.378463 0.670777 0.732320
Si Si2 0.577867 0.830775 0.805401
Si Si3 0.045424 0.325252 0.411084
Si Si4 0.297771 0.670696 0.901730
Si Si5 0.078416 0.676047 0.821844
Si Si6 0.049794 0.824531 0.726345
Si Si7 0.237253 0.174511 0.503580
Si Si8 0.355731 0.830411 0.044273
O O1 0.441317 0.500000 0.686440
O O2 0.270669 0.687462 0.853067
O O3 0.239922 0.724791 0.767338
O O4 0.553920 0.776880 0.627992
O O5 0.757649 0.744559 0.719696
O O6 0.483897 0.758690 0.807833
O O7 0.633059 0.000000 0.759701
O O8 0.424795 0.819141 0.942211
O O9 0.054136 0.500000 0.396098
O O10 0.000000 0.284554 0.500000
O O11 0.890170 0.258364 0.464172
O O12 0.329478 0.500000 0.899715
O O13 0.116564 0.734824 0.039013
O O14 0.071535 0.500000 0.819871
O O15 0.126828 0.747954 0.735219
O O16 0.180849 0.783884 0.598601
O O17 0.846581 0.757277 0.833076
O O18 0.039467 0.000000 0.743404
O O19 0.215932 0.000000 0.505518
O O20 0.335107 0.000000 0.076584
O O21 0.500000 0.749001 0.000000
#
# Coordination Sequence:
#
# PCOD8065191 Si02
#       8
#     4   4   4   4   4   4   4   4
#     4  10  22  40  61  85 117 159 199 245 302 355
#     4  11  21  34  58  88 117 151 192 238 292 351
#     4  11  24  41  60  84 119 161 199 240 293 350
#     4  10  20  37  60  87 121 155 195 245 299 357
#     4  10  21  38  62  89 117 154 202 247 294 355
#     4  10  21  39  60  84 120 158 194 242 300 352
#     4  11  24  41  62  88 118 157 203 248 292 350
#     4   9  17  32  54  79 109 147 186 226 282 344
#
# _framework density 20.032789999999999
#
# number of rings (size 3 to 8) (size 9 to 14) (size 15 to 20)
#    0.000    1.750    1.250    3.000    0.000   10.000 
#    0.000    2.500    0.000    4.125    0.000    0.000 
#    0.000    0.000    0.000    0.000    0.000    0.000 
#
# Total GULP energy -396901.824322 kJ/mol
# GULP energy per Si atom -12403.182010 kJ/mol
# Density = 1.998719 g / cm^3
# Si number density = 20.032790 Si / 1000 Ang^3
#
#
#
# Elastic Constant Matrix: (Units=GPa)
#
#
# Indices 1 2 3 4 5 6 
#
# 1 145.2190 46.7627 37.1528 0.0000 -9.8501 0.0000
# 2 46.7627 65.8001 36.4144 0.0000 -0.8200 0.0000
# 3 37.1528 36.4144 90.2185 0.0000 -5.7838 0.0000
# 4 0.0000 0.0000 0.0000 26.7966 0.0000 5.0889
# 5 -9.8501 -0.8200 -5.7838 0.0000 34.8688 0.0000
# 6 0.0000 0.0000 0.0000 5.0889 0.0000 22.7404
#
#
#
# Elastic Compliance Matrix: (Units=1/GPa)
#
#
# Indices 1 2 3 4 5 6 
#
# 1 0.009249 -0.005816 -0.001316 0.000000 0.002258 0.000000
# 2 -0.005816 0.023252 -0.007136 0.000000 -0.002280 0.000000
# 3 -0.001316 -0.007136 0.014628 0.000000 0.001887 0.000000
# 4 0.000000 0.000000 0.000000 0.038975 0.000000 -0.008722
# 5 0.002258 -0.002280 0.001887 0.000000 0.029576 0.000000
# 6 0.000000 0.000000 0.000000 -0.008722 0.000000 0.045926
#
#
# Mechanical properties :
#
#
# Convention : Reuss Voigt Hill
#
# Bulk Modulus (GPa) = 53.79008 60.21082 57.00045
# Shear Modulus (GPa) = 25.46605 28.94168 27.20386
#
# Velocity S-wave (km/s) = 3.56928 3.80506 3.68906
# Velocity P-wave (km/s) = 6.62538 7.03037 6.83088
#
# Compressibility (1/GPa) = 0.01859079
#
# Stress axis : x y z
#
# Youngs Moduli (GPa) = 108.11912 43.00743 68.36436
#
# Poissons Ratio (x) = 0.25015 0.09000
# Poissons Ratio (y) = 0.62887 0.48784
# Poissons Ratio (z) = 0.14233 0.30690
#
# Static dielectric constant tensor:
#      x y z
#    x 3.735680 0.000000 -0.033250 
#    y 0.000000 3.475730 0.000000 
#    z -0.033250 0.000000 3.646450 
# 
# 
# High freq. dielectric constant tensor:
#      x y z
#    x 1.795240 0.000000 -0.001040 
#    y 0.000000 1.763700 0.000000 
#    z -0.001040 0.000000 1.786450 
# 
# From -- ./inp_files/89475.got.cif
#   From: 2010.06.25/outbox.cif.g09.slc.cpg/sg10_45_cif.got.tgz:89475.got - 2010.06.27 22:07:45.
