data_PCOD8065481
_publ_section_title
;
Structure prediction by ZEFSAII (Michael W. Deem and Ramdas Pophale) SiO2 
 PCOD8065481
Probable space group: P 2/M
;
_chemical_formula_sum "Si O2"
_cell_formula_units_Z 22
_cell_length_a 19.969031
_cell_length_b 13.839353
_cell_length_c 17.807030
_cell_angle_alpha 90.000000
_cell_angle_beta 14.096127
_cell_angle_gamma 90.000000
_cell_volume 1198.536940
_symmetry_space_group_name_H-M "P 2/M"
_symmetry_group_IT_number 10
_symmetry_cell_setting 'monoclinic'
loop_
_space_group_symop_operation_xyz
x,y,z
-x,y,-z
-x,-y,-z
x,-y,z
loop_
_atom_site_type_symbol
_atom_site_label
_atom_site_fract_x
_atom_site_fract_y
_atom_site_fract_z
Si Si1 0.941300 0.696250 0.333901
Si Si2 0.692040 0.500000 0.362392
Si Si3 0.196241 0.612431 0.356307
Si Si4 0.761196 0.892015 0.560725
Si Si5 0.491999 0.394838 0.301938
Si Si6 0.826029 0.893057 0.753260
O O1 0.892636 0.677361 0.475605
O O2 0.872155 0.807535 0.385477
O O3 0.753027 0.628443 0.488364
O O4 0.262136 0.681564 0.966818
O O5 0.500000 0.500000 0.500000
O O6 0.632764 0.404526 0.477968
O O7 0.000000 0.500000 0.000000
O O8 0.178590 0.500000 0.399019
O O9 0.000000 0.635592 0.500000
O O10 0.500000 0.641246 0.000000
O O11 0.991408 0.900267 0.372504
O O12 0.722899 0.000000 0.565218
O O13 0.472186 0.848119 0.905648
O O14 0.610481 0.500000 0.147663
O O15 0.000000 0.835186 0.500000
O O16 0.759244 0.000000 0.793815
#
# Coordination Sequence:
#
# PCOD8065481 Si02
#       6
#     4   2   4   4   4   4
#     4  12  21  36  53  76 109 146 193 223 274 329
#     4  10  20  38  62  92 122 138 156 200 258 328
#     4  10  21  34  48  66  94 137 188 240 273 304
#     4  10  21  33  48  70 100 137 180 237 277 316
#     4  10  22  35  59  85 111 145 166 208 262 336
#     4   9  17  31  47  63  87 125 175 235 301 339
#
# _framework density 18.355713000000002
#
# number of rings (size 3 to 8) (size 9 to 14) (size 15 to 20)
#    0.545    1.273    0.000    5.455    0.000    5.818 
#    0.000    0.000    0.000    0.000    0.000    0.000 
#    0.000   14.545    0.000    0.000    0.000    0.000 
#
# Total GULP energy -272605.165499 kJ/mol
# GULP energy per Si atom -12391.143886 kJ/mol
# Density = 1.831393 g / cm^3
# Si number density = 18.355713 Si / 1000 Ang^3
#
#
#
# Elastic Constant Matrix: (Units=GPa)
#
#
# Indices 1 2 3 4 5 6 
#
# 1 94.2507 19.7945 50.2876 0.0000 -4.9338 0.0000
# 2 19.7945 80.7745 23.8586 0.0000 13.4200 0.0000
# 3 50.2876 23.8586 141.0890 0.0000 -8.2839 0.0000
# 4 0.0000 0.0000 0.0000 22.6236 0.0000 -2.9263
# 5 -4.9338 13.4200 -8.2839 0.0000 35.3978 0.0000
# 6 0.0000 0.0000 0.0000 -2.9263 0.0000 8.0337
#
#
#
# Elastic Compliance Matrix: (Units=1/GPa)
#
#
# Indices 1 2 3 4 5 6 
#
# 1 0.013491 -0.002323 -0.004313 0.000000 0.001752 0.000000
# 2 -0.002323 0.014595 -0.002012 0.000000 -0.006328 0.000000
# 3 -0.004313 -0.002012 0.009100 0.000000 0.002291 0.000000
# 4 0.000000 0.000000 0.000000 0.046387 0.000000 0.016897
# 5 0.001752 -0.006328 0.002291 0.000000 0.031430 0.000000
# 6 0.000000 0.000000 0.000000 0.016897 0.000000 0.130631
#
#
# Mechanical properties :
#
#
# Convention : Reuss Voigt Hill
#
# Bulk Modulus (GPa) = 50.27580 55.99951 53.13766
# Shear Modulus (GPa) = 18.54893 28.02260 23.28576
#
# Velocity S-wave (km/s) = 3.18233 3.91147 3.56558
# Velocity P-wave (km/s) = 6.39938 7.13958 6.77959
#
# Compressibility (1/GPa) = 0.01989028
#
# Stress axis : x y z
#
# Youngs Moduli (GPa) = 74.12536 68.51700 109.89569
#
# Poissons Ratio (x) = 0.15918 0.47395
# Poissons Ratio (y) = 0.17221 0.22106
# Poissons Ratio (z) = 0.31968 0.13782
#
# Static dielectric constant tensor:
#      x y z
#    x 3.104380 0.000000 -0.165960 
#    y 0.000000 3.558450 0.000000 
#    z -0.165960 0.000000 3.435370 
# 
# 
# High freq. dielectric constant tensor:
#      x y z
#    x 1.675870 0.000000 -0.036380 
#    y 0.000000 1.707850 0.000000 
#    z -0.036380 0.000000 1.720060 
# 
# From -- ./inp_files/86605.got.cif
#   From: 2010.06.25/outbox.cif.g09.slc.cpg/sg10_44_cif.got.tgz:86605.got - 2010.06.27 22:07:45.
