data_PCOD8065102
_publ_section_title
;
Structure prediction by ZEFSAII (Michael W. Deem and Ramdas Pophale) SiO2 
 PCOD8065102
Probable space group: P 2/M
;
_chemical_formula_sum "Si O2"
_cell_formula_units_Z 32
_cell_length_a 30.097252
_cell_length_b 9.006011
_cell_length_c 12.903589
_cell_angle_alpha 90.000000
_cell_angle_beta 152.157282
_cell_angle_gamma 90.000000
_cell_volume 1633.539054
_symmetry_space_group_name_H-M "P 2/M"
_symmetry_group_IT_number 10
_symmetry_cell_setting 'monoclinic'
loop_
_space_group_symop_operation_xyz
x,y,z
-x,y,-z
-x,-y,-z
x,-y,z
loop_
_atom_site_type_symbol
_atom_site_label
_atom_site_fract_x
_atom_site_fract_y
_atom_site_fract_z
Si Si1 0.901977 0.176083 0.991808
Si Si2 0.221222 0.829301 0.842561
Si Si3 0.558838 0.826665 0.721270
Si Si4 0.103498 0.674107 0.426212
Si Si5 0.402179 0.675458 0.756014
Si Si6 0.410831 0.325254 0.541138
Si Si7 0.768579 0.171308 0.904315
Si Si8 0.799706 0.674370 0.589660
O O1 0.840275 0.228368 0.963649
O O2 0.860975 0.240598 0.801261
O O3 0.905145 0.000000 0.989941
O O4 0.006707 0.236067 0.225244
O O5 0.162259 0.720665 0.648149
O O6 0.205951 0.000000 0.776587
O O7 0.331415 0.783766 0.062838
O O8 0.185342 0.806366 0.886894
O O9 0.500000 0.773446 0.500000
O O10 0.514347 0.739170 0.726522
O O11 0.544921 0.000000 0.711420
O O12 0.081473 0.500000 0.385459
O O13 0.163121 0.715860 0.447025
O O14 0.412151 0.500000 0.782659
O O15 0.385732 0.727585 0.604959
O O16 0.310366 0.727238 0.632474
O O17 0.500000 0.748632 0.000000
O O18 0.414629 0.500000 0.537976
O O19 0.329209 0.262065 0.298639
O O20 0.741714 0.000000 0.831630
O O21 0.809377 0.500000 0.633418
#
# Coordination Sequence:
#
# PCOD8065102 Si02
#       8
#     4   4   4   4   4   4   4   4
#     4  11  23  40  66  91 115 150 200 254 298 356
#     4  10  22  41  62  84 118 161 202 242 292 355
#     4  10  20  37  59  81 115 160 195 230 284 350
#     4  11  25  41  61  88 122 157 194 247 304 358
#     4   9  19  35  56  84 119 157 191 231 290 350
#     4  11  21  33  58  89 117 152 198 250 290 344
#     4  10  21  40  63  86 117 158 200 244 298 357
#     4  10  21  40  63  87 120 159 197 239 296 358
#
# _framework density 19.589368
#
# number of rings (size 3 to 8) (size 9 to 14) (size 15 to 20)
#    0.000    1.750    2.500    1.500    1.750    4.750 
#    0.000    2.500    0.000    1.875    0.000    0.000 
#    0.000    0.000    0.000    0.000    0.000    0.000 
#
# Total GULP energy -396873.578017 kJ/mol
# GULP energy per Si atom -12402.299313 kJ/mol
# Density = 1.954478 g / cm^3
# Si number density = 19.589368 Si / 1000 Ang^3
#
#
#
# Elastic Constant Matrix: (Units=GPa)
#
#
# Indices 1 2 3 4 5 6 
#
# 1 91.6521 26.7097 33.3606 0.0000 -0.4656 0.0000
# 2 26.7097 45.5746 28.8535 0.0000 -0.7435 0.0000
# 3 33.3606 28.8535 117.0072 0.0000 1.2617 0.0000
# 4 0.0000 0.0000 0.0000 31.4816 0.0000 -0.3381
# 5 -0.4656 -0.7435 1.2617 0.0000 28.8254 0.0000
# 6 0.0000 0.0000 0.0000 -0.3381 0.0000 30.0854
#
#
#
# Elastic Compliance Matrix: (Units=1/GPa)
#
#
# Indices 1 2 3 4 5 6 
#
# 1 0.013651 -0.006556 -0.002277 0.000000 0.000151 0.000000
# 2 -0.006556 0.029176 -0.005335 0.000000 0.000880 0.000000
# 3 -0.002277 -0.005335 0.010518 0.000000 -0.000635 0.000000
# 4 0.000000 0.000000 0.000000 0.031768 0.000000 0.000357
# 5 0.000151 0.000880 -0.000635 0.000000 0.034745 0.000000
# 6 0.000000 0.000000 0.000000 0.000357 0.000000 0.033243
#
#
# Mechanical properties :
#
#
# Convention : Reuss Voigt Hill
#
# Bulk Modulus (GPa) = 39.98562 48.00903 43.99733
# Shear Modulus (GPa) = 26.34707 29.09914 27.72310
#
# Velocity S-wave (km/s) = 3.67136 3.85834 3.76601
# Velocity P-wave (km/s) = 6.19904 6.66408 6.43576
#
# Compressibility (1/GPa) = 0.02500899
#
# Stress axis : x y z
#
# Youngs Moduli (GPa) = 73.25418 34.27421 95.07408
#
# Poissons Ratio (x) = 0.22472 0.21648
# Poissons Ratio (y) = 0.48028 0.50722
# Poissons Ratio (z) = 0.16680 0.18285
#
# Static dielectric constant tensor:
#      x y z
#    x 3.834340 0.000000 0.065110 
#    y 0.000000 3.378660 0.000000 
#    z 0.065110 0.000000 3.650790 
# 
# 
# High freq. dielectric constant tensor:
#      x y z
#    x 1.779150 0.000000 0.003140 
#    y 0.000000 1.747970 0.000000 
#    z 0.003140 0.000000 1.763580 
# 
# From -- ./inp_files/58295.got.cif
#   From: 2010.06.25/outbox.cif.g09.slc.cpg/sg10_30_cif.got.tgz:58295.got - 2010.06.27 22:07:45.
