data_PCOD8065006
_publ_section_title
;
Structure prediction by ZEFSAII (Michael W. Deem and Ramdas Pophale) SiO2 
 PCOD8065006
Probable space group: P 2/M
;
_chemical_formula_sum "Si O2"
_cell_formula_units_Z 24
_cell_length_a 16.458126
_cell_length_b 7.683424
_cell_length_c 17.765016
_cell_angle_alpha 90.000000
_cell_angle_beta 147.283095
_cell_angle_gamma 90.000000
_cell_volume 1214.191841
_symmetry_space_group_name_H-M "P 2/M"
_symmetry_group_IT_number 10
_symmetry_cell_setting 'monoclinic'
loop_
_space_group_symop_operation_xyz
x,y,z
-x,y,-z
-x,-y,-z
x,-y,z
loop_
_atom_site_type_symbol
_atom_site_label
_atom_site_fract_x
_atom_site_fract_y
_atom_site_fract_z
Si Si1 0.924514 0.000000 0.861430
Si Si2 0.586034 0.000000 0.643277
Si Si3 0.764267 0.794324 0.117140
Si Si4 0.453942 0.205626 0.803561
Si Si5 0.094869 0.303885 0.922649
Si Si6 0.410495 0.303655 0.241738
Si Si7 0.157624 0.207131 0.656076
O O1 0.964536 0.172324 0.845151
O O2 0.752736 0.000000 0.744650
O O3 0.000000 0.000000 0.000000
O O4 0.500000 0.000000 0.500000
O O5 0.542451 0.828403 0.656381
O O6 0.874305 0.706830 0.142286
O O7 0.816103 0.723855 0.238791
O O8 0.783106 0.000000 0.125831
O O9 0.590743 0.741301 0.966019
O O10 0.474301 0.292725 0.738067
O O11 0.296790 0.275410 0.714456
O O12 0.451204 0.000000 0.790497
O O13 0.044745 0.500000 0.904009
O O14 0.245406 0.249264 0.084327
O O15 0.412445 0.500000 0.275210
O O16 0.000000 0.279701 0.500000
O O17 0.156715 0.000000 0.655467
#
# Coordination Sequence:
#
# PCOD8065006 Si02
#       7
#     2   2   4   4   4   4   4
#     4  12  22  40  68  89 116 149 193 240 295 354
#     4  12  26  44  62  89 118 155 191 238 297 354
#     4   9  16  30  53  79 114 150 191 236 280 336
#     4   9  16  30  55  80 109 150 194 235 283 334
#     4  10  20  36  62  94 119 148 193 246 294 341
#     4  10  20  38  63  89 119 153 194 241 290 350
#     4   9  17  29  48  81 114 150 194 236 280 334
#
# _framework density 19.766233
#
# number of rings (size 3 to 8) (size 9 to 14) (size 15 to 20)
#    0.000    2.167    3.333    0.500    0.000    3.333 
#    3.000    0.833    0.000    5.000    0.000    0.000 
#    0.000    0.000    0.000    0.000    0.000    0.000 
#
# Total GULP energy -297592.336157 kJ/mol
# GULP energy per Si atom -12399.680673 kJ/mol
# Density = 1.972124 g / cm^3
# Si number density = 19.766233 Si / 1000 Ang^3
#
#
#
# Elastic Constant Matrix: (Units=GPa)
#
#
# Indices 1 2 3 4 5 6 
#
# 1 117.3839 48.5519 67.5004 0.0000 -6.7498 0.0000
# 2 48.5519 84.8186 33.7103 0.0000 -11.6690 0.0000
# 3 67.5004 33.7103 126.7278 0.0000 -13.3031 0.0000
# 4 0.0000 0.0000 0.0000 6.9842 0.0000 0.0882
# 5 -6.7498 -11.6690 -13.3031 0.0000 30.4901 0.0000
# 6 0.0000 0.0000 0.0000 0.0882 0.0000 0.7681
#
#
#
# Elastic Compliance Matrix: (Units=1/GPa)
#
#
# Indices 1 2 3 4 5 6 
#
# 1 0.014572 -0.006078 -0.006341 0.000000 -0.001867 0.000000
# 2 -0.006078 0.016126 -0.000572 0.000000 0.004577 0.000000
# 3 -0.006341 -0.000572 0.011790 0.000000 0.003522 0.000000
# 4 0.000000 0.000000 0.000000 0.143389 0.000000 -0.016468
# 5 -0.001867 0.004577 0.003522 0.000000 0.035672 0.000000
# 6 0.000000 0.000000 0.000000 -0.016468 0.000000 1.303799
#
#
# Mechanical properties :
#
#
# Convention : Reuss Voigt Hill
#
# Bulk Modulus (GPa) = 60.58115 69.82840 65.20477
# Shear Modulus (GPa) = 3.21165 19.59299 11.40232
#
# Velocity S-wave (km/s) = 1.27607 3.15181 2.40439
# Velocity P-wave (km/s) = 5.73467 6.97488 6.38496
#
# Compressibility (1/GPa) = 0.01650678
#
# Stress axis : x y z
#
# Youngs Moduli (GPa) = 68.62557 62.01207 84.81732
#
# Poissons Ratio (x) = 0.37691 0.53781
# Poissons Ratio (y) = 0.41710 0.04850
# Poissons Ratio (z) = 0.43514 0.03546
#
# Static dielectric constant tensor:
#      x y z
#    x 3.723070 0.000000 -0.054690 
#    y 0.000000 3.145300 0.000000 
#    z -0.054690 0.000000 3.432430 
# 
# 
# High freq. dielectric constant tensor:
#      x y z
#    x 1.777850 0.000000 -0.007400 
#    y 0.000000 1.763390 0.000000 
#    z -0.007400 0.000000 1.741040 
# 
# From -- ./inp_files/66729.got.cif
#   From: 2010.06.25/outbox.cif.g09.slc.cpg/sg10_34_cif.got.tgz:66729.got - 2010.06.27 22:07:45.
