data_PCOD8065795
_publ_section_title
;
Structure prediction by ZEFSAII (Michael W. Deem and Ramdas Pophale) SiO2 
 PCOD8065795
Probable space group: P 2/M
;
_chemical_formula_sum "Si O2"
_cell_formula_units_Z 32
_cell_length_a 19.258295
_cell_length_b 9.204337
_cell_length_c 17.125469
_cell_angle_alpha 90.000000
_cell_angle_beta 43.526296
_cell_angle_gamma 90.000000
_cell_volume 2090.619356
_symmetry_space_group_name_H-M "P 2/M"
_symmetry_group_IT_number 10
_symmetry_cell_setting 'monoclinic'
loop_
_space_group_symop_operation_xyz
x,y,z
-x,y,-z
-x,-y,-z
x,-y,z
loop_
_atom_site_type_symbol
_atom_site_label
_atom_site_fract_x
_atom_site_fract_y
_atom_site_fract_z
Si Si1 0.417414 0.837709 0.167218
Si Si2 0.379519 0.171603 0.934729
Si Si3 0.117903 0.668912 0.402667
Si Si4 0.741367 0.171848 0.823192
Si Si5 0.420206 0.170552 0.730977
Si Si6 0.617897 0.335844 0.387010
Si Si7 0.759468 0.163011 0.572483
Si Si8 0.649785 0.830255 0.510439
O O1 0.522651 0.757466 0.101813
O O2 0.355357 0.766727 0.146260
O O3 0.349805 0.836501 0.299305
O O4 0.443536 0.000000 0.118869
O O5 0.371587 0.228019 0.852345
O O6 0.398544 0.000000 0.914206
O O7 0.279437 0.206339 0.068082
O O8 0.144282 0.500000 0.376448
O O9 0.160670 0.746525 0.289721
O O10 0.164054 0.730789 0.445494
O O11 0.000000 0.698773 0.500000
O O12 0.756540 0.000000 0.795702
O O13 0.359866 0.253399 0.712068
O O14 0.538737 0.210006 0.633305
O O15 0.403148 0.000000 0.732418
O O16 0.500000 0.329165 0.500000
O O17 0.657509 0.500000 0.347961
O O18 0.675956 0.257489 0.410544
O O19 0.736581 0.212685 0.502339
O O20 0.805164 0.000000 0.537546
O O21 0.654063 0.000000 0.487306
#
# Coordination Sequence:
#
# PCOD8065795 Si02
#       8
#     4   4   4   4   4   4   4   4
#     4   8  12  21  37  60  85 107 133 167 204 241
#     4   9  14  22  39  63  86 109 139 173 207 244
#     4  10  21  35  47  59  81 112 141 172 214 259
#     4   9  17  27  44  65  82 104 138 177 211 245
#     4   9  15  24  39  57  81 113 146 175 203 239
#     4   9  17  26  35  51  79 115 150 178 206 237
#     4   9  16  27  46  68  84 104 139 179 213 247
#     4   9  15  25  41  61  82 106 141 178 209 242
#
# _framework density 15.306469999999999
#
# number of rings (size 3 to 8) (size 9 to 14) (size 15 to 20)
#    0.000    3.000    1.250    1.875    0.000    4.500 
#    0.000    0.625    0.000    6.000    0.000    0.000 
#    0.000    1.000    0.000   11.250    0.000    5.625 
#
# Total GULP energy -396505.483124 kJ/mol
# GULP energy per Si atom -12390.796348 kJ/mol
# Density = 1.527163 g / cm^3
# Si number density = 15.306470 Si / 1000 Ang^3
#
#
#
# Elastic Constant Matrix: (Units=GPa)
#
#
# Indices 1 2 3 4 5 6 
#
# 1 78.0642 42.7830 56.2425 0.0000 18.7342 0.0000
# 2 42.7830 61.3998 42.4568 0.0000 8.0611 0.0000
# 3 56.2425 42.4568 84.4550 0.0000 21.0186 0.0000
# 4 0.0000 0.0000 0.0000 10.0213 0.0000 -1.4628
# 5 18.7342 8.0611 21.0186 0.0000 24.2852 0.0000
# 6 0.0000 0.0000 0.0000 -1.4628 0.0000 15.2584
#
#
#
# Elastic Compliance Matrix: (Units=1/GPa)
#
#
# Indices 1 2 3 4 5 6 
#
# 1 0.029702 -0.011313 -0.011884 0.000000 -0.008871 0.000000
# 2 -0.011313 0.029481 -0.008951 0.000000 0.006689 0.000000
# 3 -0.011884 -0.008951 0.027063 0.000000 -0.011284 0.000000
# 4 0.000000 0.000000 0.000000 0.101204 0.000000 0.009703
# 5 -0.008871 0.006689 -0.011284 0.000000 0.055566 0.000000
# 6 0.000000 0.000000 0.000000 0.009703 0.000000 0.066468
#
#
# Mechanical properties :
#
#
# Convention : Reuss Voigt Hill
#
# Bulk Modulus (GPa) = 45.56229 56.32038 50.94134
# Shear Modulus (GPa) = 13.11999 15.40877 14.26438
#
# Velocity S-wave (km/s) = 2.93089 3.17627 3.05605
# Velocity P-wave (km/s) = 6.42533 7.09412 6.76799
#
# Compressibility (1/GPa) = 0.02194798
#
# Stress axis : x y z
#
# Youngs Moduli (GPa) = 33.66831 33.91997 36.95060
#
# Poissons Ratio (x) = 0.38375 0.43914
# Poissons Ratio (y) = 0.38090 0.33075
# Poissons Ratio (z) = 0.40013 0.30362
#
# Static dielectric constant tensor:
#      x y z
#    x 2.861700 0.000000 0.301390 
#    y 0.000000 2.741410 0.000000 
#    z 0.301390 0.000000 2.806680 
# 
# 
# High freq. dielectric constant tensor:
#      x y z
#    x 1.567390 0.000000 0.032670 
#    y 0.000000 1.561320 0.000000 
#    z 0.032670 0.000000 1.558680 
# 
# From -- ./inp_files/78512.got.cif
#   From: 2010.06.25/outbox.cif.g09.slc.cpg/sg10_40_cif.got.tgz:78512.got - 2010.06.27 22:07:45.
