data_PCOD8065935
_publ_section_title
;
Structure prediction by ZEFSAII (Michael W. Deem and Ramdas Pophale) SiO2 
 PCOD8065935
Probable space group: P 2/M
;
_chemical_formula_sum "Si O2"
_cell_formula_units_Z 32
_cell_length_a 12.155694
_cell_length_b 8.971409
_cell_length_c 20.755830
_cell_angle_alpha 90.000000
_cell_angle_beta 127.283108
_cell_angle_gamma 90.000000
_cell_volume 1800.958627
_symmetry_space_group_name_H-M "P 2/M"
_symmetry_group_IT_number 10
_symmetry_cell_setting 'monoclinic'
loop_
_space_group_symop_operation_xyz
x,y,z
-x,y,-z
-x,-y,-z
x,-y,z
loop_
_atom_site_type_symbol
_atom_site_label
_atom_site_fract_x
_atom_site_fract_y
_atom_site_fract_z
Si Si1 0.445123 0.823105 0.622554
Si Si2 0.973671 0.828423 0.344275
Si Si3 0.528456 0.177312 0.110452
Si Si4 0.287276 0.823166 0.940628
Si Si5 0.679246 0.177204 0.287805
Si Si6 0.252105 0.673213 0.452809
Si Si7 0.720938 0.326986 0.687776
Si Si8 0.998039 0.828343 0.796080
O O1 0.368156 0.764927 0.659426
O O2 0.368521 0.758417 0.533577
O O3 0.601198 0.764544 0.680343
O O4 0.446266 0.000000 0.618755
O O5 0.834534 0.766671 0.328356
O O6 0.100642 0.733389 0.417389
O O7 0.958388 0.808430 0.262593
O O8 0.001016 0.000000 0.372231
O O9 0.634071 0.240605 0.094291
O O10 0.572690 0.240814 0.195963
O O11 0.537101 0.000000 0.114237
O O12 0.371576 0.226592 0.034949
O O13 0.127788 0.768974 0.884844
O O14 0.285572 0.000000 0.933862
O O15 0.677973 0.000000 0.284523
O O16 0.259855 0.500000 0.472296
O O17 0.284757 0.705614 0.390136
O O18 0.702633 0.500000 0.696754
O O19 0.866803 0.271615 0.767980
O O20 0.961539 0.000000 0.797887
#
# Coordination Sequence:
#
# PCOD8065935 Si02
#       8
#     4   4   4   4   4   4   4   4
#     4  11  22  34  50  71  93 124 163 199 236 281
#     4   9  16  29  49  72  99 128 155 188 233 282
#     4   8  12  21  39  69 106 133 150 181 231 280
#     4   8  12  19  40  74 105 127 151 186 231 277
#     4   9  17  29  45  68 102 134 157 187 231 284
#     4  10  21  36  52  70  93 120 155 202 247 285
#     4  10  21  36  52  69  91 122 159 202 247 284
#     4   9  15  26  48  77 101 122 154 196 235 276
#
# _framework density 17.768314
#
# number of rings (size 3 to 8) (size 9 to 14) (size 15 to 20)
#    0.000    2.750    1.250    2.250    0.000    3.500 
#    0.000    3.750    0.000    0.750    0.000    9.625 
#    0.000    0.000    0.000    0.000    0.000    0.000 
#
# Total GULP energy -396671.639243 kJ/mol
# GULP energy per Si atom -12395.988726 kJ/mol
# Density = 1.772787 g / cm^3
# Si number density = 17.768314 Si / 1000 Ang^3
#
#
#
# Elastic Constant Matrix: (Units=GPa)
#
#
# Indices 1 2 3 4 5 6 
#
# 1 96.0811 31.0671 31.5592 0.0000 24.8533 0.0000
# 2 31.0671 46.3628 20.8985 0.0000 7.6257 0.0000
# 3 31.5592 20.8985 69.0382 0.0000 28.8741 0.0000
# 4 0.0000 0.0000 0.0000 5.0081 0.0000 -3.9431
# 5 24.8533 7.6257 28.8741 0.0000 26.9681 0.0000
# 6 0.0000 0.0000 0.0000 -3.9431 0.0000 7.0231
#
#
#
# Elastic Compliance Matrix: (Units=1/GPa)
#
#
# Indices 1 2 3 4 5 6 
#
# 1 0.016669 -0.009340 0.000956 0.000000 -0.013744 0.000000
# 2 -0.009340 0.030263 -0.008896 0.000000 0.009575 0.000000
# 3 0.000956 -0.008896 0.029078 0.000000 -0.029498 0.000000
# 4 0.000000 0.000000 0.000000 0.357881 0.000000 0.200933
# 5 -0.013744 0.009575 -0.029498 0.000000 0.078623 0.000000
# 6 0.000000 0.000000 0.000000 0.200933 0.000000 0.255201
#
#
# Mechanical properties :
#
#
# Convention : Reuss Voigt Hill
#
# Bulk Modulus (GPa) = 24.12565 42.05908 33.09237
# Shear Modulus (GPa) = 6.12677 16.33036 11.22857
#
# Velocity S-wave (km/s) = 1.85893 3.03491 2.51658
# Velocity P-wave (km/s) = 4.26789 6.00026 5.20663
#
# Compressibility (1/GPa) = 0.04144966
#
# Stress axis : x y z
#
# Youngs Moduli (GPa) = 59.99094 33.04413 34.39042
#
# Poissons Ratio (x) = 0.30863 -0.03287
# Poissons Ratio (y) = 0.56031 0.30593
# Poissons Ratio (z) = -0.05733 0.29395
#
# Static dielectric constant tensor:
#      x y z
#    x 3.280270 0.000000 0.197640 
#    y 0.000000 2.935930 0.000000 
#    z 0.197640 0.000000 3.540040 
# 
# 
# High freq. dielectric constant tensor:
#      x y z
#    x 1.670520 0.000000 0.024400 
#    y 0.000000 1.648970 0.000000 
#    z 0.024400 0.000000 1.689960 
# 
# From -- ./inp_files/54948.got.cif
#   From: 2010.06.25/outbox.cif.g09.slc.cpg/sg10_28_cif.got.tgz:54948.got - 2010.06.27 22:07:45.
