data_PCOD8065897
_publ_section_title
;
Structure prediction by ZEFSAII (Michael W. Deem and Ramdas Pophale) SiO2 
 PCOD8065897
Probable space group: P 2/M
;
_chemical_formula_sum "Si O2"
_cell_formula_units_Z 32
_cell_length_a 11.344464
_cell_length_b 9.070436
_cell_length_c 20.323954
_cell_angle_alpha 90.000000
_cell_angle_beta 52.809081
_cell_angle_gamma 90.000000
_cell_volume 1665.998780
_symmetry_space_group_name_H-M "P 2/M"
_symmetry_group_IT_number 10
_symmetry_cell_setting 'monoclinic'
loop_
_space_group_symop_operation_xyz
x,y,z
-x,y,-z
-x,-y,-z
x,-y,z
loop_
_atom_site_type_symbol
_atom_site_label
_atom_site_fract_x
_atom_site_fract_y
_atom_site_fract_z
Si Si1 0.149312 0.667931 0.910097
Si Si2 0.489985 0.831014 0.673839
Si Si3 0.603039 0.674752 0.903874
Si Si4 0.160780 0.169884 0.774340
Si Si5 0.226520 0.671604 0.450312
Si Si6 0.889708 0.171941 0.775467
Si Si7 0.943607 0.326833 0.622668
Si Si8 0.437193 0.826192 0.841943
O O1 0.206590 0.500000 0.886949
O O2 0.113473 0.726285 0.849767
O O3 0.270792 0.766466 0.906488
O O4 0.000000 0.680280 0.000000
O O5 0.329753 0.794309 0.696163
O O6 0.614976 0.745432 0.591137
O O7 0.490727 0.786190 0.750451
O O8 0.529977 0.000000 0.652404
O O9 0.613898 0.500000 0.892582
O O10 0.766296 0.742433 0.860148
O O11 0.542286 0.743851 0.857318
O O12 0.500000 0.719353 0.000000
O O13 0.051376 0.201901 0.751093
O O14 0.151639 0.000000 0.801248
O O15 0.253339 0.500000 0.440180
O O16 0.113477 0.712738 0.547105
O O17 0.159006 0.721469 0.403396
O O18 0.890002 0.231200 0.701602
O O19 0.849535 0.000000 0.788658
O O20 0.927407 0.500000 0.643942
O O21 0.439555 0.000000 0.854896
#
# Coordination Sequence:
#
# PCOD8065897 Si02
#       8
#     4   4   4   4   4   4   4   4
#     4  10  21  35  55  82 109 139 182 233 281 330
#     4   9  18  34  55  80 109 141 180 228 277 323
#     4  11  25  41  57  80 112 147 183 229 284 337
#     4   9  21  39  55  77 109 149 190 229 279 338
#     4   9  18  33  56  84 113 144 184 227 275 335
#     4  11  23  39  59  82 111 148 191 232 278 339
#     4   9  19  36  56  82 115 150 182 224 281 336
#     4  10  21  37  57  81 110 143 184 228 275 332
#
# _framework density 19.207697
#
# number of rings (size 3 to 8) (size 9 to 14) (size 15 to 20)
#    0.000    2.250    0.000    3.750    1.750    8.500 
#    0.000    1.875    0.000    3.750    0.000    0.000 
#    0.000    0.000    0.000    0.000    0.000    0.000 
#
# Total GULP energy -396833.675483 kJ/mol
# GULP energy per Si atom -12401.052359 kJ/mol
# Density = 1.916398 g / cm^3
# Si number density = 19.207697 Si / 1000 Ang^3
#
#
#
# Elastic Constant Matrix: (Units=GPa)
#
#
# Indices 1 2 3 4 5 6 
#
# 1 82.4236 31.5125 33.4908 0.0000 -16.6352 0.0000
# 2 31.5125 71.3904 44.0952 0.0000 -14.3377 0.0000
# 3 33.4908 44.0952 92.8682 0.0000 -22.0538 0.0000
# 4 0.0000 0.0000 0.0000 20.7543 0.0000 -16.4064
# 5 -16.6352 -14.3377 -22.0538 0.0000 24.7583 0.0000
# 6 0.0000 0.0000 0.0000 -16.4064 0.0000 23.5307
#
#
#
# Elastic Compliance Matrix: (Units=1/GPa)
#
#
# Indices 1 2 3 4 5 6 
#
# 1 0.015974 -0.004466 -0.002163 0.000000 0.006220 0.000000
# 2 -0.004466 0.021374 -0.008005 0.000000 0.002247 0.000000
# 3 -0.002163 -0.008005 0.017633 0.000000 0.009618 0.000000
# 4 0.000000 0.000000 0.000000 0.107352 0.000000 0.074849
# 5 0.006220 0.002247 0.009618 0.000000 0.054438 0.000000
# 6 0.000000 0.000000 0.000000 0.074849 0.000000 0.094685
#
#
# Mechanical properties :
#
#
# Convention : Reuss Voigt Hill
#
# Bulk Modulus (GPa) = 38.88977 51.65324 45.27151
# Shear Modulus (GPa) = 14.31456 22.98089 18.64773
#
# Velocity S-wave (km/s) = 2.73289 3.46271 3.11922
# Velocity P-wave (km/s) = 5.49993 6.55267 6.04924
#
# Compressibility (1/GPa) = 0.02571370
#
# Stress axis : x y z
#
# Youngs Moduli (GPa) = 62.60116 46.78523 56.71267
#
# Poissons Ratio (x) = 0.20894 0.12268
# Poissons Ratio (y) = 0.27957 0.45397
# Poissons Ratio (z) = 0.13542 0.37450
#
# Static dielectric constant tensor:
#      x y z
#    x 3.614400 0.000000 -0.240050 
#    y 0.000000 3.538870 0.000000 
#    z -0.240050 0.000000 3.480180 
# 
# 
# High freq. dielectric constant tensor:
#      x y z
#    x 1.745080 0.000000 -0.018650 
#    y 0.000000 1.751180 0.000000 
#    z -0.018650 0.000000 1.741980 
# 
# From -- ./inp_files/83578.got.cif
#   From: 2010.06.25/outbox.cif.g09.slc.cpg/sg10_42_cif.got.tgz:83578.got - 2010.06.27 22:07:45.
