data_PCOD8065329
_publ_section_title
;
Structure prediction by ZEFSAII (Michael W. Deem and Ramdas Pophale) SiO2 
 PCOD8065329
Probable space group: P 2/M
;
_chemical_formula_sum "Si O2"
_cell_formula_units_Z 32
_cell_length_a 11.838156
_cell_length_b 13.673926
_cell_length_c 14.897403
_cell_angle_alpha 90.000000
_cell_angle_beta 39.845765
_cell_angle_gamma 90.000000
_cell_volume 1545.105982
_symmetry_space_group_name_H-M "P 2/M"
_symmetry_group_IT_number 10
_symmetry_cell_setting 'monoclinic'
loop_
_space_group_symop_operation_xyz
x,y,z
-x,y,-z
-x,-y,-z
x,-y,z
loop_
_atom_site_type_symbol
_atom_site_label
_atom_site_fract_x
_atom_site_fract_y
_atom_site_fract_z
Si Si1 0.471860 0.611549 0.614686
Si Si2 0.586904 0.774700 0.033849
Si Si3 0.903662 0.317670 0.153985
Si Si4 0.306558 0.611918 0.240250
Si Si5 0.244509 0.722607 0.449916
Si Si6 0.074510 0.680143 0.228047
Si Si7 0.840617 0.893586 0.166656
Si Si8 0.494223 0.110764 0.262133
O O1 0.500000 0.660273 0.500000
O O2 0.532939 0.500000 0.575458
O O3 0.269337 0.621910 0.764411
O O4 0.588527 0.663153 0.617044
O O5 0.489474 0.670262 0.112362
O O6 0.574911 0.849177 0.121537
O O7 0.500000 0.824664 0.000000
O O8 0.793702 0.763298 0.887721
O O9 0.868427 0.204697 0.208542
O O10 0.999161 0.369254 0.181668
O O11 0.000000 0.319460 0.000000
O O12 0.349117 0.500000 0.242090
O O13 0.196428 0.669682 0.384793
O O14 0.186236 0.607312 0.223555
O O15 0.313422 0.833112 0.396590
O O16 0.082920 0.724884 0.616842
O O17 0.648540 0.878340 0.240378
O O18 0.838974 0.000000 0.219348
O O19 0.000000 0.898772 0.000000
O O20 0.435514 0.000000 0.284832
#
# Coordination Sequence:
#
# PCOD8065329 Si02
#       8
#     4   4   4   4   4   4   4   4
#     4  11  23  40  59  84 119 165 206 246 304 367
#     4   9  20  38  60  88 122 157 202 254 312 356
#     4  11  22  38  62  87 126 159 201 256 305 361
#     4  10  23  42  66  92 119 161 212 260 310 363
#     4  11  22  41  63  88 127 162 205 252 310 364
#     4  11  23  38  61  90 124 163 199 257 306 364
#     4   9  17  31  56  87 115 151 198 243 295 354
#     4  10  20  37  63  90 120 161 206 249 303 369
#
# _framework density 20.710554999999999
#
# number of rings (size 3 to 8) (size 9 to 14) (size 15 to 20)
#    0.000    1.750    2.500    2.250    1.750    4.750 
#    0.000    1.250    0.000   15.000    0.000    0.000 
#    0.000    0.000    0.000    0.000    0.000    0.000 
#
# Total GULP energy -396511.756463 kJ/mol
# GULP energy per Si atom -12390.992389 kJ/mol
# Density = 2.066342 g / cm^3
# Si number density = 20.710555 Si / 1000 Ang^3
#
#
#
# Elastic Constant Matrix: (Units=GPa)
#
#
# Indices 1 2 3 4 5 6 
#
# 1 88.4829 30.3887 44.6987 0.0000 -0.6689 0.0000
# 2 30.3887 95.4057 21.1462 0.0000 3.7012 0.0000
# 3 44.6987 21.1462 120.9611 0.0000 2.9121 0.0000
# 4 0.0000 0.0000 0.0000 13.3328 0.0000 2.9819
# 5 -0.6689 3.7012 2.9121 0.0000 31.6418 0.0000
# 6 0.0000 0.0000 0.0000 2.9819 0.0000 20.1663
#
#
#
# Elastic Compliance Matrix: (Units=1/GPa)
#
#
# Indices 1 2 3 4 5 6 
#
# 1 0.015105 -0.003760 -0.004953 0.000000 0.001215 0.000000
# 2 -0.003760 0.011879 -0.000653 0.000000 -0.001409 0.000000
# 3 -0.004953 -0.000653 0.010235 0.000000 -0.000970 0.000000
# 4 0.000000 0.000000 0.000000 0.077568 0.000000 -0.011470
# 5 0.001215 -0.001409 -0.000970 0.000000 0.031884 0.000000
# 6 0.000000 0.000000 0.000000 -0.011470 0.000000 0.051284
#
#
# Mechanical properties :
#
#
# Convention : Reuss Voigt Hill
#
# Bulk Modulus (GPa) = 54.09936 55.25746 54.67841
# Shear Modulus (GPa) = 22.43668 26.93592 24.68630
#
# Velocity S-wave (km/s) = 3.29499 3.61028 3.45623
# Velocity P-wave (km/s) = 6.37607 6.64211 6.51045
#
# Compressibility (1/GPa) = 0.01848451
#
# Stress axis : x y z
#
# Youngs Moduli (GPa) = 66.20500 84.18412 97.70284
#
# Poissons Ratio (x) = 0.31656 0.48397
# Poissons Ratio (y) = 0.24895 0.06381
# Poissons Ratio (z) = 0.32794 0.05498
#
# Static dielectric constant tensor:
#      x y z
#    x 4.275970 0.000000 0.233210 
#    y 0.000000 3.772820 0.000000 
#    z 0.233210 0.000000 4.020710 
# 
# 
# High freq. dielectric constant tensor:
#      x y z
#    x 1.816720 0.000000 -0.004100 
#    y 0.000000 1.790180 0.000000 
#    z -0.004100 0.000000 1.812440 
# 
# From -- ./inp_files/65088.got.cif
#   From: 2010.06.25/outbox.cif.g09.slc.cpg/sg10_33_cif.got.tgz:65088.got - 2010.06.27 22:07:45.
