data_PCOD8065909
_publ_section_title
;
Structure prediction by ZEFSAII (Michael W. Deem and Ramdas Pophale) SiO2 
 PCOD8065909
Probable space group: P 2/M
;
_chemical_formula_sum "Si O2"
_cell_formula_units_Z 30
_cell_length_a 25.339230
_cell_length_b 10.966786
_cell_length_c 25.610415
_cell_angle_alpha 90.000000
_cell_angle_beta 11.741948
_cell_angle_gamma 90.000000
_cell_volume 1448.313871
_symmetry_space_group_name_H-M "P 2/M"
_symmetry_group_IT_number 10
_symmetry_cell_setting 'monoclinic'
loop_
_space_group_symop_operation_xyz
x,y,z
-x,y,-z
-x,-y,-z
x,-y,z
loop_
_atom_site_type_symbol
_atom_site_label
_atom_site_fract_x
_atom_site_fract_y
_atom_site_fract_z
Si Si1 0.644968 0.724937 0.214776
Si Si2 0.857200 0.782759 0.759389
Si Si3 0.651001 0.637789 0.712517
Si Si4 0.914046 0.865714 0.814416
Si Si5 0.731067 0.360903 0.243583
Si Si6 0.578973 0.365065 0.169823
Si Si7 0.151337 0.135248 0.687770
Si Si8 0.223457 0.000000 0.241154
O O1 0.686329 0.641604 0.224990
O O2 0.514504 0.645976 0.293937
O O3 0.433741 0.826731 0.434630
O O4 0.922240 0.779356 0.930750
O O5 0.984551 0.853826 0.685342
O O6 0.079846 0.689150 0.525115
O O7 0.798615 0.878367 0.771284
O O8 0.592347 0.714233 0.030336
O O9 0.620654 0.500000 0.762369
O O10 0.661811 0.640672 0.637940
O O11 0.160075 0.862014 0.615391
O O12 0.777163 0.000000 0.954729
O O13 0.747531 0.750396 0.991861
O O14 0.500000 0.295879 0.500000
O O15 0.745917 0.500000 0.247895
O O16 0.000000 0.295176 0.000000
O O17 0.711725 0.500000 0.033201
O O18 0.095841 0.000000 0.762630
O O19 0.000000 0.000000 0.500000
O O20 0.500000 0.000000 0.000000
#
# Coordination Sequence:
#
# PCOD8065909 Si02
#       8
#     4   4   4   4   4   4   4   2
#     4  11  20  36  57  81 112 153 188 238 296 354
#     4  11  21  40  63  90 121 164 202 252 302 358
#     4  10  21  37  62  93 128 161 198 239 300 378
#     4   9  18  35  57  89 121 161 202 237 291 362
#     4  10  21  37  57  80 105 140 191 246 294 346
#     4   9  19  34  55  90 127 160 193 241 297 367
#     4  10  21  35  56  84 117 149 186 232 284 357
#     4  12  26  44  66  94 124 160 208 270 310 340
#
# _framework density 20.713742
#
# number of rings (size 3 to 8) (size 9 to 14) (size 15 to 20)
#    0.000    1.867    0.667    3.600    0.000    1.067 
#    1.200   10.000    0.000   16.000    0.000    0.000 
#    0.000    0.000    0.000    0.000    0.000    0.000 
#
# Total GULP energy -371659.147416 kJ/mol
# GULP energy per Si atom -12388.638247 kJ/mol
# Density = 2.066660 g / cm^3
# Si number density = 20.713742 Si / 1000 Ang^3
#
#
#
# Elastic Constant Matrix: (Units=GPa)
#
#
# Indices 1 2 3 4 5 6 
#
# 1 112.2014 45.5683 55.3531 0.0000 0.5765 0.0000
# 2 45.5683 115.1483 30.7251 0.0000 -1.4682 0.0000
# 3 55.3531 30.7251 130.4728 0.0000 -2.9331 0.0000
# 4 0.0000 0.0000 0.0000 23.1520 0.0000 -2.3349
# 5 0.5765 -1.4682 -2.9331 0.0000 26.2491 0.0000
# 6 0.0000 0.0000 0.0000 -2.3349 0.0000 29.6703
#
#
#
# Elastic Compliance Matrix: (Units=1/GPa)
#
#
# Indices 1 2 3 4 5 6 
#
# 1 0.012699 -0.003836 -0.004507 0.000000 -0.000997 0.000000
# 2 -0.003836 0.010427 -0.000815 0.000000 0.000576 0.000000
# 3 -0.004507 -0.000815 0.009794 0.000000 0.001148 0.000000
# 4 0.000000 0.000000 0.000000 0.043538 0.000000 0.003426
# 5 -0.000997 0.000576 0.001148 0.000000 0.038279 0.000000
# 6 0.000000 0.000000 0.000000 0.003426 0.000000 0.033973
#
#
# Mechanical properties :
#
#
# Convention : Reuss Voigt Hill
#
# Bulk Modulus (GPa) = 68.46907 69.01284 68.74096
# Shear Modulus (GPa) = 29.08772 30.89269 29.99021
#
# Velocity S-wave (km/s) = 3.75143 3.86607 3.80918
# Velocity P-wave (km/s) = 7.20354 7.30194 7.25291
#
# Compressibility (1/GPa) = 0.01460513
#
# Stress axis : x y z
#
# Youngs Moduli (GPa) = 78.74846 95.90292 102.10167
#
# Poissons Ratio (x) = 0.36784 0.46013
# Poissons Ratio (y) = 0.30204 0.08325
# Poissons Ratio (z) = 0.35489 0.07819
#
# Static dielectric constant tensor:
#      x y z
#    x 3.945030 0.000000 -0.079370 
#    y 0.000000 3.872520 0.000000 
#    z -0.079370 0.000000 3.556160 
# 
# 
# High freq. dielectric constant tensor:
#      x y z
#    x 1.801080 0.000000 -0.008910 
#    y 0.000000 1.815640 0.000000 
#    z -0.008910 0.000000 1.793130 
# 
# From -- ./inp_files/94092.got.cif
#   From: 2010.06.25/outbox.cif.g09.slc.cpg/sg10_48_cif.got.tgz:94092.got - 2010.06.27 22:07:45.
