data_PCOD8065569
_publ_section_title
;
Structure prediction by ZEFSAII (Michael W. Deem and Ramdas Pophale) SiO2 
 PCOD8065569
Probable space group: P 2/M
;
_chemical_formula_sum "Si O2"
_cell_formula_units_Z 24
_cell_length_a 12.489557
_cell_length_b 8.784032
_cell_length_c 24.062364
_cell_angle_alpha 90.000000
_cell_angle_beta 29.388006
_cell_angle_gamma 90.000000
_cell_volume 1295.430759
_symmetry_space_group_name_H-M "P 2/M"
_symmetry_group_IT_number 10
_symmetry_cell_setting 'monoclinic'
loop_
_space_group_symop_operation_xyz
x,y,z
-x,y,-z
-x,-y,-z
x,-y,z
loop_
_atom_site_type_symbol
_atom_site_label
_atom_site_fract_x
_atom_site_fract_y
_atom_site_fract_z
Si Si1 0.376623 0.823832 0.749229
Si Si2 0.036966 0.678366 0.109125
Si Si3 0.130185 0.179724 0.494609
Si Si4 0.739298 0.679742 0.879978
Si Si5 0.174362 0.679802 0.281046
Si Si6 0.390635 0.176500 0.871300
O O1 0.619302 0.770901 0.623717
O O2 0.331110 0.794104 0.834415
O O3 0.214132 0.720961 0.786627
O O4 0.339751 0.000000 0.750887
O O5 0.077308 0.500000 0.080975
O O6 0.097239 0.726319 0.144688
O O7 0.184174 0.772789 0.000204
O O8 0.000000 0.243340 0.500000
O O9 0.033812 0.250328 0.594160
O O10 0.102966 0.000000 0.509852
O O11 0.715466 0.500000 0.886148
O O12 0.828922 0.742425 0.780785
O O13 0.500000 0.750540 0.000000
O O14 0.155367 0.500000 0.291732
O O15 0.397944 0.726993 0.209246
O O16 0.443381 0.000000 0.858065
#
# Coordination Sequence:
#
# PCOD8065569 Si02
#       6
#     4   4   4   4   4   4
#     4  10  22  39  57  79 115 155 184 222 282 343
#     4  11  22  37  58  84 114 149 188 233 280 331
#     4  10  20  39  60  80 112 153 187 224 281 337
#     4   9  18  36  57  79 114 150 180 226 287 331
#     4  11  21  35  59  88 113 142 189 239 277 322
#     4  11  21  36  57  83 117 152 183 224 285 342
#
# _framework density 18.526654000000001
#
# number of rings (size 3 to 8) (size 9 to 14) (size 15 to 20)
#    0.000    1.667    3.333    2.000    0.000    4.333 
#    0.000    5.000    0.000    5.000    0.000    0.000 
#    0.000    0.000    0.000    0.000    0.000    0.000 
#
# Total GULP energy -297678.250723 kJ/mol
# GULP energy per Si atom -12403.260447 kJ/mol
# Density = 1.848449 g / cm^3
# Si number density = 18.526654 Si / 1000 Ang^3
#
#
#
# Elastic Constant Matrix: (Units=GPa)
#
#
# Indices 1 2 3 4 5 6 
#
# 1 113.1394 21.7479 52.5281 0.0000 6.6968 0.0000
# 2 21.7479 17.7210 26.9916 0.0000 5.3108 0.0000
# 3 52.5281 26.9916 110.9110 0.0000 13.2225 0.0000
# 4 0.0000 0.0000 0.0000 33.1922 0.0000 -0.9417
# 5 6.6968 5.3108 13.2225 0.0000 32.3674 0.0000
# 6 0.0000 0.0000 0.0000 -0.9417 0.0000 -3.7392
#
#
#
# Elastic Compliance Matrix: (Units=1/GPa)
#
#
# Indices 1 2 3 4 5 6 
#
# 1 0.012345 -0.010018 -0.003469 0.000000 0.000507 0.000000
# 2 -0.010018 0.098956 -0.018553 0.000000 -0.006585 0.000000
# 3 -0.003469 -0.018553 0.015480 0.000000 -0.002562 0.000000
# 4 0.000000 0.000000 0.000000 0.029914 0.000000 -0.007533
# 5 0.000507 -0.006585 -0.002562 0.000000 0.032917 0.000000
# 6 0.000000 0.000000 0.000000 -0.007533 0.000000 -0.265541
#
#
# Mechanical properties :
#
#
# Convention : Reuss Voigt Hill
#
# Bulk Modulus (GPa) = 15.94864 49.36740 32.65802
# Shear Modulus (GPa) = 552.43096 21.73102 287.08099
#
# Velocity S-wave (km/s) = 17.28667 3.42857 12.46162
# Velocity P-wave (km/s) = 20.17587 6.50983 14.99073
#
# Compressibility (1/GPa) = 0.06270129
#
# Stress axis : x y z
#
# Youngs Moduli (GPa) = 81.00459 10.10545 64.60131
#
# Poissons Ratio (x) = 0.10124 0.22410
# Poissons Ratio (y) = 0.81154 1.19852
# Poissons Ratio (z) = 0.28100 0.18748
#
# Static dielectric constant tensor:
#      x y z
#    x 3.535590 0.000000 0.108010 
#    y 0.000000 3.267960 0.000000 
#    z 0.108010 0.000000 3.530370 
# 
# 
# High freq. dielectric constant tensor:
#      x y z
#    x 1.719980 0.000000 0.003470 
#    y 0.000000 1.706960 0.000000 
#    z 0.003470 0.000000 1.722700 
# 
# From -- ./inp_files/54600.got.cif
#   From: 2010.06.25/outbox.cif.g09.slc.cpg/sg10_28_cif.got.tgz:54600.got - 2010.06.27 22:07:45.
