data_PCOD8065183
_publ_section_title
;
Structure prediction by ZEFSAII (Michael W. Deem and Ramdas Pophale) SiO2 
 PCOD8065183
Probable space group: P 2/M
;
_chemical_formula_sum "Si O2"
_cell_formula_units_Z 28
_cell_length_a 19.220071
_cell_length_b 9.663264
_cell_length_c 22.592835
_cell_angle_alpha 90.000000
_cell_angle_beta 19.789650
_cell_angle_gamma 90.000000
_cell_volume 1420.677198
_symmetry_space_group_name_H-M "P 2/M"
_symmetry_group_IT_number 10
_symmetry_cell_setting 'monoclinic'
loop_
_space_group_symop_operation_xyz
x,y,z
-x,y,-z
-x,-y,-z
x,-y,z
loop_
_atom_site_type_symbol
_atom_site_label
_atom_site_fract_x
_atom_site_fract_y
_atom_site_fract_z
Si Si1 0.993925 0.842238 0.109417
Si Si2 0.427310 0.149350 0.707793
Si Si3 0.346327 0.347000 0.675287
Si Si4 0.970504 0.842993 0.457848
Si Si5 0.959674 0.651991 0.697270
Si Si6 0.822034 0.658577 0.936798
Si Si7 0.383132 0.256929 0.329321
O O1 0.826917 0.759126 0.206002
O O2 0.046344 0.760818 0.127672
O O3 0.921800 0.000000 0.182136
O O4 0.185998 0.846073 0.912608
O O5 0.476183 0.276170 0.624703
O O6 0.546362 0.158114 0.674214
O O7 0.485174 0.000000 0.632961
O O8 0.500000 0.373098 0.500000
O O9 0.261308 0.500000 0.762790
O O10 0.110412 0.755920 0.299242
O O11 0.729370 0.832772 0.632129
O O12 0.000000 0.781158 0.500000
O O13 0.048226 0.000000 0.393814
O O14 0.868937 0.500000 0.757182
O O15 0.210302 0.641196 0.495848
O O16 0.871749 0.706114 0.830139
O O17 0.894106 0.500000 0.889648
O O18 0.578259 0.665223 0.145005
#
# Coordination Sequence:
#
# PCOD8065183 Si02
#       7
#     4   4   4   4   4   4   4
#     4  10  22  39  58  82 110 143 186 234 284 337
#     4  10  21  38  59  81 107 142 186 234 283 338
#     4  11  25  39  53  79 112 147 187 232 281 335
#     4   9  19  37  60  85 117 155 193 234 283 338
#     4   9  20  35  57  86 115 147 189 234 279 339
#     4  10  20  37  60  87 117 150 191 236 285 339
#     4   9  20  36  61  84 115 149 188 232 283 338
#
# _framework density 19.708912000000002
#
# number of rings (size 3 to 8) (size 9 to 14) (size 15 to 20)
#    0.857    1.429    0.000    2.143    2.000    7.714 
#    0.000    0.714    0.000    3.429    0.000    0.000 
#    0.000    0.000    0.000    0.000    0.000    0.000 
#
# Total GULP energy -346927.725316 kJ/mol
# GULP energy per Si atom -12390.275904 kJ/mol
# Density = 1.966405 g / cm^3
# Si number density = 19.708912 Si / 1000 Ang^3
#
#
#
# Elastic Constant Matrix: (Units=GPa)
#
#
# Indices 1 2 3 4 5 6 
#
# 1 133.2155 64.0871 30.4757 0.0000 12.4842 0.0000
# 2 64.0871 141.5470 13.7065 0.0000 14.4435 0.0000
# 3 30.4757 13.7065 54.4418 0.0000 13.9901 0.0000
# 4 0.0000 0.0000 0.0000 4.4665 0.0000 17.0089
# 5 12.4842 14.4435 13.9901 0.0000 32.1135 0.0000
# 6 0.0000 0.0000 0.0000 17.0089 0.0000 13.0790
#
#
#
# Elastic Compliance Matrix: (Units=1/GPa)
#
#
# Indices 1 2 3 4 5 6 
#
# 1 0.010740 -0.004382 -0.004890 0.000000 -0.000074 0.000000
# 2 -0.004382 0.009255 0.000850 0.000000 -0.002829 0.000000
# 3 -0.004890 0.000850 0.023086 0.000000 -0.008538 0.000000
# 4 0.000000 0.000000 0.000000 -0.056647 0.000000 0.073668
# 5 -0.000074 -0.002829 -0.008538 0.000000 0.036161 0.000000
# 6 0.000000 0.000000 0.000000 0.073668 0.000000 -0.019345
#
#
# Mechanical properties :
#
#
# Convention : Reuss Voigt Hill
#
# Bulk Modulus (GPa) = 38.11365 60.63809 49.37587
# Shear Modulus (GPa) = 173.37459 24.66079 99.01769
#
# Velocity S-wave (km/s) = 9.38928 3.54114 7.09571
# Velocity P-wave (km/s) = 11.70150 6.89588 9.60412
#
# Compressibility (1/GPa) = 0.02623732
#
# Stress axis : x y z
#
# Youngs Moduli (GPa) = 93.10818 108.04895 43.31676
#
# Poissons Ratio (x) = 0.47343 0.21182
# Poissons Ratio (y) = 0.40797 -0.03681
# Poissons Ratio (z) = 0.45529 -0.09182
#
# Static dielectric constant tensor:
#      x y z
#    x 3.549010 0.000000 0.103650 
#    y 0.000000 3.728670 0.000000 
#    z 0.103650 0.000000 3.449850 
# 
# 
# High freq. dielectric constant tensor:
#      x y z
#    x 1.764010 0.000000 0.011460 
#    y 0.000000 1.775390 0.000000 
#    z 0.011460 0.000000 1.746180 
# 
# From -- ./inp_files/90342.got.cif
#   From: 2010.06.25/outbox.cif.g09.slc.cpg/sg10_46_cif.got.tgz:90342.got - 2010.06.27 22:07:45.
