data_PCOD8065076
_publ_section_title
;
Structure prediction by ZEFSAII (Michael W. Deem and Ramdas Pophale) SiO2 
 PCOD8065076
Probable space group: P 2/M
;
_chemical_formula_sum "Si O2"
_cell_formula_units_Z 28
_cell_length_a 14.592419
_cell_length_b 8.869797
_cell_length_c 21.555924
_cell_angle_alpha 90.000000
_cell_angle_beta 30.967725
_cell_angle_gamma 90.000000
_cell_volume 1435.620138
_symmetry_space_group_name_H-M "P 2/M"
_symmetry_group_IT_number 10
_symmetry_cell_setting 'monoclinic'
loop_
_space_group_symop_operation_xyz
x,y,z
-x,y,-z
-x,-y,-z
x,-y,z
loop_
_atom_site_type_symbol
_atom_site_label
_atom_site_fract_x
_atom_site_fract_y
_atom_site_fract_z
Si Si1 0.071780 0.822140 0.522591
Si Si2 0.213847 0.325202 0.651078
Si Si3 0.433723 0.677422 0.888381
Si Si4 0.543286 0.674343 0.375897
Si Si5 0.262629 0.174225 0.207805
Si Si6 0.159346 0.825642 0.131606
Si Si7 0.530344 0.178216 0.704111
O O1 0.268480 0.758117 0.421296
O O2 0.000000 0.752189 0.500000
O O3 0.935828 0.776367 0.655905
O O4 0.087373 0.000000 0.507068
O O5 0.163058 0.500000 0.672381
O O6 0.291169 0.295915 0.674764
O O7 0.360380 0.275829 0.515526
O O8 0.042979 0.222247 0.739999
O O9 0.437065 0.500000 0.878736
O O10 0.593914 0.726535 0.840017
O O11 0.444149 0.751290 0.815058
O O12 0.246695 0.727303 0.026756
O O13 0.532613 0.500000 0.363771
O O14 0.577533 0.771244 0.294196
O O15 0.274038 0.200051 0.127676
O O16 0.298430 0.000000 0.204768
O O17 0.164655 0.000000 0.109510
O O18 0.522657 0.000000 0.715565
#
# Coordination Sequence:
#
# PCOD8065076 Si02
#       7
#     4   4   4   4   4   4   4
#     4   9  16  30  54  80 110 144 178 221 275 331
#     4   9  19  38  62  87 119 153 184 226 280 338
#     4  12  25  39  55  78 113 154 195 237 283 341
#     4   9  19  37  61  89 120 152 183 223 282 342
#     4  10  20  37  58  82 112 149 189 233 285 336
#     4  11  23  38  59  84 112 148 194 242 285 332
#     4  11  21  36  59  85 115 152 192 235 284 335
#
# _framework density 19.503765999999999
#
# number of rings (size 3 to 8) (size 9 to 14) (size 15 to 20)
#    0.000    1.857    1.429    4.286    0.000    5.143 
#    0.000    4.286    0.000    4.286    0.000    0.000 
#    0.000    0.000    0.000    0.000    0.000    0.000 
#
# Total GULP energy -347262.158948 kJ/mol
# GULP energy per Si atom -12402.219962 kJ/mol
# Density = 1.945938 g / cm^3
# Si number density = 19.503766 Si / 1000 Ang^3
#
#
#
# Elastic Constant Matrix: (Units=GPa)
#
#
# Indices 1 2 3 4 5 6 
#
# 1 93.5073 44.8179 26.9405 0.0000 15.6313 0.0000
# 2 44.8179 91.1274 35.5769 0.0000 11.2099 0.0000
# 3 26.9405 35.5769 73.1811 0.0000 13.5593 0.0000
# 4 0.0000 0.0000 0.0000 28.5665 0.0000 0.7644
# 5 15.6313 11.2099 13.5593 0.0000 27.2051 0.0000
# 6 0.0000 0.0000 0.0000 0.7644 0.0000 32.0616
#
#
#
# Elastic Compliance Matrix: (Units=1/GPa)
#
#
# Indices 1 2 3 4 5 6 
#
# 1 0.014950 -0.006091 -0.001560 0.000000 -0.005302 0.000000
# 2 -0.006091 0.016187 -0.005552 0.000000 -0.000403 0.000000
# 3 -0.001560 -0.005552 0.018011 0.000000 -0.005793 0.000000
# 4 0.000000 0.000000 0.000000 0.035028 0.000000 -0.000835
# 5 -0.005302 -0.000403 -0.005793 0.000000 0.042858 0.000000
# 6 0.000000 0.000000 0.000000 -0.000835 0.000000 0.031210
#
#
# Mechanical properties :
#
#
# Convention : Reuss Voigt Hill
#
# Bulk Modulus (GPa) = 43.97262 52.49847 48.23554
# Shear Modulus (GPa) = 26.01049 27.59868 26.80459
#
# Velocity S-wave (km/s) = 3.65583 3.76579 3.71122
# Velocity P-wave (km/s) = 6.35726 6.77375 6.56881
#
# Compressibility (1/GPa) = 0.02274143
#
# Stress axis : x y z
#
# Youngs Moduli (GPa) = 66.89118 61.77978 55.52024
#
# Poissons Ratio (x) = 0.37632 0.08660
# Poissons Ratio (y) = 0.40745 0.30825
# Poissons Ratio (z) = 0.10434 0.34300
#
# Static dielectric constant tensor:
#      x y z
#    x 3.517500 0.000000 0.066470 
#    y 0.000000 3.325450 0.000000 
#    z 0.066470 0.000000 3.590620 
# 
# 
# High freq. dielectric constant tensor:
#      x y z
#    x 1.759900 0.000000 0.008970 
#    y 0.000000 1.743830 0.000000 
#    z 0.008970 0.000000 1.759770 
# 
# From -- ./inp_files/49158.got.cif
#   From: 2010.06.25/outbox.cif.g09.slc.cpg/sg10_25_cif.got.tgz:49158.got - 2010.06.27 22:07:45.
