data_PCOD8065172
_publ_section_title
;
Structure prediction by ZEFSAII (Michael W. Deem and Ramdas Pophale) SiO2 
 PCOD8065172
Probable space group: P 2/M
;
_chemical_formula_sum "Si O2"
_cell_formula_units_Z 20
_cell_length_a 12.597358
_cell_length_b 8.809206
_cell_length_c 12.331508
_cell_angle_alpha 90.000000
_cell_angle_beta 131.890276
_cell_angle_gamma 90.000000
_cell_volume 1018.716416
_symmetry_space_group_name_H-M "P 2/M"
_symmetry_group_IT_number 10
_symmetry_cell_setting 'monoclinic'
loop_
_space_group_symop_operation_xyz
x,y,z
-x,y,-z
-x,-y,-z
x,-y,z
loop_
_atom_site_type_symbol
_atom_site_label
_atom_site_fract_x
_atom_site_fract_y
_atom_site_fract_z
Si Si1 0.163870 0.821891 0.293391
Si Si2 0.397838 0.819685 0.624375
Si Si3 0.366136 0.178028 0.843697
Si Si4 0.158463 0.176335 0.885897
Si Si5 0.301638 0.678565 0.186665
O O1 0.274186 0.764665 0.459298
O O2 0.188553 0.734407 0.198384
O O3 0.006869 0.779808 0.228438
O O4 0.179411 0.000000 0.281484
O O5 0.359617 0.754288 0.717822
O O6 0.546247 0.752906 0.683656
O O7 0.409902 0.000000 0.632219
O O8 0.220281 0.213615 0.808595
O O9 0.391410 0.000000 0.849474
O O10 0.500000 0.249695 0.000000
O O11 0.182143 0.000000 0.931547
O O12 0.246057 0.274298 0.031231
O O13 0.317525 0.500000 0.203259
#
# Coordination Sequence:
#
# PCOD8065172 Si02
#       5
#     4   4   4   4   4
#     4  10  22  37  57  85 114 146 184 228 279 332
#     4  10  20  37  60  85 113 145 183 228 278 331
#     4   9  16  31  59  87 110 140 179 226 277 329
#     4  10  20  37  60  85 113 145 183 228 278 331
#     4  12  24  37  56  81 112 152 193 230 271 324
#
# _framework density 19.632548
#
# number of rings (size 3 to 8) (size 9 to 14) (size 15 to 20)
#    0.000    1.800    2.000    3.000    0.000    7.200 
#    0.000    6.000    0.000    0.000    0.000    4.200 
#    0.000    0.000    0.000    0.000    0.000    0.000 
#
# Total GULP energy -248058.638173 kJ/mol
# GULP energy per Si atom -12402.931909 kJ/mol
# Density = 1.958786 g / cm^3
# Si number density = 19.632548 Si / 1000 Ang^3
#
#
#
# Elastic Constant Matrix: (Units=GPa)
#
#
# Indices 1 2 3 4 5 6 
#
# 1 120.8463 13.3232 16.3875 0.0000 8.7599 0.0000
# 2 13.3232 30.0667 14.8537 0.0000 3.6341 0.0000
# 3 16.3875 14.8537 66.3762 0.0000 12.5662 0.0000
# 4 0.0000 0.0000 0.0000 6.4836 0.0000 -1.0388
# 5 8.7599 3.6341 12.5662 0.0000 40.3824 0.0000
# 6 0.0000 0.0000 0.0000 -1.0388 0.0000 -0.4326
#
#
#
# Elastic Compliance Matrix: (Units=1/GPa)
#
#
# Indices 1 2 3 4 5 6 
#
# 1 0.008884 -0.003169 -0.001247 0.000000 -0.001254 0.000000
# 2 -0.003169 0.038549 -0.007775 0.000000 -0.000362 0.000000
# 3 -0.001247 -0.007775 0.017990 0.000000 -0.004628 0.000000
# 4 0.000000 0.000000 0.000000 0.111383 0.000000 -0.267463
# 5 -0.001254 -0.000362 -0.004628 0.000000 0.026508 0.000000
# 6 0.000000 0.000000 0.000000 -0.267463 0.000000 -1.669422
#
#
# Mechanical properties :
#
#
# Convention : Reuss Voigt Hill
#
# Bulk Modulus (GPa) = 24.36670 34.04644 29.20657
# Shear Modulus (GPa) = -3.50129 20.80168 8.65020
#
# Velocity S-wave (km/s) = -1.33689 3.25861 2.10134
# Velocity P-wave (km/s) = 3.17101 5.61583 4.56031
#
# Compressibility (1/GPa) = 0.04103962
#
# Stress axis : x y z
#
# Youngs Moduli (GPa) = 112.55725 25.94112 55.58774
#
# Poissons Ratio (x) = 0.08222 0.06931
# Poissons Ratio (y) = 0.35673 0.43222
# Poissons Ratio (z) = 0.14034 0.20170
#
# Static dielectric constant tensor:
#      x y z
#    x 3.797690 0.000000 -0.054750 
#    y 0.000000 3.188350 0.000000 
#    z -0.054750 0.000000 3.710790 
# 
# 
# High freq. dielectric constant tensor:
#      x y z
#    x 1.783320 0.000000 -0.001740 
#    y 0.000000 1.723320 0.000000 
#    z -0.001740 0.000000 1.767520 
# 
# From -- ./inp_files/40745.got.cif
#   From: 2010.06.25/outbox.cif.g09.slc.cpg/sg10_21_cif.got.tgz:40745.got - 2010.06.27 22:07:45.
