data_PCOD8065736
_publ_section_title
;
Structure prediction by ZEFSAII (Michael W. Deem and Ramdas Pophale) SiO2 
 PCOD8065736
Probable space group: P 2/M
;
_chemical_formula_sum "Si O2"
_cell_formula_units_Z 28
_cell_length_a 9.961001
_cell_length_b 7.617663
_cell_length_c 27.901359
_cell_angle_alpha 90.000000
_cell_angle_beta 44.080546
_cell_angle_gamma 90.000000
_cell_volume 1472.830272
_symmetry_space_group_name_H-M "P 2/M"
_symmetry_group_IT_number 10
_symmetry_cell_setting 'monoclinic'
loop_
_space_group_symop_operation_xyz
x,y,z
-x,y,-z
-x,-y,-z
x,-y,z
loop_
_atom_site_type_symbol
_atom_site_label
_atom_site_fract_x
_atom_site_fract_y
_atom_site_fract_z
Si Si1 0.485019 0.205510 0.556465
Si Si2 0.534372 0.500000 0.935243
Si Si3 0.554799 0.796423 0.173679
Si Si4 0.187969 0.790927 0.708040
Si Si5 0.751077 0.202599 0.827368
Si Si6 0.784785 0.705593 0.558036
Si Si7 0.523447 0.799097 0.288391
Si Si8 0.773738 0.500000 0.065140
O O1 0.500000 0.294071 0.500000
O O2 0.298454 0.282151 0.632526
O O3 0.678432 0.243570 0.536367
O O4 0.457314 0.000000 0.557563
O O5 0.652351 0.323815 0.892518
O O6 0.331145 0.500000 0.959499
O O7 0.500000 0.500000 0.000000
O O8 0.354848 0.774943 0.196244
O O9 0.515235 0.719391 0.237076
O O10 0.719027 0.676551 0.107850
O O11 0.623272 0.000000 0.154971
O O12 0.302414 0.714021 0.725046
O O13 0.968397 0.727410 0.764432
O O14 0.201273 0.000000 0.705007
O O15 0.745642 0.000000 0.846396
O O16 0.792587 0.500000 0.562629
O O17 0.678810 0.781662 0.632051
O O18 0.000000 0.785391 0.500000
O O19 0.572423 0.000000 0.268279
O O20 0.000000 0.500000 0.000000
#
# Coordination Sequence:
#
# PCOD8065736 Si02
#       8
#     4   2   4   4   4   4   4   2
#     4   9  18  33  53  74  99 134 177 224 267 313
#     4  10  22  38  54  80 109 132 175 210 243 314
#     4   9  19  35  56  80 106 139 176 213 259 311
#     4   8  15  30  50  74 102 128 166 215 259 306
#     4   9  18  35  55  76 107 139 168 212 260 302
#     4  10  21  34  47  70 106 142 175 218 267 317
#     4   9  18  33  53  76 100 131 174 220 260 307
#     4  10  22  38  56  80 111 142 169 212 257 302
#
# _framework density 19.011016999999999
#
# number of rings (size 3 to 8) (size 9 to 14) (size 15 to 20)
#    0.000    2.857    0.000    1.286    1.000    4.286 
#    5.143    2.857    0.000    0.000    0.000    0.000 
#    0.000    0.000    0.000    0.000    0.000    0.000 
#
# Total GULP energy -347064.445312 kJ/mol
# GULP energy per Si atom -12395.158761 kJ/mol
# Density = 1.896775 g / cm^3
# Si number density = 19.011017 Si / 1000 Ang^3
#
#
#
# Elastic Constant Matrix: (Units=GPa)
#
#
# Indices 1 2 3 4 5 6 
#
# 1 133.8782 34.0564 119.5445 0.0000 8.6957 0.0000
# 2 34.0564 57.8882 39.2563 0.0000 3.1807 0.0000
# 3 119.5445 39.2563 167.0432 0.0000 0.5264 0.0000
# 4 0.0000 0.0000 0.0000 17.4495 0.0000 -2.8614
# 5 8.6957 3.1807 0.5264 0.0000 48.2332 0.0000
# 6 0.0000 0.0000 0.0000 -2.8614 0.0000 9.8240
#
#
#
# Elastic Compliance Matrix: (Units=1/GPa)
#
#
# Indices 1 2 3 4 5 6 
#
# 1 0.021607 -0.002423 -0.014882 0.000000 -0.003573 0.000000
# 2 -0.002423 0.020903 -0.003176 0.000000 -0.000907 0.000000
# 3 -0.014882 -0.003176 0.017375 0.000000 0.002703 0.000000
# 4 0.000000 0.000000 0.000000 0.060183 0.000000 0.017529
# 5 -0.003573 -0.000907 0.002703 0.000000 0.021407 0.000000
# 6 0.000000 0.000000 0.000000 0.017529 0.000000 0.106898
#
#
# Mechanical properties :
#
#
# Convention : Reuss Voigt Hill
#
# Bulk Modulus (GPa) = 52.84470 82.72488 67.78479
# Shear Modulus (GPa) = 16.91235 26.16481 21.53858
#
# Velocity S-wave (km/s) = 2.98587 3.71387 3.36959
# Velocity P-wave (km/s) = 6.30432 7.87395 7.13244
#
# Compressibility (1/GPa) = 0.01892337
#
# Stress axis : x y z
#
# Youngs Moduli (GPa) = 46.28178 47.83888 57.55495
#
# Poissons Ratio (x) = 0.11591 0.85654
# Poissons Ratio (y) = 0.11214 0.18277
# Poissons Ratio (z) = 0.68878 0.15192
#
# Static dielectric constant tensor:
#      x y z
#    x 3.678290 0.000000 0.001230 
#    y 0.000000 3.442630 0.000000 
#    z 0.001230 0.000000 3.464200 
# 
# 
# High freq. dielectric constant tensor:
#      x y z
#    x 1.739660 0.000000 0.002040 
#    y 0.000000 1.735220 0.000000 
#    z 0.002040 0.000000 1.728570 
# 
# From -- ./inp_files/92037.got.cif
#   From: 2010.06.25/outbox.cif.g09.slc.cpg/sg10_47_cif.got.tgz:92037.got - 2010.06.27 22:07:45.
