data_PCOD8065412
_publ_section_title
;
Structure prediction by ZEFSAII (Michael W. Deem and Ramdas Pophale) SiO2 
 PCOD8065412
Probable space group: P 2/M
;
_chemical_formula_sum "Si O2"
_cell_formula_units_Z 28
_cell_length_a 12.536131
_cell_length_b 8.923047
_cell_length_c 14.628913
_cell_angle_alpha 90.000000
_cell_angle_beta 120.355841
_cell_angle_gamma 90.000000
_cell_volume 1412.052849
_symmetry_space_group_name_H-M "P 2/M"
_symmetry_group_IT_number 10
_symmetry_cell_setting 'monoclinic'
loop_
_space_group_symop_operation_xyz
x,y,z
-x,y,-z
-x,-y,-z
x,-y,z
loop_
_atom_site_type_symbol
_atom_site_label
_atom_site_fract_x
_atom_site_fract_y
_atom_site_fract_z
Si Si1 0.467407 0.673756 0.385916
Si Si2 0.543020 0.321896 0.922382
Si Si3 0.779986 0.172709 0.788832
Si Si4 0.186340 0.322083 0.010929
Si Si5 0.980543 0.173195 0.212405
Si Si6 0.652012 0.673266 0.309044
Si Si7 0.909006 0.177469 0.382937
O O1 0.500000 0.736396 0.500000
O O2 0.429043 0.500000 0.371756
O O3 0.352527 0.759856 0.292980
O O4 0.592311 0.697523 0.382427
O O5 0.545670 0.500000 0.925895
O O6 0.678463 0.261713 0.957975
O O7 0.447220 0.264606 0.805867
O O8 0.500000 0.254064 0.000000
O O9 0.844013 0.253647 0.903148
O O10 0.873111 0.192268 0.743478
O O11 0.761247 0.000000 0.805849
O O12 0.179712 0.500000 0.015765
O O13 0.092544 0.269187 0.893266
O O14 0.950836 0.236185 0.300978
O O15 0.940631 0.000000 0.186009
O O16 0.684636 0.500000 0.305006
O O17 0.773330 0.770314 0.350538
O O18 0.000000 0.242944 0.500000
O O19 0.912930 0.000000 0.385109
#
# Coordination Sequence:
#
# PCOD8065412 Si02
#       7
#     4   4   4   4   4   4   4
#     4  10  22  40  62  89 121 155 195 249 301 348
#     4   9  17  31  54  82 114 148 183 230 286 343
#     4  11  23  39  61  88 122 161 199 243 297 357
#     4  11  21  37  61  89 120 156 198 243 298 359
#     4  10  23  41  58  84 122 160 200 249 298 348
#     4  10  20  38  60  86 119 150 190 244 298 348
#     4  10  23  42  62  84 117 159 202 247 294 348
#
# _framework density 19.829287999999998
#
# number of rings (size 3 to 8) (size 9 to 14) (size 15 to 20)
#    0.000    1.857    1.429    2.143    2.000    5.714 
#    0.000    0.000    0.000    3.000    0.000    0.000 
#    0.000    0.000    0.000    0.000    0.000    0.000 
#
# Total GULP energy -347261.070143 kJ/mol
# GULP energy per Si atom -12402.181077 kJ/mol
# Density = 1.978416 g / cm^3
# Si number density = 19.829288 Si / 1000 Ang^3
#
#
#
# Elastic Constant Matrix: (Units=GPa)
#
#
# Indices 1 2 3 4 5 6 
#
# 1 111.8402 24.2496 43.6857 0.0000 -8.2362 0.0000
# 2 24.2496 50.8647 31.7667 0.0000 -2.7330 0.0000
# 3 43.6857 31.7667 117.6405 0.0000 -18.9285 0.0000
# 4 0.0000 0.0000 0.0000 26.1799 0.0000 5.8770
# 5 -8.2362 -2.7330 -18.9285 0.0000 37.6057 0.0000
# 6 0.0000 0.0000 0.0000 5.8770 0.0000 30.6108
#
#
#
# Elastic Compliance Matrix: (Units=1/GPa)
#
#
# Indices 1 2 3 4 5 6 
#
# 1 0.010888 -0.003240 -0.003071 0.000000 0.000603 0.000000
# 2 -0.003240 0.024704 -0.005759 0.000000 -0.001813 0.000000
# 3 -0.003071 -0.005759 0.011992 0.000000 0.004945 0.000000
# 4 0.000000 0.000000 0.000000 0.039918 0.000000 -0.007664
# 5 0.000603 -0.001813 0.004945 0.000000 0.029081 0.000000
# 6 0.000000 0.000000 0.000000 -0.007664 0.000000 0.034140
#
#
# Mechanical properties :
#
#
# Convention : Reuss Voigt Hill
#
# Bulk Modulus (GPa) = 42.65803 53.30547 47.98175
# Shear Modulus (GPa) = 27.37051 30.92216 29.14634
#
# Velocity S-wave (km/s) = 3.71928 3.95323 3.83804
# Velocity P-wave (km/s) = 6.32482 6.91216 6.62500
#
# Compressibility (1/GPa) = 0.02344224
#
# Stress axis : x y z
#
# Youngs Moduli (GPa) = 91.84454 40.47871 83.39032
#
# Poissons Ratio (x) = 0.13116 0.25611
# Poissons Ratio (y) = 0.29761 0.48028
# Poissons Ratio (z) = 0.28207 0.23313
#
# Static dielectric constant tensor:
#      x y z
#    x 3.808910 0.000000 -0.176280 
#    y 0.000000 3.367270 0.000000 
#    z -0.176280 0.000000 3.815470 
# 
# 
# High freq. dielectric constant tensor:
#      x y z
#    x 1.789400 0.000000 -0.005850 
#    y 0.000000 1.751560 0.000000 
#    z -0.005850 0.000000 1.780650 
# 
# From -- ./inp_files/63629.got.cif
#   From: 2010.06.25/outbox.cif.g09.slc.cpg/sg10_32_cif.got.tgz:63629.got - 2010.06.27 22:07:45.
