data_PCOD8065912
_publ_section_title
;
Structure prediction by ZEFSAII (Michael W. Deem and Ramdas Pophale) SiO2 
 PCOD8065912
Probable space group: P 2/M
;
_chemical_formula_sum "Si O2"
_cell_formula_units_Z 28
_cell_length_a 14.838893
_cell_length_b 9.351619
_cell_length_c 11.782916
_cell_angle_alpha 90.000000
_cell_angle_beta 118.718615
_cell_angle_gamma 90.000000
_cell_volume 1433.955845
_symmetry_space_group_name_H-M "P 2/M"
_symmetry_group_IT_number 10
_symmetry_cell_setting 'monoclinic'
loop_
_space_group_symop_operation_xyz
x,y,z
-x,y,-z
-x,-y,-z
x,-y,z
loop_
_atom_site_type_symbol
_atom_site_label
_atom_site_fract_x
_atom_site_fract_y
_atom_site_fract_z
Si Si1 0.999747 0.663178 0.871351
Si Si2 0.697044 0.836688 0.770950
Si Si3 0.619563 0.835396 0.079051
Si Si4 0.499388 0.340173 0.366003
Si Si5 0.228518 0.664189 0.989960
Si Si6 0.324633 0.162793 0.630146
Si Si7 0.832610 0.159572 0.643512
O O1 0.963277 0.500000 0.860070
O O2 0.922493 0.737140 0.737118
O O3 0.110790 0.675100 0.876872
O O4 0.000000 0.729195 0.000000
O O5 0.586530 0.768784 0.728682
O O6 0.776671 0.744624 0.892556
O O7 0.731583 0.824420 0.661708
O O8 0.693742 0.000000 0.810865
O O9 0.669969 0.813900 0.232523
O O10 0.626568 0.000000 0.044089
O O11 0.500000 0.785497 0.000000
O O12 0.688697 0.739536 0.039713
O O13 0.500000 0.346039 0.500000
O O14 0.480725 0.500000 0.305853
O O15 0.606139 0.281406 0.386223
O O16 0.261968 0.500000 0.025498
O O17 0.209153 0.189191 0.509900
O O18 0.359198 0.000000 0.620525
O O19 0.877857 0.000000 0.680706
#
# Coordination Sequence:
#
# PCOD8065912 Si02
#       7
#     4   4   4   4   4   4   4
#     4  10  21  38  59  85 120 157 192 242 301 354
#     4  11  21  34  55  83 117 154 193 238 293 352
#     4  10  22  41  64  88 116 156 202 245 294 352
#     4  11  22  33  51  83 119 154 192 235 291 356
#     4  11  23  39  61  88 118 153 197 246 300 353
#     4  10  21  39  59  83 119 157 198 248 298 348
#     4  10  21  35  56  86 116 152 194 240 293 350
#
# _framework density 19.526403999999999
#
# number of rings (size 3 to 8) (size 9 to 14) (size 15 to 20)
#    0.000    1.571    2.857    2.143    0.000    5.143 
#    0.000    0.714    0.000    4.286    0.000    0.000 
#    0.000    0.000    0.000    0.000    0.000    0.000 
#
# Total GULP energy -347109.558607 kJ/mol
# GULP energy per Si atom -12396.769950 kJ/mol
# Density = 1.948196 g / cm^3
# Si number density = 19.526404 Si / 1000 Ang^3
#
#
#
# Elastic Constant Matrix: (Units=GPa)
#
#
# Indices 1 2 3 4 5 6 
#
# 1 74.5148 44.6128 29.3655 0.0000 10.6914 0.0000
# 2 44.6128 116.2603 46.4098 0.0000 10.7540 0.0000
# 3 29.3655 46.4098 123.0220 0.0000 13.8372 0.0000
# 4 0.0000 0.0000 0.0000 27.2671 0.0000 11.1516
# 5 10.6914 10.7540 13.8372 0.0000 28.8831 0.0000
# 6 0.0000 0.0000 0.0000 11.1516 0.0000 29.8674
#
#
#
# Elastic Compliance Matrix: (Units=1/GPa)
#
#
# Indices 1 2 3 4 5 6 
#
# 1 0.018184 -0.005967 -0.001672 0.000000 -0.003708 0.000000
# 2 -0.005967 0.012201 -0.003082 0.000000 -0.000857 0.000000
# 3 -0.001672 -0.003082 0.010032 0.000000 -0.003040 0.000000
# 4 0.000000 0.000000 0.000000 0.043284 0.000000 -0.016161
# 5 -0.003708 -0.000857 -0.003040 0.000000 0.037770 0.000000
# 6 0.000000 0.000000 0.000000 -0.016161 0.000000 0.039515
#
#
# Mechanical properties :
#
#
# Convention : Reuss Voigt Hill
#
# Bulk Modulus (GPa) = 52.70326 61.61925 57.16125
# Shear Modulus (GPa) = 26.48954 30.09746 28.29350
#
# Velocity S-wave (km/s) = 3.68720 3.93029 3.81069
# Velocity P-wave (km/s) = 6.72136 7.22645 6.97848
#
# Compressibility (1/GPa) = 0.01897416
#
# Stress axis : x y z
#
# Youngs Moduli (GPa) = 54.99398 81.96226 99.67743
#
# Poissons Ratio (x) = 0.48908 0.16669
# Poissons Ratio (y) = 0.32816 0.30720
# Poissons Ratio (z) = 0.09197 0.25260
#
# Static dielectric constant tensor:
#      x y z
#    x 4.013470 0.000000 0.383340 
#    y 0.000000 3.666670 0.000000 
#    z 0.383340 0.000000 3.828820 
# 
# 
# High freq. dielectric constant tensor:
#      x y z
#    x 1.738730 0.000000 0.011810 
#    y 0.000000 1.766100 0.000000 
#    z 0.011810 0.000000 1.763790 
# 
# From -- ./inp_files/49565.got.cif
#   From: 2010.06.25/outbox.cif.g09.slc.cpg/sg10_25_cif.got.tgz:49565.got - 2010.06.27 22:07:45.
