data_PCOD8065848
_publ_section_title
;
Structure prediction by ZEFSAII (Michael W. Deem and Ramdas Pophale) SiO2 
 PCOD8065848
Probable space group: P 2/M
;
_chemical_formula_sum "Si O2"
_cell_formula_units_Z 32
_cell_length_a 15.090282
_cell_length_b 13.614696
_cell_length_c 13.278180
_cell_angle_alpha 90.000000
_cell_angle_beta 138.616140
_cell_angle_gamma 90.000000
_cell_volume 1803.480143
_symmetry_space_group_name_H-M "P 2/M"
_symmetry_group_IT_number 10
_symmetry_cell_setting 'monoclinic'
loop_
_space_group_symop_operation_xyz
x,y,z
-x,y,-z
-x,-y,-z
x,-y,z
loop_
_atom_site_type_symbol
_atom_site_label
_atom_site_fract_x
_atom_site_fract_y
_atom_site_fract_z
Si Si1 0.855196 0.887499 0.922444
Si Si2 0.373686 0.388848 0.755937
Si Si3 0.490937 0.885458 0.104864
Si Si4 0.712902 0.796977 0.426855
Si Si5 0.356666 0.886872 0.425853
Si Si6 0.012128 0.114190 0.393942
Si Si7 0.216216 0.199852 0.932757
Si Si8 0.319003 0.611249 0.937816
O O1 0.750718 0.856102 0.748695
O O2 0.831277 0.000000 0.937198
O O3 0.840976 0.815299 0.004677
O O4 0.000000 0.873025 0.000000
O O5 0.350846 0.500000 0.699091
O O6 0.305735 0.317423 0.616509
O O7 0.306064 0.373429 0.807061
O O8 0.530775 0.364880 0.897887
O O9 0.630687 0.863685 0.278505
O O10 0.464730 0.000000 0.078529
O O11 0.500000 0.841097 0.000000
O O12 0.368378 0.837742 0.059789
O O13 0.659148 0.815599 0.492884
O O14 0.868993 0.824056 0.555135
O O15 0.500000 0.869269 0.500000
O O16 0.337191 0.000000 0.443657
O O17 0.000000 0.141694 0.500000
O O18 0.872342 0.140495 0.222574
O O19 0.043331 0.000000 0.404262
O O20 0.215906 0.315688 0.905643
O O21 0.279826 0.500000 0.933322
#
# Coordination Sequence:
#
# PCOD8065848 Si02
#       8
#     4   4   4   4   4   4   4   4
#     4  10  21  37  55  75 103 144 194 236 267 315
#     4   9  18  34  57  84 112 142 180 227 276 331
#     4  11  21  31  49  80 111 139 178 221 265 332
#     4  12  21  35  56  76 108 150 182 219 279 330
#     4  10  21  35  51  75 106 139 181 233 280 320
#     4  11  23  35  49  78 119 152 176 210 268 341
#     4  12  21  35  58  80 107 148 190 227 273 325
#     4   9  18  34  57  85 112 139 180 231 278 326
#
# _framework density 17.743472000000001
#
# number of rings (size 3 to 8) (size 9 to 14) (size 15 to 20)
#    0.000    1.500    1.250    6.750    0.000    4.000 
#    0.000    0.625    0.000    3.750    0.000    0.000 
#    0.000    0.000    0.000    0.000    0.000    0.000 
#
# Total GULP energy -396947.190172 kJ/mol
# GULP energy per Si atom -12404.599693 kJ/mol
# Density = 1.770309 g / cm^3
# Si number density = 17.743472 Si / 1000 Ang^3
#
#
#
# Elastic Constant Matrix: (Units=GPa)
#
#
# Indices 1 2 3 4 5 6 
#
# 1 72.6554 43.8436 34.0900 0.0000 -16.7266 0.0000
# 2 43.8436 97.2147 34.4398 0.0000 -16.1924 0.0000
# 3 34.0900 34.4398 84.3282 0.0000 -7.4930 0.0000
# 4 0.0000 0.0000 0.0000 27.8236 0.0000 -1.5556
# 5 -16.7266 -16.1924 -7.4930 0.0000 29.5666 0.0000
# 6 0.0000 0.0000 0.0000 -1.5556 0.0000 29.7250
#
#
#
# Elastic Compliance Matrix: (Units=1/GPa)
#
#
# Indices 1 2 3 4 5 6 
#
# 1 0.022170 -0.006807 -0.005523 0.000000 0.007414 0.000000
# 2 -0.006807 0.015046 -0.003072 0.000000 0.003611 0.000000
# 3 -0.005523 -0.003072 0.015263 0.000000 -0.000939 0.000000
# 4 0.000000 0.000000 0.000000 0.036046 0.000000 0.001886
# 5 0.007414 0.003611 -0.000939 0.000000 0.039756 0.000000
# 6 0.000000 0.000000 0.000000 0.001886 0.000000 0.033740
#
#
# Mechanical properties :
#
#
# Convention : Reuss Voigt Hill
#
# Bulk Modulus (GPa) = 46.13986 53.21613 49.67800
# Shear Modulus (GPa) = 24.99367 26.87802 25.93584
#
# Velocity S-wave (km/s) = 3.75722 3.89628 3.82738
# Velocity P-wave (km/s) = 6.69945 7.09214 6.89859
#
# Compressibility (1/GPa) = 0.02167323
#
# Stress axis : x y z
#
# Youngs Moduli (GPa) = 45.10675 66.46192 65.51948
#
# Poissons Ratio (x) = 0.45239 0.36190
# Poissons Ratio (y) = 0.30703 0.20130
# Poissons Ratio (z) = 0.24915 0.20420
#
# Static dielectric constant tensor:
#      x y z
#    x 3.184630 0.000000 0.020320 
#    y 0.000000 3.271910 0.000000 
#    z 0.020320 0.000000 3.271720 
# 
# 
# High freq. dielectric constant tensor:
#      x y z
#    x 1.680050 0.000000 0.003980 
#    y 0.000000 1.673910 0.000000 
#    z 0.003980 0.000000 1.686170 
# 
# From -- ./inp_files/29467.got.cif
#   From: 2010.06.25/outbox.cif.g09.slc.cpg/sg10_15_cif.got.tgz:29467.got - 2010.06.27 22:07:45.
