data_PCOD8065547
_publ_section_title
;
Structure prediction by ZEFSAII (Michael W. Deem and Ramdas Pophale) SiO2 
 PCOD8065547
Probable space group: P 2/M
;
_chemical_formula_sum "Si O2"
_cell_formula_units_Z 28
_cell_length_a 8.098110
_cell_length_b 13.132007
_cell_length_c 12.967342
_cell_angle_alpha 90.000000
_cell_angle_beta 77.915380
_cell_angle_gamma 90.000000
_cell_volume 1348.445212
_symmetry_space_group_name_H-M "P 2/M"
_symmetry_group_IT_number 10
_symmetry_cell_setting 'monoclinic'
loop_
_space_group_symop_operation_xyz
x,y,z
-x,y,-z
-x,-y,-z
x,-y,z
loop_
_atom_site_type_symbol
_atom_site_label
_atom_site_fract_x
_atom_site_fract_y
_atom_site_fract_z
Si Si1 0.228448 0.195484 0.281913
Si Si2 0.042893 0.383497 0.377226
Si Si3 0.713954 0.616373 0.280319
Si Si4 0.538609 0.801103 0.377622
Si Si5 0.859698 0.256071 0.090100
Si Si6 0.690959 0.886617 0.949271
Si Si7 0.101009 0.115237 0.733463
O O1 0.193922 0.314480 0.312343
O O2 0.381005 0.154482 0.333576
O O3 0.286859 0.178229 0.157562
O O4 0.051267 0.135276 0.328831
O O5 0.105212 0.500000 0.364451
O O6 0.000000 0.351577 0.500000
O O7 0.878312 0.366946 0.328826
O O8 0.656002 0.500000 0.282970
O O9 0.561249 0.681065 0.349592
O O10 0.748796 0.656612 0.159472
O O11 0.500000 0.820752 0.500000
O O12 0.713226 0.857639 0.330176
O O13 0.952432 0.186279 0.163481
O O14 0.752479 0.178277 0.037764
O O15 0.000000 0.310396 0.000000
O O16 0.777069 0.000000 0.928120
O O17 0.500000 0.906399 0.000000
O O18 0.102990 0.000000 0.769354
#
# Coordination Sequence:
#
# PCOD8065547 Si02
#       7
#     4   4   4   4   4   4   4
#     4  12  23  40  68  94 129 166 215 268 321 369
#     4  10  20  38  67  96 125 166 215 262 316 380
#     4  10  21  40  62  93 131 165 210 262 319 380
#     4  11  25  43  66  93 129 172 212 265 322 379
#     4  11  20  37  62  90 124 165 207 262 315 371
#     4  11  23  39  62  92 124 166 215 262 314 377
#     4  11  24  42  63  94 128 167 216 264 315 378
#
# _framework density 20.764655000000001
#
# number of rings (size 3 to 8) (size 9 to 14) (size 15 to 20)
#    0.000    1.143    4.286    3.429    0.000    4.286 
#    0.000    1.429    0.000    1.714    0.000    0.000 
#    0.000    0.000    0.000    0.000    0.000    0.000 
#
# Total GULP energy -347080.548628 kJ/mol
# GULP energy per Si atom -12395.733880 kJ/mol
# Density = 2.071739 g / cm^3
# Si number density = 20.764655 Si / 1000 Ang^3
#
#
#
# Elastic Constant Matrix: (Units=GPa)
#
#
# Indices 1 2 3 4 5 6 
#
# 1 127.2868 21.4654 41.2291 0.0000 3.6739 0.0000
# 2 21.4654 84.2396 34.5984 0.0000 2.2495 0.0000
# 3 41.2291 34.5984 121.7976 0.0000 8.7331 0.0000
# 4 0.0000 0.0000 0.0000 49.2141 0.0000 -9.8125
# 5 3.6739 2.2495 8.7331 0.0000 24.7105 0.0000
# 6 0.0000 0.0000 0.0000 -9.8125 0.0000 24.4078
#
#
#
# Elastic Compliance Matrix: (Units=1/GPa)
#
#
# Indices 1 2 3 4 5 6 
#
# 1 0.008926 -0.001171 -0.002669 0.000000 -0.000277 0.000000
# 2 -0.001171 0.013593 -0.003477 0.000000 0.000165 0.000000
# 3 -0.002669 -0.003477 0.010312 0.000000 -0.002931 0.000000
# 4 0.000000 0.000000 0.000000 0.022090 0.000000 0.008881
# 5 -0.000277 0.000165 -0.002931 0.000000 0.041531 0.000000
# 6 0.000000 0.000000 0.000000 0.008881 0.000000 0.044541
#
#
# Mechanical properties :
#
#
# Convention : Reuss Voigt Hill
#
# Bulk Modulus (GPa) = 54.95344 58.65663 56.80504
# Shear Modulus (GPa) = 30.92313 35.40189 33.16251
#
# Velocity S-wave (km/s) = 3.86323 4.13354 4.00067
# Velocity P-wave (km/s) = 6.81335 7.14781 6.98258
#
# Compressibility (1/GPa) = 0.01819722
#
# Stress axis : x y z
#
# Youngs Moduli (GPa) = 112.02881 73.56835 96.97791
#
# Poissons Ratio (x) = 0.08614 0.25884
# Poissons Ratio (y) = 0.13117 0.33717
# Poissons Ratio (z) = 0.29902 0.25578
#
# Static dielectric constant tensor:
#      x y z
#    x 4.018720 0.000000 0.030190 
#    y 0.000000 3.823540 0.000000 
#    z 0.030190 0.000000 3.832730 
# 
# 
# High freq. dielectric constant tensor:
#      x y z
#    x 1.821370 0.000000 -0.001220 
#    y 0.000000 1.805370 0.000000 
#    z -0.001220 0.000000 1.813060 
# 
# From -- ./inp_files/42674.got.cif
#   From: 2010.06.25/outbox.cif.g09.slc.cpg/sg10_22_cif.got.tgz:42674.got - 2010.06.27 22:07:45.
