data_PCOD8065813
_publ_section_title
;
Structure prediction by ZEFSAII (Michael W. Deem and Ramdas Pophale) SiO2 
 PCOD8065813
Probable space group: P 2/M
;
_chemical_formula_sum "Si O2"
_cell_formula_units_Z 28
_cell_length_a 19.981269
_cell_length_b 9.871697
_cell_length_c 23.045910
_cell_angle_alpha 90.000000
_cell_angle_beta 159.819243
_cell_angle_gamma 90.000000
_cell_volume 1568.217942
_symmetry_space_group_name_H-M "P 2/M"
_symmetry_group_IT_number 10
_symmetry_cell_setting 'monoclinic'
loop_
_space_group_symop_operation_xyz
x,y,z
-x,y,-z
-x,-y,-z
x,-y,z
loop_
_atom_site_type_symbol
_atom_site_label
_atom_site_fract_x
_atom_site_fract_y
_atom_site_fract_z
Si Si1 0.576739 0.660965 0.736527
Si Si2 0.616508 0.338520 0.538835
Si Si3 0.279957 0.651065 0.965807
Si Si4 0.951854 0.149195 0.523549
Si Si5 0.662491 0.348935 0.348342
Si Si6 0.333062 0.850805 0.904757
Si Si7 0.056100 0.339035 0.896312
O O1 0.587684 0.500000 0.743255
O O2 0.498626 0.718562 0.611430
O O3 0.421762 0.705214 0.659155
O O4 0.793839 0.714889 0.931281
O O5 0.500000 0.287090 0.500000
O O6 0.623116 0.500000 0.541038
O O7 0.837036 0.281438 0.724231
O O8 0.217207 0.500000 0.894426
O O9 0.273707 0.752872 0.907947
O O10 0.133940 0.705214 0.896546
O O11 0.495907 0.645516 0.165302
O O12 0.823572 0.247128 0.457813
O O13 0.000000 0.213990 0.500000
O O14 0.150590 0.128288 0.716863
O O15 0.852055 0.000000 0.434973
O O16 0.751134 0.500000 0.428354
O O17 0.399190 0.000000 0.982108
O O18 0.500000 0.786011 0.000000
O O19 0.054394 0.500000 0.898823
#
# Coordination Sequence:
#
# PCOD8065813 Si02
#       7
#     4   4   4   4   4   4   4
#     4   8  15  27  41  61  91 123 157 198 240 283
#     4   9  16  24  38  62  91 127 165 195 235 291
#     4   9  18  32  50  71  94 124 162 201 242 289
#     4  10  21  35  50  69  94 125 159 197 244 293
#     4   9  18  32  50  71  94 124 162 201 242 289
#     4  10  21  35  50  69  94 125 159 197 244 293
#     4   8  15  27  41  61  91 123 157 198 240 283
#
# _framework density 17.854659999999999
#
# number of rings (size 3 to 8) (size 9 to 14) (size 15 to 20)
#    0.000    3.000    0.000    2.571    2.000    3.429 
#    0.000    2.857    0.000    0.000    0.000    0.000 
#    0.000    2.286    0.000    6.286    0.000    6.286 
#
# Total GULP energy -346956.769162 kJ/mol
# GULP energy per Si atom -12391.313184 kJ/mol
# Density = 1.781402 g / cm^3
# Si number density = 17.854660 Si / 1000 Ang^3
#
#
#
# Elastic Constant Matrix: (Units=GPa)
#
#
# Indices 1 2 3 4 5 6 
#
# 1 130.5010 34.4476 76.8931 0.0000 -3.8325 0.0000
# 2 34.4476 37.4069 26.5181 0.0000 1.6170 0.0000
# 3 76.8931 26.5181 116.1365 0.0000 6.7619 0.0000
# 4 0.0000 0.0000 0.0000 12.7931 0.0000 -3.7458
# 5 -3.8325 1.6170 6.7619 0.0000 34.0364 0.0000
# 6 0.0000 0.0000 0.0000 -3.7458 0.0000 -5.5786
#
#
#
# Elastic Compliance Matrix: (Units=1/GPa)
#
#
# Indices 1 2 3 4 5 6 
#
# 1 0.014616 -0.007882 -0.008088 0.000000 0.003627 0.000000
# 2 -0.007882 0.036147 -0.002917 0.000000 -0.002025 0.000000
# 3 -0.008088 -0.002917 0.014849 0.000000 -0.003722 0.000000
# 4 0.000000 0.000000 0.000000 0.065324 0.000000 -0.043863
# 5 0.003627 -0.002025 -0.003722 0.000000 0.030624 0.000000
# 6 0.000000 0.000000 0.000000 -0.043863 0.000000 -0.149806
#
#
# Mechanical properties :
#
#
# Convention : Reuss Voigt Hill
#
# Bulk Modulus (GPa) = 35.92440 62.19577 49.06009
# Shear Modulus (GPa) = 85.02267 17.99592 51.50929
#
# Velocity S-wave (km/s) = 6.90816 3.17821 5.37697
# Velocity P-wave (km/s) = 9.15393 6.95544 8.12934
#
# Compressibility (1/GPa) = 0.02783623
#
# Stress axis : x y z
#
# Youngs Moduli (GPa) = 68.41960 27.66469 67.34684
#
# Poissons Ratio (x) = 0.21806 0.54472
# Poissons Ratio (y) = 0.53931 0.19645
# Poissons Ratio (z) = 0.55340 0.08070
#
# Static dielectric constant tensor:
#      x y z
#    x 3.285980 0.000000 -0.078290 
#    y 0.000000 3.280690 0.000000 
#    z -0.078290 0.000000 3.669940 
# 
# 
# High freq. dielectric constant tensor:
#      x y z
#    x 1.691710 0.000000 -0.002220 
#    y 0.000000 1.631160 0.000000 
#    z -0.002220 0.000000 1.702580 
# 
# From -- ./inp_files/79497.got.cif
#   From: 2010.06.25/outbox.cif.g09.slc.cpg/sg10_40_cif.got.tgz:79497.got - 2010.06.27 22:07:45.
