data_PCOD8065670
_publ_section_title
;
Structure prediction by ZEFSAII (Michael W. Deem and Ramdas Pophale) SiO2 
 PCOD8065670
Probable space group: P 2/M
;
_chemical_formula_sum "Si O2"
_cell_formula_units_Z 24
_cell_length_a 12.386986
_cell_length_b 8.546624
_cell_length_c 12.309818
_cell_angle_alpha 90.000000
_cell_angle_beta 109.039601
_cell_angle_gamma 90.000000
_cell_volume 1231.908549
_symmetry_space_group_name_H-M "P 2/M"
_symmetry_group_IT_number 10
_symmetry_cell_setting 'monoclinic'
loop_
_space_group_symop_operation_xyz
x,y,z
-x,y,-z
-x,-y,-z
x,-y,z
loop_
_atom_site_type_symbol
_atom_site_label
_atom_site_fract_x
_atom_site_fract_y
_atom_site_fract_z
Si Si1 0.877137 0.817815 0.003707
Si Si2 0.741061 0.680686 0.774594
Si Si3 0.488346 0.818319 0.372463
Si Si4 0.117776 0.319517 0.760884
Si Si5 0.883097 0.182310 0.629700
Si Si6 0.261547 0.181237 0.625660
O O1 0.779420 0.721028 0.909368
O O2 0.857446 0.000000 0.975623
O O3 0.867746 0.784604 0.127731
O O4 0.000000 0.762666 0.000000
O O5 0.763254 0.500000 0.756149
O O6 0.607755 0.718708 0.719541
O O7 0.815949 0.785196 0.718272
O O8 0.500000 0.760067 0.500000
O O9 0.604931 0.787709 0.346788
O O10 0.452950 0.000000 0.359907
O O11 0.119017 0.500000 0.794703
O O12 0.221968 0.283761 0.714359
O O13 0.000085 0.278264 0.661588
O O14 0.804848 0.235622 0.503932
O O15 0.913327 0.000000 0.634443
O O16 0.236353 0.000000 0.641176
#
# Coordination Sequence:
#
# PCOD8065670 Si02
#       6
#     4   4   4   4   4   4
#     4  11  23  41  66  88 115 161 208 248 293 361
#     4  12  24  37  60  95 128 155 194 254 313 355
#     4  10  20  40  65  89 119 162 210 249 289 353
#     4  12  25  39  59  91 129 160 195 252 313 363
#     4  11  21  38  62  89 122 163 207 247 293 360
#     4  10  22  40  63  88 121 165 209 248 291 356
#
# _framework density 19.481964999999999
#
# number of rings (size 3 to 8) (size 9 to 14) (size 15 to 20)
#    0.000    1.000    3.333    4.500    0.000    5.000 
#    0.000    0.833    0.000    5.000    0.000    0.000 
#    0.000    0.000    0.000    0.000    0.000    0.000 
#
# Total GULP energy -297801.343205 kJ/mol
# GULP energy per Si atom -12408.389300 kJ/mol
# Density = 1.943762 g / cm^3
# Si number density = 19.481965 Si / 1000 Ang^3
#
#
#
# Elastic Constant Matrix: (Units=GPa)
#
#
# Indices 1 2 3 4 5 6 
#
# 1 96.2989 32.3264 34.8114 0.0000 5.7853 0.0000
# 2 32.3264 64.9008 30.8813 0.0000 5.5861 0.0000
# 3 34.8114 30.8813 93.5260 0.0000 10.2492 0.0000
# 4 0.0000 0.0000 0.0000 14.9545 0.0000 -0.3117
# 5 5.7853 5.5861 10.2492 0.0000 33.7552 0.0000
# 6 0.0000 0.0000 0.0000 -0.3117 0.0000 24.6068
#
#
#
# Elastic Compliance Matrix: (Units=1/GPa)
#
#
# Indices 1 2 3 4 5 6 
#
# 1 0.013268 -0.005034 -0.003226 0.000000 -0.000462 0.000000
# 2 -0.005034 0.020240 -0.004693 0.000000 -0.001062 0.000000
# 3 -0.003226 -0.004693 0.013754 0.000000 -0.002847 0.000000
# 4 0.000000 0.000000 0.000000 0.066887 0.000000 0.000847
# 5 -0.000462 -0.001062 -0.002847 0.000000 0.030744 0.000000
# 6 0.000000 0.000000 0.000000 0.000847 0.000000 0.040650
#
#
# Mechanical properties :
#
#
# Convention : Reuss Voigt Hill
#
# Bulk Modulus (GPa) = 46.82327 50.08489 48.45408
# Shear Modulus (GPa) = 22.87618 25.11041 23.99330
#
# Velocity S-wave (km/s) = 3.43041 3.59403 3.51317
# Velocity P-wave (km/s) = 6.30687 6.55644 6.43286
#
# Compressibility (1/GPa) = 0.02135690
#
# Stress axis : x y z
#
# Youngs Moduli (GPa) = 75.36926 49.40732 72.70401
#
# Poissons Ratio (x) = 0.24872 0.23452
# Poissons Ratio (y) = 0.37941 0.34119
# Poissons Ratio (z) = 0.24312 0.23186
#
# Static dielectric constant tensor:
#      x y z
#    x 3.527910 0.000000 0.085860 
#    y 0.000000 3.452190 0.000000 
#    z 0.085860 0.000000 3.568610 
# 
# 
# High freq. dielectric constant tensor:
#      x y z
#    x 1.756560 0.000000 0.003330 
#    y 0.000000 1.757920 0.000000 
#    z 0.003330 0.000000 1.759170 
# 
# From -- ./inp_files/45047.got.cif
#   From: 2010.06.25/outbox.cif.g09.slc.cpg/sg10_23_cif.got.tgz:45047.got - 2010.06.27 22:07:45.
