data_PCOD8065673
_publ_section_title
;
Structure prediction by ZEFSAII (Michael W. Deem and Ramdas Pophale) SiO2 
 PCOD8065673
Probable space group: P 2/M
;
_chemical_formula_sum "Si O2"
_cell_formula_units_Z 20
_cell_length_a 12.482511
_cell_length_b 9.452626
_cell_length_c 18.699356
_cell_angle_alpha 90.000000
_cell_angle_beta 23.253502
_cell_angle_gamma 90.000000
_cell_volume 871.080399
_symmetry_space_group_name_H-M "P 2/M"
_symmetry_group_IT_number 10
_symmetry_cell_setting 'monoclinic'
loop_
_space_group_symop_operation_xyz
x,y,z
-x,y,-z
-x,-y,-z
x,-y,z
loop_
_atom_site_type_symbol
_atom_site_label
_atom_site_fract_x
_atom_site_fract_y
_atom_site_fract_z
Si Si1 0.584672 0.215808 0.221608
Si Si2 0.026406 0.336081 0.218547
Si Si3 0.012236 0.155722 0.617229
Si Si4 0.404656 0.346548 0.198561
Si Si5 0.878340 0.157977 0.178304
O O1 0.307600 0.129571 0.402013
O O2 0.510663 0.349086 0.216096
O O3 0.710535 0.249661 0.222486
O O4 0.812468 0.130604 0.037268
O O5 0.932527 0.500000 0.276643
O O6 0.964969 0.264185 0.331516
O O7 0.857291 0.248914 0.263201
O O8 0.346313 0.323817 0.008288
O O9 0.813000 0.223342 0.680434
O O10 0.901938 0.000000 0.707570
O O11 0.271661 0.500000 0.265265
O O12 0.751865 0.000000 0.266588
#
# Coordination Sequence:
#
# PCOD8065673 Si02
#       5
#     4   4   4   4   4
#     4  10  22  38  62  91 119 151 193 242 293 346
#     4  10  23  42  61  84 118 158 198 239 289 349
#     4  12  24  37  59  91 122 152 194 245 293 344
#     4  10  23  42  62  85 118 159 198 238 289 350
#     4  10  20  40  66  87 115 154 196 241 291 346
#
# _framework density 22.959993000000001
#
# number of rings (size 3 to 8) (size 9 to 14) (size 15 to 20)
#    0.000    1.600    0.000    4.800    0.000   12.800 
#    0.000    7.000    0.000    0.000    0.000    0.000 
#    0.000    0.000    0.000    0.000    0.000    0.000 
#
# Total GULP energy -247816.317535 kJ/mol
# GULP energy per Si atom -12390.815877 kJ/mol
# Density = 2.290773 g / cm^3
# Si number density = 22.959993 Si / 1000 Ang^3
#
#
#
# Elastic Constant Matrix: (Units=GPa)
#
#
# Indices 1 2 3 4 5 6 
#
# 1 141.3734 60.5071 21.4976 0.0000 -3.7598 0.0000
# 2 60.5071 140.2709 25.3975 0.0000 4.3111 0.0000
# 3 21.4976 25.3975 59.1303 0.0000 -1.2555 0.0000
# 4 0.0000 0.0000 0.0000 10.6542 0.0000 -8.0467
# 5 -3.7598 4.3111 -1.2555 0.0000 19.9000 0.0000
# 6 0.0000 0.0000 0.0000 -8.0467 0.0000 16.6120
#
#
#
# Elastic Compliance Matrix: (Units=1/GPa)
#
#
# Indices 1 2 3 4 5 6 
#
# 1 0.008941 -0.003633 -0.001640 0.000000 0.002373 0.000000
# 2 -0.003633 0.009278 -0.002725 0.000000 -0.002868 0.000000
# 3 -0.001640 -0.002725 0.018709 0.000000 0.001461 0.000000
# 4 0.000000 0.000000 0.000000 0.148008 0.000000 0.071694
# 5 0.002373 -0.002868 0.001461 0.000000 0.051413 0.000000
# 6 0.000000 0.000000 0.000000 0.071694 0.000000 0.094925
#
#
# Mechanical properties :
#
#
# Convention : Reuss Voigt Hill
#
# Bulk Modulus (GPa) = 47.77236 61.73099 54.75168
# Shear Modulus (GPa) = 14.11444 24.99141 19.55293
#
# Velocity S-wave (km/s) = 2.48209 3.30279 2.92140
# Velocity P-wave (km/s) = 5.39132 6.44121 5.93951
#
# Compressibility (1/GPa) = 0.02093261
#
# Stress axis : x y z
#
# Youngs Moduli (GPa) = 111.84831 107.78659 53.44886
#
# Poissons Ratio (x) = 0.39155 0.08765
# Poissons Ratio (y) = 0.40631 0.14565
# Poissons Ratio (z) = 0.18341 0.29373
#
# Static dielectric constant tensor:
#      x y z
#    x 4.175710 0.000000 -0.108120 
#    y 0.000000 3.888420 0.000000 
#    z -0.108120 0.000000 4.093530 
# 
# 
# High freq. dielectric constant tensor:
#      x y z
#    x 1.915260 0.000000 -0.001960 
#    y 0.000000 1.893460 0.000000 
#    z -0.001960 0.000000 1.898490 
# 
# From -- ./inp_files/89292.got.cif
#   From: 2010.06.25/outbox.cif.g09.slc.cpg/sg10_45_cif.got.tgz:89292.got - 2010.06.27 22:07:45.
