data_PCOD8065727
_publ_section_title
;
Structure prediction by ZEFSAII (Michael W. Deem and Ramdas Pophale) SiO2 
 PCOD8065727
Probable space group: P 2/M
;
_chemical_formula_sum "Si O2"
_cell_formula_units_Z 32
_cell_length_a 14.219315
_cell_length_b 8.588117
_cell_length_c 15.722483
_cell_angle_alpha 90.000000
_cell_angle_beta 90.296444
_cell_angle_gamma 90.000000
_cell_volume 1919.958973
_symmetry_space_group_name_H-M "P 2/M"
_symmetry_group_IT_number 10
_symmetry_cell_setting 'monoclinic'
loop_
_space_group_symop_operation_xyz
x,y,z
-x,y,-z
-x,-y,-z
x,-y,z
loop_
_atom_site_type_symbol
_atom_site_label
_atom_site_fract_x
_atom_site_fract_y
_atom_site_fract_z
Si Si1 0.604025 0.184236 0.003545
Si Si2 0.898747 0.317598 0.410760
Si Si3 0.905685 0.818255 0.594505
Si Si4 0.600105 0.184266 0.186001
Si Si5 0.382850 0.816327 0.180794
Si Si6 0.274964 0.680477 0.334804
Si Si7 0.391102 0.681362 0.500335
Si Si8 0.717204 0.816920 0.344234
O O1 0.654901 0.230253 0.914970
O O2 0.595953 0.000000 0.005671
O O3 0.500000 0.255888 0.000000
O O4 0.646692 0.239730 0.095137
O O5 0.895332 0.500000 0.427923
O O6 0.877847 0.232167 0.499462
O O7 0.818177 0.267385 0.344605
O O8 0.000145 0.269839 0.374255
O O9 0.821016 0.777144 0.657073
O O10 0.926536 0.000000 0.596634
O O11 0.491323 0.236434 0.192312
O O12 0.660257 0.254817 0.263764
O O13 0.603737 0.000000 0.192852
O O14 0.319798 0.719801 0.244805
O O15 0.371537 0.000000 0.197829
O O16 0.249125 0.500000 0.339216
O O17 0.348367 0.726230 0.408845
O O18 0.500000 0.727158 0.500000
O O19 0.376004 0.500000 0.521578
O O20 0.340212 0.783469 0.570747
O O21 0.733484 0.000000 0.335561
#
# Coordination Sequence:
#
# PCOD8065727 Si02
#       8
#     4   4   4   4   4   4   4   4
#     4   7  11  23  44  68  93 122 158 201 245 280
#     4  11  21  35  52  70  95 124 154 193 244 292
#     4  11  21  35  54  73  91 116 158 204 240 280
#     4   8  15  27  45  71  99 126 161 204 243 276
#     4   9  16  28  48  71  95 127 166 204 237 278
#     4  11  21  32  46  67  98 132 160 193 239 286
#     4  10  21  34  45  60  91 134 169 195 231 281
#     4  11  20  30  47  71  96 126 163 202 236 276
#
# _framework density 16.667023
#
# number of rings (size 3 to 8) (size 9 to 14) (size 15 to 20)
#    0.000    2.250    1.250    6.000    0.000    0.750 
#    0.000    0.625    0.000    4.875    0.000    0.875 
#    0.000    7.000    0.000    0.000    0.000    0.000 
#
# Total GULP energy -396609.063340 kJ/mol
# GULP energy per Si atom -12394.033229 kJ/mol
# Density = 1.662909 g / cm^3
# Si number density = 16.667023 Si / 1000 Ang^3
#
#
#
# Elastic Constant Matrix: (Units=GPa)
#
#
# Indices 1 2 3 4 5 6 
#
# 1 92.0728 15.9580 41.3622 0.0000 -5.7253 0.0000
# 2 15.9580 36.1918 14.7122 0.0000 0.3821 0.0000
# 3 41.3622 14.7122 111.5000 0.0000 -4.7220 0.0000
# 4 0.0000 0.0000 0.0000 5.9213 0.0000 -0.2872
# 5 -5.7253 0.3821 -4.7220 0.0000 11.6099 0.0000
# 6 0.0000 0.0000 0.0000 -0.2872 0.0000 22.2526
#
#
#
# Elastic Compliance Matrix: (Units=1/GPa)
#
#
# Indices 1 2 3 4 5 6 
#
# 1 0.013908 -0.004418 -0.004355 0.000000 0.005233 0.000000
# 2 -0.004418 0.030675 -0.002588 0.000000 -0.004241 0.000000
# 3 -0.004355 -0.002588 0.011028 0.000000 0.002423 0.000000
# 4 0.000000 0.000000 0.000000 0.168989 0.000000 0.002181
# 5 0.005233 -0.004241 0.002423 0.000000 0.089839 0.000000
# 6 0.000000 0.000000 0.000000 0.002181 0.000000 0.044967
#
#
# Mechanical properties :
#
#
# Convention : Reuss Voigt Hill
#
# Bulk Modulus (GPa) = 30.40417 42.64771 36.52594
# Shear Modulus (GPa) = 12.71968 19.13891 15.92930
#
# Velocity S-wave (km/s) = 2.76554 3.39235 3.09485
# Velocity P-wave (km/s) = 5.33660 6.40216 5.89351
#
# Compressibility (1/GPa) = 0.03289022
#
# Stress axis : x y z
#
# Youngs Moduli (GPa) = 71.89899 32.59942 90.67592
#
# Poissons Ratio (x) = 0.14401 0.39489
# Poissons Ratio (y) = 0.31762 0.23471
# Poissons Ratio (z) = 0.31312 0.08438
#
# Static dielectric constant tensor:
#      x y z
#    x 3.180610 0.000000 0.183960 
#    y 0.000000 2.947190 0.000000 
#    z 0.183960 0.000000 3.388670 
# 
# 
# High freq. dielectric constant tensor:
#      x y z
#    x 1.623220 0.000000 0.001140 
#    y 0.000000 1.630090 0.000000 
#    z 0.001140 0.000000 1.634880 
# 
# From -- ./inp_files/66033.got.cif
#   From: 2010.06.25/outbox.cif.g09.slc.cpg/sg10_34_cif.got.tgz:66033.got - 2010.06.27 22:07:45.
