data_PCOD8065231
_publ_section_title
;
Structure prediction by ZEFSAII (Michael W. Deem and Ramdas Pophale) SiO2 
 PCOD8065231
Probable space group: P 2/M
;
_chemical_formula_sum "Si O2"
_cell_formula_units_Z 28
_cell_length_a 12.363470
_cell_length_b 14.184563
_cell_length_c 8.765120
_cell_angle_alpha 90.000000
_cell_angle_beta 106.213171
_cell_angle_gamma 90.000000
_cell_volume 1476.009872
_symmetry_space_group_name_H-M "P 2/M"
_symmetry_group_IT_number 10
_symmetry_cell_setting 'monoclinic'
loop_
_space_group_symop_operation_xyz
x,y,z
-x,y,-z
-x,-y,-z
x,-y,z
loop_
_atom_site_type_symbol
_atom_site_label
_atom_site_fract_x
_atom_site_fract_y
_atom_site_fract_z
Si Si1 0.313299 0.768091 0.322855
Si Si2 0.099714 0.600048 0.426454
Si Si3 0.942193 0.241564 0.824581
Si Si4 0.684980 0.111782 0.371929
Si Si5 0.343551 0.610580 0.564033
Si Si6 0.514770 0.247667 0.182566
Si Si7 0.076635 0.890496 0.670650
O O1 0.188706 0.786211 0.205319
O O2 0.328884 0.843197 0.465580
O O3 0.343176 0.663103 0.398654
O O4 0.397330 0.781438 0.215102
O O5 0.124091 0.500000 0.351770
O O6 0.056279 0.674055 0.290770
O O7 0.213539 0.626120 0.565644
O O8 0.000000 0.585518 0.500000
O O9 0.024242 0.158512 0.798485
O O10 0.000000 0.278388 0.000000
O O11 0.588917 0.153277 0.225500
O O12 0.799586 0.141992 0.331607
O O13 0.674273 0.000000 0.384895
O O14 0.378007 0.500000 0.562410
O O15 0.426559 0.661964 0.714640
O O16 0.500000 0.273744 0.000000
O O17 0.000000 0.861230 0.500000
O O18 0.073514 0.000000 0.706980
#
# Coordination Sequence:
#
# PCOD8065231 Si02
#       7
#     4   4   4   4   4   4   4
#     4  10  22  39  57  86 112 148 197 236 273 336
#     4   9  19  35  58  87 114 149 197 233 269 334
#     4  11  23  34  58  86 121 155 177 229 298 337
#     4  10  21  40  64  83 108 151 195 236 279 333
#     4   9  19  38  61  83 111 152 195 234 275 326
#     4  11  25  38  56  86 121 147 186 237 287 342
#     4  10  20  37  61  87 111 144 194 236 275 338
#
# _framework density 18.970061999999999
#
# number of rings (size 3 to 8) (size 9 to 14) (size 15 to 20)
#    0.000    2.000    1.429    2.143    6.000    3.429 
#    0.000    0.000    0.000    0.000    0.000    0.000 
#    0.000    0.000    0.000    0.000    0.000    0.000 
#
# Total GULP energy -346948.920861 kJ/mol
# GULP energy per Si atom -12391.032888 kJ/mol
# Density = 1.892688 g / cm^3
# Si number density = 18.970062 Si / 1000 Ang^3
#
#
#
# Elastic Constant Matrix: (Units=GPa)
#
#
# Indices 1 2 3 4 5 6 
#
# 1 156.4286 57.4476 49.8642 0.0000 -14.6321 0.0000
# 2 57.4476 107.3776 30.6653 0.0000 -2.8712 0.0000
# 3 49.8642 30.6653 93.8010 0.0000 14.6529 0.0000
# 4 0.0000 0.0000 0.0000 -2.8434 0.0000 23.4120
# 5 -14.6321 -2.8712 14.6529 0.0000 23.2450 0.0000
# 6 0.0000 0.0000 0.0000 23.4120 0.0000 14.6911
#
#
#
# Elastic Compliance Matrix: (Units=1/GPa)
#
#
# Indices 1 2 3 4 5 6 
#
# 1 0.010588 -0.003690 -0.005981 0.000000 0.009979 0.000000
# 2 -0.003690 0.011862 -0.001977 0.000000 0.000389 0.000000
# 3 -0.005981 -0.001977 0.016764 0.000000 -0.014576 0.000000
# 4 0.000000 0.000000 0.000000 -0.024905 0.000000 0.039689
# 5 0.009979 0.000389 -0.014576 0.000000 0.058538 0.000000
# 6 0.000000 0.000000 0.000000 0.039689 0.000000 0.004820
#
#
# Mechanical properties :
#
#
# Convention : Reuss Voigt Hill
#
# Bulk Modulus (GPa) = 62.82362 70.39573 66.60967
# Shear Modulus (GPa) = 47.05056 21.66055 34.35555
#
# Velocity S-wave (km/s) = 4.98562 3.38276 4.26025
# Velocity P-wave (km/s) = 8.14438 7.24202 7.70642
#
# Compressibility (1/GPa) = 0.01591758
#
# Stress axis : x y z
#
# Youngs Moduli (GPa) = 94.44980 84.30316 59.65229
#
# Poissons Ratio (x) = 0.31104 0.35678
# Poissons Ratio (y) = 0.34847 0.11795
# Poissons Ratio (z) = 0.56491 0.16670
#
# Static dielectric constant tensor:
#      x y z
#    x 3.924180 0.000000 0.050980 
#    y 0.000000 3.685920 0.000000 
#    z 0.050980 0.000000 3.255390 
# 
# 
# High freq. dielectric constant tensor:
#      x y z
#    x 1.759520 0.000000 0.010520 
#    y 0.000000 1.744160 0.000000 
#    z 0.010520 0.000000 1.708030 
# 
# From -- ./inp_files/25028.got.cif
#   From: 2010.06.25/outbox.cif.g09.slc.cpg/sg10_13_cif.got.tgz:25028.got - 2010.06.27 22:07:45.
