data_PCOD8065105
_publ_section_title
;
Structure prediction by ZEFSAII (Michael W. Deem and Ramdas Pophale) SiO2 
 PCOD8065105
Probable space group: P 2/M
;
_chemical_formula_sum "Si O2"
_cell_formula_units_Z 32
_cell_length_a 14.476463
_cell_length_b 21.063065
_cell_length_c 14.255888
_cell_angle_alpha 90.000000
_cell_angle_beta 19.916955
_cell_angle_gamma 90.000000
_cell_volume 1480.800754
_symmetry_space_group_name_H-M "P 2/M"
_symmetry_group_IT_number 10
_symmetry_cell_setting 'monoclinic'
loop_
_space_group_symop_operation_xyz
x,y,z
-x,y,-z
-x,-y,-z
x,-y,z
loop_
_atom_site_type_symbol
_atom_site_label
_atom_site_fract_x
_atom_site_fract_y
_atom_site_fract_z
Si Si1 0.124932 0.182148 0.173569
Si Si2 0.764629 0.071692 0.799527
Si Si3 0.656087 0.261227 0.679640
Si Si4 0.164352 0.573358 0.934618
Si Si5 0.516071 0.313017 0.623399
Si Si6 0.969270 0.571981 0.321359
Si Si7 0.500432 0.384185 0.102358
Si Si8 0.016025 0.767731 0.883136
O O1 0.148846 0.111173 0.191012
O O2 0.939984 0.224493 0.420089
O O3 0.980732 0.182091 0.207243
O O4 0.426340 0.208920 0.884578
O O5 0.000000 0.073446 0.500000
O O6 0.705676 0.000000 0.890549
O O7 0.500000 0.100414 0.000000
O O8 0.668997 0.308829 0.577445
O O9 0.602931 0.311034 0.813916
O O10 0.256150 0.500000 0.843872
O O11 0.445072 0.613778 0.667906
O O12 0.966921 0.588414 0.212111
O O13 0.000000 0.593599 0.000000
O O14 0.716883 0.277035 0.359922
O O15 0.232080 0.277536 0.901276
O O16 0.071559 0.500000 0.235951
O O17 0.682160 0.577767 0.648316
O O18 0.191166 0.618027 0.156192
O O19 0.500000 0.416675 0.000000
O O20 0.000000 0.803158 0.000000
#
# Coordination Sequence:
#
# PCOD8065105 Si02
#       8
#     4   4   4   4   4   4   4   4
#     4  10  21  37  60  89 122 162 199 246 295 356
#     4  10  21  38  62  93 129 168 210 249 289 345
#     4  10  21  37  59  86 121 153 197 245 303 361
#     4  10  22  41  65  90 117 155 199 252 319 385
#     4  10  20  37  59  82 115 153 193 247 306 368
#     4  11  25  44  64  85 115 150 196 256 305 374
#     4  12  25  42  64  87 116 152 197 252 312 370
#     4  10  21  36  58  88 117 156 198 246 300 361
#
# _framework density 21.609929000000001
#
# number of rings (size 3 to 8) (size 9 to 14) (size 15 to 20)
#    0.000    1.625    1.250    3.000    3.500    3.000 
#    2.250    1.250    0.000    9.750    0.000    0.000 
#    0.000    9.000    0.000    0.000    0.000    2.000 
#
# Total GULP energy -396711.051333 kJ/mol
# GULP energy per Si atom -12397.220354 kJ/mol
# Density = 2.156074 g / cm^3
# Si number density = 21.609929 Si / 1000 Ang^3
#
#
#
# Elastic Constant Matrix: (Units=GPa)
#
#
# Indices 1 2 3 4 5 6 
#
# 1 121.9903 50.7286 34.5927 0.0000 15.7574 0.0000
# 2 50.7286 85.0906 15.4909 0.0000 5.6993 0.0000
# 3 34.5927 15.4909 94.8948 0.0000 0.5678 0.0000
# 4 0.0000 0.0000 0.0000 27.8937 0.0000 -5.4969
# 5 15.7574 5.6993 0.5678 0.0000 31.6900 0.0000
# 6 0.0000 0.0000 0.0000 -5.4969 0.0000 28.6608
#
#
#
# Elastic Compliance Matrix: (Units=1/GPa)
#
#
# Indices 1 2 3 4 5 6 
#
# 1 0.012534 -0.006505 -0.003477 0.000000 -0.005000 0.000000
# 2 -0.006505 0.015635 -0.000184 0.000000 0.000426 0.000000
# 3 -0.003477 -0.000184 0.011826 0.000000 0.001550 0.000000
# 4 0.000000 0.000000 0.000000 0.037259 0.000000 0.007146
# 5 -0.005000 0.000426 0.001550 0.000000 0.033938 0.000000
# 6 0.000000 0.000000 0.000000 0.007146 0.000000 0.036261
#
#
# Mechanical properties :
#
#
# Convention : Reuss Voigt Hill
#
# Bulk Modulus (GPa) = 50.85401 55.95557 53.40479
# Shear Modulus (GPa) = 28.67968 31.05979 29.86973
#
# Velocity S-wave (km/s) = 3.64696 3.79528 3.72186
# Velocity P-wave (km/s) = 6.42788 6.71976 6.57544
#
# Compressibility (1/GPa) = 0.01966413
#
# Stress axis : x y z
#
# Youngs Moduli (GPa) = 79.78146 63.95929 84.55684
#
# Poissons Ratio (x) = 0.41603 0.29404
# Poissons Ratio (y) = 0.51894 0.01553
# Poissons Ratio (z) = 0.27744 0.01175
#
# Static dielectric constant tensor:
#      x y z
#    x 4.015340 0.000000 0.129990 
#    y 0.000000 3.758020 0.000000 
#    z 0.129990 0.000000 3.995850 
# 
# 
# High freq. dielectric constant tensor:
#      x y z
#    x 1.848150 0.000000 0.000710 
#    y 0.000000 1.804880 0.000000 
#    z 0.000710 0.000000 1.868890 
# 
# From -- ./inp_files/67943.got.cif
#   From: 2010.06.25/outbox.cif.g09.slc.cpg/sg10_34_cif.got.tgz:67943.got - 2010.06.27 22:07:45.
