data_PCOD8065865
_publ_section_title
;
Structure prediction by ZEFSAII (Michael W. Deem and Ramdas Pophale) SiO2 
 PCOD8065865
Probable space group: P 2/M
;
_chemical_formula_sum "Si O2"
_cell_formula_units_Z 24
_cell_length_a 23.997911
_cell_length_b 9.258383
_cell_length_c 12.002504
_cell_angle_alpha 90.000000
_cell_angle_beta 151.040363
_cell_angle_gamma 90.000000
_cell_volume 1291.217100
_symmetry_space_group_name_H-M "P 2/M"
_symmetry_group_IT_number 10
_symmetry_cell_setting 'monoclinic'
loop_
_space_group_symop_operation_xyz
x,y,z
-x,y,-z
-x,-y,-z
x,-y,z
loop_
_atom_site_type_symbol
_atom_site_label
_atom_site_fract_x
_atom_site_fract_y
_atom_site_fract_z
Si Si1 0.725314 0.331934 0.887534
Si Si2 0.587929 0.167071 0.471330
Si Si3 0.326273 0.167134 0.987585
Si Si4 0.795485 0.832926 0.678894
Si Si5 0.063103 0.668069 0.900876
Si Si6 0.164946 0.167133 0.503633
O O1 0.698003 0.500000 0.850565
O O2 0.620830 0.259106 0.637353
O O3 0.735345 0.262397 0.026481
O O4 0.845396 0.302255 0.036201
O O5 0.671627 0.204839 0.514869
O O6 0.597843 0.000000 0.522705
O O7 0.460043 0.208819 0.209922
O O8 0.268044 0.203134 0.768041
O O9 0.310879 0.000000 0.993043
O O10 0.789861 0.791191 0.539755
O O11 0.827026 0.000000 0.751892
O O12 0.895702 0.740895 0.912240
O O13 0.045450 0.500000 0.892875
O O14 0.944215 0.737591 0.653063
O O15 0.128704 0.000000 0.446547
#
# Coordination Sequence:
#
# PCOD8065865 Si02
#       6
#     4   4   4   4   4   4
#     4  10  21  36  54  76 102 134 173 215 256 299
#     4   9  18  34  56  79 103 133 169 209 253 302
#     4  10  21  35  52  77 107 137 169 207 253 304
#     4   9  18  34  56  79 103 133 169 209 253 302
#     4  10  21  36  54  76 102 134 173 215 256 299
#     4  10  21  35  52  77 107 137 169 207 253 304
#
# _framework density 18.587114
#
# number of rings (size 3 to 8) (size 9 to 14) (size 15 to 20)
#    0.000    2.333    0.000    2.000    0.000    9.333 
#    0.000    6.667    0.000    0.000    0.000    7.000 
#    0.000    0.000    0.000    0.000    0.000    0.000 
#
# Total GULP energy -297719.389502 kJ/mol
# GULP energy per Si atom -12404.974563 kJ/mol
# Density = 1.854481 g / cm^3
# Si number density = 18.587114 Si / 1000 Ang^3
#
#
#
# Elastic Constant Matrix: (Units=GPa)
#
#
# Indices 1 2 3 4 5 6 
#
# 1 83.9545 42.5934 48.5926 0.0000 -7.7400 0.0000
# 2 42.5934 70.9879 44.2002 0.0000 -0.8187 0.0000
# 3 48.5926 44.2002 106.5565 0.0000 -3.7537 0.0000
# 4 0.0000 0.0000 0.0000 8.3543 0.0000 7.6400
# 5 -7.7400 -0.8187 -3.7537 0.0000 23.2541 0.0000
# 6 0.0000 0.0000 0.0000 7.6400 0.0000 23.3262
#
#
#
# Elastic Compliance Matrix: (Units=1/GPa)
#
#
# Indices 1 2 3 4 5 6 
#
# 1 0.019805 -0.008515 -0.005308 0.000000 0.005435 0.000000
# 2 -0.008515 0.022662 -0.005621 0.000000 -0.002944 0.000000
# 3 -0.005308 -0.005621 0.014148 0.000000 0.000319 0.000000
# 4 0.000000 0.000000 0.000000 0.170882 0.000000 -0.055969
# 5 0.005435 -0.002944 0.000319 0.000000 0.044760 0.000000
# 6 0.000000 0.000000 0.000000 -0.055969 0.000000 0.061202
#
#
# Mechanical properties :
#
#
# Convention : Reuss Voigt Hill
#
# Bulk Modulus (GPa) = 56.41199 59.14127 57.77663
# Shear Modulus (GPa) = 13.21861 19.39444 16.30652
#
# Velocity S-wave (km/s) = 2.66967 3.23373 2.96514
# Velocity P-wave (km/s) = 6.31813 6.76980 6.54786
#
# Compressibility (1/GPa) = 0.01772673
#
# Stress axis : x y z
#
# Youngs Moduli (GPa) = 50.49325 44.12660 70.68180
#
# Poissons Ratio (x) = 0.37576 0.37516
# Poissons Ratio (y) = 0.42997 0.39729
# Poissons Ratio (z) = 0.26800 0.24803
#
# Static dielectric constant tensor:
#      x y z
#    x 3.495800 0.000000 0.048380 
#    y 0.000000 3.408820 0.000000 
#    z 0.048380 0.000000 3.400620 
# 
# 
# High freq. dielectric constant tensor:
#      x y z
#    x 1.727070 0.000000 0.004710 
#    y 0.000000 1.717600 0.000000 
#    z 0.004710 0.000000 1.717820 
# 
# From -- ./inp_files/44989.got.cif
#   From: 2010.06.25/outbox.cif.g09.slc.cpg/sg10_23_cif.got.tgz:44989.got - 2010.06.27 22:07:45.
