data_PCOD8065620
_publ_section_title
;
Structure prediction by ZEFSAII (Michael W. Deem and Ramdas Pophale) SiO2 
 PCOD8065620
Probable space group: P 2/M
;
_chemical_formula_sum "Si O2"
_cell_formula_units_Z 28
_cell_length_a 15.491305
_cell_length_b 8.397553
_cell_length_c 11.845933
_cell_angle_alpha 90.000000
_cell_angle_beta 119.413791
_cell_angle_gamma 90.000000
_cell_volume 1342.381206
_symmetry_space_group_name_H-M "P 2/M"
_symmetry_group_IT_number 10
_symmetry_cell_setting 'monoclinic'
loop_
_space_group_symop_operation_xyz
x,y,z
-x,y,-z
-x,-y,-z
x,-y,z
loop_
_atom_site_type_symbol
_atom_site_label
_atom_site_fract_x
_atom_site_fract_y
_atom_site_fract_z
Si Si1 0.348896 0.315102 0.624669
Si Si2 0.613032 0.184765 0.586160
Si Si3 0.978258 0.686031 0.322802
Si Si4 0.921254 0.688287 0.037393
Si Si5 0.478902 0.813653 0.114114
Si Si6 0.150715 0.185419 0.566432
Si Si7 0.698874 0.686125 0.867423
O O1 0.346146 0.500000 0.594817
O O2 0.334060 0.219665 0.498441
O O3 0.450674 0.276220 0.753005
O O4 0.258773 0.263299 0.646996
O O5 0.500000 0.239251 0.500000
O O6 0.661217 0.286276 0.716635
O O7 0.621815 0.000000 0.623882
O O8 0.957630 0.500000 0.329773
O O9 0.960514 0.738974 0.184321
O O10 0.903807 0.788790 0.350327
O O11 0.091032 0.727574 0.427532
O O12 0.918009 0.500000 0.020039
O O13 0.810493 0.755386 0.947399
O O14 0.000000 0.763012 0.000000
O O15 0.366846 0.775376 0.080003
O O16 0.500342 0.000000 0.137711
O O17 0.500000 0.754134 0.000000
O O18 0.159199 0.000000 0.545250
O O19 0.695680 0.500000 0.893806
#
# Coordination Sequence:
#
# PCOD8065620 Si02
#       7
#     4   4   4   4   4   4   4
#     4  12  25  41  66  95 123 161 212 262 310 376
#     4  11  23  41  64  90 127 164 201 253 315 375
#     4  10  20  39  65  92 123 164 214 261 311 373
#     4   9  21  40  62  92 127 163 208 263 313 364
#     4  11  25  44  64  92 131 171 208 257 321 383
#     4  11  23  40  62  91 128 164 204 261 322 376
#     4  11  23  40  66  96 125 167 217 262 312 373
#
# _framework density 20.858456
#
# number of rings (size 3 to 8) (size 9 to 14) (size 15 to 20)
#    0.000    1.286    1.429    5.143    4.000    1.714 
#    0.000    2.143    0.000    3.429    0.000    0.000 
#    0.000    0.000    0.000    0.000    0.000    0.000 
#
# Total GULP energy -347351.417231 kJ/mol
# GULP energy per Si atom -12405.407758 kJ/mol
# Density = 2.081098 g / cm^3
# Si number density = 20.858456 Si / 1000 Ang^3
#
#
#
# Elastic Constant Matrix: (Units=GPa)
#
#
# Indices 1 2 3 4 5 6 
#
# 1 140.1487 15.5356 63.8904 0.0000 8.0317 0.0000
# 2 15.5356 57.1968 20.1055 0.0000 1.8850 0.0000
# 3 63.8904 20.1055 125.6743 0.0000 -12.1847 0.0000
# 4 0.0000 0.0000 0.0000 13.9515 0.0000 0.2462
# 5 8.0317 1.8850 -12.1847 0.0000 33.9926 0.0000
# 6 0.0000 0.0000 0.0000 0.2462 0.0000 31.3445
#
#
#
# Elastic Compliance Matrix: (Units=1/GPa)
#
#
# Indices 1 2 3 4 5 6 
#
# 1 0.009876 -0.000674 -0.005321 0.000000 -0.004203 0.000000
# 2 -0.000674 0.018726 -0.002837 0.000000 -0.001896 0.000000
# 3 -0.005321 -0.002837 0.011658 0.000000 0.005593 0.000000
# 4 0.000000 0.000000 0.000000 0.071687 0.000000 -0.000563
# 5 -0.004203 -0.001896 0.005593 0.000000 0.032522 0.000000
# 6 0.000000 0.000000 0.000000 -0.000563 0.000000 0.031908
#
#
# Mechanical properties :
#
#
# Convention : Reuss Voigt Hill
#
# Bulk Modulus (GPa) = 44.25244 58.00919 51.13081
# Shear Modulus (GPa) = 24.80488 30.75694 27.78091
#
# Velocity S-wave (km/s) = 3.45222 3.84416 3.65345
# Velocity P-wave (km/s) = 6.09525 6.89744 6.50871
#
# Compressibility (1/GPa) = 0.02259763
#
# Stress axis : x y z
#
# Youngs Moduli (GPa) = 101.25077 53.40086 85.77608
#
# Poissons Ratio (x) = 0.03598 0.45639
# Poissons Ratio (y) = 0.06822 0.24336
# Poissons Ratio (z) = 0.53873 0.15151
#
# Static dielectric constant tensor:
#      x y z
#    x 3.996650 0.000000 0.062120 
#    y 0.000000 3.592490 0.000000 
#    z 0.062120 0.000000 3.786460 
# 
# 
# High freq. dielectric constant tensor:
#      x y z
#    x 1.828360 0.000000 -0.000190 
#    y 0.000000 1.810040 0.000000 
#    z -0.000190 0.000000 1.818810 
# 
# From -- ./inp_files/50096.got.cif
#   From: 2010.06.25/outbox.cif.g09.slc.cpg/sg10_26_cif.got.tgz:50096.got - 2010.06.27 22:07:45.
