data_PCOD8065819
_publ_section_title
;
Structure prediction by ZEFSAII (Michael W. Deem and Ramdas Pophale) SiO2 
 PCOD8065819
Probable space group: P 2/M
;
_chemical_formula_sum "Si O2"
_cell_formula_units_Z 20
_cell_length_a 9.638253
_cell_length_b 9.023114
_cell_length_c 27.352860
_cell_angle_alpha 90.000000
_cell_angle_beta 152.118353
_cell_angle_gamma 90.000000
_cell_volume 1112.436898
_symmetry_space_group_name_H-M "P 2/M"
_symmetry_group_IT_number 10
_symmetry_cell_setting 'monoclinic'
loop_
_space_group_symop_operation_xyz
x,y,z
-x,y,-z
-x,-y,-z
x,-y,z
loop_
_atom_site_type_symbol
_atom_site_label
_atom_site_fract_x
_atom_site_fract_y
_atom_site_fract_z
Si Si1 0.838062 0.673121 0.094522
Si Si2 0.696533 0.172885 0.318626
Si Si3 0.645236 0.175937 0.693486
Si Si4 0.343753 0.176583 0.499956
Si Si5 0.098631 0.826829 0.084054
O O1 0.905682 0.500000 0.116709
O O2 0.035503 0.751413 0.197615
O O3 0.906870 0.735085 0.062463
O O4 0.500000 0.710848 0.000000
O O5 0.584664 0.232737 0.336433
O O6 0.448837 0.207009 0.200327
O O7 0.010738 0.244423 0.400656
O O8 0.752435 0.000000 0.341877
O O9 0.530255 0.228675 0.605062
O O10 0.683197 0.000000 0.708415
O O11 0.500000 0.241280 0.500000
O O12 0.333496 0.000000 0.494004
O O13 0.033847 0.000000 0.072398
O O14 0.000000 0.774098 0.000000
#
# Coordination Sequence:
#
# PCOD8065819 Si02
#       5
#     4   4   4   4   4
#     4  10  21  35  50  70  98 132 166 200 243 294
#     4   8  14  26  43  65  95 126 153 185 231 285
#     4   9  17  30  49  69  91 124 162 199 238 282
#     4   9  16  25  42  71  99 121 151 194 243 288
#     4   9  18  32  52  77 101 127 162 204 245 285
#
# _framework density 17.978549000000001
#
# number of rings (size 3 to 8) (size 9 to 14) (size 15 to 20)
#    0.000    3.000    0.000    2.400    0.000    6.000 
#    0.000    4.000    0.000   10.200    0.000    0.000 
#    0.000    0.000    0.000    0.000    0.000    0.000 
#
# Total GULP energy -247939.120822 kJ/mol
# GULP energy per Si atom -12396.956041 kJ/mol
# Density = 1.793763 g / cm^3
# Si number density = 17.978549 Si / 1000 Ang^3
#
#
#
# Elastic Constant Matrix: (Units=GPa)
#
#
# Indices 1 2 3 4 5 6 
#
# 1 130.9497 25.9233 107.5633 0.0000 -3.8493 0.0000
# 2 25.9233 27.7655 41.1857 0.0000 8.5093 0.0000
# 3 107.5633 41.1857 166.1150 0.0000 -4.5039 0.0000
# 4 0.0000 0.0000 0.0000 11.5914 0.0000 4.8909
# 5 -3.8493 8.5093 -4.5039 0.0000 36.6580 0.0000
# 6 0.0000 0.0000 0.0000 4.8909 0.0000 13.3181
#
#
#
# Elastic Compliance Matrix: (Units=1/GPa)
#
#
# Indices 1 2 3 4 5 6 
#
# 1 0.016324 0.000543 -0.010697 0.000000 0.000274 0.000000
# 2 0.000543 0.066605 -0.017341 0.000000 -0.017534 0.000000
# 3 -0.010697 -0.017341 0.017383 0.000000 0.005038 0.000000
# 4 0.000000 0.000000 0.000000 0.102091 0.000000 -0.037492
# 5 0.000274 -0.017534 0.005038 0.000000 0.031997 0.000000
# 6 0.000000 0.000000 0.000000 -0.037492 0.000000 0.088854
#
#
# Mechanical properties :
#
#
# Convention : Reuss Voigt Hill
#
# Bulk Modulus (GPa) = 22.06460 74.90831 48.48646
# Shear Modulus (GPa) = 12.71131 22.32403 17.51767
#
# Velocity S-wave (km/s) = 2.66188 3.52760 3.12487
# Velocity P-wave (km/s) = 4.66335 7.63857 6.32830
#
# Compressibility (1/GPa) = 0.04532146
#
# Stress axis : x y z
#
# Youngs Moduli (GPa) = 61.25955 15.01391 57.52847
#
# Poissons Ratio (x) = -0.00815 0.61540
# Poissons Ratio (y) = -0.03327 0.99759
# Poissons Ratio (z) = 0.65532 0.26035
#
# Static dielectric constant tensor:
#      x y z
#    x 3.503580 0.000000 0.025170 
#    y 0.000000 2.866260 0.000000 
#    z 0.025170 0.000000 3.536970 
# 
# 
# High freq. dielectric constant tensor:
#      x y z
#    x 1.694660 0.000000 -0.000800 
#    y 0.000000 1.646440 0.000000 
#    z -0.000800 0.000000 1.710260 
# 
# From -- ./inp_files/23088.got.cif
#   From: 2010.06.25/outbox.cif.g09.slc.cpg/sg10_12_cif.got.tgz:23088.got - 2010.06.27 22:07:45.
