data_PCOD8065681
_publ_section_title
;
Structure prediction by ZEFSAII (Michael W. Deem and Ramdas Pophale) SiO2 
 PCOD8065681
Probable space group: P 2/M
;
_chemical_formula_sum "Si O2"
_cell_formula_units_Z 20
_cell_length_a 9.554347
_cell_length_b 11.417498
_cell_length_c 7.543020
_cell_angle_alpha 90.000000
_cell_angle_beta 108.611211
_cell_angle_gamma 90.000000
_cell_volume 779.813654
_symmetry_space_group_name_H-M "P 2/M"
_symmetry_group_IT_number 10
_symmetry_cell_setting 'monoclinic'
loop_
_space_group_symop_operation_xyz
x,y,z
-x,y,-z
-x,-y,-z
x,-y,z
loop_
_atom_site_type_symbol
_atom_site_label
_atom_site_fract_x
_atom_site_fract_y
_atom_site_fract_z
Si Si1 0.341559 0.365516 0.320051
Si Si2 0.420803 0.249599 0.789310
Si Si3 0.869965 0.000000 0.805938
Si Si4 0.823727 0.637156 0.112426
Si Si5 0.472029 0.000000 0.280981
Si Si6 0.913551 0.757992 0.644652
O O1 0.345167 0.500000 0.373023
O O2 0.509807 0.320869 0.351993
O O3 0.253720 0.293936 0.437199
O O4 0.250319 0.336155 0.105367
O O5 0.251635 0.285571 0.759068
O O6 0.447229 0.111312 0.773792
O O7 0.500000 0.294472 0.000000
O O8 0.705470 0.000000 0.828406
O O9 0.892743 0.109043 0.688933
O O10 0.000000 0.000000 0.000000
O O11 0.815689 0.500000 0.156704
O O12 0.993363 0.681093 0.174667
O O13 0.500000 0.000000 0.500000
O O14 0.000000 0.746078 0.500000
#
# Coordination Sequence:
#
# PCOD8065681 Si02
#       6
#     4   4   2   4   2   4
#     4  10  20  40  67  96 133 179 229 282 337 411
#     4  10  22  41  69  98 134 177 232 284 341 409
#     4  12  27  49  76  99 134 188 240 284 345 420
#     4  10  22  40  67 101 134 178 231 285 342 414
#     4  12  27  45  72 103 142 182 228 288 355 414
#     4  12  26  42  65  97 139 178 228 289 350 407
#
# _framework density 25.647151999999998
#
# number of rings (size 3 to 8) (size 9 to 14) (size 15 to 20)
#    0.000    1.200    2.000    3.600    5.600    6.400 
#    0.000    0.000    0.000    3.600    0.000    0.000 
#    0.000    0.000    0.000    0.000    0.000    0.000 
#
# Total GULP energy -248050.208792 kJ/mol
# GULP energy per Si atom -12402.510440 kJ/mol
# Density = 2.558878 g / cm^3
# Si number density = 25.647152 Si / 1000 Ang^3
#
#
#
# Elastic Constant Matrix: (Units=GPa)
#
#
# Indices 1 2 3 4 5 6 
#
# 1 183.5159 63.0427 29.6389 0.0000 0.2731 0.0000
# 2 63.0427 162.7742 2.9783 0.0000 -19.0763 0.0000
# 3 29.6389 2.9783 46.4664 0.0000 -10.5212 0.0000
# 4 0.0000 0.0000 0.0000 8.6750 0.0000 -7.0867
# 5 0.2731 -19.0763 -10.5212 0.0000 47.5300 0.0000
# 6 0.0000 0.0000 0.0000 -7.0867 0.0000 35.6682
#
#
#
# Elastic Compliance Matrix: (Units=1/GPa)
#
#
# Indices 1 2 3 4 5 6 
#
# 1 0.007293 -0.003009 -0.004992 0.000000 -0.002355 0.000000
# 2 -0.003009 0.007690 0.002242 0.000000 0.003600 0.000000
# 3 -0.004992 0.002242 0.026079 0.000000 0.006701 0.000000
# 4 0.000000 0.000000 0.000000 0.137608 0.000000 0.027341
# 5 -0.002355 0.003600 0.006701 0.000000 0.023981 0.000000
# 6 0.000000 0.000000 0.000000 0.027341 0.000000 0.033468
#
#
# Mechanical properties :
#
#
# Convention : Reuss Voigt Hill
#
# Bulk Modulus (GPa) = 33.84989 64.89736 49.37363
# Shear Modulus (GPa) = 19.41863 38.18109 28.79986
#
# Velocity S-wave (km/s) = 2.75461 3.86256 3.35464
# Velocity P-wave (km/s) = 4.83158 6.72691 5.85643
#
# Compressibility (1/GPa) = 0.02954219
#
# Stress axis : x y z
#
# Youngs Moduli (GPa) = 137.12700 130.04355 38.34560
#
# Poissons Ratio (x) = 0.39130 0.19142
# Poissons Ratio (y) = 0.41262 -0.08595
# Poissons Ratio (z) = 0.68452 -0.29150
#
# Static dielectric constant tensor:
#      x y z
#    x 5.337630 0.000000 0.088360 
#    y 0.000000 4.278380 0.000000 
#    z 0.088360 0.000000 4.831240 
# 
# 
# High freq. dielectric constant tensor:
#      x y z
#    x 2.057040 0.000000 0.006730 
#    y 0.000000 2.017030 0.000000 
#    z 0.006730 0.000000 2.059260 
# 
# From -- ./inp_files/17975.got.cif
#   From: 2010.06.25/outbox.cif.g09.slc.cpg/sg10_9_cif.got.tgz:17975.got - 2010.06.27 22:07:45.
