data_PCOD8065887
_publ_section_title
;
Structure prediction by ZEFSAII (Michael W. Deem and Ramdas Pophale) SiO2 
 PCOD8065887
Probable space group: P 2/M
;
_chemical_formula_sum "Si O2"
_cell_formula_units_Z 20
_cell_length_a 7.651802
_cell_length_b 9.008810
_cell_length_c 15.083406
_cell_angle_alpha 90.000000
_cell_angle_beta 76.181655
_cell_angle_gamma 90.000000
_cell_volume 1009.661226
_symmetry_space_group_name_H-M "P 2/M"
_symmetry_group_IT_number 10
_symmetry_cell_setting 'monoclinic'
loop_
_space_group_symop_operation_xyz
x,y,z
-x,y,-z
-x,-y,-z
x,-y,z
loop_
_atom_site_type_symbol
_atom_site_label
_atom_site_fract_x
_atom_site_fract_y
_atom_site_fract_z
Si Si1 0.094918 0.174465 0.220641
Si Si2 0.307382 0.832674 0.790797
Si Si3 0.645274 0.833871 0.408175
Si Si4 0.439164 0.328266 0.106769
Si Si5 0.011484 0.672364 0.598101
O O1 0.253326 0.240593 0.141965
O O2 0.900628 0.215106 0.201698
O O3 0.116097 0.240659 0.317578
O O4 0.120951 0.000000 0.224335
O O5 0.423850 0.825428 0.685044
O O6 0.399143 0.724562 0.849663
O O7 0.311930 0.000000 0.828262
O O8 0.500000 0.801272 0.500000
O O9 0.784939 0.700897 0.398471
O O10 0.729468 0.000000 0.412187
O O11 0.402676 0.500000 0.130506
O O12 0.500000 0.298700 0.000000
O O13 0.961202 0.500000 0.608055
O O14 0.000000 0.736269 0.500000
#
# Coordination Sequence:
#
# PCOD8065887 Si02
#       5
#     4   4   4   4   4
#     4  10  22  41  64  88 118 157 201 250 299 352
#     4   9  20  39  61  88 119 156 201 248 298 349
#     4   9  19  35  55  83 116 154 198 239 287 347
#     4  11  25  42  62  90 122 158 198 245 306 365
#     4  10  21  35  53  84 120 155 195 237 290 352
#
# _framework density 19.808624999999999
#
# number of rings (size 3 to 8) (size 9 to 14) (size 15 to 20)
#    0.000    2.200    0.000    3.000    2.800    8.400 
#    0.000    4.000    0.000    0.000    0.000    0.000 
#    0.000    0.000    0.000    0.000    0.000    0.000 
#
# Total GULP energy -247890.064716 kJ/mol
# GULP energy per Si atom -12394.503236 kJ/mol
# Density = 1.976354 g / cm^3
# Si number density = 19.808625 Si / 1000 Ang^3
#
#
#
# Elastic Constant Matrix: (Units=GPa)
#
#
# Indices 1 2 3 4 5 6 
#
# 1 87.7869 46.3486 58.7023 0.0000 -8.3918 0.0000
# 2 46.3486 87.9982 63.6103 0.0000 -7.3237 0.0000
# 3 58.7023 63.6103 126.3856 0.0000 -5.4724 0.0000
# 4 0.0000 0.0000 0.0000 26.5501 0.0000 -5.9767
# 5 -8.3918 -7.3237 -5.4724 0.0000 30.3926 0.0000
# 6 0.0000 0.0000 0.0000 -5.9767 0.0000 28.6817
#
#
#
# Elastic Compliance Matrix: (Units=1/GPa)
#
#
# Indices 1 2 3 4 5 6 
#
# 1 0.018247 -0.005253 -0.005712 0.000000 0.002744 0.000000
# 2 -0.005253 0.019598 -0.007340 0.000000 0.001951 0.000000
# 3 -0.005712 -0.007340 0.014226 0.000000 -0.000784 0.000000
# 4 0.000000 0.000000 0.000000 0.039518 0.000000 0.008235
# 5 0.002744 0.001951 -0.000784 0.000000 0.033989 0.000000
# 6 0.000000 0.000000 0.000000 0.008235 0.000000 0.036581
#
#
# Mechanical properties :
#
#
# Convention : Reuss Voigt Hill
#
# Bulk Modulus (GPa) = 64.67970 71.05478 67.86724
# Shear Modulus (GPa) = 24.51899 26.02551 25.27225
#
# Velocity S-wave (km/s) = 3.52205 3.62864 3.57574
# Velocity P-wave (km/s) = 7.01875 7.31468 7.16824
#
# Compressibility (1/GPa) = 0.01546080
#
# Stress axis : x y z
#
# Youngs Moduli (GPa) = 54.80437 51.02434 70.29536
#
# Poissons Ratio (x) = 0.26802 0.40156
# Poissons Ratio (y) = 0.28788 0.51595
# Poissons Ratio (z) = 0.31307 0.37450
#
# Static dielectric constant tensor:
#      x y z
#    x -2.536730 0.000000 -0.374840 
#    y 0.000000 3.570450 0.000000 
#    z -0.374840 0.000000 3.820000 
# 
# 
# High freq. dielectric constant tensor:
#      x y z
#    x 1.756730 0.000000 -0.005800 
#    y 0.000000 1.775020 0.000000 
#    z -0.005800 0.000000 1.782300 
# 
# From -- ./inp_files/26748.got.cif
#   From: 2010.06.25/outbox.cif.g09.slc.cpg/sg10_14_cif.got.tgz:26748.got - 2010.06.27 22:07:45.
