data_PCOD8065186
_publ_section_title
;
Structure prediction by ZEFSAII (Michael W. Deem and Ramdas Pophale) SiO2 
 PCOD8065186
Probable space group: P 2/M
;
_chemical_formula_sum "Si O2"
_cell_formula_units_Z 32
_cell_length_a 11.887170
_cell_length_b 8.881081
_cell_length_c 28.851022
_cell_angle_alpha 90.000000
_cell_angle_beta 30.538656
_cell_angle_gamma 90.000000
_cell_volume 1547.645273
_symmetry_space_group_name_H-M "P 2/M"
_symmetry_group_IT_number 10
_symmetry_cell_setting 'monoclinic'
loop_
_space_group_symop_operation_xyz
x,y,z
-x,y,-z
-x,-y,-z
x,-y,z
loop_
_atom_site_type_symbol
_atom_site_label
_atom_site_fract_x
_atom_site_fract_y
_atom_site_fract_z
Si Si1 0.764308 0.823587 0.527286
Si Si2 0.596683 0.178650 0.417949
Si Si3 0.064268 0.175720 0.214187
Si Si4 0.374639 0.677658 0.171861
Si Si5 0.448927 0.323322 0.314982
Si Si6 0.218434 0.823051 0.316765
Si Si7 0.846278 0.175388 0.011527
Si Si8 0.899269 0.173638 0.172692
O O1 0.561950 0.770524 0.567174
O O2 0.745892 0.733683 0.581878
O O3 0.988948 0.779362 0.422134
O O4 0.756191 0.000000 0.541769
O O5 0.500000 0.248186 0.500000
O O6 0.843793 0.235793 0.318828
O O7 0.598039 0.000000 0.421225
O O8 0.278085 0.264718 0.157068
O O9 0.048725 0.206835 0.164711
O O10 0.099318 0.000000 0.211698
O O11 0.365497 0.500000 0.176801
O O12 0.217235 0.747074 0.267092
O O13 0.623888 0.729648 0.091968
O O14 0.432129 0.500000 0.314025
O O15 0.419713 0.242854 0.275704
O O16 0.685079 0.278082 0.251894
O O17 0.250295 0.000000 0.299423
O O18 0.785352 0.000000 0.036818
O O19 0.000000 0.224727 0.000000
O O20 0.965496 0.213928 0.921144
O O21 0.820600 0.000000 0.200688
#
# Coordination Sequence:
#
# PCOD8065186 Si02
#       8
#     4   4   4   4   4   4   4   4
#     4  10  20  37  60  87 118 160 216 264 306 361
#     4   9  16  30  56  86 115 153 207 264 305 344
#     4  10  20  38  63  88 121 162 211 262 302 358
#     4  12  26  42  62  91 130 164 197 249 317 385
#     4  12  24  37  58  90 132 168 200 252 318 382
#     4  11  23  40  64  88 118 163 216 265 306 362
#     4  10  22  42  69  97 122 155 205 260 310 367
#     4  10  21  40  67  93 120 162 215 265 306 359
#
# _framework density 20.676572
#
# number of rings (size 3 to 8) (size 9 to 14) (size 15 to 20)
#    0.000    1.500    1.250    4.500    0.000    7.250 
#    0.000    2.500    0.000    1.500    0.000    0.000 
#    0.000    0.000    0.000    0.000    0.000    0.000 
#
# Total GULP energy -396950.458141 kJ/mol
# GULP energy per Si atom -12404.701817 kJ/mol
# Density = 2.062951 g / cm^3
# Si number density = 20.676572 Si / 1000 Ang^3
#
#
#
# Elastic Constant Matrix: (Units=GPa)
#
#
# Indices 1 2 3 4 5 6 
#
# 1 137.3798 52.2268 56.2780 0.0000 1.7792 0.0000
# 2 52.2268 98.7621 49.2850 0.0000 -4.7092 0.0000
# 3 56.2780 49.2850 99.6013 0.0000 5.8376 0.0000
# 4 0.0000 0.0000 0.0000 16.6705 0.0000 0.0166
# 5 1.7792 -4.7092 5.8376 0.0000 39.3275 0.0000
# 6 0.0000 0.0000 0.0000 0.0166 0.0000 14.6480
#
#
#
# Elastic Compliance Matrix: (Units=1/GPa)
#
#
# Indices 1 2 3 4 5 6 
#
# 1 0.010250 -0.003386 -0.004100 0.000000 -0.000261 0.000000
# 2 -0.003386 0.014837 -0.005590 0.000000 0.002760 0.000000
# 3 -0.004100 -0.005590 0.015284 0.000000 -0.002753 0.000000
# 4 0.000000 0.000000 0.000000 0.059986 0.000000 -0.000068
# 5 -0.000261 0.002760 -0.002753 0.000000 0.026178 0.000000
# 6 0.000000 0.000000 0.000000 -0.000068 0.000000 0.068269
#
#
# Mechanical properties :
#
#
# Convention : Reuss Voigt Hill
#
# Bulk Modulus (GPa) = 70.33651 72.36920 71.35285
# Shear Modulus (GPa) = 22.15351 25.99275 24.07313
#
# Velocity S-wave (km/s) = 3.27682 3.54942 3.41584
# Velocity P-wave (km/s) = 6.95759 7.20239 7.08105
#
# Compressibility (1/GPa) = 0.01421737
#
# Stress axis : x y z
#
# Youngs Moduli (GPa) = 97.56500 67.39751 65.42606
#
# Poissons Ratio (x) = 0.22823 0.26828
# Poissons Ratio (y) = 0.33039 0.36575
# Poissons Ratio (z) = 0.40006 0.37677
#
# Static dielectric constant tensor:
#      x y z
#    x 3.994980 0.000000 0.124980 
#    y 0.000000 3.411220 0.000000 
#    z 0.124980 0.000000 3.788050 
# 
# 
# High freq. dielectric constant tensor:
#      x y z
#    x 1.827640 0.000000 0.003970 
#    y 0.000000 1.778170 0.000000 
#    z 0.003970 0.000000 1.810720 
# 
# From -- ./inp_files/94960.got.cif
#   From: 2010.06.25/outbox.cif.g09.slc.cpg/sg10_48_cif.got.tgz:94960.got - 2010.06.27 22:07:45.
