data_PCOD8065519
_publ_section_title
;
Structure prediction by ZEFSAII (Michael W. Deem and Ramdas Pophale) SiO2 
 PCOD8065519
Probable space group: P 2/M
;
_chemical_formula_sum "Si O2"
_cell_formula_units_Z 20
_cell_length_a 9.591959
_cell_length_b 8.689104
_cell_length_c 24.856641
_cell_angle_alpha 90.000000
_cell_angle_beta 151.898528
_cell_angle_gamma 90.000000
_cell_volume 975.837508
_symmetry_space_group_name_H-M "P 2/M"
_symmetry_group_IT_number 10
_symmetry_cell_setting 'monoclinic'
loop_
_space_group_symop_operation_xyz
x,y,z
-x,y,-z
-x,-y,-z
x,-y,z
loop_
_atom_site_type_symbol
_atom_site_label
_atom_site_fract_x
_atom_site_fract_y
_atom_site_fract_z
Si Si1 0.260963 0.683026 0.836797
Si Si2 0.919446 0.317570 0.032581
Si Si3 0.750906 0.321037 0.454733
Si Si4 0.181880 0.678836 0.402393
Si Si5 0.143282 0.818685 0.213061
O O1 0.249986 0.500000 0.837293
O O2 0.065693 0.750180 0.720864
O O3 0.138893 0.750731 0.851055
O O4 0.592291 0.739043 0.937564
O O5 0.951694 0.500000 0.046187
O O6 0.144486 0.244371 0.152374
O O7 0.000000 0.258883 0.000000
O O8 0.681094 0.500000 0.420220
O O9 0.899063 0.294779 0.563251
O O10 0.445693 0.230199 0.345174
O O11 0.000000 0.255497 0.500000
O O12 0.500000 0.757377 0.500000
O O13 0.203630 0.500000 0.394865
O O14 0.118745 0.000000 0.204118
#
# Coordination Sequence:
#
# PCOD8065519 Si02
#       5
#     4   4   4   4   4
#     4  10  20  38  64  90 118 153 201 254 299 349
#     4  10  23  41  65  92 117 149 201 261 306 350
#     4  10  21  37  63  91 119 154 198 250 299 349
#     4   9  16  31  58  90 116 142 186 247 301 345
#     4  12  25  40  59  85 125 166 201 239 294 366
#
# _framework density 20.495214000000001
#
# number of rings (size 3 to 8) (size 9 to 14) (size 15 to 20)
#    0.000    1.800    2.000    2.400    2.800    4.000 
#    0.000    2.000    0.000    0.000    0.000    0.000 
#    0.000    0.000    0.000    0.000    0.000    0.000 
#
# Total GULP energy -248015.557352 kJ/mol
# GULP energy per Si atom -12400.777868 kJ/mol
# Density = 2.044857 g / cm^3
# Si number density = 20.495214 Si / 1000 Ang^3
#
#
#
# Elastic Constant Matrix: (Units=GPa)
#
#
# Indices 1 2 3 4 5 6 
#
# 1 127.7251 23.9188 22.8846 0.0000 -1.0735 0.0000
# 2 23.9188 42.2820 17.5538 0.0000 0.8583 0.0000
# 3 22.8846 17.5538 76.2530 0.0000 -11.3088 0.0000
# 4 0.0000 0.0000 0.0000 9.5877 0.0000 -2.5508
# 5 -1.0735 0.8583 -11.3088 0.0000 40.1532 0.0000
# 6 0.0000 0.0000 0.0000 -2.5508 0.0000 6.8567
#
#
#
# Elastic Compliance Matrix: (Units=1/GPa)
#
#
# Indices 1 2 3 4 5 6 
#
# 1 0.008949 -0.004351 -0.001706 0.000000 -0.000148 0.000000
# 2 -0.004351 0.028480 -0.005592 0.000000 -0.002300 0.000000
# 3 -0.001706 -0.005592 0.015575 0.000000 0.004460 0.000000
# 4 0.000000 0.000000 0.000000 0.115758 0.000000 0.043064
# 5 -0.000148 -0.002300 0.004460 0.000000 0.026206 0.000000
# 6 0.000000 0.000000 0.000000 0.043064 0.000000 0.161863
#
#
# Mechanical properties :
#
#
# Convention : Reuss Voigt Hill
#
# Bulk Modulus (GPa) = 33.66242 41.66383 37.66313
# Shear Modulus (GPa) = 12.81953 23.44638 18.13295
#
# Velocity S-wave (km/s) = 2.50369 3.38597 2.97769
# Velocity P-wave (km/s) = 4.98178 5.97152 5.49896
#
# Compressibility (1/GPa) = 0.02970671
#
# Stress axis : x y z
#
# Youngs Moduli (GPa) = 111.75038 35.11221 64.20571
#
# Poissons Ratio (x) = 0.15277 0.10953
# Poissons Ratio (y) = 0.48621 0.35901
# Poissons Ratio (z) = 0.19064 0.19633
#
# Static dielectric constant tensor:
#      x y z
#    x 3.900090 0.000000 -0.051290 
#    y 0.000000 3.228520 0.000000 
#    z -0.051290 0.000000 3.896920 
# 
# 
# High freq. dielectric constant tensor:
#      x y z
#    x 1.814370 0.000000 -0.008750 
#    y 0.000000 1.753250 0.000000 
#    z -0.008750 0.000000 1.812230 
# 
# From -- ./inp_files/22137.got.cif
#   From: 2010.06.25/outbox.cif.g09.slc.cpg/sg10_12_cif.got.tgz:22137.got - 2010.06.27 22:07:45.
