data_PCOD8065525
_publ_section_title
;
Structure prediction by ZEFSAII (Michael W. Deem and Ramdas Pophale) SiO2 
 PCOD8065525
Probable space group: P 2/M
;
_chemical_formula_sum "Si O2"
_cell_formula_units_Z 32
_cell_length_a 14.284746
_cell_length_b 8.718555
_cell_length_c 24.427414
_cell_angle_alpha 90.000000
_cell_angle_beta 30.714082
_cell_angle_gamma 90.000000
_cell_volume 1553.840737
_symmetry_space_group_name_H-M "P 2/M"
_symmetry_group_IT_number 10
_symmetry_cell_setting 'monoclinic'
loop_
_space_group_symop_operation_xyz
x,y,z
-x,y,-z
-x,-y,-z
x,-y,z
loop_
_atom_site_type_symbol
_atom_site_label
_atom_site_fract_x
_atom_site_fract_y
_atom_site_fract_z
Si Si1 0.144113 0.679463 0.298578
Si Si2 0.885117 0.179317 0.110487
Si Si3 0.982291 0.180770 0.838979
Si Si4 0.793639 0.179609 0.622398
Si Si5 0.775344 0.829041 0.472655
Si Si6 0.709179 0.318822 0.892142
Si Si7 0.489756 0.680643 0.319672
Si Si8 0.691899 0.829025 0.393240
O O1 0.181757 0.500000 0.284800
O O2 0.250991 0.766352 0.293235
O O3 0.207425 0.741906 0.207225
O O4 0.931054 0.715774 0.416297
O O5 0.697330 0.272091 0.203715
O O6 0.011565 0.219858 0.099723
O O7 0.836812 0.000000 0.134096
O O8 0.000000 0.229663 0.000000
O O9 0.809020 0.253704 0.895808
O O10 0.171181 0.251383 0.718461
O O11 0.976002 0.000000 0.830794
O O12 0.646722 0.266423 0.659212
O O13 0.000000 0.223024 0.500000
O O14 0.757581 0.000000 0.636029
O O15 0.578083 0.762080 0.589994
O O16 0.798315 0.837553 0.396516
O O17 0.803138 0.000000 0.484030
O O18 0.727437 0.500000 0.885759
O O19 0.500000 0.263888 0.000000
O O20 0.480423 0.500000 0.331351
O O21 0.500000 0.738441 0.500000
O O22 0.642954 0.000000 0.395535
#
# Coordination Sequence:
#
# PCOD8065525 Si02
#       8
#     4   4   4   4   4   4   4   4
#     4  11  22  37  59  87 121 159 202 253 309 368
#     4  10  23  44  68  93 124 163 211 265 312 360
#     4  10  20  38  64  92 121 158 206 257 306 358
#     4  11  23  39  62  89 122 166 210 257 313 372
#     4  11  20  34  58  86 122 160 199 249 307 368
#     4  10  23  42  62  88 127 169 205 248 307 370
#     4  12  25  40  62  92 127 166 208 256 311 375
#     4   9  17  30  53  85 118 154 195 242 300 362
#
# _framework density 20.594131999999998
#
# number of rings (size 3 to 8) (size 9 to 14) (size 15 to 20)
#    0.000    1.500    2.500    3.000    0.000    5.000 
#    0.000    2.500    0.000    1.875    0.000    0.000 
#    0.000    0.000    0.000    0.000    0.000    0.000 
#
# Total GULP energy -396740.994654 kJ/mol
# GULP energy per Si atom -12398.156083 kJ/mol
# Density = 2.054726 g / cm^3
# Si number density = 20.594132 Si / 1000 Ang^3
#
#
#
# Elastic Constant Matrix: (Units=GPa)
#
#
# Indices 1 2 3 4 5 6 
#
# 1 112.8806 27.2138 60.6598 0.0000 9.7101 0.0000
# 2 27.2138 62.6618 36.7592 0.0000 4.4751 0.0000
# 3 60.6598 36.7592 132.2843 0.0000 4.9950 0.0000
# 4 0.0000 0.0000 0.0000 25.3259 0.0000 -2.9298
# 5 9.7101 4.4751 4.9950 0.0000 39.0970 0.0000
# 6 0.0000 0.0000 0.0000 -2.9298 0.0000 15.0347
#
#
#
# Elastic Compliance Matrix: (Units=1/GPa)
#
#
# Indices 1 2 3 4 5 6 
#
# 1 0.012222 -0.002287 -0.004888 0.000000 -0.002149 0.000000
# 2 -0.002287 0.019584 -0.004351 0.000000 -0.001118 0.000000
# 3 -0.004888 -0.004351 0.010998 0.000000 0.000307 0.000000
# 4 0.000000 0.000000 0.000000 0.040396 0.000000 0.007872
# 5 -0.002149 -0.001118 0.000307 0.000000 0.026200 0.000000
# 6 0.000000 0.000000 0.000000 0.007872 0.000000 0.068047
#
#
# Mechanical properties :
#
#
# Convention : Reuss Voigt Hill
#
# Bulk Modulus (GPa) = 50.62658 61.89913 56.26286
# Shear Modulus (GPa) = 24.14495 28.10446 26.12470
#
# Velocity S-wave (km/s) = 3.42777 3.69817 3.56554
# Velocity P-wave (km/s) = 6.34843 6.95393 6.65807
#
# Compressibility (1/GPa) = 0.01975247
#
# Stress axis : x y z
#
# Youngs Moduli (GPa) = 81.82170 51.06139 90.92368
#
# Poissons Ratio (x) = 0.11678 0.44440
# Poissons Ratio (y) = 0.18714 0.39562
# Poissons Ratio (z) = 0.39991 0.22217
#
# Static dielectric constant tensor:
#      x y z
#    x 3.836060 0.000000 0.128740 
#    y 0.000000 3.506420 0.000000 
#    z 0.128740 0.000000 3.845360 
# 
# 
# High freq. dielectric constant tensor:
#      x y z
#    x 1.818300 0.000000 0.007970 
#    y 0.000000 1.784060 0.000000 
#    z 0.007970 0.000000 1.803690 
# 
# From -- ./inp_files/89520.got.cif
#   From: 2010.06.25/outbox.cif.g09.slc.cpg/sg10_45_cif.got.tgz:89520.got - 2010.06.27 22:07:45.
