data_PCOD8065884
_publ_section_title
;
Structure prediction by ZEFSAII (Michael W. Deem and Ramdas Pophale) SiO2 
 PCOD8065884
Probable space group: P 2/M
;
_chemical_formula_sum "Si O2"
_cell_formula_units_Z 24
_cell_length_a 11.665972
_cell_length_b 8.602688
_cell_length_c 12.570033
_cell_angle_alpha 90.000000
_cell_angle_beta 90.500338
_cell_angle_gamma 90.000000
_cell_volume 1261.464289
_symmetry_space_group_name_H-M "P 2/M"
_symmetry_group_IT_number 10
_symmetry_cell_setting 'monoclinic'
loop_
_space_group_symop_operation_xyz
x,y,z
-x,y,-z
-x,-y,-z
x,-y,z
loop_
_atom_site_type_symbol
_atom_site_label
_atom_site_fract_x
_atom_site_fract_y
_atom_site_fract_z
Si Si1 0.740293 0.820246 0.292465
Si Si2 0.506647 0.817807 0.622343
Si Si3 0.119673 0.318764 0.887621
Si Si4 0.263548 0.681252 0.301471
Si Si5 0.878052 0.181594 0.886190
Si Si6 0.866462 0.320657 0.487002
O O1 0.611151 0.774177 0.320802
O O2 0.776788 0.721290 0.190451
O O3 0.822425 0.785954 0.391937
O O4 0.750323 0.000000 0.263199
O O5 0.500000 0.763352 0.500000
O O6 0.603429 0.721193 0.683821
O O7 0.535034 0.000000 0.629003
O O8 0.093010 0.500000 0.883511
O O9 0.004709 0.230797 0.848635
O O10 0.155648 0.270774 0.006401
O O11 0.246944 0.500000 0.277760
O O12 0.215060 0.778283 0.202947
O O13 0.195759 0.732764 0.406120
O O14 0.876497 0.000000 0.910215
O O15 0.839502 0.500000 0.460239
O O16 0.000000 0.290442 0.500000
#
# Coordination Sequence:
#
# PCOD8065884 Si02
#       6
#     4   4   4   4   4   4
#     4  11  22  37  59  85 115 153 199 242 290 348
#     4  10  21  39  59  82 116 159 200 243 293 347
#     4  11  22  39  62  88 121 154 192 240 295 349
#     4  11  22  36  58  87 119 155 197 242 293 348
#     4  11  22  39  63  89 119 154 196 238 289 351
#     4  10  21  35  53  81 117 152 187 236 294 351
#
# _framework density 19.025507000000001
#
# number of rings (size 3 to 8) (size 9 to 14) (size 15 to 20)
#    0.000    1.333    1.667    6.000    0.000    4.000 
#    0.000    0.833    0.000    5.000    0.000    0.000 
#    0.000    0.000    0.000    0.000    0.000    0.000 
#
# Total GULP energy -297771.205188 kJ/mol
# GULP energy per Si atom -12407.133549 kJ/mol
# Density = 1.898220 g / cm^3
# Si number density = 19.025507 Si / 1000 Ang^3
#
#
#
# Elastic Constant Matrix: (Units=GPa)
#
#
# Indices 1 2 3 4 5 6 
#
# 1 107.8936 23.8675 57.6725 0.0000 -7.1749 0.0000
# 2 23.8675 56.2777 23.0220 0.0000 -8.2442 0.0000
# 3 57.6725 23.0220 103.3401 0.0000 -7.7497 0.0000
# 4 0.0000 0.0000 0.0000 33.3696 0.0000 1.5891
# 5 -7.1749 -8.2442 -7.7497 0.0000 23.1200 0.0000
# 6 0.0000 0.0000 0.0000 1.5891 0.0000 26.9286
#
#
#
# Elastic Compliance Matrix: (Units=1/GPa)
#
#
# Indices 1 2 3 4 5 6 
#
# 1 0.013654 -0.002826 -0.006923 0.000000 0.000909 0.000000
# 2 -0.002826 0.020884 -0.002649 0.000000 0.005682 0.000000
# 3 -0.006923 -0.002649 0.014257 0.000000 0.001686 0.000000
# 4 0.000000 0.000000 0.000000 0.030052 0.000000 -0.001773
# 5 0.000909 0.005682 0.001686 0.000000 0.046126 0.000000
# 6 0.000000 0.000000 0.000000 -0.001773 0.000000 0.037240
#
#
# Mechanical properties :
#
#
# Convention : Reuss Voigt Hill
#
# Bulk Modulus (GPa) = 41.66768 52.95949 47.31358
# Shear Modulus (GPa) = 25.64007 27.54692 26.59349
#
# Velocity S-wave (km/s) = 3.67504 3.80925 3.74275
# Velocity P-wave (km/s) = 6.32111 6.87340 6.60303
#
# Compressibility (1/GPa) = 0.02399942
#
# Stress axis : x y z
#
# Youngs Moduli (GPa) = 73.23728 47.88458 70.14211
#
# Poissons Ratio (x) = 0.13531 0.48556
# Poissons Ratio (y) = 0.20695 0.18583
# Poissons Ratio (z) = 0.50699 0.12686
#
# Static dielectric constant tensor:
#      x y z
#    x 3.457200 0.000000 -0.094640 
#    y 0.000000 3.500140 0.000000 
#    z -0.094640 0.000000 3.491750 
# 
# 
# High freq. dielectric constant tensor:
#      x y z
#    x 1.739150 0.000000 -0.003590 
#    y 0.000000 1.747680 0.000000 
#    z -0.003590 0.000000 1.741390 
# 
# From -- ./inp_files/45168.got.cif
#   From: 2010.06.25/outbox.cif.g09.slc.cpg/sg10_23_cif.got.tgz:45168.got - 2010.06.27 22:07:45.
