data_PCOD8065404
_publ_section_title
;
Structure prediction by ZEFSAII (Michael W. Deem and Ramdas Pophale) SiO2 
 PCOD8065404
Probable space group: P 2/M
;
_chemical_formula_sum "Si O2"
_cell_formula_units_Z 28
_cell_length_a 15.360566
_cell_length_b 10.976155
_cell_length_c 9.431278
_cell_angle_alpha 90.000000
_cell_angle_beta 61.845241
_cell_angle_gamma 90.000000
_cell_volume 1401.964982
_symmetry_space_group_name_H-M "P 2/M"
_symmetry_group_IT_number 10
_symmetry_cell_setting 'monoclinic'
loop_
_space_group_symop_operation_xyz
x,y,z
-x,y,-z
-x,-y,-z
x,-y,z
loop_
_atom_site_type_symbol
_atom_site_label
_atom_site_fract_x
_atom_site_fract_y
_atom_site_fract_z
Si Si1 0.088896 0.638806 0.020582
Si Si2 0.414790 0.362278 0.467199
Si Si3 0.116260 0.803284 0.253794
Si Si4 0.231426 0.766968 0.720707
Si Si5 0.449685 0.639353 0.892914
Si Si6 0.897688 0.134522 0.429432
Si Si7 0.305377 0.133184 0.939518
O O1 0.063307 0.500000 0.056250
O O2 0.099679 0.681573 0.174833
O O3 0.188251 0.660246 0.854269
O O4 0.000000 0.703216 0.000000
O O5 0.500000 0.305770 0.500000
O O6 0.390727 0.500000 0.534587
O O7 0.317450 0.282636 0.554643
O O8 0.454587 0.355593 0.278941
O O9 0.131102 0.780194 0.412221
O O10 0.015231 0.879416 0.316374
O O11 0.210893 0.870787 0.115871
O O12 0.148613 0.817584 0.680057
O O13 0.271308 0.867202 0.801003
O O14 0.403497 0.500000 0.923608
O O15 0.371132 0.745799 0.918178
O O16 0.500000 0.671372 0.000000
O O17 0.855558 0.000000 0.494430
O O18 0.358738 0.000000 0.921036
#
# Coordination Sequence:
#
# PCOD8065404 Si02
#       7
#     4   4   4   4   4   4   4
#     4  10  20  38  59  86 121 156 197 252 306 361
#     4  10  20  39  63  87 115 155 201 249 300 362
#     4  10  22  40  61  86 120 165 206 246 304 367
#     4  11  22  37  62  90 120 159 207 248 307 367
#     4  10  23  43  66  90 120 160 207 252 305 372
#     4  11  22  40  61  85 120 161 205 252 302 364
#     4  11  23  39  62  94 127 160 204 254 311 369
#
# _framework density 19.971968
#
# number of rings (size 3 to 8) (size 9 to 14) (size 15 to 20)
#    0.000    1.571    2.857    2.571    2.000    2.571 
#    0.000    7.143    0.000    0.000    0.000    0.000 
#    0.000    0.000    0.000    0.000    0.000    0.000 
#
# Total GULP energy -346869.551466 kJ/mol
# GULP energy per Si atom -12388.198267 kJ/mol
# Density = 1.992651 g / cm^3
# Si number density = 19.971968 Si / 1000 Ang^3
#
#
#
# Elastic Constant Matrix: (Units=GPa)
#
#
# Indices 1 2 3 4 5 6 
#
# 1 82.7193 42.8597 47.8072 0.0000 12.9642 0.0000
# 2 42.8597 108.7464 40.1590 0.0000 3.3841 0.0000
# 3 47.8072 40.1590 122.7225 0.0000 10.8668 0.0000
# 4 0.0000 0.0000 0.0000 10.2916 0.0000 4.8535
# 5 12.9642 3.3841 10.8668 0.0000 43.5279 0.0000
# 6 0.0000 0.0000 0.0000 4.8535 0.0000 11.3501
#
#
#
# Elastic Compliance Matrix: (Units=1/GPa)
#
#
# Indices 1 2 3 4 5 6 
#
# 1 0.018336 -0.005226 -0.005098 0.000000 -0.003782 0.000000
# 2 -0.005226 0.011950 -0.001973 0.000000 0.001120 0.000000
# 3 -0.005098 -0.001973 0.010872 0.000000 -0.001043 0.000000
# 4 0.000000 0.000000 0.000000 0.121711 0.000000 -0.052046
# 5 -0.003782 0.001120 -0.001043 0.000000 0.024273 0.000000
# 6 0.000000 0.000000 0.000000 -0.052046 0.000000 0.110361
#
#
# Mechanical properties :
#
#
# Convention : Reuss Voigt Hill
#
# Bulk Modulus (GPa) = 60.37690 63.98223 62.17957
# Shear Modulus (GPa) = 15.26161 25.25806 20.25984
#
# Velocity S-wave (km/s) = 2.76733 3.56009 3.18844
# Velocity P-wave (km/s) = 6.36453 7.00032 6.68998
#
# Compressibility (1/GPa) = 0.01656262
#
# Stress axis : x y z
#
# Youngs Moduli (GPa) = 54.53730 83.68532 91.97574
#
# Poissons Ratio (x) = 0.43738 0.46887
# Poissons Ratio (y) = 0.28504 0.18151
# Poissons Ratio (z) = 0.27802 0.16515
#
# Static dielectric constant tensor:
#      x y z
#    x 3.394310 0.000000 0.370150 
#    y 0.000000 3.455960 0.000000 
#    z 0.370150 0.000000 3.383880 
# 
# 
# High freq. dielectric constant tensor:
#      x y z
#    x 1.773830 0.000000 0.007750 
#    y 0.000000 1.761230 0.000000 
#    z 0.007750 0.000000 1.792420 
# 
# From -- ./inp_files/28505.got.cif
#   From: 2010.06.25/outbox.cif.g09.slc.cpg/sg10_15_cif.got.tgz:28505.got - 2010.06.27 22:07:45.
