data_PCOD8065982
_publ_section_title
;
Structure prediction by ZEFSAII (Michael W. Deem and Ramdas Pophale) SiO2 
 PCOD8065982
Probable space group: P 2/M
;
_chemical_formula_sum "Si O2"
_cell_formula_units_Z 28
_cell_length_a 9.226548
_cell_length_b 9.436695
_cell_length_c 28.953802
_cell_angle_alpha 90.000000
_cell_angle_beta 142.812480
_cell_angle_gamma 90.000000
_cell_volume 1523.728590
_symmetry_space_group_name_H-M "P 2/M"
_symmetry_group_IT_number 10
_symmetry_cell_setting 'monoclinic'
loop_
_space_group_symop_operation_xyz
x,y,z
-x,y,-z
-x,-y,-z
x,-y,z
loop_
_atom_site_type_symbol
_atom_site_label
_atom_site_fract_x
_atom_site_fract_y
_atom_site_fract_z
Si Si1 0.581654 0.835760 0.698564
Si Si2 0.088836 0.164240 0.301436
Si Si3 0.893919 0.335012 0.424822
Si Si4 0.769809 0.335012 0.575178
Si Si5 0.019964 0.162383 0.874967
Si Si6 0.829513 0.335815 1.000000
Si Si7 0.354872 0.837616 0.874967
O O1 0.699454 0.790639 0.679782
O O2 0.347862 0.745229 0.649272
O O3 0.767056 0.805270 0.786728
O O4 0.511103 0.000000 0.679501
O O5 0.101502 0.254770 0.350728
O O6 0.833415 0.194731 0.213272
O O7 0.113595 0.000000 0.320498
O O8 0.831245 0.500000 0.412121
O O9 0.000000 0.278796 0.500000
O O10 0.089723 0.301764 0.435889
O O11 0.500000 0.278796 0.500000
O O12 0.770641 0.500000 0.587879
O O13 0.235820 0.191387 0.894328
O O14 0.030112 0.000000 0.894503
O O15 0.044242 0.265399 0.924154
O O16 0.786525 0.500000 1.000000
O O17 0.576527 0.265398 0.924154
O O18 0.000000 0.312837 0.000000
O O19 0.442401 0.000000 0.894502
#
# Coordination Sequence:
#
# PCOD8065982 Si02
#       7
#     4   4   4   4   4   4   4
#     4   9  19  36  57  81 107 135 171 216 264 313
#     4   9  19  36  57  81 107 135 171 216 264 313
#     4  10  21  36  54  77 106 141 179 217 259 309
#     4  10  21  36  54  77 106 141 179 217 259 309
#     4   9  19  37  59  80 103 135 176 218 260 311
#     4  11  24  37  50  76 112 143 174 215 260 308
#     4   9  19  37  59  80 103 135 176 218 260 311
#
# _framework density 18.375976999999999
#
# number of rings (size 3 to 8) (size 9 to 14) (size 15 to 20)
#    0.000    2.429    0.000    3.429    0.000    8.571 
#    0.000    8.571    0.000    0.000    0.000    0.000 
#    0.000    0.000    0.000    0.000    0.000    0.000 
#
# Total GULP energy -347290.638181 kJ/mol
# GULP energy per Si atom -12403.237078 kJ/mol
# Density = 1.833415 g / cm^3
# Si number density = 18.375977 Si / 1000 Ang^3
#
#
#
# Elastic Constant Matrix: (Units=GPa)
#
#
# Indices 1 2 3 4 5 6 
#
# 1 108.5107 72.8977 74.5163 0.0000 2.3542 0.0000
# 2 72.8977 95.7341 72.5726 0.0000 -0.0172 0.0000
# 3 74.5163 72.5726 120.0733 0.0000 -1.7426 0.0000
# 4 0.0000 0.0000 0.0000 53.4535 0.0000 0.9408
# 5 2.3542 -0.0172 -1.7426 0.0000 39.0231 0.0000
# 6 0.0000 0.0000 0.0000 0.9408 0.0000 35.6666
#
#
#
# Elastic Compliance Matrix: (Units=1/GPa)
#
#
# Indices 1 2 3 4 5 6 
#
# 1 0.021236 -0.011374 -0.006327 0.000000 -0.001569 0.000000
# 2 -0.011374 0.025381 -0.008277 0.000000 0.000328 0.000000
# 3 -0.006327 -0.008277 0.017274 0.000000 0.001149 0.000000
# 4 0.000000 0.000000 0.000000 0.018717 0.000000 -0.000494
# 5 -0.001569 0.000328 0.001149 0.000000 0.025772 0.000000
# 6 0.000000 0.000000 0.000000 -0.000494 0.000000 0.028050
#
#
# Mechanical properties :
#
#
# Convention : Reuss Voigt Hill
#
# Bulk Modulus (GPa) = 83.78899 84.92125 84.35512
# Shear Modulus (GPa) = 25.99240 32.58408 29.28824
#
# Velocity S-wave (km/s) = 3.76503 4.21549 3.99662
# Velocity P-wave (km/s) = 8.03720 8.36704 8.20378
#
# Compressibility (1/GPa) = 0.01193474
#
# Stress axis : x y z
#
# Youngs Moduli (GPa) = 47.09048 39.39927 57.89097
#
# Poissons Ratio (x) = 0.44814 0.36626
# Poissons Ratio (y) = 0.53562 0.47916
# Poissons Ratio (z) = 0.29793 0.32610
#
# Static dielectric constant tensor:
#      x y z
#    x 3.338500 0.000000 0.002440 
#    y 0.000000 3.301650 0.000000 
#    z 0.002440 0.000000 3.384690 
# 
# 
# High freq. dielectric constant tensor:
#      x y z
#    x 1.714260 0.000000 0.000490 
#    y 0.000000 1.707980 0.000000 
#    z 0.000490 0.000000 1.723560 
# 
# From -- ./inp_files/36935.got.cif
#   From: 2010.06.25/outbox.cif.g09.slc.cpg/sg10_19_cif.got.tgz:36935.got - 2010.06.27 22:07:45.
