data_PCOD8065239
_publ_section_title
;
Structure prediction by ZEFSAII (Michael W. Deem and Ramdas Pophale) SiO2 
 PCOD8065239
Probable space group: P 2/M
;
_chemical_formula_sum "Si O2"
_cell_formula_units_Z 28
_cell_length_a 10.222099
_cell_length_b 11.928790
_cell_length_c 18.671672
_cell_angle_alpha 90.000000
_cell_angle_beta 145.373646
_cell_angle_gamma 90.000000
_cell_volume 1293.713046
_symmetry_space_group_name_H-M "P 2/M"
_symmetry_group_IT_number 10
_symmetry_cell_setting 'monoclinic'
loop_
_space_group_symop_operation_xyz
x,y,z
-x,y,-z
-x,-y,-z
x,-y,z
loop_
_atom_site_type_symbol
_atom_site_label
_atom_site_fract_x
_atom_site_fract_y
_atom_site_fract_z
Si Si1 0.743919 0.876359 0.817812
Si Si2 0.845442 0.500000 0.203881
Si Si3 0.254919 0.628811 0.631645
Si Si4 0.668635 0.500000 0.969941
Si Si5 0.119717 0.717614 0.321060
Si Si6 0.613711 0.268738 0.886593
Si Si7 0.474081 0.269457 0.599276
Si Si8 0.168174 0.873084 0.905554
O O1 0.760617 0.793030 0.892037
O O2 0.542240 0.843922 0.671591
O O3 0.985352 0.874859 0.886663
O O4 0.689298 0.000000 0.822990
O O5 0.599447 0.500000 0.130216
O O6 0.986444 0.609498 0.290851
O O7 0.828258 0.500000 0.110905
O O8 0.257061 0.500000 0.659295
O O9 0.355397 0.708132 0.740374
O O10 0.402719 0.637014 0.625241
O O11 0.000000 0.672036 0.500000
O O12 0.732101 0.389372 0.953546
O O13 0.302173 0.682774 0.341563
O O14 0.265580 0.765873 0.453220
O O15 0.936219 0.810015 0.210693
O O16 0.615326 0.196422 0.962109
O O17 0.241868 0.000000 0.917222
#
# Coordination Sequence:
#
# PCOD8065239 Si02
#       8
#     4   2   4   2   4   4   4   4
#     4   9  19  37  60  87 119 155 193 239 297 353
#     4  11  24  39  60  82 121 161 192 242 298 358
#     4  10  22  36  55  83 117 158 192 230 289 363
#     4  11  24  40  56  88 116 157 199 233 295 366
#     4  10  21  37  58  90 117 155 197 251 294 339
#     4  11  20  37  57  87 113 148 194 239 287 350
#     4   9  21  35  56  89 120 152 197 243 294 343
#     4  10  20  37  61  88 117 151 197 245 297 349
#
# _framework density 21.643128999999998
#
# number of rings (size 3 to 8) (size 9 to 14) (size 15 to 20)
#    0.000    2.000    2.143    0.857    4.000    2.286 
#    0.000    4.286    0.000   13.286    0.000    0.000 
#    0.000    0.000    0.000    0.000    0.000    0.000 
#
# Total GULP energy -347099.185467 kJ/mol
# GULP energy per Si atom -12396.399481 kJ/mol
# Density = 2.159387 g / cm^3
# Si number density = 21.643129 Si / 1000 Ang^3
#
#
#
# Elastic Constant Matrix: (Units=GPa)
#
#
# Indices 1 2 3 4 5 6 
#
# 1 24.6529 16.2963 15.8226 0.0000 -4.0303 0.0000
# 2 16.2963 140.7262 48.6490 0.0000 -8.8778 0.0000
# 3 15.8226 48.6490 151.1874 0.0000 -19.3647 0.0000
# 4 0.0000 0.0000 0.0000 27.3697 0.0000 -0.9160
# 5 -4.0303 -8.8778 -19.3647 0.0000 29.4354 0.0000
# 6 0.0000 0.0000 0.0000 -0.9160 0.0000 8.5355
#
#
#
# Elastic Compliance Matrix: (Units=1/GPa)
#
#
# Indices 1 2 3 4 5 6 
#
# 1 0.045710 -0.004032 -0.003102 0.000000 0.003002 0.000000
# 2 -0.004032 0.008368 -0.002204 0.000000 0.000522 0.000000
# 3 -0.003102 -0.002204 0.008199 0.000000 0.004305 0.000000
# 4 0.000000 0.000000 0.000000 0.036668 0.000000 0.003935
# 5 0.003002 0.000522 0.004305 0.000000 0.037373 0.000000
# 6 0.000000 0.000000 0.000000 0.003935 0.000000 0.117580
#
#
# Mechanical properties :
#
#
# Convention : Reuss Voigt Hill
#
# Bulk Modulus (GPa) = 22.93455 53.12247 38.02851
# Shear Modulus (GPa) = 17.41510 28.78802 23.10156
#
# Velocity S-wave (km/s) = 2.83971 3.65104 3.27063
# Velocity P-wave (km/s) = 4.62295 6.50934 5.64549
#
# Compressibility (1/GPa) = 0.04360234
#
# Stress axis : x y z
#
# Youngs Moduli (GPa) = 21.87712 119.50833 121.95937
#
# Poissons Ratio (x) = 0.48180 0.37832
# Poissons Ratio (y) = 0.08820 0.26877
# Poissons Ratio (z) = 0.06786 0.26337
#
# Static dielectric constant tensor:
#      x y z
#    x 3.660020 0.000000 -0.190870 
#    y 0.000000 3.941690 0.000000 
#    z -0.190870 0.000000 4.214070 
# 
# 
# High freq. dielectric constant tensor:
#      x y z
#    x 1.829010 0.000000 -0.019420 
#    y 0.000000 1.834360 0.000000 
#    z -0.019420 0.000000 1.870510 
# 
# From -- ./inp_files/84003.got.cif
#   From: 2010.06.25/outbox.cif.g09.slc.cpg/sg10_43_cif.got.tgz:84003.got - 2010.06.27 22:07:45.
