data_PCOD8065707
_publ_section_title
;
Structure prediction by ZEFSAII (Michael W. Deem and Ramdas Pophale) SiO2 
 PCOD8065707
Probable space group: P 2/M
;
_chemical_formula_sum "Si O2"
_cell_formula_units_Z 28
_cell_length_a 11.715318
_cell_length_b 12.503229
_cell_length_c 11.793322
_cell_angle_alpha 90.000000
_cell_angle_beta 88.991126
_cell_angle_gamma 90.000000
_cell_volume 1727.209802
_symmetry_space_group_name_H-M "P 2/M"
_symmetry_group_IT_number 10
_symmetry_cell_setting 'monoclinic'
loop_
_space_group_symop_operation_xyz
x,y,z
-x,y,-z
-x,-y,-z
x,-y,z
loop_
_atom_site_type_symbol
_atom_site_label
_atom_site_fract_x
_atom_site_fract_y
_atom_site_fract_z
Si Si1 0.514040 0.500000 0.318147
Si Si2 0.046691 0.872878 0.172102
Si Si3 0.681636 0.500000 0.525182
Si Si4 0.475314 0.268968 0.686150
Si Si5 0.105700 0.873899 0.419221
Si Si6 0.575114 0.125779 0.107101
Si Si7 0.311976 0.731319 0.485125
Si Si8 0.826139 0.872888 0.049460
O O1 0.584776 0.500000 0.432211
O O2 0.380241 0.500000 0.351878
O O3 0.540516 0.387318 0.254636
O O4 0.080415 0.827244 0.294220
O O5 0.919817 0.832851 0.139269
O O6 0.045341 0.000000 0.176331
O O7 0.137934 0.832499 0.076846
O O8 0.749480 0.612909 0.512982
O O9 0.480727 0.180910 0.783337
O O10 0.592725 0.264437 0.614307
O O11 0.369255 0.244166 0.605319
O O12 0.218496 0.821038 0.466821
O O13 0.000000 0.843600 0.500000
O O14 0.127576 0.000000 0.416471
O O15 0.702345 0.172386 0.084646
O O16 0.576236 0.000000 0.130968
O O17 0.500000 0.154530 0.000000
O O18 0.821782 0.000000 0.047396
#
# Coordination Sequence:
#
# PCOD8065707 Si02
#       8
#     2   4   2   4   4   4   4   4
#     4   7  12  28  51  70  88 115 156 198 232 275
#     4   8  15  29  47  62  80 118 166 197 218 256
#     4   7  12  28  51  70  88 115 156 198 232 275
#     4   9  18  32  51  72  94 123 156 193 240 288
#     4  10  21  31  43  68 102 129 152 189 234 277
#     4  10  21  31  43  68 102 129 152 189 234 277
#     4   9  18  32  51  72  94 123 156 193 240 288
#     4   8  15  29  47  62  80 118 166 197 218 256
#
# _framework density 16.211117000000002
#
# number of rings (size 3 to 8) (size 9 to 14) (size 15 to 20)
#    0.000    3.286    0.000    2.571    4.000    1.143 
#    0.000    2.143    0.000    0.000    0.000    0.000 
#    0.000    2.286    0.000    0.000    0.000    0.000 
#
# Total GULP energy -346896.534056 kJ/mol
# GULP energy per Si atom -12389.161931 kJ/mol
# Density = 1.617422 g / cm^3
# Si number density = 16.211117 Si / 1000 Ang^3
#
#
#
# Elastic Constant Matrix: (Units=GPa)
#
#
# Indices 1 2 3 4 5 6 
#
# 1 77.1842 37.6729 29.5625 0.0000 6.7209 0.0000
# 2 37.6729 50.1475 45.8129 0.0000 4.5931 0.0000
# 3 29.5625 45.8129 90.4473 0.0000 5.3785 0.0000
# 4 0.0000 0.0000 0.0000 12.7471 0.0000 0.3288
# 5 6.7209 4.5931 5.3785 0.0000 16.7476 0.0000
# 6 0.0000 0.0000 0.0000 0.3288 0.0000 11.3549
#
#
#
# Elastic Compliance Matrix: (Units=1/GPa)
#
#
# Indices 1 2 3 4 5 6 
#
# 1 0.020967 -0.017363 0.002200 0.000000 -0.004359 0.000000
# 2 -0.017363 0.051789 -0.020518 0.000000 -0.000646 0.000000
# 3 0.002200 -0.020518 0.020846 0.000000 -0.001950 0.000000
# 4 0.000000 0.000000 0.000000 0.078508 0.000000 -0.002273
# 5 -0.004359 -0.000646 -0.001950 0.000000 0.062263 0.000000
# 6 0.000000 0.000000 0.000000 -0.002273 0.000000 0.088133
#
#
# Mechanical properties :
#
#
# Convention : Reuss Voigt Hill
#
# Bulk Modulus (GPa) = 44.96228 49.31951 47.14089
# Shear Modulus (GPa) = 12.46011 15.15196 13.80603
#
# Velocity S-wave (km/s) = 2.77540 3.06055 2.92145
# Velocity P-wave (km/s) = 6.16977 6.55580 6.36572
#
# Compressibility (1/GPa) = 0.02224087
#
# Stress axis : x y z
#
# Youngs Moduli (GPa) = 47.69330 19.30922 47.97135
#
# Poissons Ratio (x) = 0.33526 -0.10556
# Poissons Ratio (y) = 0.82808 0.98430
# Poissons Ratio (z) = -0.10495 0.39619
#
# Static dielectric constant tensor:
#      x y z
#    x 3.036780 0.000000 0.021590 
#    y 0.000000 2.987530 0.000000 
#    z 0.021590 0.000000 3.057260 
# 
# 
# High freq. dielectric constant tensor:
#      x y z
#    x 1.612680 0.000000 0.002390 
#    y 0.000000 1.592940 0.000000 
#    z 0.002390 0.000000 1.614610 
# 
# From -- ./inp_files/46115.got.cif
#   From: 2010.06.25/outbox.cif.g09.slc.cpg/sg10_24_cif.got.tgz:46115.got - 2010.06.27 22:07:45.
