data_PCOD8065565
_publ_section_title
;
Structure prediction by ZEFSAII (Michael W. Deem and Ramdas Pophale) SiO2 
 PCOD8065565
Probable space group: P 2/M
;
_chemical_formula_sum "Si O2"
_cell_formula_units_Z 32
_cell_length_a 23.703615
_cell_length_b 8.781188
_cell_length_c 17.666256
_cell_angle_alpha 90.000000
_cell_angle_beta 149.195220
_cell_angle_gamma 90.000000
_cell_volume 1883.126399
_symmetry_space_group_name_H-M "P 2/M"
_symmetry_group_IT_number 10
_symmetry_cell_setting 'monoclinic'
loop_
_space_group_symop_operation_xyz
x,y,z
-x,y,-z
-x,-y,-z
x,-y,z
loop_
_atom_site_type_symbol
_atom_site_label
_atom_site_fract_x
_atom_site_fract_y
_atom_site_fract_z
Si Si1 0.681012 0.680917 0.344836
Si Si2 0.642712 0.322325 0.546551
Si Si3 0.626252 0.666544 0.123191
Si Si4 0.189254 0.820997 0.376238
Si Si5 0.985053 0.677446 0.068547
Si Si6 0.584905 0.178177 0.761555
Si Si7 0.265741 0.324662 0.184336
Si Si8 0.564061 0.681455 0.893474
O O1 0.694747 0.500000 0.357974
O O2 0.686018 0.748320 0.263775
O O3 0.778942 0.754723 0.505200
O O4 0.565186 0.723467 0.250824
O O5 0.653378 0.500000 0.539839
O O6 0.728721 0.235851 0.593593
O O7 0.519499 0.269284 0.389696
O O8 0.670325 0.286965 0.664967
O O9 0.679951 0.500000 0.175618
O O10 0.500000 0.645650 0.000000
O O11 0.628968 0.745862 0.043284
O O12 0.065558 0.769619 0.216040
O O13 0.195953 0.000000 0.388107
O O14 0.015401 0.500000 0.108417
O O15 0.862281 0.712214 0.953869
O O16 0.000000 0.735249 0.000000
O O17 0.688795 0.215899 0.828674
O O18 0.615218 0.232672 0.880879
O O19 0.559618 0.000000 0.731458
O O20 0.284448 0.500000 0.183056
O O21 0.579118 0.500000 0.903679
#
# Coordination Sequence:
#
# PCOD8065565 Si02
#       8
#     4   4   4   4   4   4   4   4
#     4   9  16  29  50  73 101 136 171 209 248 296
#     4  11  21  37  56  73  97 135 179 216 251 297
#     4   7  12  24  45  73  97 126 171 211 244 286
#     4  12  23  32  49  79 110 137 166 206 261 311
#     4  10  20  39  60  76  94 127 176 220 256 300
#     4  12  24  34  48  76 111 139 168 207 255 309
#     4  10  22  39  58  74  93 130 179 219 253 299
#     4   9  16  29  50  72 100 137 173 207 245 297
#
# _framework density 16.993017999999999
#
# number of rings (size 3 to 8) (size 9 to 14) (size 15 to 20)
#    0.000    2.000    2.500    4.500    0.000    3.250 
#    0.000    0.625    0.000    2.250    0.000    0.875 
#    0.000    7.000    0.000    0.000    0.000    0.000 
#
# Total GULP energy -396685.028170 kJ/mol
# GULP energy per Si atom -12396.407130 kJ/mol
# Density = 1.695434 g / cm^3
# Si number density = 16.993018 Si / 1000 Ang^3
#
#
#
# Elastic Constant Matrix: (Units=GPa)
#
#
# Indices 1 2 3 4 5 6 
#
# 1 90.4595 27.7654 62.7242 0.0000 -22.0101 0.0000
# 2 27.7654 47.2016 33.2871 0.0000 -14.1984 0.0000
# 3 62.7242 33.2871 86.7742 0.0000 -22.3529 0.0000
# 4 0.0000 0.0000 0.0000 7.9541 0.0000 9.2213
# 5 -22.0101 -14.1984 -22.3529 0.0000 28.3867 0.0000
# 6 0.0000 0.0000 0.0000 9.2213 0.0000 10.2006
#
#
#
# Elastic Compliance Matrix: (Units=1/GPa)
#
#
# Indices 1 2 3 4 5 6 
#
# 1 0.023013 -0.001567 -0.014601 0.000000 0.005562 0.000000
# 2 -0.001567 0.030378 -0.008680 0.000000 0.007144 0.000000
# 3 -0.014601 -0.008680 0.026812 0.000000 0.005450 0.000000
# 4 0.000000 0.000000 0.000000 -2.618724 0.000000 2.367299
# 5 0.005562 0.007144 0.005450 0.000000 0.047406 0.000000
# 6 0.000000 0.000000 0.000000 2.367299 0.000000 -2.041980
#
#
# Mechanical properties :
#
#
# Convention : Reuss Voigt Hill
#
# Bulk Modulus (GPa) = 32.77939 52.44321 42.61130
# Shear Modulus (GPa) = -1.11776 16.01885 7.45055
#
# Velocity S-wave (km/s) = -0.81191 3.07363 2.09619
# Velocity P-wave (km/s) = 4.29568 6.59734 5.56676
#
# Compressibility (1/GPa) = 0.03050698
#
# Stress axis : x y z
#
# Youngs Moduli (GPa) = 43.45285 32.91879 37.29653
#
# Poissons Ratio (x) = 0.05159 0.54457
# Poissons Ratio (y) = 0.06810 0.32373
# Poissons Ratio (z) = 0.63446 0.28573
#
# Static dielectric constant tensor:
#      x y z
#    x 3.216890 0.000000 -0.340990 
#    y 0.000000 2.998020 0.000000 
#    z -0.340990 0.000000 3.301230 
# 
# 
# High freq. dielectric constant tensor:
#      x y z
#    x 1.642800 0.000000 -0.027380 
#    y 0.000000 1.638940 0.000000 
#    z -0.027380 0.000000 1.646430 
# 
# From -- ./inp_files/79988.got.cif
#   From: 2010.06.25/outbox.cif.g09.slc.cpg/sg10_40_cif.got.tgz:79988.got - 2010.06.27 22:07:45.
