data_PCOD8065146
_publ_section_title
;
Structure prediction by ZEFSAII (Michael W. Deem and Ramdas Pophale) SiO2 
 PCOD8065146
Probable space group: P 2/M
;
_chemical_formula_sum "Si O2"
_cell_formula_units_Z 26
_cell_length_a 11.489562
_cell_length_b 14.773386
_cell_length_c 8.496586
_cell_angle_alpha 90.000000
_cell_angle_beta 90.629685
_cell_angle_gamma 90.000000
_cell_volume 1442.121156
_symmetry_space_group_name_H-M "P 2/M"
_symmetry_group_IT_number 10
_symmetry_cell_setting 'monoclinic'
loop_
_space_group_symop_operation_xyz
x,y,z
-x,y,-z
-x,-y,-z
x,-y,z
loop_
_atom_site_type_symbol
_atom_site_label
_atom_site_fract_x
_atom_site_fract_y
_atom_site_fract_z
Si Si1 0.201689 0.896922 0.689223
Si Si2 0.323381 0.603496 0.101739
Si Si3 0.373321 0.235618 0.541191
Si Si4 0.000000 0.797655 0.500000
Si Si5 0.190592 0.746599 0.273796
Si Si6 0.127999 0.897029 0.036364
Si Si7 0.576353 0.395793 0.233069
O O1 0.315032 0.840220 0.647865
O O2 0.085351 0.859516 0.604775
O O3 0.216676 0.000000 0.633376
O O4 0.199253 0.890645 0.876976
O O5 0.288998 0.500000 0.129086
O O6 0.212228 0.661552 0.158828
O O7 0.441777 0.627075 0.196579
O O8 0.344549 0.622837 0.918378
O O9 0.500000 0.199196 0.500000
O O10 0.303820 0.247338 0.380870
O O11 0.377550 0.332713 0.627242
O O12 0.075128 0.735131 0.380935
O O13 0.186368 0.838338 0.173249
O O14 0.121178 0.000000 0.099280
O O15 0.000000 0.858536 0.000000
O O16 0.589151 0.500000 0.286691
#
# Coordination Sequence:
#
# PCOD8065146 Si02
#       7
#     4   4   4   2   4   4   4
#     4  10  21  37  57  79 110 146 189 234 274 328
#     4   9  18  34  59  85 111 149 191 229 274 326
#     4  11  22  35  53  86 121 151 180 221 289 341
#     4  10  21  34  55  84 108 148 189 228 281 328
#     4  11  21  35  57  84 115 147 184 238 276 330
#     4  10  20  37  60  83 102 139 195 242 277 316
#     4   9  18  35  58  84 113 148 192 232 266 327
#
# _framework density 18.028997
#
# number of rings (size 3 to 8) (size 9 to 14) (size 15 to 20)
#    0.000    2.000    3.077    2.077    0.000    3.692 
#    0.000    0.385    0.000    3.231    0.000    0.000 
#    0.000    0.000    0.000    0.000    0.000    0.000 
#
# Total GULP energy -322384.902507 kJ/mol
# GULP energy per Si atom -12399.419327 kJ/mol
# Density = 1.798796 g / cm^3
# Si number density = 18.028997 Si / 1000 Ang^3
#
#
#
# Elastic Constant Matrix: (Units=GPa)
#
#
# Indices 1 2 3 4 5 6 
#
# 1 101.0569 59.0347 50.3791 0.0000 -11.4492 0.0000
# 2 59.0347 107.2081 56.7899 0.0000 -9.4296 0.0000
# 3 50.3791 56.7899 93.7380 0.0000 -2.2281 0.0000
# 4 0.0000 0.0000 0.0000 22.5634 0.0000 3.7301
# 5 -11.4492 -9.4296 -2.2281 0.0000 38.2278 0.0000
# 6 0.0000 0.0000 0.0000 3.7301 0.0000 27.9630
#
#
#
# Elastic Compliance Matrix: (Units=1/GPa)
#
#
# Indices 1 2 3 4 5 6 
#
# 1 0.016269 -0.006029 -0.005018 0.000000 0.003093 0.000000
# 2 -0.006029 0.016300 -0.006592 0.000000 0.001831 0.000000
# 3 -0.005018 -0.006592 0.017308 0.000000 -0.002120 0.000000
# 4 0.000000 0.000000 0.000000 0.045319 0.000000 -0.006045
# 5 0.003093 0.001831 -0.002120 0.000000 0.027413 0.000000
# 6 0.000000 0.000000 0.000000 -0.006045 0.000000 0.036568
#
#
# Mechanical properties :
#
#
# Convention : Reuss Voigt Hill
#
# Bulk Modulus (GPa) = 68.48890 70.49005 69.48947
# Shear Modulus (GPa) = 25.08521 26.80413 25.94467
#
# Velocity S-wave (km/s) = 3.73417 3.85999 3.79760
# Velocity P-wave (km/s) = 7.52746 7.68434 7.60630
#
# Compressibility (1/GPa) = 0.01460091
#
# Stress axis : x y z
#
# Youngs Moduli (GPa) = 61.46619 61.34949 57.77691
#
# Poissons Ratio (x) = 0.36985 0.28992
# Poissons Ratio (y) = 0.37055 0.38084
# Poissons Ratio (z) = 0.30843 0.40439
#
# Static dielectric constant tensor:
#      x y z
#    x 3.265080 0.000000 -0.159410 
#    y 0.000000 3.284430 0.000000 
#    z -0.159410 0.000000 3.473630 
# 
# 
# High freq. dielectric constant tensor:
#      x y z
#    x 1.683180 0.000000 -0.009360 
#    y 0.000000 1.690670 0.000000 
#    z -0.009360 0.000000 1.715510 
# 
# From -- ./inp_files/24616.got.cif
#   From: 2010.06.25/outbox.cif.g09.slc.cpg/sg10_13_cif.got.tgz:24616.got - 2010.06.27 22:07:45.
