data_PCOD8065931
_publ_section_title
;
Structure prediction by ZEFSAII (Michael W. Deem and Ramdas Pophale) SiO2 
 PCOD8065931
Probable space group: P 2/M
;
_chemical_formula_sum "Si O2"
_cell_formula_units_Z 24
_cell_length_a 18.612424
_cell_length_b 7.909880
_cell_length_c 23.950475
_cell_angle_alpha 90.000000
_cell_angle_beta 20.681246
_cell_angle_gamma 90.000000
_cell_volume 1245.285960
_symmetry_space_group_name_H-M "P 2/M"
_symmetry_group_IT_number 10
_symmetry_cell_setting 'monoclinic'
loop_
_space_group_symop_operation_xyz
x,y,z
-x,y,-z
-x,-y,-z
x,-y,z
loop_
_atom_site_type_symbol
_atom_site_label
_atom_site_fract_x
_atom_site_fract_y
_atom_site_fract_z
Si Si1 0.463133 0.185748 0.363299
Si Si2 0.246450 0.186851 0.953875
Si Si3 0.330603 0.500000 0.744144
Si Si4 0.111097 0.693410 0.546679
Si Si5 0.961488 0.500000 0.936811
Si Si6 0.630424 0.197306 0.742566
Si Si7 0.325756 0.195912 0.165556
O O1 0.617797 0.188907 0.199815
O O2 0.528155 0.332254 0.359417
O O3 0.237498 0.215433 0.503608
O O4 0.469921 0.000000 0.387378
O O5 0.393744 0.226399 0.899000
O O6 0.145073 0.000000 0.034290
O O7 0.074776 0.331819 0.074173
O O8 0.194229 0.500000 0.787724
O O9 0.190521 0.500000 0.900586
O O10 0.086651 0.500000 0.581275
O O11 0.221530 0.704258 0.406748
O O12 0.891661 0.779016 0.704575
O O13 0.666773 0.274879 0.777656
O O14 0.688453 0.000000 0.695951
O O15 0.376076 0.000000 0.136070
O O16 0.500000 0.280002 0.000000
#
# Coordination Sequence:
#
# PCOD8065931 Si02
#       7
#     4   4   2   4   2   4   4
#     4   9  16  28  44  63  92 126 162 203 240 284
#     4   8  15  26  41  63  90 123 161 199 238 283
#     4   9  16  26  38  65  93 124 160 193 241 297
#     4  11  20  31  49  72  97 129 172 211 244 292
#     4   9  16  24  40  61  95 126 154 195 241 295
#     4   9  18  32  50  71  94 127 173 211 241 291
#     4  10  21  36  51  69  98 132 165 207 256 298
#
# _framework density 19.272680999999999
#
# number of rings (size 3 to 8) (size 9 to 14) (size 15 to 20)
#    0.000    2.667    0.833    3.000    3.500    3.667 
#    0.000    3.333    0.000    0.000    0.000    0.000 
#    0.000    2.667    0.000   10.000    0.000    9.000 
#
# Total GULP energy -297515.849974 kJ/mol
# GULP energy per Si atom -12396.493749 kJ/mol
# Density = 1.922882 g / cm^3
# Si number density = 19.272681 Si / 1000 Ang^3
#
#
#
# Elastic Constant Matrix: (Units=GPa)
#
#
# Indices 1 2 3 4 5 6 
#
# 1 58.5185 44.8964 51.3292 0.0000 -37.1994 0.0000
# 2 44.8964 104.5759 23.5205 0.0000 -27.4680 0.0000
# 3 51.3292 23.5205 68.0638 0.0000 -27.0899 0.0000
# 4 0.0000 0.0000 0.0000 17.0575 0.0000 -14.3832
# 5 -37.1994 -27.4680 -27.0899 0.0000 30.5111 0.0000
# 6 0.0000 0.0000 0.0000 -14.3832 0.0000 20.5333
#
#
#
# Elastic Compliance Matrix: (Units=1/GPa)
#
#
# Indices 1 2 3 4 5 6 
#
# 1 0.261784 -0.038590 -0.109616 0.000000 0.187103 0.000000
# 2 -0.038590 0.018215 0.016406 0.000000 -0.016085 0.000000
# 3 -0.109616 0.016406 0.068626 0.000000 -0.057945 0.000000
# 4 0.000000 0.000000 0.000000 0.143221 0.000000 0.100324
# 5 0.187103 -0.016085 -0.057945 0.000000 0.194964 0.000000
# 6 0.000000 0.000000 0.000000 0.100324 0.000000 0.118976
#
#
# Mechanical properties :
#
#
# Convention : Reuss Voigt Hill
#
# Bulk Modulus (GPa) = 11.76150 52.29451 32.02800
# Shear Modulus (GPa) = 4.55486 21.04783 12.80135
#
# Velocity S-wave (km/s) = 1.53900 3.30829 2.58005
# Velocity P-wave (km/s) = 3.04531 6.46421 5.05272
#
# Compressibility (1/GPa) = 0.08502319
#
# Stress axis : x y z
#
# Youngs Moduli (GPa) = 3.81995 54.89922 14.57179
#
# Poissons Ratio (x) = 2.11856 1.59731
# Poissons Ratio (y) = 0.14741 -0.23906
# Poissons Ratio (z) = 0.41873 -0.90066
#
# Static dielectric constant tensor:
#      x y z
#    x 3.453130 0.000000 -0.301550 
#    y 0.000000 3.726060 0.000000 
#    z -0.301550 0.000000 3.153100 
# 
# 
# High freq. dielectric constant tensor:
#      x y z
#    x 1.724770 0.000000 -0.036510 
#    y 0.000000 1.757340 0.000000 
#    z -0.036510 0.000000 1.704200 
# 
# From -- ./inp_files/33816.got.cif
#   From: 2010.06.25/outbox.cif.g09.slc.cpg/sg10_17_cif.got.tgz:33816.got - 2010.06.27 22:07:45.
