data_PCOD8065081
_publ_section_title
;
Structure prediction by ZEFSAII (Michael W. Deem and Ramdas Pophale) SiO2 
 PCOD8065081
Probable space group: P 2/M
;
_chemical_formula_sum "Si O2"
_cell_formula_units_Z 32
_cell_length_a 29.810291
_cell_length_b 9.200452
_cell_length_c 12.704813
_cell_angle_alpha 90.000000
_cell_angle_beta 28.173135
_cell_angle_gamma 90.000000
_cell_volume 1645.175142
_symmetry_space_group_name_H-M "P 2/M"
_symmetry_group_IT_number 10
_symmetry_cell_setting 'monoclinic'
loop_
_space_group_symop_operation_xyz
x,y,z
-x,y,-z
-x,-y,-z
x,-y,z
loop_
_atom_site_type_symbol
_atom_site_label
_atom_site_fract_x
_atom_site_fract_y
_atom_site_fract_z
Si Si1 0.242597 0.330615 0.132435
Si Si2 0.591601 0.665947 0.536928
Si Si3 0.210479 0.332521 0.963295
Si Si4 0.116801 0.168623 0.560557
Si Si5 0.101181 0.829037 0.014198
Si Si6 0.397242 0.666426 0.242560
Si Si7 0.558309 0.169809 0.274415
Si Si8 0.785154 0.830800 0.424020
O O1 0.261745 0.500000 0.113657
O O2 0.190922 0.306894 0.127058
O O3 0.174684 0.268262 0.361613
O O4 0.341780 0.248453 0.928748
O O5 0.564057 0.500000 0.566550
O O6 0.620540 0.683613 0.597496
O O7 0.502131 0.768117 0.697937
O O8 0.681974 0.718773 0.282644
O O9 0.198856 0.500000 0.954676
O O10 0.135264 0.241283 0.052408
O O11 0.148970 0.201528 0.612516
O O12 0.007469 0.214042 0.779396
O O13 0.132809 0.000000 0.498178
O O14 0.113677 0.000000 0.998979
O O15 0.161760 0.770322 0.789677
O O16 0.392029 0.500000 0.215665
O O17 0.315364 0.752235 0.350606
O O18 0.500000 0.731915 0.000000
O O19 0.500000 0.204530 0.500000
O O20 0.575650 0.000000 0.221306
O O21 0.764121 0.000000 0.455244
#
# Coordination Sequence:
#
# PCOD8065081 Si02
#       8
#     4   4   4   4   4   4   4   4
#     4  11  24  41  60  85 120 161 201 243 294 351
#     4  10  20  37  58  82 117 160 197 238 291 346
#     4  10  21  38  61  87 118 155 199 246 290 345
#     4  10  23  42  61  87 121 155 195 246 302 354
#     4  10  21  39  65  90 115 152 196 245 302 359
#     4  10  22  38  57  86 121 155 191 237 291 348
#     4  11  23  37  58  87 118 153 194 240 286 344
#     4  10  21  39  63  89 118 154 196 243 294 355
#
# _framework density 19.450814999999999
#
# number of rings (size 3 to 8) (size 9 to 14) (size 15 to 20)
#    0.000    1.750    2.500    1.125    1.750    5.750 
#    0.000    2.500    0.000    2.250    0.000    0.000 
#    0.000    0.000    0.000    0.000    0.000    0.000 
#
# Total GULP energy -396949.530825 kJ/mol
# GULP energy per Si atom -12404.672838 kJ/mol
# Density = 1.940654 g / cm^3
# Si number density = 19.450815 Si / 1000 Ang^3
#
#
#
# Elastic Constant Matrix: (Units=GPa)
#
#
# Indices 1 2 3 4 5 6 
#
# 1 109.2318 54.2700 40.9063 0.0000 -24.8898 0.0000
# 2 54.2700 77.0183 53.4603 0.0000 -14.7751 0.0000
# 3 40.9063 53.4603 101.5690 0.0000 -18.7714 0.0000
# 4 0.0000 0.0000 0.0000 -0.8317 0.0000 26.4688
# 5 -24.8898 -14.7751 -18.7714 0.0000 34.4501 0.0000
# 6 0.0000 0.0000 0.0000 26.4688 0.0000 8.2187
#
#
#
# Elastic Compliance Matrix: (Units=1/GPa)
#
#
# Indices 1 2 3 4 5 6 
#
# 1 0.015539 -0.009691 0.000166 0.000000 0.007161 0.000000
# 2 -0.009691 0.026831 -0.010438 0.000000 -0.001182 0.000000
# 3 0.000166 -0.010438 0.016087 0.000000 0.004409 0.000000
# 4 0.000000 0.000000 0.000000 -0.011618 0.000000 0.037415
# 5 0.007161 -0.001182 0.004409 0.000000 0.036097 0.000000
# 6 0.000000 0.000000 0.000000 0.037415 0.000000 0.001176
#
#
# Mechanical properties :
#
#
# Convention : Reuss Voigt Hill
#
# Bulk Modulus (GPa) = 53.96058 65.01027 59.48542
# Shear Modulus (GPa) = 38.39789 17.64624 28.02207
#
# Velocity S-wave (km/s) = 4.44791 3.01528 3.79972
# Velocity P-wave (km/s) = 7.36076 6.75411 7.06395
#
# Compressibility (1/GPa) = 0.01853205
#
# Stress axis : x y z
#
# Youngs Moduli (GPa) = 64.35334 37.27043 62.16035
#
# Poissons Ratio (x) = 0.36118 -0.01031
# Poissons Ratio (y) = 0.62364 0.64881
# Poissons Ratio (z) = -0.01068 0.38902
#
# Static dielectric constant tensor:
#      x y z
#    x 3.550630 0.000000 0.052970 
#    y 0.000000 3.481590 0.000000 
#    z 0.052970 0.000000 3.704650 
# 
# 
# High freq. dielectric constant tensor:
#      x y z
#    x 1.766190 0.000000 -0.001010 
#    y 0.000000 1.750490 0.000000 
#    z -0.001010 0.000000 1.760850 
# 
# From -- ./inp_files/55189.got.cif
#   From: 2010.06.25/outbox.cif.g09.slc.cpg/sg10_28_cif.got.tgz:55189.got - 2010.06.27 22:07:45.
