data_PCOD8065150
_publ_section_title
;
Structure prediction by ZEFSAII (Michael W. Deem and Ramdas Pophale) SiO2 
 PCOD8065150
Probable space group: P 2/M
;
_chemical_formula_sum "Si O2"
_cell_formula_units_Z 24
_cell_length_a 18.316982
_cell_length_b 9.250450
_cell_length_c 14.021726
_cell_angle_alpha 90.000000
_cell_angle_beta 31.487537
_cell_angle_gamma 90.000000
_cell_volume 1240.935365
_symmetry_space_group_name_H-M "P 2/M"
_symmetry_group_IT_number 10
_symmetry_cell_setting 'monoclinic'
loop_
_space_group_symop_operation_xyz
x,y,z
-x,y,-z
-x,-y,-z
x,-y,z
loop_
_atom_site_type_symbol
_atom_site_label
_atom_site_fract_x
_atom_site_fract_y
_atom_site_fract_z
Si Si1 0.155178 0.165159 0.309864
Si Si2 0.250946 0.668431 0.022672
Si Si3 0.614883 0.835181 0.797301
Si Si4 0.208936 0.832795 0.706497
Si Si5 0.911796 0.832756 0.955308
Si Si6 0.570536 0.331653 0.654849
O O1 0.233647 0.176080 0.323253
O O2 0.000000 0.225049 0.500000
O O3 0.151988 0.000000 0.276325
O O4 0.234442 0.261191 0.144406
O O5 0.218932 0.500000 0.067345
O O6 0.141435 0.735513 0.071346
O O7 0.408480 0.698101 0.812109
O O8 0.616199 0.736772 0.703527
O O9 0.579844 0.000000 0.806334
O O10 0.500000 0.778206 0.000000
O O11 0.174784 0.794477 0.853534
O O12 0.339959 0.736671 0.530053
O O13 0.249885 0.000000 0.650289
O O14 0.074920 0.798437 0.789921
O O15 0.891325 0.000000 0.951277
O O16 0.603575 0.500000 0.623911
#
# Coordination Sequence:
#
# PCOD8065150 Si02
#       6
#     4   4   4   4   4   4
#     4  10  22  39  59  84 113 148 192 240 286 332
#     4  11  24  39  56  84 121 157 190 230 283 342
#     4  10  20  37  60  83 110 149 194 237 280 331
#     4   9  20  40  64  88 112 145 191 239 288 340
#     4   9  20  40  64  87 113 146 189 241 288 336
#     4  11  24  38  56  85 121 157 190 230 283 341
#
# _framework density 19.340250999999999
#
# number of rings (size 3 to 8) (size 9 to 14) (size 15 to 20)
#    0.000    2.000    1.667    2.000    2.333    5.333 
#    0.000    5.000    0.000    0.000    0.000    0.000 
#    0.000    0.000    0.000    0.000    0.000    0.000 
#
# Total GULP energy -297706.420474 kJ/mol
# GULP energy per Si atom -12404.434186 kJ/mol
# Density = 1.929623 g / cm^3
# Si number density = 19.340251 Si / 1000 Ang^3
#
#
#
# Elastic Constant Matrix: (Units=GPa)
#
#
# Indices 1 2 3 4 5 6 
#
# 1 54.5533 21.4960 -10.6029 0.0000 -4.6287 0.0000
# 2 21.4960 80.7256 29.5997 0.0000 2.4334 0.0000
# 3 -10.6029 29.5997 73.8313 0.0000 -3.3317 0.0000
# 4 0.0000 0.0000 0.0000 27.6162 0.0000 0.0399
# 5 -4.6287 2.4334 -3.3317 0.0000 25.1434 0.0000
# 6 0.0000 0.0000 0.0000 0.0399 0.0000 -16.7453
#
#
#
# Elastic Compliance Matrix: (Units=1/GPa)
#
#
# Indices 1 2 3 4 5 6 
#
# 1 0.023986 -0.009314 0.007463 0.000000 0.006306 0.000000
# 2 -0.009314 0.018260 -0.008868 0.000000 -0.004657 0.000000
# 3 0.007463 -0.008868 0.018382 0.000000 0.004668 0.000000
# 4 0.000000 0.000000 0.000000 0.036210 0.000000 0.000086
# 5 0.006306 -0.004657 0.004668 0.000000 0.042002 0.000000
# 6 0.000000 0.000000 0.000000 0.000086 0.000000 -0.059718
#
#
# Mechanical properties :
#
#
# Convention : Reuss Voigt Hill
#
# Bulk Modulus (GPa) = 25.51633 32.23286 28.87459
# Shear Modulus (GPa) = 44.00479 18.44402 31.22440
#
# Velocity S-wave (km/s) = 4.77518 3.09149 4.02242
# Velocity P-wave (km/s) = 6.60493 5.42637 6.04444
#
# Compressibility (1/GPa) = 0.03919060
#
# Stress axis : x y z
#
# Youngs Moduli (GPa) = 41.69059 54.76488 54.40047
#
# Poissons Ratio (x) = 0.51007 -0.40600
# Poissons Ratio (y) = 0.38830 0.48244
# Poissons Ratio (z) = -0.31114 0.48567
#
# Static dielectric constant tensor:
#      x y z
#    x 3.414350 0.000000 -0.073390 
#    y 0.000000 3.455680 0.000000 
#    z -0.073390 0.000000 3.607360 
# 
# 
# High freq. dielectric constant tensor:
#      x y z
#    x 1.753020 0.000000 -0.004750 
#    y 0.000000 1.746010 0.000000 
#    z -0.004750 0.000000 1.760700 
# 
# From -- ./inp_files/66699.got.cif
#   From: 2010.06.25/outbox.cif.g09.slc.cpg/sg10_34_cif.got.tgz:66699.got - 2010.06.27 22:07:45.
