data_PCOD8065767
_publ_section_title
;
Structure prediction by ZEFSAII (Michael W. Deem and Ramdas Pophale) SiO2 
 PCOD8065767
Probable space group: P 2/M
;
_chemical_formula_sum "Si O2"
_cell_formula_units_Z 24
_cell_length_a 29.409368
_cell_length_b 9.001829
_cell_length_c 8.049312
_cell_angle_alpha 90.000000
_cell_angle_beta 35.876591
_cell_angle_gamma 90.000000
_cell_volume 1248.830437
_symmetry_space_group_name_H-M "P 2/M"
_symmetry_group_IT_number 10
_symmetry_cell_setting 'monoclinic'
loop_
_space_group_symop_operation_xyz
x,y,z
-x,y,-z
-x,-y,-z
x,-y,z
loop_
_atom_site_type_symbol
_atom_site_label
_atom_site_fract_x
_atom_site_fract_y
_atom_site_fract_z
Si Si1 0.988530 0.160079 0.846033
Si Si2 0.143762 0.828433 0.211462
Si Si3 0.686831 0.176523 0.628927
Si Si4 0.844219 0.672926 0.161227
Si Si5 0.412213 0.823086 0.765166
Si Si6 0.316446 0.828631 0.737873
O O1 0.071221 0.219707 0.537094
O O2 0.967390 0.000000 0.821861
O O3 0.921285 0.280669 0.030586
O O4 0.000000 0.124587 0.000000
O O5 0.138419 0.000000 0.167550
O O6 0.139616 0.713653 0.075175
O O7 0.226588 0.805354 0.057376
O O8 0.768780 0.240181 0.449778
O O9 0.667430 0.235886 0.497777
O O10 0.694368 0.000000 0.601686
O O11 0.624023 0.230275 0.951254
O O12 0.829369 0.500000 0.228476
O O13 0.500000 0.764090 0.500000
O O14 0.368004 0.755535 0.733127
O O15 0.408260 0.000000 0.770268
O O16 0.339156 0.000000 0.662474
#
# Coordination Sequence:
#
# PCOD8065767 Si02
#       6
#     4   4   4   4   4   4
#     4  10  21  34  53  79 105 137 177 218 262 314
#     4   9  18  34  54  75 100 136 179 218 258 312
#     4   9  18  33  54  75 103 141 177 218 264 315
#     4  11  22  35  52  74 104 140 178 221 265 309
#     4   9  17  28  49  82 111 133 164 215 274 323
#     4   8  15  28  47  74 105 135 170 210 257 313
#
# _framework density 19.217983
#
# number of rings (size 3 to 8) (size 9 to 14) (size 15 to 20)
#    0.000    2.667    0.000    3.000    2.333    3.667 
#    0.000    3.333    0.000    0.500    0.000    4.667 
#    0.000    0.000    0.000    0.000    0.000    0.000 
#
# Total GULP energy -297335.684304 kJ/mol
# GULP energy per Si atom -12388.986846 kJ/mol
# Density = 1.917424 g / cm^3
# Si number density = 19.217983 Si / 1000 Ang^3
#
#
#
# Elastic Constant Matrix: (Units=GPa)
#
#
# Indices 1 2 3 4 5 6 
#
# 1 119.5685 18.0831 65.7787 0.0000 -11.2418 0.0000
# 2 18.0831 37.3706 20.3556 0.0000 -1.7653 0.0000
# 3 65.7787 20.3556 168.9027 0.0000 0.8812 0.0000
# 4 0.0000 0.0000 0.0000 9.6296 0.0000 3.9939
# 5 -11.2418 -1.7653 0.8812 0.0000 27.8420 0.0000
# 6 0.0000 0.0000 0.0000 3.9939 0.0000 5.4676
#
#
#
# Elastic Compliance Matrix: (Units=1/GPa)
#
#
# Indices 1 2 3 4 5 6 
#
# 1 0.011547 -0.003112 -0.004146 0.000000 0.004596 0.000000
# 2 -0.003112 0.029581 -0.002357 0.000000 0.000694 0.000000
# 3 -0.004146 -0.002357 0.007830 0.000000 -0.002071 0.000000
# 4 0.000000 0.000000 0.000000 0.148981 0.000000 -0.108825
# 5 0.004596 0.000694 -0.002071 0.000000 0.037882 0.000000
# 6 0.000000 0.000000 0.000000 -0.108825 0.000000 0.262387
#
#
# Mechanical properties :
#
#
# Convention : Reuss Voigt Hill
#
# Bulk Modulus (GPa) = 33.63710 59.36407 46.50058
# Shear Modulus (GPa) = 9.48141 23.36281 16.42211
#
# Velocity S-wave (km/s) = 2.22358 3.49043 2.92638
# Velocity P-wave (km/s) = 4.91257 6.87030 5.97220
#
# Compressibility (1/GPa) = 0.02972908
#
# Stress axis : x y z
#
# Youngs Moduli (GPa) = 86.60279 33.80511 127.71413
#
# Poissons Ratio (x) = 0.10520 0.52948
# Poissons Ratio (y) = 0.26951 0.30098
# Poissons Ratio (z) = 0.35904 0.07967
#
# Static dielectric constant tensor:
#      x y z
#    x 4.312280 0.000000 -0.933870 
#    y 0.000000 3.006760 0.000000 
#    z -0.933870 0.000000 5.038970 
# 
# 
# High freq. dielectric constant tensor:
#      x y z
#    x 1.747680 0.000000 -0.000250 
#    y 0.000000 1.689890 0.000000 
#    z -0.000250 0.000000 1.754950 
# 
# From -- ./inp_files/33516.got.cif
#   From: 2010.06.25/outbox.cif.g09.slc.cpg/sg10_17_cif.got.tgz:33516.got - 2010.06.27 22:07:45.
