data_PCOD8065110
_publ_section_title
;
Structure prediction by ZEFSAII (Michael W. Deem and Ramdas Pophale) SiO2 
 PCOD8065110
Probable space group: P 2/M
;
_chemical_formula_sum "Si O2"
_cell_formula_units_Z 32
_cell_length_a 18.951944
_cell_length_b 8.927732
_cell_length_c 12.656949
_cell_angle_alpha 90.000000
_cell_angle_beta 50.170045
_cell_angle_gamma 90.000000
_cell_volume 1644.584464
_symmetry_space_group_name_H-M "P 2/M"
_symmetry_group_IT_number 10
_symmetry_cell_setting 'monoclinic'
loop_
_space_group_symop_operation_xyz
x,y,z
-x,y,-z
-x,-y,-z
x,-y,z
loop_
_atom_site_type_symbol
_atom_site_label
_atom_site_fract_x
_atom_site_fract_y
_atom_site_fract_z
Si Si1 0.719705 0.821955 0.597065
Si Si2 0.990158 0.321818 0.838154
Si Si3 0.762253 0.331117 0.760646
Si Si4 0.476565 0.173674 0.137565
Si Si5 0.332285 0.172979 0.964535
Si Si6 0.808061 0.674370 0.310905
Si Si7 0.208263 0.674631 0.908607
Si Si8 0.037923 0.668685 0.360521
O O1 0.782337 0.749863 0.629399
O O2 0.616553 0.761188 0.720839
O O3 0.752729 0.766733 0.451064
O O4 0.727782 0.000000 0.591388
O O5 0.981389 0.500000 0.845575
O O6 0.996487 0.253852 0.713545
O O7 0.084710 0.273434 0.804003
O O8 0.895815 0.259697 0.980016
O O9 0.727215 0.500000 0.774270
O O10 0.690263 0.238774 0.898582
O O11 0.852737 0.332871 0.745340
O O12 0.458695 0.000000 0.133753
O O13 0.500000 0.247602 0.000000
O O14 0.557645 0.197478 0.146364
O O15 0.304588 0.000000 0.989953
O O16 0.282005 0.248967 0.914290
O O17 0.804884 0.500000 0.345553
O O18 0.761295 0.703069 0.241862
O O19 0.209397 0.500000 0.935741
O O20 0.997141 0.500000 0.401864
O O21 0.000000 0.756148 0.500000
#
# Coordination Sequence:
#
# PCOD8065110 Si02
#       8
#     4   4   4   4   4   4   4   4
#     4  11  22  38  59  82 113 149 186 232 283 338
#     4   9  16  31  55  82 110 147 193 228 264 326
#     4  11  20  33  55  83 115 146 182 227 278 334
#     4   9  18  36  59  81 108 147 189 223 269 342
#     4  11  21  36  59  84 111 144 185 232 282 332
#     4  10  21  37  59  84 112 148 192 237 278 325
#     4  10  20  37  59  84 113 149 193 236 275 324
#     4   9  16  26  46  76 109 143 179 219 261 316
#
# _framework density 19.457802999999998
#
# number of rings (size 3 to 8) (size 9 to 14) (size 15 to 20)
#    0.000    2.000    2.500    2.250    0.000    4.000 
#    0.000    4.375    0.000    6.750    0.000    0.000 
#    0.000    0.000    0.000    0.000    0.000    0.000 
#
# Total GULP energy -396569.094406 kJ/mol
# GULP energy per Si atom -12392.784200 kJ/mol
# Density = 1.941352 g / cm^3
# Si number density = 19.457803 Si / 1000 Ang^3
#
#
#
# Elastic Constant Matrix: (Units=GPa)
#
#
# Indices 1 2 3 4 5 6 
#
# 1 98.0405 35.5326 44.8122 0.0000 10.0151 0.0000
# 2 35.5326 67.8270 30.2514 0.0000 9.2612 0.0000
# 3 44.8122 30.2514 79.0325 0.0000 16.5161 0.0000
# 4 0.0000 0.0000 0.0000 -6.3247 0.0000 13.1521
# 5 10.0151 9.2612 16.5161 0.0000 30.5901 0.0000
# 6 0.0000 0.0000 0.0000 13.1521 0.0000 20.4253
#
#
#
# Elastic Compliance Matrix: (Units=1/GPa)
#
#
# Indices 1 2 3 4 5 6 
#
# 1 0.015010 -0.004914 -0.006666 0.000000 0.000173 0.000000
# 2 -0.004914 0.019488 -0.004257 0.000000 -0.001993 0.000000
# 3 -0.006666 -0.004257 0.019542 0.000000 -0.007080 0.000000
# 4 0.000000 0.000000 0.000000 -0.067597 0.000000 0.043527
# 5 0.000173 -0.001993 -0.007080 0.000000 0.037060 0.000000
# 6 0.000000 0.000000 0.000000 0.043527 0.000000 0.020931
#
#
# Mechanical properties :
#
#
# Convention : Reuss Voigt Hill
#
# Bulk Modulus (GPa) = 44.70965 51.78804 48.24884
# Shear Modulus (GPa) = 59.83527 17.89174 38.86350
#
# Velocity S-wave (km/s) = 5.55140 3.03564 4.47399
# Velocity P-wave (km/s) = 8.00739 6.24181 7.17909
#
# Compressibility (1/GPa) = 0.02236654
#
# Stress axis : x y z
#
# Youngs Moduli (GPa) = 66.62213 51.31275 51.17271
#
# Poissons Ratio (x) = 0.25214 0.34112
# Poissons Ratio (y) = 0.32737 0.21784
# Poissons Ratio (z) = 0.44411 0.21844
#
# Static dielectric constant tensor:
#      x y z
#    x 3.585060 0.000000 -0.007220 
#    y 0.000000 3.182230 0.000000 
#    z -0.007220 0.000000 3.628500 
# 
# 
# High freq. dielectric constant tensor:
#      x y z
#    x 1.763680 0.000000 0.005000 
#    y 0.000000 1.715330 0.000000 
#    z 0.005000 0.000000 1.756340 
# 
# From -- ./inp_files/55254.got.cif
#   From: 2010.06.25/outbox.cif.g09.slc.cpg/sg10_28_cif.got.tgz:55254.got - 2010.06.27 22:07:45.
