data_PCOD8065244
_publ_section_title
;
Structure prediction by ZEFSAII (Michael W. Deem and Ramdas Pophale) SiO2 
 PCOD8065244
Probable space group: P 2/M
;
_chemical_formula_sum "Si O2"
_cell_formula_units_Z 32
_cell_length_a 23.887058
_cell_length_b 8.813410
_cell_length_c 15.054606
_cell_angle_alpha 90.000000
_cell_angle_beta 150.124254
_cell_angle_gamma 90.000000
_cell_volume 1578.740119
_symmetry_space_group_name_H-M "P 2/M"
_symmetry_group_IT_number 10
_symmetry_cell_setting 'monoclinic'
loop_
_space_group_symop_operation_xyz
x,y,z
-x,y,-z
-x,-y,-z
x,-y,z
loop_
_atom_site_type_symbol
_atom_site_label
_atom_site_fract_x
_atom_site_fract_y
_atom_site_fract_z
Si Si1 0.415781 0.666543 0.962556
Si Si2 0.831740 0.678728 0.929416
Si Si3 0.093322 0.321086 0.279956
Si Si4 0.260115 0.820678 0.367972
Si Si5 0.513086 0.821102 0.760801
Si Si6 0.127968 0.665811 0.661714
Si Si7 0.724150 0.321978 0.967510
Si Si8 0.800512 0.175323 0.402747
O O1 0.388141 0.500000 0.964942
O O2 0.314334 0.740321 0.771317
O O3 0.500000 0.647058 0.000000
O O4 0.456509 0.772758 0.097824
O O5 0.813320 0.500000 0.890455
O O6 0.757902 0.771912 0.758028
O O7 0.787114 0.732331 0.964547
O O8 0.962018 0.721187 0.092323
O O9 0.110407 0.500000 0.308283
O O10 0.164349 0.258944 0.295098
O O11 0.136401 0.246984 0.428432
O O12 0.385729 0.765949 0.566860
O O13 0.247803 0.000000 0.362700
O O14 0.601340 0.753234 0.810874
O O15 0.521493 0.000000 0.764863
O O16 0.178383 0.500000 0.701629
O O17 0.129502 0.796662 0.590139
O O18 0.000000 0.635583 0.500000
O O19 0.195396 0.725418 0.840233
O O20 0.705407 0.500000 0.937557
O O21 0.780045 0.000000 0.393627
#
# Coordination Sequence:
#
# PCOD8065244 Si02
#       8
#     4   4   4   4   4   4   4   4
#     4  11  23  39  61  88 119 161 210 255 304 366
#     4  10  23  43  67  95 123 162 213 265 319 374
#     4  11  23  42  67  94 126 164 211 264 317 379
#     4  11  25  43  64  93 128 166 207 262 328 381
#     4  11  24  41  61  89 128 168 208 259 318 376
#     4  10  20  37  61  88 122 164 208 254 302 359
#     4  10  21  39  64  91 124 166 213 261 310 370
#     4  12  24  37  58  91 127 162 200 245 306 373
#
# _framework density 20.269328000000002
#
# number of rings (size 3 to 8) (size 9 to 14) (size 15 to 20)
#    0.000    1.250    1.250    4.500    0.000   10.750 
#    0.000    3.750    0.000    0.000    0.000    0.000 
#    0.000    0.000    0.000    0.000    0.000    0.000 
#
# Total GULP energy -396699.126966 kJ/mol
# GULP energy per Si atom -12396.847718 kJ/mol
# Density = 2.022319 g / cm^3
# Si number density = 20.269328 Si / 1000 Ang^3
#
#
#
# Elastic Constant Matrix: (Units=GPa)
#
#
# Indices 1 2 3 4 5 6 
#
# 1 129.6294 38.3088 50.8827 0.0000 7.7454 0.0000
# 2 38.3088 66.9514 44.5895 0.0000 2.6182 0.0000
# 3 50.8827 44.5895 135.0427 0.0000 1.5670 0.0000
# 4 0.0000 0.0000 0.0000 128.8706 0.0000 50.8303
# 5 7.7454 2.6182 1.5670 0.0000 44.3171 0.0000
# 6 0.0000 0.0000 0.0000 50.8303 0.0000 74.2591
#
#
#
# Elastic Compliance Matrix: (Units=1/GPa)
#
#
# Indices 1 2 3 4 5 6 
#
# 1 0.009930 -0.004032 -0.002394 0.000000 -0.001413 0.000000
# 2 -0.004032 0.020821 -0.005351 0.000000 -0.000336 0.000000
# 3 -0.002394 -0.005351 0.010070 0.000000 0.000378 0.000000
# 4 0.000000 0.000000 0.000000 0.010630 0.000000 -0.007276
# 5 -0.001413 -0.000336 0.000378 0.000000 0.022818 0.000000
# 6 0.000000 0.000000 0.000000 -0.007276 0.000000 0.018447
#
#
# Mechanical properties :
#
#
# Convention : Reuss Voigt Hill
#
# Bulk Modulus (GPa) = 57.92009 66.57617 62.24813
# Shear Modulus (GPa) = 40.97530 62.67885 51.82707
#
# Velocity S-wave (km/s) = 4.50103 5.56688 5.06209
# Velocity P-wave (km/s) = 7.45987 8.61610 8.05875
#
# Compressibility (1/GPa) = 0.01726517
#
# Stress axis : x y z
#
# Youngs Moduli (GPa) = 100.70540 48.02905 99.30896
#
# Poissons Ratio (x) = 0.19367 0.23771
# Poissons Ratio (y) = 0.40608 0.53145
# Poissons Ratio (z) = 0.24106 0.25703
#
# Static dielectric constant tensor:
#      x y z
#    x 3.918150 0.000000 0.087880 
#    y 0.000000 3.738020 0.000000 
#    z 0.087880 0.000000 3.825880 
# 
# 
# High freq. dielectric constant tensor:
#      x y z
#    x 1.805460 0.000000 0.006530 
#    y 0.000000 1.791820 0.000000 
#    z 0.006530 0.000000 1.803340 
# 
# From -- ./inp_files/71679.got.cif
#   From: 2010.06.25/outbox.cif.g09.slc.cpg/sg10_36_cif.got.tgz:71679.got - 2010.06.27 22:07:45.
