data_PCOD8065965
_publ_section_title
;
Structure prediction by ZEFSAII (Michael W. Deem and Ramdas Pophale) SiO2 
 PCOD8065965
Probable space group: P 2/M
;
_chemical_formula_sum "Si O2"
_cell_formula_units_Z 24
_cell_length_a 10.808640
_cell_length_b 27.932071
_cell_length_c 5.081784
_cell_angle_alpha 90.000000
_cell_angle_beta 125.795502
_cell_angle_gamma 90.000000
_cell_volume 1244.428666
_symmetry_space_group_name_H-M "P 2/M"
_symmetry_group_IT_number 10
_symmetry_cell_setting 'monoclinic'
loop_
_space_group_symop_operation_xyz
x,y,z
-x,y,-z
-x,-y,-z
x,-y,z
loop_
_atom_site_type_symbol
_atom_site_label
_atom_site_fract_x
_atom_site_fract_y
_atom_site_fract_z
Si Si1 0.820962 0.805343 0.764241
Si Si2 0.600478 0.053946 0.867506
Si Si3 0.599844 0.276553 0.383021
Si Si4 0.820796 0.136796 0.265256
Si Si5 0.100196 0.553780 0.381712
Si Si6 0.601421 0.613777 0.379238
O O1 0.751172 0.755258 0.580739
O O2 0.768669 0.845297 0.487260
O O3 0.769064 0.823316 0.987012
O O4 0.000000 0.796719 0.000000
O O5 0.500000 0.073400 0.500000
O O6 0.657913 0.000000 0.879062
O O7 0.500000 0.055469 0.000000
O O8 0.747519 0.086541 0.095410
O O9 0.500000 0.258519 0.500000
O O10 0.651335 0.331401 0.486092
O O11 0.500000 0.268811 0.000000
O O12 0.000000 0.128125 0.500000
O O13 0.152101 0.500000 0.524966
O O14 0.247564 0.584023 0.489000
O O15 0.000000 0.575623 0.500000
O O16 0.000000 0.552887 0.000000
O O17 0.500000 0.594999 0.500000
O O18 0.500000 0.608270 0.000000
#
# Coordination Sequence:
#
# PCOD8065965 Si02
#       6
#     4   4   4   4   4   4
#     4  10  21  36  53  77 106 136 174 216 259 311
#     4  10  21  36  54  78 105 133 170 213 256 307
#     4  10  21  36  54  78 107 139 178 221 264 316
#     4  10  21  36  54  77 105 136 172 213 257 310
#     4  10  21  37  57  83 113 145 185 230 275 327
#     4  10  21  37  56  81 112 145 184 228 274 327
#
# _framework density 19.285958000000001
#
# number of rings (size 3 to 8) (size 9 to 14) (size 15 to 20)
#    0.000    2.000    0.000    3.000    0.000    5.667 
#    0.000    2.500    0.000    6.000    0.000    0.000 
#    0.000    0.000    0.000    0.000    0.000    0.000 
#
# Total GULP energy -297555.335020 kJ/mol
# GULP energy per Si atom -12398.138959 kJ/mol
# Density = 1.924206 g / cm^3
# Si number density = 19.285958 Si / 1000 Ang^3
#
#
#
# Elastic Constant Matrix: (Units=GPa)
#
#
# Indices 1 2 3 4 5 6 
#
# 1 105.1772 50.4925 47.8974 0.0000 -11.9065 0.0000
# 2 50.4925 98.5585 50.3544 0.0000 19.8265 0.0000
# 3 47.8974 50.3544 100.7301 0.0000 -11.5225 0.0000
# 4 0.0000 0.0000 0.0000 92.9963 0.0000 11.1657
# 5 -11.9065 19.8265 -11.5225 0.0000 34.8648 0.0000
# 6 0.0000 0.0000 0.0000 11.1657 0.0000 29.3807
#
#
#
# Elastic Compliance Matrix: (Units=1/GPa)
#
#
# Indices 1 2 3 4 5 6 
#
# 1 0.015921 -0.009295 -0.001764 0.000000 0.010140 0.000000
# 2 -0.009295 0.023989 -0.009869 0.000000 -0.020078 0.000000
# 3 -0.001764 -0.009869 0.016912 0.000000 0.010599 0.000000
# 4 0.000000 0.000000 0.000000 0.011267 0.000000 -0.004282
# 5 0.010140 -0.020078 0.010599 0.000000 0.047066 0.000000
# 6 0.000000 0.000000 0.000000 -0.004282 0.000000 0.035663
#
#
# Mechanical properties :
#
#
# Convention : Reuss Voigt Hill
#
# Bulk Modulus (GPa) = 66.81628 66.88381 66.85004
# Shear Modulus (GPa) = 25.29535 41.82980 33.56258
#
# Velocity S-wave (km/s) = 3.62552 4.66222 4.17617
# Velocity P-wave (km/s) = 7.22815 7.98355 7.61522
#
# Compressibility (1/GPa) = 0.01496641
#
# Stress axis : x y z
#
# Youngs Moduli (GPa) = 62.80848 41.68501 59.12878
#
# Poissons Ratio (x) = 0.38747 0.10431
# Poissons Ratio (y) = 0.58382 0.58354
# Poissons Ratio (z) = 0.11080 0.41139
#
# Static dielectric constant tensor:
#      x y z
#    x 3.490340 0.000000 -0.352790 
#    y 0.000000 3.622600 0.000000 
#    z -0.352790 0.000000 3.596980 
# 
# 
# High freq. dielectric constant tensor:
#      x y z
#    x 1.750020 0.000000 -0.016070 
#    y 0.000000 1.744680 0.000000 
#    z -0.016070 0.000000 1.768850 
# 
# From -- ./inp_files/8052.got.cif
#   From: 2010.06.25/outbox.cif.g09.slc.cpg/sg10_5_cif.got.tgz:8052.got - 2010.06.27 22:07:45.
