data_PCOD8065114
_publ_section_title
;
Structure prediction by ZEFSAII (Michael W. Deem and Ramdas Pophale) SiO2 
 PCOD8065114
Probable space group: P 2/M
;
_chemical_formula_sum "Si O2"
_cell_formula_units_Z 32
_cell_length_a 19.202100
_cell_length_b 13.786177
_cell_length_c 13.899439
_cell_angle_alpha 90.000000
_cell_angle_beta 26.818239
_cell_angle_gamma 90.000000
_cell_volume 1660.053292
_symmetry_space_group_name_H-M "P 2/M"
_symmetry_group_IT_number 10
_symmetry_cell_setting 'monoclinic'
loop_
_space_group_symop_operation_xyz
x,y,z
-x,y,-z
-x,-y,-z
x,-y,z
loop_
_atom_site_type_symbol
_atom_site_label
_atom_site_fract_x
_atom_site_fract_y
_atom_site_fract_z
Si Si1 0.634751 0.389774 0.579569
Si Si2 0.647758 0.740535 0.879104
Si Si3 0.159412 0.387075 0.849760
Si Si4 0.719051 0.388336 0.957520
Si Si5 0.788584 0.770698 0.514238
Si Si6 0.594856 0.112614 0.290059
Si Si7 0.479451 0.111317 0.223033
Si Si8 0.141162 0.261807 0.055397
O O1 0.678630 0.500000 0.551976
O O2 0.705546 0.359610 0.390262
O O3 0.453158 0.375402 0.789067
O O4 0.701646 0.325477 0.583168
O O5 0.778314 0.775632 0.643092
O O6 0.500000 0.706347 0.000000
O O7 0.718817 0.649196 0.848117
O O8 0.600649 0.825938 0.011202
O O9 0.155123 0.500000 0.880361
O O10 0.190970 0.332166 0.908741
O O11 0.000000 0.352040 0.000000
O O12 0.773708 0.500000 0.892394
O O13 0.834653 0.321939 0.876435
O O14 0.697832 0.863266 0.583369
O O15 0.964841 0.772481 0.264380
O O16 0.500000 0.150343 0.500000
O O17 0.496448 0.132646 0.315279
O O18 0.634650 0.000000 0.253651
O O19 0.757357 0.165871 0.077679
O O20 0.512672 0.000000 0.156697
#
# Coordination Sequence:
#
# PCOD8065114 Si02
#       8
#     4   4   4   4   4   4   4   4
#     4  10  20  37  59  84 119 159 208 247 287 351
#     4  10  20  39  63  88 118 155 208 249 297 350
#     4  10  21  36  57  87 122 163 204 243 297 360
#     4  11  23  39  59  89 122 159 207 249 294 356
#     4  11  23  37  59  92 120 156 202 250 301 352
#     4  10  23  42  65  89 119 158 197 242 303 372
#     4  10  21  43  68  89 117 154 202 251 300 360
#     4  12  24  37  61  88 130 157 194 251 311 356
#
# _framework density 19.276489000000002
#
# number of rings (size 3 to 8) (size 9 to 14) (size 15 to 20)
#    0.000    1.500    5.000    0.375    3.500    4.500 
#    0.000    2.500    0.000    4.125    0.000    0.000 
#    0.000    0.000    0.000    0.000    0.000    0.000 
#
# Total GULP energy -396863.602388 kJ/mol
# GULP energy per Si atom -12401.987575 kJ/mol
# Density = 1.923262 g / cm^3
# Si number density = 19.276489 Si / 1000 Ang^3
#
#
#
# Elastic Constant Matrix: (Units=GPa)
#
#
# Indices 1 2 3 4 5 6 
#
# 1 85.9388 32.7968 28.6863 0.0000 19.8003 0.0000
# 2 32.7968 75.6028 29.6625 0.0000 6.2614 0.0000
# 3 28.6863 29.6625 83.5592 0.0000 10.4459 0.0000
# 4 0.0000 0.0000 0.0000 22.8311 0.0000 4.6374
# 5 19.8003 6.2614 10.4459 0.0000 33.0361 0.0000
# 6 0.0000 0.0000 0.0000 4.6374 0.0000 27.5845
#
#
#
# Elastic Compliance Matrix: (Units=1/GPa)
#
#
# Indices 1 2 3 4 5 6 
#
# 1 0.016446 -0.005402 -0.002732 0.000000 -0.007969 0.000000
# 2 -0.005402 0.017191 -0.004420 0.000000 0.001377 0.000000
# 3 -0.002732 -0.004420 0.014748 0.000000 -0.002188 0.000000
# 4 0.000000 0.000000 0.000000 0.045348 0.000000 -0.007624
# 5 -0.007969 0.001377 -0.002188 0.000000 0.035477 0.000000
# 6 0.000000 0.000000 0.000000 -0.007624 0.000000 0.037534
#
#
# Mechanical properties :
#
#
# Convention : Reuss Voigt Hill
#
# Bulk Modulus (GPa) = 42.96281 47.48800 45.22541
# Shear Modulus (GPa) = 25.04865 26.95402 26.00134
#
# Velocity S-wave (km/s) = 3.60869 3.74342 3.67667
# Velocity P-wave (km/s) = 6.30076 6.58581 6.44486
#
# Compressibility (1/GPa) = 0.02327594
#
# Stress axis : x y z
#
# Youngs Moduli (GPa) = 60.80527 58.17089 67.80564
#
# Poissons Ratio (x) = 0.31427 0.18524
# Poissons Ratio (y) = 0.32850 0.29970
# Poissons Ratio (z) = 0.16612 0.25711
#
# Static dielectric constant tensor:
#      x y z
#    x 3.556310 0.000000 0.182600 
#    y 0.000000 3.536420 0.000000 
#    z 0.182600 0.000000 3.618430 
# 
# 
# High freq. dielectric constant tensor:
#      x y z
#    x 1.753090 0.000000 0.013650 
#    y 0.000000 1.747170 0.000000 
#    z 0.013650 0.000000 1.745920 
# 
# From -- ./inp_files/54003.got.cif
#   From: 2010.06.25/outbox.cif.g09.slc.cpg/sg10_28_cif.got.tgz:54003.got - 2010.06.27 22:07:45.
