data_PCOD8065852
_publ_section_title
;
Structure prediction by ZEFSAII (Michael W. Deem and Ramdas Pophale) SiO2 
 PCOD8065852
Probable space group: P 2/M
;
_chemical_formula_sum "Si O2"
_cell_formula_units_Z 28
_cell_length_a 14.968290
_cell_length_b 8.757198
_cell_length_c 12.553015
_cell_angle_alpha 90.000000
_cell_angle_beta 105.221532
_cell_angle_gamma 90.000000
_cell_volume 1587.726766
_symmetry_space_group_name_H-M "P 2/M"
_symmetry_group_IT_number 10
_symmetry_cell_setting 'monoclinic'
loop_
_space_group_symop_operation_xyz
x,y,z
-x,y,-z
-x,-y,-z
x,-y,z
loop_
_atom_site_type_symbol
_atom_site_label
_atom_site_fract_x
_atom_site_fract_y
_atom_site_fract_z
Si Si1 0.906400 0.179038 0.239989
Si Si2 0.902021 0.680426 0.011727
Si Si3 0.227502 0.821392 0.200830
Si Si4 0.112106 0.178604 0.372244
Si Si5 0.596577 0.319268 0.661419
Si Si6 0.607018 0.679903 0.424988
Si Si7 0.799030 0.680315 0.396625
O O1 0.881799 0.261534 0.123154
O O2 0.832409 0.231376 0.303526
O O3 0.008345 0.226001 0.310004
O O4 0.898996 0.000000 0.219090
O O5 0.903989 0.500000 0.012829
O O6 0.819807 0.735970 0.911250
O O7 0.000000 0.746672 0.000000
O O8 0.177720 0.774831 0.295116
O O9 0.334120 0.768352 0.238150
O O10 0.220405 0.000000 0.177423
O O11 0.138733 0.277236 0.482700
O O12 0.119912 0.000000 0.402820
O O13 0.613244 0.500000 0.676343
O O14 0.490842 0.273989 0.659840
O O15 0.614581 0.256552 0.547533
O O16 0.610379 0.500000 0.437860
O O17 0.693514 0.737778 0.382592
O O18 0.804997 0.500000 0.379389
#
# Coordination Sequence:
#
# PCOD8065852 Si02
#       7
#     4   4   4   4   4   4   4
#     4  11  23  39  55  74 108 150 183 217 267 323
#     4  11  23  38  58  81 104 136 183 230 265 308
#     4  11  21  34  54  81 112 143 175 218 271 320
#     4  10  21  35  51  75 110 149 180 210 264 326
#     4   9  16  32  54  78 106 141 180 218 266 319
#     4   8  16  30  52  78 108 141 175 219 270 318
#     4  11  21  34  54  81 110 143 183 225 265 312
#
# _framework density 17.635275
#
# number of rings (size 3 to 8) (size 9 to 14) (size 15 to 20)
#    0.000    1.857    2.857    3.000    0.000    4.000 
#    0.000    2.857    0.000    0.857    0.000    6.000 
#    0.000    0.000    0.000    0.000    0.000    0.000 
#
# Total GULP energy -347248.121115 kJ/mol
# GULP energy per Si atom -12401.718611 kJ/mol
# Density = 1.759514 g / cm^3
# Si number density = 17.635275 Si / 1000 Ang^3
#
#
#
# Elastic Constant Matrix: (Units=GPa)
#
#
# Indices 1 2 3 4 5 6 
#
# 1 147.6049 28.3459 58.6582 0.0000 31.4895 0.0000
# 2 28.3459 48.2836 30.1778 0.0000 4.4867 0.0000
# 3 58.6582 30.1778 111.7470 0.0000 7.0167 0.0000
# 4 0.0000 0.0000 0.0000 33.2286 0.0000 9.7006
# 5 31.4895 4.4867 7.0167 0.0000 33.4128 0.0000
# 6 0.0000 0.0000 0.0000 9.7006 0.0000 53.5958
#
#
#
# Elastic Compliance Matrix: (Units=1/GPa)
#
#
# Indices 1 2 3 4 5 6 
#
# 1 0.011026 -0.002849 -0.004448 0.000000 -0.009074 0.000000
# 2 -0.002849 0.025780 -0.005490 0.000000 0.000376 0.000000
# 3 -0.004448 -0.005490 0.012623 0.000000 0.002279 0.000000
# 4 0.000000 0.000000 0.000000 0.031773 0.000000 -0.005751
# 5 -0.009074 0.000376 0.002279 0.000000 0.037952 0.000000
# 6 0.000000 0.000000 0.000000 -0.005751 0.000000 0.019699
#
#
# Mechanical properties :
#
#
# Convention : Reuss Voigt Hill
#
# Bulk Modulus (GPa) = 41.92222 60.22216 51.07219
# Shear Modulus (GPa) = 29.00573 36.74433 32.87503
#
# Velocity S-wave (km/s) = 4.05996 4.56957 4.32228
# Velocity P-wave (km/s) = 6.76765 7.87808 7.34388
#
# Compressibility (1/GPa) = 0.02385370
#
# Stress axis : x y z
#
# Youngs Moduli (GPa) = 90.69752 38.78966 79.21848
#
# Poissons Ratio (x) = 0.11053 0.35239
# Poissons Ratio (y) = 0.25843 0.43491
# Poissons Ratio (z) = 0.40345 0.21295
#
# Static dielectric constant tensor:
#      x y z
#    x 3.615140 0.000000 0.035460 
#    y 0.000000 3.136050 0.000000 
#    z 0.035460 0.000000 3.148120 
# 
# 
# High freq. dielectric constant tensor:
#      x y z
#    x 1.684630 0.000000 0.010300 
#    y 0.000000 1.676560 0.000000 
#    z 0.010300 0.000000 1.667380 
# 
# From -- ./inp_files/49083.got.cif
#   From: 2010.06.25/outbox.cif.g09.slc.cpg/sg10_25_cif.got.tgz:49083.got - 2010.06.27 22:07:45.
