data_PCOD8065957
_publ_section_title
;
Structure prediction by ZEFSAII (Michael W. Deem and Ramdas Pophale) SiO2 
 PCOD8065957
Probable space group: P 2/M
;
_chemical_formula_sum "Si O2"
_cell_formula_units_Z 32
_cell_length_a 22.668318
_cell_length_b 9.082808
_cell_length_c 27.587169
_cell_angle_alpha 90.000000
_cell_angle_beta 163.008255
_cell_angle_gamma 90.000000
_cell_volume 1659.881902
_symmetry_space_group_name_H-M "P 2/M"
_symmetry_group_IT_number 10
_symmetry_cell_setting 'monoclinic'
loop_
_space_group_symop_operation_xyz
x,y,z
-x,y,-z
-x,-y,-z
x,-y,z
loop_
_atom_site_type_symbol
_atom_site_label
_atom_site_fract_x
_atom_site_fract_y
_atom_site_fract_z
Si Si1 0.368399 0.171550 0.113850
Si Si2 0.155583 0.170105 0.162052
Si Si3 0.441455 0.324783 0.072863
Si Si4 0.917813 0.832690 0.785981
Si Si5 0.440410 0.327071 0.546139
Si Si6 0.373215 0.674455 0.603617
Si Si7 0.688089 0.326840 0.179863
Si Si8 0.065447 0.324839 0.711991
O O1 0.461481 0.247766 0.233828
O O2 0.420618 0.000000 0.156124
O O3 0.463351 0.243244 0.140761
O O4 0.129601 0.200068 0.926649
O O5 0.056291 0.194335 0.136403
O O6 0.364975 0.255414 0.324940
O O7 0.201376 0.000000 0.187133
O O8 0.000000 0.233949 0.000000
O O9 0.441730 0.500000 0.081556
O O10 0.235939 0.273779 0.884324
O O11 0.638997 0.273126 0.196139
O O12 0.756549 0.721865 0.637555
O O13 0.846819 0.000000 0.720467
O O14 0.460670 0.500000 0.556787
O O15 0.420251 0.278569 0.585885
O O16 0.385264 0.500000 0.620645
O O17 0.151567 0.737095 0.443065
O O18 0.705931 0.500000 0.196703
O O19 0.883224 0.267185 0.303023
O O20 0.500000 0.279067 0.000000
O O21 0.062775 0.500000 0.709962
#
# Coordination Sequence:
#
# PCOD8065957 Si02
#       8
#     4   4   4   4   4   4   4   4
#     4  11  23  37  53  75 104 139 179 219 259 309
#     4  10  21  39  61  82 109 147 184 214 249 301
#     4   9  16  30  54  80 105 133 168 216 269 314
#     4  10  22  39  58  79 104 140 183 219 253 303
#     4  11  23  37  57  86 113 136 169 219 272 314
#     4  10  21  36  53  75 105 139 173 213 264 316
#     4   7  11  22  46  78 103 127 167 215 257 303
#     4   8  14  28  52  79 103 131 173 218 257 307
#
# _framework density 19.278479000000001
#
# number of rings (size 3 to 8) (size 9 to 14) (size 15 to 20)
#    0.000    2.500    0.000    4.125    0.000    6.250 
#    0.000    1.250    0.000    7.875    0.000    0.000 
#    0.000    0.000    0.000    0.000    0.000    0.000 
#
# Total GULP energy -396629.591577 kJ/mol
# GULP energy per Si atom -12394.674737 kJ/mol
# Density = 1.923460 g / cm^3
# Si number density = 19.278479 Si / 1000 Ang^3
#
#
#
# Elastic Constant Matrix: (Units=GPa)
#
#
# Indices 1 2 3 4 5 6 
#
# 1 111.1389 31.3086 11.7358 0.0000 -0.8765 0.0000
# 2 31.3086 37.0383 15.5801 0.0000 -3.1498 0.0000
# 3 11.7358 15.5801 39.8535 0.0000 -8.3389 0.0000
# 4 0.0000 0.0000 0.0000 23.7598 0.0000 -3.1545
# 5 -0.8765 -3.1498 -8.3389 0.0000 33.6098 0.0000
# 6 0.0000 0.0000 0.0000 -3.1545 0.0000 17.3384
#
#
#
# Elastic Compliance Matrix: (Units=1/GPa)
#
#
# Indices 1 2 3 4 5 6 
#
# 1 0.011828 -0.010211 0.000393 0.000000 -0.000551 0.000000
# 2 -0.010211 0.041128 -0.012995 0.000000 0.000364 0.000000
# 3 0.000393 -0.012995 0.031436 0.000000 0.006592 0.000000
# 4 0.000000 0.000000 0.000000 0.043130 0.000000 0.007847
# 5 -0.000551 0.000364 0.006592 0.000000 0.031408 0.000000
# 6 0.000000 0.000000 0.000000 0.007847 0.000000 0.059103
#
#
# Mechanical properties :
#
#
# Convention : Reuss Voigt Hill
#
# Bulk Modulus (GPa) = 25.79569 33.91997 29.85783
# Shear Modulus (GPa) = 18.07791 23.56869 20.82330
#
# Velocity S-wave (km/s) = 3.06555 3.50028 3.29010
# Velocity P-wave (km/s) = 5.09311 5.82828 5.47305
#
# Compressibility (1/GPa) = 0.03876617
#
# Stress axis : x y z
#
# Youngs Moduli (GPa) = 84.54284 24.31449 31.81107
#
# Poissons Ratio (x) = 0.24827 -0.01251
# Poissons Ratio (y) = 0.86325 0.41339
# Poissons Ratio (z) = -0.03326 0.31597
#
# Static dielectric constant tensor:
#      x y z
#    x 3.891630 0.000000 0.253630 
#    y 0.000000 3.176920 0.000000 
#    z 0.253630 0.000000 3.501250 
# 
# 
# High freq. dielectric constant tensor:
#      x y z
#    x 1.772750 0.000000 0.012590 
#    y 0.000000 1.714710 0.000000 
#    z 0.012590 0.000000 1.739810 
# 
# From -- ./inp_files/93696.got.cif
#   From: 2010.06.25/outbox.cif.g09.slc.cpg/sg10_47_cif.got.tgz:93696.got - 2010.06.27 22:07:45.
