data_PCOD8065853
_publ_section_title
;
Structure prediction by ZEFSAII (Michael W. Deem and Ramdas Pophale) SiO2 
 PCOD8065853
Probable space group: P 2/M
;
_chemical_formula_sum "Si O2"
_cell_formula_units_Z 24
_cell_length_a 8.985855
_cell_length_b 18.405725
_cell_length_c 15.653206
_cell_angle_alpha 90.000000
_cell_angle_beta 29.762603
_cell_angle_gamma 90.000000
_cell_volume 1285.150350
_symmetry_space_group_name_H-M "P 2/M"
_symmetry_group_IT_number 10
_symmetry_cell_setting 'monoclinic'
loop_
_space_group_symop_operation_xyz
x,y,z
-x,y,-z
-x,-y,-z
x,-y,z
loop_
_atom_site_type_symbol
_atom_site_label
_atom_site_fract_x
_atom_site_fract_y
_atom_site_fract_z
Si Si1 0.153026 0.327721 0.166868
Si Si2 0.153702 0.085459 0.836456
Si Si3 0.151235 0.085015 0.513760
Si Si4 0.711873 0.420065 0.476989
Si Si5 0.124528 0.415680 0.846944
Si Si6 0.850306 0.842088 0.825617
O O1 0.086266 0.242919 0.199735
O O2 0.980133 0.362274 0.334731
O O3 0.037803 0.363408 0.138028
O O4 0.500000 0.345696 0.000000
O O5 0.501600 0.106828 0.664331
O O6 0.998637 0.121364 0.833101
O O7 0.107274 0.000000 0.850991
O O8 0.000000 0.114278 0.000000
O O9 0.000000 0.107253 0.500000
O O10 0.995452 0.128870 0.666764
O O11 0.108866 0.000000 0.553711
O O12 0.500000 0.418576 0.500000
O O13 0.855983 0.500000 0.416936
O O14 0.485562 0.401711 0.667840
O O15 0.057615 0.500000 0.857158
O O16 0.000000 0.393473 0.000000
O O17 0.500000 0.860718 0.000000
#
# Coordination Sequence:
#
# PCOD8065853 Si02
#       6
#     4   4   4   4   4   4
#     4  10  21  35  51  76 107 141 179 216 263 319
#     4  10  21  37  58  83 108 140 183 226 275 333
#     4  10  21  38  60  84 109 140 181 230 281 331
#     4   8  15  30  52  75  99 132 172 209 252 309
#     4   9  18  34  56  80 105 136 177 222 267 318
#     4  11  23  37  53  79 114 148 186 228 273 326
#
# _framework density 18.674858
#
# number of rings (size 3 to 8) (size 9 to 14) (size 15 to 20)
#    0.000    2.333    0.000    3.500    0.000   10.000 
#    0.000    4.167    0.000    3.000    0.000    0.000 
#    0.000    0.000    0.000    0.000    0.000    0.000 
#
# Total GULP energy -297565.868969 kJ/mol
# GULP energy per Si atom -12398.577874 kJ/mol
# Density = 1.863235 g / cm^3
# Si number density = 18.674858 Si / 1000 Ang^3
#
#
#
# Elastic Constant Matrix: (Units=GPa)
#
#
# Indices 1 2 3 4 5 6 
#
# 1 121.1273 62.5345 79.3581 0.0000 2.4366 0.0000
# 2 62.5345 79.1234 76.6536 0.0000 -1.7118 0.0000
# 3 79.3581 76.6536 185.9178 0.0000 13.4345 0.0000
# 4 0.0000 0.0000 0.0000 31.3529 0.0000 -6.2327
# 5 2.4366 -1.7118 13.4345 0.0000 32.2567 0.0000
# 6 0.0000 0.0000 0.0000 -6.2327 0.0000 22.6149
#
#
#
# Elastic Compliance Matrix: (Units=1/GPa)
#
#
# Indices 1 2 3 4 5 6 
#
# 1 0.014600 -0.009253 -0.002373 0.000000 -0.000605 0.000000
# 2 -0.009253 0.027680 -0.007856 0.000000 0.005440 0.000000
# 3 -0.002373 -0.007856 0.009947 0.000000 -0.004380 0.000000
# 4 0.000000 0.000000 0.000000 0.033744 0.000000 0.009300
# 5 -0.000605 0.005440 -0.004380 0.000000 0.033160 0.000000
# 6 0.000000 0.000000 0.000000 0.009300 0.000000 0.046782
#
#
# Mechanical properties :
#
#
# Convention : Reuss Voigt Hill
#
# Bulk Modulus (GPa) = 75.39778 91.47341 83.43560
# Shear Modulus (GPa) = 23.88955 28.41972 26.15463
#
# Velocity S-wave (km/s) = 3.58052 3.90528 3.74642
# Velocity P-wave (km/s) = 7.58651 8.33207 7.96801
#
# Compressibility (1/GPa) = 0.01326299
#
# Stress axis : x y z
#
# Youngs Moduli (GPa) = 68.49466 36.12763 100.53097
#
# Poissons Ratio (x) = 0.33428 0.23858
# Poissons Ratio (y) = 0.63376 0.78976
# Poissons Ratio (z) = 0.16255 0.28381
#
# Static dielectric constant tensor:
#      x y z
#    x 3.238680 0.000000 0.052970 
#    y 0.000000 3.424620 0.000000 
#    z 0.052970 0.000000 4.028120 
# 
# 
# High freq. dielectric constant tensor:
#      x y z
#    x 1.706810 0.000000 0.001680 
#    y 0.000000 1.720730 0.000000 
#    z 0.001680 0.000000 1.751100 
# 
# From -- ./inp_files/62268.got.cif
#   From: 2010.06.25/outbox.cif.g09.slc.cpg/sg10_32_cif.got.tgz:62268.got - 2010.06.27 22:07:45.
