data_PCOD8065936
_publ_section_title
;
Structure prediction by ZEFSAII (Michael W. Deem and Ramdas Pophale) SiO2 
 PCOD8065936
Probable space group: P 2/M
;
_chemical_formula_sum "Si O2"
_cell_formula_units_Z 24
_cell_length_a 23.541664
_cell_length_b 8.820087
_cell_length_c 10.341716
_cell_angle_alpha 90.000000
_cell_angle_beta 38.648178
_cell_angle_gamma 90.000000
_cell_volume 1341.097887
_symmetry_space_group_name_H-M "P 2/M"
_symmetry_group_IT_number 10
_symmetry_cell_setting 'monoclinic'
loop_
_space_group_symop_operation_xyz
x,y,z
-x,y,-z
-x,-y,-z
x,-y,z
loop_
_atom_site_type_symbol
_atom_site_label
_atom_site_fract_x
_atom_site_fract_y
_atom_site_fract_z
Si Si1 0.558367 0.819590 0.278004
Si Si2 0.732807 0.171407 0.365890
Si Si3 0.253212 0.172196 0.956464
Si Si4 0.456026 0.818302 0.209325
Si Si5 0.067043 0.180955 0.993509
Si Si6 0.934571 0.322226 0.731336
O O1 0.500000 0.750709 0.500000
O O2 0.664098 0.769851 0.100637
O O3 0.518201 0.756545 0.215447
O O4 0.553053 0.000000 0.292902
O O5 0.710069 0.179263 0.254943
O O6 0.647367 0.247082 0.592941
O O7 0.740181 0.000000 0.401460
O O8 0.831579 0.246945 0.218366
O O9 0.224168 0.000000 0.041939
O O10 0.167372 0.280068 0.129863
O O11 0.453316 0.000000 0.216984
O O12 0.500000 0.755494 0.000000
O O13 0.034803 0.241712 0.190008
O O14 0.069068 0.000000 0.999760
O O15 0.000000 0.238102 0.000000
O O16 0.941817 0.500000 0.741174
O O17 0.000000 0.267139 0.500000
#
# Coordination Sequence:
#
# PCOD8065936 Si02
#       6
#     4   4   4   4   4   4
#     4   9  14  23  41  65  91 122 157 190 230 288
#     4   8  13  24  41  61  91 126 152 184 233 284
#     4   9  16  28  49  72  93 123 163 202 242 287
#     4   9  15  22  34  59  95 125 148 182 231 283
#     4   9  18  33  53  77 101 126 162 208 253 296
#     4  10  21  36  52  71  99 133 168 207 252 300
#
# _framework density 17.895786000000001
#
# number of rings (size 3 to 8) (size 9 to 14) (size 15 to 20)
#    0.000    3.000    1.667    1.500    0.000    1.667 
#    3.000    0.000    0.000    0.500    0.000    0.000 
#    0.000   11.333    0.000    0.000    0.000    0.000 
#
# Total GULP energy -297431.770339 kJ/mol
# GULP energy per Si atom -12392.990431 kJ/mol
# Density = 1.785505 g / cm^3
# Si number density = 17.895786 Si / 1000 Ang^3
#
#
#
# Elastic Constant Matrix: (Units=GPa)
#
#
# Indices 1 2 3 4 5 6 
#
# 1 157.3722 15.2480 82.1699 0.0000 -7.5691 0.0000
# 2 15.2480 16.7072 18.9233 0.0000 1.1952 0.0000
# 3 82.1699 18.9233 145.5761 0.0000 2.6538 0.0000
# 4 0.0000 0.0000 0.0000 11.5296 0.0000 2.7512
# 5 -7.5691 1.1952 2.6538 0.0000 25.1903 0.0000
# 6 0.0000 0.0000 0.0000 2.7512 0.0000 8.2181
#
#
#
# Elastic Compliance Matrix: (Units=1/GPa)
#
#
# Indices 1 2 3 4 5 6 
#
# 1 0.009429 -0.003232 -0.004966 0.000000 0.003510 0.000000
# 2 -0.003232 0.071438 -0.007397 0.000000 -0.003581 0.000000
# 3 -0.004966 -0.007397 0.010675 0.000000 -0.002266 0.000000
# 4 0.000000 0.000000 0.000000 0.094264 0.000000 -0.031557
# 5 0.003510 -0.003581 -0.002266 0.000000 0.041161 0.000000
# 6 0.000000 0.000000 0.000000 -0.031557 0.000000 0.132247
#
#
# Mechanical properties :
#
#
# Convention : Reuss Voigt Hill
#
# Bulk Modulus (GPa) = 16.56918 61.37087 38.97003
# Shear Modulus (GPa) = 12.17962 22.54188 17.36075
#
# Velocity S-wave (km/s) = 2.61163 3.55296 3.11803
# Velocity P-wave (km/s) = 4.28637 7.15537 5.89798
#
# Compressibility (1/GPa) = 0.06035300
#
# Stress axis : x y z
#
# Youngs Moduli (GPa) = 106.05151 13.99816 93.67487
#
# Poissons Ratio (x) = 0.04524 0.46521
# Poissons Ratio (y) = 0.34275 0.69288
# Poissons Ratio (z) = 0.52668 0.10354
#
# Static dielectric constant tensor:
#      x y z
#    x 3.444240 0.000000 -0.157460 
#    y 0.000000 2.715130 0.000000 
#    z -0.157460 0.000000 3.469170 
# 
# 
# High freq. dielectric constant tensor:
#      x y z
#    x 1.692250 0.000000 -0.014700 
#    y 0.000000 1.630010 0.000000 
#    z -0.014700 0.000000 1.695910 
# 
# From -- ./inp_files/57230.got.cif
#   From: 2010.06.25/outbox.cif.g09.slc.cpg/sg10_29_cif.got.tgz:57230.got - 2010.06.27 22:07:45.
