data_PCOD8065512
_publ_section_title
;
Structure prediction by ZEFSAII (Michael W. Deem and Ramdas Pophale) SiO2 
 PCOD8065512
Probable space group: P 2/M
;
_chemical_formula_sum "Si O2"
_cell_formula_units_Z 32
_cell_length_a 25.853105
_cell_length_b 8.861937
_cell_length_c 19.981992
_cell_angle_alpha 90.000000
_cell_angle_beta 20.904324
_cell_angle_gamma 90.000000
_cell_volume 1633.485719
_symmetry_space_group_name_H-M "P 2/M"
_symmetry_group_IT_number 10
_symmetry_cell_setting 'monoclinic'
loop_
_space_group_symop_operation_xyz
x,y,z
-x,y,-z
-x,-y,-z
x,-y,z
loop_
_atom_site_type_symbol
_atom_site_label
_atom_site_fract_x
_atom_site_fract_y
_atom_site_fract_z
Si Si1 0.646090 0.823140 0.674374
Si Si2 0.169565 0.826689 0.421186
Si Si3 0.321713 0.826675 0.101018
Si Si4 0.340743 0.176745 0.711729
Si Si5 0.631864 0.321411 0.554354
Si Si6 0.332645 0.177105 0.875107
Si Si7 0.868355 0.676714 0.778779
Si Si8 0.162776 0.678707 0.813056
O O1 0.757305 0.776618 0.597906
O O2 0.694335 0.734881 0.549548
O O3 0.652415 0.000000 0.652105
O O4 0.485599 0.773945 0.890677
O O5 0.288121 0.805996 0.219754
O O6 0.035544 0.718803 0.567864
O O7 0.116431 0.000000 0.488434
O O8 0.215491 0.722367 0.186826
O O9 0.298987 0.000000 0.105964
O O10 0.500000 0.237005 0.500000
O O11 0.310390 0.219448 0.824878
O O12 0.220731 0.259530 0.813033
O O13 0.329277 0.000000 0.711512
O O14 0.622844 0.500000 0.565009
O O15 0.472778 0.255798 0.736354
O O16 0.737852 0.261417 0.367891
O O17 0.352635 0.000000 0.861152
O O18 0.192224 0.235006 0.083688
O O19 0.851458 0.500000 0.811263
O O20 0.165239 0.500000 0.813122
O O21 0.000000 0.739766 0.000000
#
# Coordination Sequence:
#
# PCOD8065512 Si02
#       8
#     4   4   4   4   4   4   4   4
#     4  10  21  38  63  90 118 157 202 247 297 352
#     4  10  22  40  61  88 121 158 203 248 298 355
#     4  10  20  38  64  89 117 157 202 249 296 355
#     4  10  21  38  62  91 117 147 196 251 295 339
#     4  11  22  37  60  89 121 158 199 242 294 353
#     4  11  22  39  63  88 118 154 199 250 299 353
#     4  12  25  39  58  88 123 159 200 246 300 356
#     4  10  23  41  60  87 125 164 197 233 289 358
#
# _framework density 19.590008999999998
#
# number of rings (size 3 to 8) (size 9 to 14) (size 15 to 20)
#    0.000    1.500    2.500    2.625    0.000    7.000 
#    0.000    2.500    0.000    2.250    0.000    0.000 
#    0.000    0.000    0.000    0.000    0.000    0.000 
#
# Total GULP energy -396998.842679 kJ/mol
# GULP energy per Si atom -12406.213834 kJ/mol
# Density = 1.954542 g / cm^3
# Si number density = 19.590009 Si / 1000 Ang^3
#
#
#
# Elastic Constant Matrix: (Units=GPa)
#
#
# Indices 1 2 3 4 5 6 
#
# 1 114.9189 35.1857 18.9060 0.0000 4.3500 0.0000
# 2 35.1857 45.0421 11.3740 0.0000 0.0806 0.0000
# 3 18.9060 11.3740 55.8029 0.0000 -0.2788 0.0000
# 4 0.0000 0.0000 0.0000 21.0067 0.0000 5.4885
# 5 4.3500 0.0806 -0.2788 0.0000 38.5545 0.0000
# 6 0.0000 0.0000 0.0000 5.4885 0.0000 -9.8927
#
#
#
# Elastic Compliance Matrix: (Units=1/GPa)
#
#
# Indices 1 2 3 4 5 6 
#
# 1 0.011758 -0.008619 -0.002234 0.000000 -0.001325 0.000000
# 2 -0.008619 0.029724 -0.003134 0.000000 0.000888 0.000000
# 3 -0.002234 -0.003134 0.019318 0.000000 0.000398 0.000000
# 4 0.000000 0.000000 0.000000 0.041577 0.000000 0.023067
# 5 -0.001325 0.000888 0.000398 0.000000 0.026088 0.000000
# 6 0.000000 0.000000 0.000000 0.023067 0.000000 -0.088287
#
#
# Mechanical properties :
#
#
# Convention : Reuss Voigt Hill
#
# Bulk Modulus (GPa) = 30.46252 38.52171 34.49211
# Shear Modulus (GPa) = 63.21630 19.95359 41.58494
#
# Velocity S-wave (km/s) = 5.68680 3.19495 4.61234
# Velocity P-wave (km/s) = 7.66182 5.77208 6.78308
#
# Compressibility (1/GPa) = 0.03282723
#
# Stress axis : x y z
#
# Youngs Moduli (GPa) = 85.04616 33.64273 51.76594
#
# Poissons Ratio (x) = 0.28996 0.11562
# Poissons Ratio (y) = 0.73300 0.16223
# Poissons Ratio (z) = 0.18996 0.10543
#
# Static dielectric constant tensor:
#      x y z
#    x 3.715120 0.000000 0.116710 
#    y 0.000000 3.448700 0.000000 
#    z 0.116710 0.000000 3.660050 
# 
# 
# High freq. dielectric constant tensor:
#      x y z
#    x 1.776140 0.000000 0.007400 
#    y 0.000000 1.754180 0.000000 
#    z 0.007400 0.000000 1.766880 
# 
# From -- ./inp_files/86846.got.cif
#   From: 2010.06.25/outbox.cif.g09.slc.cpg/sg10_44_cif.got.tgz:86846.got - 2010.06.27 22:07:45.
