data_PCOD8065147
_publ_section_title
;
Structure prediction by ZEFSAII (Michael W. Deem and Ramdas Pophale) SiO2 
 PCOD8065147
Probable space group: P 2/M
;
_chemical_formula_sum "Si O2"
_cell_formula_units_Z 32
_cell_length_a 14.276653
_cell_length_b 8.674707
_cell_length_c 18.631677
_cell_angle_alpha 90.000000
_cell_angle_beta 135.601367
_cell_angle_gamma 90.000000
_cell_volume 1614.402061
_symmetry_space_group_name_H-M "P 2/M"
_symmetry_group_IT_number 10
_symmetry_cell_setting 'monoclinic'
loop_
_space_group_symop_operation_xyz
x,y,z
-x,y,-z
-x,-y,-z
x,-y,z
loop_
_atom_site_type_symbol
_atom_site_label
_atom_site_fract_x
_atom_site_fract_y
_atom_site_fract_z
Si Si1 0.077567 0.817194 0.188957
Si Si2 0.598721 0.182911 0.387548
Si Si3 0.209527 0.681717 0.999937
Si Si4 0.667131 0.816968 0.269515
Si Si5 0.842592 0.183811 0.610883
Si Si6 0.302188 0.182509 0.199751
Si Si7 0.956236 0.183134 0.398788
Si Si8 0.438213 0.817177 0.041067
O O1 0.123060 0.752223 0.291449
O O2 0.189092 0.764609 0.193248
O O3 0.939416 0.745127 0.088279
O O4 0.061587 0.000000 0.181799
O O5 0.661274 0.246677 0.347428
O O6 0.694160 0.241382 0.504835
O O7 0.444976 0.238420 0.310730
O O8 0.602167 0.000000 0.388335
O O9 0.204139 0.500000 0.997792
O O10 0.277825 0.740727 0.109931
O O11 0.294909 0.739797 0.978149
O O12 0.802618 0.763881 0.303376
O O13 0.539563 0.755021 0.156945
O O14 0.662556 0.000000 0.268245
O O15 0.952603 0.250486 0.615295
O O16 0.846744 0.000000 0.614311
O O17 0.302083 0.000000 0.187462
O O18 0.000000 0.248844 0.500000
O O19 0.971332 0.000000 0.407166
O O20 0.418349 0.000000 0.030999
O O21 0.500000 0.761308 0.000000
#
# Coordination Sequence:
#
# PCOD8065147 Si02
#       8
#     4   4   4   4   4   4   4   4
#     4  10  22  37  56  83 113 146 187 240 294 342
#     4   9  15  27  50  79 113 145 177 225 283 339
#     4  12  25  40  59  81 111 150 192 238 282 338
#     4   9  15  25  44  74 109 143 176 215 266 321
#     4   9  17  28  46  79 117 146 178 225 283 344
#     4  10  20  37  60  83 110 144 187 241 294 342
#     4   9  14  21  38  69 108 144 173 207 257 320
#     4  10  21  36  58  87 116 148 185 228 279 335
#
# _framework density 19.821580999999998
#
# number of rings (size 3 to 8) (size 9 to 14) (size 15 to 20)
#    0.000    2.250    2.500    1.500    1.750    2.750 
#    0.000    2.500    0.000    0.750    0.000    1.750 
#    0.000    3.000    0.000    0.000    0.000    0.000 
#
# Total GULP energy -396675.996614 kJ/mol
# GULP energy per Si atom -12396.124894 kJ/mol
# Density = 1.977647 g / cm^3
# Si number density = 19.821581 Si / 1000 Ang^3
#
#
#
# Elastic Constant Matrix: (Units=GPa)
#
#
# Indices 1 2 3 4 5 6 
#
# 1 149.0131 22.2762 50.1261 0.0000 18.1122 0.0000
# 2 22.2762 18.1165 13.2129 0.0000 4.5963 0.0000
# 3 50.1261 13.2129 103.4535 0.0000 19.5378 0.0000
# 4 0.0000 0.0000 0.0000 -0.0669 0.0000 -1.3804
# 5 18.1122 4.5963 19.5378 0.0000 41.4705 0.0000
# 6 0.0000 0.0000 0.0000 -1.3804 0.0000 5.7649
#
#
#
# Elastic Compliance Matrix: (Units=1/GPa)
#
#
# Indices 1 2 3 4 5 6 
#
# 1 0.009240 -0.008720 -0.003056 0.000000 -0.001630 0.000000
# 2 -0.008720 0.069533 -0.004302 0.000000 -0.001871 0.000000
# 3 -0.003056 -0.004302 0.012463 0.000000 -0.004060 0.000000
# 4 0.000000 0.000000 0.000000 -2.515932 0.000000 -0.602444
# 5 -0.001630 -0.001871 -0.004060 0.000000 0.026946 0.000000
# 6 0.000000 0.000000 0.000000 -0.602444 0.000000 0.029207
#
#
# Mechanical properties :
#
#
# Convention : Reuss Voigt Hill
#
# Bulk Modulus (GPa) = 16.92602 49.09038 33.00820
# Shear Modulus (GPa) = -2.15825 21.76489 9.80332
#
# Velocity S-wave (km/s) = -1.04461 3.31726 2.22632
# Velocity P-wave (km/s) = 2.66511 6.28428 4.82675
#
# Compressibility (1/GPa) = 0.05908065
#
# Stress axis : x y z
#
# Youngs Moduli (GPa) = 108.22066 14.38167 80.23729
#
# Poissons Ratio (x) = 0.12541 0.24519
# Poissons Ratio (y) = 0.94368 0.34519
# Poissons Ratio (z) = 0.33070 0.06187
#
# Static dielectric constant tensor:
#      x y z
#    x 3.873630 0.000000 0.076230 
#    y 0.000000 2.928180 0.000000 
#    z 0.076230 0.000000 3.916320 
# 
# 
# High freq. dielectric constant tensor:
#      x y z
#    x 1.784960 0.000000 0.009700 
#    y 0.000000 1.699030 0.000000 
#    z 0.009700 0.000000 1.786980 
# 
# From -- ./inp_files/84746.got.cif
#   From: 2010.06.25/outbox.cif.g09.slc.cpg/sg10_43_cif.got.tgz:84746.got - 2010.06.27 22:07:45.
