data_PCOD8065410
_publ_section_title
;
Structure prediction by ZEFSAII (Michael W. Deem and Ramdas Pophale) SiO2 
 PCOD8065410
Probable space group: P 2/M
;
_chemical_formula_sum "Si O2"
_cell_formula_units_Z 28
_cell_length_a 9.143970
_cell_length_b 15.750028
_cell_length_c 21.170078
_cell_angle_alpha 90.000000
_cell_angle_beta 152.495808
_cell_angle_gamma 90.000000
_cell_volume 1408.008297
_symmetry_space_group_name_H-M "P 2/M"
_symmetry_group_IT_number 10
_symmetry_cell_setting 'monoclinic'
loop_
_space_group_symop_operation_xyz
x,y,z
-x,y,-z
-x,-y,-z
x,-y,z
loop_
_atom_site_type_symbol
_atom_site_label
_atom_site_fract_x
_atom_site_fract_y
_atom_site_fract_z
Si Si1 0.887469 0.268098 0.267396
Si Si2 0.706215 0.592328 0.517176
Si Si3 0.921077 0.908798 0.896665
Si Si4 0.182208 0.906089 0.414793
Si Si5 0.232265 0.694566 0.269423
Si Si6 0.841044 0.265579 0.008039
Si Si7 0.336686 0.848193 0.604191
O O1 0.044491 0.331317 0.378683
O O2 0.935168 0.169511 0.305187
O O3 0.007328 0.286356 0.242981
O O4 0.520638 0.291255 0.132503
O O5 0.500000 0.585244 0.500000
O O6 0.866711 0.500000 0.564605
O O7 0.459078 0.613701 0.366616
O O8 0.545453 0.892194 0.739759
O O9 0.124251 0.829670 0.948351
O O10 0.013757 0.000000 0.900710
O O11 0.000000 0.914899 0.000000
O O12 0.500000 0.882033 0.500000
O O13 0.261315 0.913808 0.519239
O O14 0.053867 0.000000 0.344675
O O15 0.464691 0.772967 0.349689
O O16 0.023478 0.673781 0.127383
O O17 0.000000 0.271771 0.000000
O O18 0.000000 0.813888 0.500000
#
# Coordination Sequence:
#
# PCOD8065410 Si02
#       7
#     4   4   4   4   4   4   4
#     4  11  20  39  60  85 118 154 191 238 294 343
#     4   9  18  35  65  95 115 142 191 242 286 343
#     4   9  20  36  50  73 109 146 194 245 281 322
#     4  11  22  36  56  87 120 153 196 246 296 344
#     4  10  20  38  60  85 118 151 189 237 296 346
#     4  10  23  37  57  82 113 157 197 235 287 343
#     4  11  22  36  58  84 113 153 199 243 290 343
#
# _framework density 19.886246
#
# number of rings (size 3 to 8) (size 9 to 14) (size 15 to 20)
#    0.000    1.857    2.857    1.286    6.000    1.714 
#    0.000    0.714    0.000   10.714    0.000    0.000 
#    0.000    0.000    0.000    0.000    0.000    0.000 
#
# Total GULP energy -346916.490017 kJ/mol
# GULP energy per Si atom -12389.874643 kJ/mol
# Density = 1.984098 g / cm^3
# Si number density = 19.886246 Si / 1000 Ang^3
#
#
#
# Elastic Constant Matrix: (Units=GPa)
#
#
# Indices 1 2 3 4 5 6 
#
# 1 87.1289 18.5056 52.8688 0.0000 4.5565 0.0000
# 2 18.5056 104.0881 51.1594 0.0000 -1.4366 0.0000
# 3 52.8688 51.1594 146.2960 0.0000 -4.5571 0.0000
# 4 0.0000 0.0000 0.0000 25.1763 0.0000 -11.9929
# 5 4.5565 -1.4366 -4.5571 0.0000 35.8743 0.0000
# 6 0.0000 0.0000 0.0000 -11.9929 0.0000 8.7213
#
#
#
# Elastic Compliance Matrix: (Units=1/GPa)
#
#
# Indices 1 2 3 4 5 6 
#
# 1 0.014937 0.000002 -0.005479 0.000000 -0.002593 0.000000
# 2 0.000002 0.011601 -0.004059 0.000000 -0.000051 0.000000
# 3 -0.005479 -0.004059 0.010292 0.000000 0.001841 0.000000
# 4 0.000000 0.000000 0.000000 0.115149 0.000000 0.158345
# 5 -0.002593 -0.000051 0.001841 0.000000 0.028436 0.000000
# 6 0.000000 0.000000 0.000000 0.158345 0.000000 0.332408
#
#
# Mechanical properties :
#
#
# Convention : Reuss Voigt Hill
#
# Bulk Modulus (GPa) = 56.31494 64.73117 60.52306
# Shear Modulus (GPa) = 9.29685 28.28631 18.79158
#
# Velocity S-wave (km/s) = 2.16452 3.77557 3.07734
# Velocity P-wave (km/s) = 5.88446 7.18526 6.56715
#
# Compressibility (1/GPa) = 0.01775728
#
# Stress axis : x y z
#
# Youngs Moduli (GPa) = 66.94611 86.19709 97.15840
#
# Poissons Ratio (x) = -0.00015 0.53238
# Poissons Ratio (y) = -0.00011 0.39438
# Poissons Ratio (z) = 0.36683 0.34989
#
# Static dielectric constant tensor:
#      x y z
#    x 3.469210 0.000000 -0.238440 
#    y 0.000000 4.030340 0.000000 
#    z -0.238440 0.000000 3.856220 
# 
# 
# High freq. dielectric constant tensor:
#      x y z
#    x 1.752350 0.000000 -0.013200 
#    y 0.000000 1.760440 0.000000 
#    z -0.013200 0.000000 1.783210 
# 
# From -- ./inp_files/82946.got.cif
#   From: 2010.06.25/outbox.cif.g09.slc.cpg/sg10_42_cif.got.tgz:82946.got - 2010.06.27 22:07:45.
