data_PCOD8065774
_publ_section_title
;
Structure prediction by ZEFSAII (Michael W. Deem and Ramdas Pophale) SiO2 
 PCOD8065774
Probable space group: P 2/M
;
_chemical_formula_sum "Si O2"
_cell_formula_units_Z 32
_cell_length_a 12.123375
_cell_length_b 22.778612
_cell_length_c 17.607704
_cell_angle_alpha 90.000000
_cell_angle_beta 20.197413
_cell_angle_gamma 90.000000
_cell_volume 1678.782905
_symmetry_space_group_name_H-M "P 2/M"
_symmetry_group_IT_number 10
_symmetry_cell_setting 'monoclinic'
loop_
_space_group_symop_operation_xyz
x,y,z
-x,y,-z
-x,-y,-z
x,-y,z
loop_
_atom_site_type_symbol
_atom_site_label
_atom_site_fract_x
_atom_site_fract_y
_atom_site_fract_z
Si Si1 0.319279 0.066138 0.695488
Si Si2 0.382941 0.435261 0.455658
Si Si3 0.318246 0.347086 0.844807
Si Si4 0.683962 0.062991 0.803416
Si Si5 0.330496 0.229868 0.334395
Si Si6 0.166750 0.142094 0.564117
Si Si7 0.200314 0.861462 0.042041
Si Si8 0.987619 0.564744 0.851132
O O1 0.500000 0.059444 0.500000
O O2 0.548692 0.095687 0.608823
O O3 0.033714 0.113168 0.871235
O O4 0.214498 0.000000 0.789350
O O5 0.332673 0.500000 0.450886
O O6 0.419849 0.384602 0.370101
O O7 0.700368 0.437825 0.299548
O O8 0.081688 0.419554 0.703803
O O9 0.503075 0.291104 0.755901
O O10 0.239212 0.384748 0.970662
O O11 0.000000 0.332231 0.000000
O O12 0.951805 0.111963 0.638614
O O13 0.828466 0.000000 0.685303
O O14 0.500000 0.055017 0.000000
O O15 0.435029 0.083842 0.901643
O O16 0.276211 0.201856 0.453045
O O17 0.000000 0.236416 0.500000
O O18 0.597856 0.194169 0.115018
O O19 0.986156 0.156433 0.759800
O O20 0.823669 0.500000 0.960183
#
# Coordination Sequence:
#
# PCOD8065774 Si02
#       8
#     4   4   4   4   4   4   4   4
#     4   9  18  35  61  89 112 135 167 220 296 358
#     4   8  14  28  53  86 118 141 169 217 274 325
#     4  10  21  34  54  81 109 144 186 228 267 313
#     4   9  16  31  57  81 102 133 173 220 274 330
#     4  12  26  41  54  74 109 154 201 232 263 317
#     4  10  21  38  58  80 108 141 178 227 281 334
#     4  10  21  38  58  80 108 141 178 227 281 334
#     4   8  14  28  53  86 118 141 169 217 274 325
#
# _framework density 19.061429
#
# number of rings (size 3 to 8) (size 9 to 14) (size 15 to 20)
#    0.000    2.500    1.250    1.875    1.750    5.500 
#    0.000    3.750    0.000    1.500    0.000    1.750 
#    0.000    0.000    0.000    0.000    0.000    0.000 
#
# Total GULP energy -396497.425830 kJ/mol
# GULP energy per Si atom -12390.544557 kJ/mol
# Density = 1.901804 g / cm^3
# Si number density = 19.061429 Si / 1000 Ang^3
#
#
#
# Elastic Constant Matrix: (Units=GPa)
#
#
# Indices 1 2 3 4 5 6 
#
# 1 57.7671 49.1622 45.4982 0.0000 1.5228 0.0000
# 2 49.1622 162.2669 72.7240 0.0000 11.5250 0.0000
# 3 45.4982 72.7240 92.5646 0.0000 5.9658 0.0000
# 4 0.0000 0.0000 0.0000 -22.8836 0.0000 -21.2434
# 5 1.5228 11.5250 5.9658 0.0000 27.1850 0.0000
# 6 0.0000 0.0000 0.0000 -21.2434 0.0000 41.7545
#
#
#
# Elastic Compliance Matrix: (Units=1/GPa)
#
#
# Indices 1 2 3 4 5 6 
#
# 1 0.029856 -0.003978 -0.011716 0.000000 0.002585 0.000000
# 2 -0.003978 0.010203 -0.005879 0.000000 -0.002812 0.000000
# 3 -0.011716 -0.005879 0.021279 0.000000 -0.001521 0.000000
# 4 0.000000 0.000000 0.000000 -0.029681 0.000000 -0.015101
# 5 0.002585 -0.002812 -0.001521 0.000000 0.038166 0.000000
# 6 0.000000 0.000000 0.000000 -0.015101 0.000000 0.016267
#
#
# Mechanical properties :
#
#
# Convention : Reuss Voigt Hill
#
# Bulk Modulus (GPa) = 54.97290 71.92970 63.45130
# Shear Modulus (GPa) = 36.95466 18.89212 27.92339
#
# Velocity S-wave (km/s) = 4.40786 3.15162 3.83157
# Velocity P-wave (km/s) = 7.40325 7.14572 7.27562
#
# Compressibility (1/GPa) = 0.01819078
#
# Stress axis : x y z
#
# Youngs Moduli (GPa) = 33.49370 98.01454 46.99441
#
# Poissons Ratio (x) = 0.38993 0.55060
# Poissons Ratio (y) = 0.13325 0.27628
# Poissons Ratio (z) = 0.39242 0.57623
#
# Static dielectric constant tensor:
#      x y z
#    x 2.769620 0.000000 0.164510 
#    y 0.000000 3.587340 0.000000 
#    z 0.164510 0.000000 3.653750 
# 
# 
# High freq. dielectric constant tensor:
#      x y z
#    x 1.722840 0.000000 0.012820 
#    y 0.000000 1.738020 0.000000 
#    z 0.012820 0.000000 1.734410 
# 
# From -- ./inp_files/77240.got.cif
#   From: 2010.06.25/outbox.cif.g09.slc.cpg/sg10_39_cif.got.tgz:77240.got - 2010.06.27 22:07:45.
