data_PCOD8065925
_publ_section_title
;
Structure prediction by ZEFSAII (Michael W. Deem and Ramdas Pophale) SiO2 
 PCOD8065925
Probable space group: P 2/M
;
_chemical_formula_sum "Si O2"
_cell_formula_units_Z 32
_cell_length_a 23.291902
_cell_length_b 8.928936
_cell_length_c 13.406038
_cell_angle_alpha 90.000000
_cell_angle_beta 34.503559
_cell_angle_gamma 90.000000
_cell_volume 1579.328185
_symmetry_space_group_name_H-M "P 2/M"
_symmetry_group_IT_number 10
_symmetry_cell_setting 'monoclinic'
loop_
_space_group_symop_operation_xyz
x,y,z
-x,y,-z
-x,-y,-z
x,-y,z
loop_
_atom_site_type_symbol
_atom_site_label
_atom_site_fract_x
_atom_site_fract_y
_atom_site_fract_z
Si Si1 0.230486 0.676858 0.769406
Si Si2 0.026137 0.175231 0.072922
Si Si3 0.157290 0.824014 0.525831
Si Si4 0.393266 0.678353 0.691408
Si Si5 0.313789 0.322256 0.438701
Si Si6 0.107273 0.672349 0.394042
Si Si7 0.485187 0.823106 0.906203
Si Si8 0.323993 0.673655 0.005997
O O1 0.226622 0.500000 0.777847
O O2 0.313960 0.740470 0.725033
O O3 0.254293 0.731754 0.622954
O O4 0.126579 0.739892 0.961645
O O5 0.936589 0.227176 0.272598
O O6 0.046488 0.000000 0.049862
O O7 0.000000 0.228725 0.000000
O O8 0.257327 0.740337 0.421776
O O9 0.130865 0.778610 0.452410
O O10 0.178429 0.000000 0.501868
O O11 0.500000 0.741897 0.500000
O O12 0.393507 0.500000 0.693306
O O13 0.365118 0.737849 0.841931
O O14 0.321460 0.500000 0.421353
O O15 0.426241 0.254996 0.284284
O O16 0.099601 0.500000 0.440279
O O17 0.000000 0.722988 0.500000
O O18 0.201663 0.694210 0.183088
O O19 0.377233 0.764119 0.019879
O O20 0.490591 0.000000 0.884319
O O21 0.500000 0.776970 0.000000
O O22 0.352619 0.500000 0.978310
#
# Coordination Sequence:
#
# PCOD8065925 Si02
#       8
#     4   4   4   4   4   4   4   4
#     4  10  21  35  59  90 116 150 196 243 293 351
#     4  10  21  38  57  82 120 161 194 237 298 357
#     4  11  23  39  60  85 119 162 201 243 299 356
#     4   9  18  35  59  87 119 152 190 239 293 348
#     4  11  22  37  60  91 120 151 192 242 298 357
#     4  10  23  41  62  89 119 156 203 253 303 352
#     4  11  24  40  60  86 116 152 195 242 295 355
#     4  10  21  39  62  87 118 156 196 244 299 353
#
# _framework density 20.261780000000002
#
# number of rings (size 3 to 8) (size 9 to 14) (size 15 to 20)
#    0.000    1.750    1.250    2.625    1.750    7.500 
#    0.000    0.625    0.000    1.500    0.000    0.000 
#    0.000    0.000    0.000    0.000    0.000    0.000 
#
# Total GULP energy -396904.003948 kJ/mol
# GULP energy per Si atom -12403.250123 kJ/mol
# Density = 2.021566 g / cm^3
# Si number density = 20.261780 Si / 1000 Ang^3
#
#
#
# Elastic Constant Matrix: (Units=GPa)
#
#
# Indices 1 2 3 4 5 6 
#
# 1 122.9996 28.3617 46.3879 0.0000 -11.6451 0.0000
# 2 28.3617 47.7922 29.9988 0.0000 -2.5593 0.0000
# 3 46.3879 29.9988 119.4437 0.0000 -9.6494 0.0000
# 4 0.0000 0.0000 0.0000 26.6850 0.0000 5.7272
# 5 -11.6451 -2.5593 -9.6494 0.0000 41.0767 0.0000
# 6 0.0000 0.0000 0.0000 5.7272 0.0000 6.6754
#
#
#
# Elastic Compliance Matrix: (Units=1/GPa)
#
#
# Indices 1 2 3 4 5 6 
#
# 1 0.010360 -0.004294 -0.002782 0.000000 0.002016 0.000000
# 2 -0.004294 0.026620 -0.005079 0.000000 -0.000752 0.000000
# 3 -0.002782 -0.005079 0.010845 0.000000 0.001442 0.000000
# 4 0.000000 0.000000 0.000000 0.045932 0.000000 -0.039407
# 5 0.002016 -0.000752 0.001442 0.000000 0.025208 0.000000
# 6 0.000000 0.000000 0.000000 -0.039407 0.000000 0.183612
#
#
# Mechanical properties :
#
#
# Convention : Reuss Voigt Hill
#
# Bulk Modulus (GPa) = 42.52619 55.52582 49.02601
# Shear Modulus (GPa) = 14.93759 27.25323 21.09541
#
# Velocity S-wave (km/s) = 2.71814 3.67148 3.23018
# Velocity P-wave (km/s) = 5.55743 6.74068 6.17745
#
# Compressibility (1/GPa) = 0.02351492
#
# Stress axis : x y z
#
# Youngs Moduli (GPa) = 96.52139 37.56611 92.21003
#
# Poissons Ratio (x) = 0.16130 0.25656
# Poissons Ratio (y) = 0.41445 0.46832
# Poissons Ratio (z) = 0.26856 0.19079
#
# Static dielectric constant tensor:
#      x y z
#    x 3.718190 0.000000 -0.022010 
#    y 0.000000 3.379080 0.000000 
#    z -0.022010 0.000000 3.923230 
# 
# 
# High freq. dielectric constant tensor:
#      x y z
#    x 1.795040 0.000000 -0.004560 
#    y 0.000000 1.769940 0.000000 
#    z -0.004560 0.000000 1.808150 
# 
# From -- ./inp_files/71423.got.cif
#   From: 2010.06.25/outbox.cif.g09.slc.cpg/sg10_36_cif.got.tgz:71423.got - 2010.06.27 22:07:45.
