data_PCOD8065283
_publ_section_title
;
Structure prediction by ZEFSAII (Michael W. Deem and Ramdas Pophale) SiO2 
 PCOD8065283
Probable space group: P 2/M
;
_chemical_formula_sum "Si O2"
_cell_formula_units_Z 20
_cell_length_a 8.714494
_cell_length_b 16.112816
_cell_length_c 8.772117
_cell_angle_alpha 90.000000
_cell_angle_beta 57.835401
_cell_angle_gamma 90.000000
_cell_volume 1042.692899
_symmetry_space_group_name_H-M "P 2/M"
_symmetry_group_IT_number 10
_symmetry_cell_setting 'monoclinic'
loop_
_space_group_symop_operation_xyz
x,y,z
-x,y,-z
-x,-y,-z
x,-y,z
loop_
_atom_site_type_symbol
_atom_site_label
_atom_site_fract_x
_atom_site_fract_y
_atom_site_fract_z
Si Si1 0.658199 0.597464 0.025902
Si Si2 0.319678 0.301498 0.683837
Si Si3 0.459689 0.000000 0.844987
Si Si4 0.805401 0.877078 0.172130
Si Si5 0.299726 0.000000 0.539295
Si Si6 0.972168 0.596337 0.338269
O O1 0.638124 0.500000 0.061601
O O2 0.633546 0.638475 0.202201
O O3 0.500000 0.630997 0.000000
O O4 0.850071 0.620672 0.850676
O O5 0.500000 0.275024 0.500000
O O6 0.224260 0.220464 0.801000
O O7 0.191180 0.348261 0.633809
O O8 0.347308 0.081886 0.855682
O O9 0.664065 0.000000 0.661323
O O10 0.500000 0.000000 0.000000
O O11 0.801335 0.917876 0.343907
O O12 0.000000 0.896110 0.000000
O O13 0.500000 0.000000 0.500000
O O14 0.922900 0.500000 0.340781
O O15 0.000000 0.616908 0.500000
#
# Coordination Sequence:
#
# PCOD8065283 Si02
#       6
#     4   4   2   4   2   4
#     4  10  21  37  56  80 112 150 192 239 289 343
#     4  12  23  36  57  84 114 153 194 237 289 341
#     4  10  20  37  62  89 114 143 182 226 276 336
#     4  10  20  38  59  81 112 149 185 225 279 338
#     4   8  16  35  58  79 108 141 173 210 266 330
#     4  10  21  38  58  82 113 149 193 243 291 343
#
# _framework density 19.181101000000002
#
# number of rings (size 3 to 8) (size 9 to 14) (size 15 to 20)
#    0.000    2.000    0.000    6.600    0.000    5.600 
#    0.000    8.000    0.000    0.000    0.000    0.000 
#    0.000    0.000    0.000    0.000    0.000    0.000 
#
# Total GULP energy -247997.387377 kJ/mol
# GULP energy per Si atom -12399.869369 kJ/mol
# Density = 1.913744 g / cm^3
# Si number density = 19.181101 Si / 1000 Ang^3
#
#
#
# Elastic Constant Matrix: (Units=GPa)
#
#
# Indices 1 2 3 4 5 6 
#
# 1 96.3381 45.7474 44.3936 0.0000 8.1660 0.0000
# 2 45.7474 75.6996 31.8855 0.0000 2.1291 0.0000
# 3 44.3936 31.8855 145.5255 0.0000 1.7266 0.0000
# 4 0.0000 0.0000 0.0000 32.0503 0.0000 -3.4541
# 5 8.1660 2.1291 1.7266 0.0000 37.0066 0.0000
# 6 0.0000 0.0000 0.0000 -3.4541 0.0000 18.8379
#
#
#
# Elastic Compliance Matrix: (Units=1/GPa)
#
#
# Indices 1 2 3 4 5 6 
#
# 1 0.015951 -0.008288 -0.003016 0.000000 -0.002902 0.000000
# 2 -0.008288 0.018877 -0.001617 0.000000 0.000818 0.000000
# 3 -0.003016 -0.001617 0.008142 0.000000 0.000379 0.000000
# 4 0.000000 0.000000 0.000000 0.031830 0.000000 0.005836
# 5 -0.002902 0.000818 0.000379 0.000000 0.027598 0.000000
# 6 0.000000 0.000000 0.000000 0.005836 0.000000 0.054155
#
#
# Mechanical properties :
#
#
# Convention : Reuss Voigt Hill
#
# Bulk Modulus (GPa) = 58.38517 62.40180 60.39348
# Shear Modulus (GPa) = 26.58099 30.61473 28.59786
#
# Velocity S-wave (km/s) = 3.72666 3.99944 3.86546
# Velocity P-wave (km/s) = 7.00159 7.34377 7.17472
#
# Compressibility (1/GPa) = 0.01712764
#
# Stress axis : x y z
#
# Youngs Moduli (GPa) = 62.69005 52.97424 122.82718
#
# Poissons Ratio (x) = 0.43905 0.37041
# Poissons Ratio (y) = 0.51958 0.19867
# Poissons Ratio (z) = 0.18906 0.08568
#
# Static dielectric constant tensor:
#      x y z
#    x 3.694190 0.000000 -0.130500 
#    y 0.000000 3.418390 0.000000 
#    z -0.130500 0.000000 4.317750 
# 
# 
# High freq. dielectric constant tensor:
#      x y z
#    x 1.730870 0.000000 -0.007970 
#    y 0.000000 1.742380 0.000000 
#    z -0.007970 0.000000 1.770410 
# 
# From -- ./inp_files/19550.got.cif
#   From: 2010.06.25/outbox.cif.g09.slc.cpg/sg10_10_cif.got.tgz:19550.got - 2010.06.27 22:07:45.
