data_PCOD8065372
_publ_section_title
;
Structure prediction by ZEFSAII (Michael W. Deem and Ramdas Pophale) SiO2 
 PCOD8065372
Probable space group: P 2/M
;
_chemical_formula_sum "Si O2"
_cell_formula_units_Z 24
_cell_length_a 9.092776
_cell_length_b 14.787465
_cell_length_c 17.807532
_cell_angle_alpha 90.000000
_cell_angle_beta 149.706291
_cell_angle_gamma 90.000000
_cell_volume 1207.806304
_symmetry_space_group_name_H-M "P 2/M"
_symmetry_group_IT_number 10
_symmetry_cell_setting 'monoclinic'
loop_
_space_group_symop_operation_xyz
x,y,z
-x,y,-z
-x,-y,-z
x,-y,z
loop_
_atom_site_type_symbol
_atom_site_label
_atom_site_fract_x
_atom_site_fract_y
_atom_site_fract_z
Si Si1 0.090143 0.000000 0.658809
Si Si2 0.704939 0.655540 0.191173
Si Si3 0.213485 0.500000 0.660910
Si Si4 0.968198 0.156173 0.901689
Si Si5 0.427754 0.147760 0.880959
Si Si6 0.941501 0.656939 0.137593
Si Si7 0.808404 0.500000 0.842078
Si Si8 0.509495 0.000000 0.312378
O O1 0.155445 0.083717 0.742992
O O2 0.310438 0.000000 0.685480
O O3 0.750670 0.000000 0.485359
O O4 0.830673 0.590803 0.310268
O O5 0.662492 0.758895 0.199528
O O6 0.940057 0.652440 0.227196
O O7 0.379959 0.623198 0.027730
O O8 0.500841 0.500000 0.741675
O O9 0.000000 0.500000 0.500000
O O10 0.956907 0.242583 0.841891
O O11 0.692908 0.089234 0.769583
O O12 0.000000 0.192835 0.000000
O O13 0.273837 0.104263 0.020412
O O14 0.500000 0.167268 0.000000
O O15 0.163159 0.587547 0.198094
O O16 0.000000 0.500000 0.000000
#
# Coordination Sequence:
#
# PCOD8065372 Si02
#       8
#     2   4   2   4   4   4   2   2
#     4  11  24  41  60  91 130 175 206 250 331 385
#     4  10  20  42  64  93 128 161 203 259 317 364
#     4  12  27  43  61  95 134 171 203 246 317 384
#     4  11  20  37  65  95 125 159 216 266 307 361
#     4  11  21  41  67  95 121 163 218 262 312 373
#     4  10  20  37  67  97 118 155 211 266 309 351
#     4  12  21  35  65  99 118 154 213 258 292 359
#     4  11  24  40  58  92 132 168 203 260 323 371
#
# _framework density 19.870736000000001
#
# number of rings (size 3 to 8) (size 9 to 14) (size 15 to 20)
#    0.000    1.167    6.667    2.000    2.333    1.333 
#    6.000    3.333    0.000    0.000    0.000    0.000 
#    0.000    0.000    0.000    0.000    0.000    0.000 
#
# Total GULP energy -297362.429321 kJ/mol
# GULP energy per Si atom -12390.101222 kJ/mol
# Density = 1.982551 g / cm^3
# Si number density = 19.870736 Si / 1000 Ang^3
#
#
#
# Elastic Constant Matrix: (Units=GPa)
#
#
# Indices 1 2 3 4 5 6 
#
# 1 121.9273 56.8032 48.7714 0.0000 4.5096 0.0000
# 2 56.8032 143.4778 69.1721 0.0000 -9.3490 0.0000
# 3 48.7714 69.1721 117.7083 0.0000 -8.3737 0.0000
# 4 0.0000 0.0000 0.0000 10.6700 0.0000 1.7666
# 5 4.5096 -9.3490 -8.3737 0.0000 20.9276 0.0000
# 6 0.0000 0.0000 0.0000 1.7666 0.0000 31.4711
#
#
#
# Elastic Compliance Matrix: (Units=1/GPa)
#
#
# Indices 1 2 3 4 5 6 
#
# 1 0.011133 -0.003266 -0.003055 0.000000 -0.005080 0.000000
# 2 -0.003266 0.010775 -0.004721 0.000000 0.003628 0.000000
# 3 -0.003055 -0.004721 0.012797 0.000000 0.003670 0.000000
# 4 0.000000 0.000000 0.000000 0.094600 0.000000 -0.005310
# 5 -0.005080 0.003628 0.003670 0.000000 0.051968 0.000000
# 6 0.000000 0.000000 0.000000 -0.005310 0.000000 0.032073
#
#
# Mechanical properties :
#
#
# Convention : Reuss Voigt Hill
#
# Bulk Modulus (GPa) = 79.23025 81.40077 80.31551
# Shear Modulus (GPa) = 20.86499 26.50486 23.68492
#
# Velocity S-wave (km/s) = 3.24394 3.65617 3.45621
# Velocity P-wave (km/s) = 7.34781 7.67317 7.51225
#
# Compressibility (1/GPa) = 0.01262144
#
# Stress axis : x y z
#
# Youngs Moduli (GPa) = 89.82303 92.80779 78.14510
#
# Poissons Ratio (x) = 0.30308 0.23875
# Poissons Ratio (y) = 0.29333 0.36890
# Poissons Ratio (z) = 0.27442 0.43812
#
# Static dielectric constant tensor:
#      x y z
#    x 3.948080 0.000000 0.047410 
#    y 0.000000 3.624260 0.000000 
#    z 0.047410 0.000000 3.321160 
# 
# 
# High freq. dielectric constant tensor:
#      x y z
#    x 1.792630 0.000000 0.003410 
#    y 0.000000 1.783600 0.000000 
#    z 0.003410 0.000000 1.736230 
# 
# From -- ./inp_files/75373.got.cif
#   From: 2010.06.25/outbox.cif.g09.slc.cpg/sg10_38_cif.got.tgz:75373.got - 2010.06.27 22:07:45.
