data_PCOD8065374
_publ_section_title
;
Structure prediction by ZEFSAII (Michael W. Deem and Ramdas Pophale) SiO2 
 PCOD8065374
Probable space group: P 2/M
;
_chemical_formula_sum "Si O2"
_cell_formula_units_Z 32
_cell_length_a 13.691946
_cell_length_b 18.208317
_cell_length_c 12.005614
_cell_angle_alpha 90.000000
_cell_angle_beta 148.850148
_cell_angle_gamma 90.000000
_cell_volume 1548.258589
_symmetry_space_group_name_H-M "P 2/M"
_symmetry_group_IT_number 10
_symmetry_cell_setting 'monoclinic'
loop_
_space_group_symop_operation_xyz
x,y,z
-x,y,-z
-x,-y,-z
x,-y,z
loop_
_atom_site_type_symbol
_atom_site_label
_atom_site_fract_x
_atom_site_fract_y
_atom_site_fract_z
Si Si1 0.780620 0.080917 0.792883
Si Si2 0.439586 0.416664 0.825842
Si Si3 0.510384 0.703069 0.389435
Si Si4 0.868662 0.662648 0.613852
Si Si5 0.998009 0.187574 0.364672
Si Si6 0.750469 0.584104 0.945040
Si Si7 0.648072 0.838760 0.879226
Si Si8 0.715577 0.085241 0.480565
O O1 0.739801 0.136784 0.852170
O O2 0.711684 0.112847 0.606207
O O3 0.688420 0.000000 0.725676
O O4 0.000000 0.070023 0.000000
O O5 0.378620 0.500000 0.787081
O O6 0.252730 0.379014 0.597069
O O7 0.625733 0.410537 0.933683
O O8 0.500000 0.378073 0.000000
O O9 0.500000 0.741175 0.500000
O O10 0.726864 0.680489 0.576916
O O11 0.364700 0.633993 0.255346
O O12 0.444571 0.758776 0.228821
O O13 0.952061 0.734411 0.638261
O O14 0.038326 0.613234 0.827009
O O15 0.000000 0.189251 0.500000
O O16 0.137756 0.126401 0.454182
O O17 0.791609 0.165324 0.121045
O O18 0.763743 0.500000 0.914684
O O19 0.492410 0.897187 0.768160
O O20 0.766867 0.000000 0.524651
#
# Coordination Sequence:
#
# PCOD8065374 Si02
#       8
#     4   4   4   4   4   4   4   4
#     4  10  20  37  69 103 131 162 204 267 334 388
#     4   9  20  37  63  96 126 160 213 276 327 373
#     4  11  24  41  66  97 130 167 217 268 325 385
#     4  11  23  42  63  90 128 174 215 265 323 382
#     4  12  28  44  64  94 131 176 223 265 318 382
#     4  10  22  41  63  93 130 171 216 261 320 389
#     4  12  23  42  67  97 131 170 213 272 326 385
#     4  11  24  45  69  99 130 168 216 265 326 389
#
# _framework density 20.668381
#
# number of rings (size 3 to 8) (size 9 to 14) (size 15 to 20)
#    0.000    1.250    3.750    1.875    1.750    3.500 
#    0.000    3.125    0.000    0.000    0.000    0.000 
#    0.000    0.000    0.000    0.000    0.000    0.000 
#
# Total GULP energy -396758.299198 kJ/mol
# GULP energy per Si atom -12398.696850 kJ/mol
# Density = 2.062134 g / cm^3
# Si number density = 20.668381 Si / 1000 Ang^3
#
#
#
# Elastic Constant Matrix: (Units=GPa)
#
#
# Indices 1 2 3 4 5 6 
#
# 1 44.9454 24.8914 44.0314 0.0000 -5.2655 0.0000
# 2 24.8914 75.5124 12.8699 0.0000 6.1598 0.0000
# 3 44.0314 12.8699 112.8676 0.0000 13.6673 0.0000
# 4 0.0000 0.0000 0.0000 19.7688 0.0000 27.3284
# 5 -5.2655 6.1598 13.6673 0.0000 34.6554 0.0000
# 6 0.0000 0.0000 0.0000 27.3284 0.0000 -12.8887
#
#
#
# Elastic Compliance Matrix: (Units=1/GPa)
#
#
# Indices 1 2 3 4 5 6 
#
# 1 0.055078 -0.016019 -0.022072 0.000000 0.019920 0.000000
# 2 -0.016019 0.018282 0.005096 0.000000 -0.007693 0.000000
# 3 -0.022072 0.005096 0.018278 0.000000 -0.011468 0.000000
# 4 0.000000 0.000000 0.000000 0.012868 0.000000 0.027284
# 5 0.019920 -0.007693 -0.011468 0.000000 0.037772 0.000000
# 6 0.000000 0.000000 0.000000 0.027284 0.000000 -0.019737
#
#
# Mechanical properties :
#
#
# Convention : Reuss Voigt Hill
#
# Bulk Modulus (GPa) = 38.98876 44.10117 41.54496
# Shear Modulus (GPa) = 25.37030 18.40929 21.88980
#
# Velocity S-wave (km/s) = 3.50736 2.98769 3.25791
# Velocity P-wave (km/s) = 5.94197 5.76937 5.85630
#
# Compressibility (1/GPa) = 0.02564842
#
# Stress axis : x y z
#
# Youngs Moduli (GPa) = 18.15615 54.69822 54.70974
#
# Poissons Ratio (x) = 0.87619 1.20757
# Poissons Ratio (y) = 0.29084 -0.27880
# Poissons Ratio (z) = 0.40075 -0.27874
#
# Static dielectric constant tensor:
#      x y z
#    x 3.680660 0.000000 0.048150 
#    y 0.000000 4.009680 0.000000 
#    z 0.048150 0.000000 3.978400 
# 
# 
# High freq. dielectric constant tensor:
#      x y z
#    x 1.797930 0.000000 0.015940 
#    y 0.000000 1.817870 0.000000 
#    z 0.015940 0.000000 1.818750 
# 
# From -- ./inp_files/51989.got.cif
#   From: 2010.06.25/outbox.cif.g09.slc.cpg/sg10_26_cif.got.tgz:51989.got - 2010.06.27 22:07:45.
