data_PCOD8066145
_publ_section_title
;
Structure prediction by ZEFSAII (Michael W. Deem and Ramdas Pophale) SiO2 
 PCOD8066145
Probable space group: P 2/M
;
_chemical_formula_sum "Si O2"
_cell_formula_units_Z 20
_cell_length_a 14.343205
_cell_length_b 7.868586
_cell_length_c 8.861667
_cell_angle_alpha 90.000000
_cell_angle_beta 88.010765
_cell_angle_gamma 90.000000
_cell_volume 999.531599
_symmetry_space_group_name_H-M "P 2/M"
_symmetry_group_IT_number 10
_symmetry_cell_setting 'monoclinic'
loop_
_space_group_symop_operation_xyz
x,y,z
-x,y,-z
-x,-y,-z
x,-y,z
loop_
_atom_site_type_symbol
_atom_site_label
_atom_site_fract_x
_atom_site_fract_y
_atom_site_fract_z
Si Si1 0.747722 0.815413 0.629203
Si Si2 0.301503 0.306249 0.675951
Si Si3 0.913722 0.700743 0.812730
Si Si4 0.374747 0.000000 0.151685
Si Si5 0.882739 0.298624 0.146872
Si Si6 0.407876 0.000000 0.805728
O O1 0.709297 0.687329 0.505059
O O2 0.849545 0.763709 0.680993
O O3 0.757148 0.000000 0.549636
O O4 0.675049 0.831208 0.774483
O O5 0.325693 0.500000 0.727088
O O6 0.205367 0.235301 0.752778
O O7 0.381035 0.173439 0.720078
O O8 0.910619 0.500000 0.815518
O O9 0.020290 0.764956 0.782356
O O10 0.876278 0.771185 0.975801
O O11 0.481617 0.000000 0.192218
O O12 0.361298 0.000000 0.973266
O O13 0.883648 0.500000 0.143895
#
# Coordination Sequence:
#
# PCOD8066145 Si02
#       6
#     4   4   4   2   4   2
#     4  10  21  37  53  84 117 155 185 232 291 343
#     4  11  22  38  61  89 121 155 193 235 288 351
#     4   9  16  33  56  80 115 153 198 241 281 334
#     4   9  23  41  66  81 120 147 185 252 298 335
#     4   8  17  32  54  83 114 154 196 242 284 327
#     4  11  21  45  66  87 110 151 191 246 298 341
#
# _framework density 20.009373
#
# number of rings (size 3 to 8) (size 9 to 14) (size 15 to 20)
#    0.600    1.800    1.000    3.000    0.000    2.400 
#    1.800   11.000    0.000    0.000    0.000    0.000 
#    0.000    0.000    0.000    0.000    0.000    0.000 
#
# Total GULP energy -247840.707772 kJ/mol
# GULP energy per Si atom -12392.035389 kJ/mol
# Density = 1.996383 g / cm^3
# Si number density = 20.009373 Si / 1000 Ang^3
#
#
#
# Elastic Constant Matrix: (Units=GPa)
#
#
# Indices 1 2 3 4 5 6 
#
# 1 64.3139 18.5137 17.4359 0.0000 17.1551 0.0000
# 2 18.5137 64.3461 16.3155 0.0000 11.7317 0.0000
# 3 17.4359 16.3155 77.8157 0.0000 19.5996 0.0000
# 4 0.0000 0.0000 0.0000 23.2968 0.0000 -1.7889
# 5 17.1551 11.7317 19.5996 0.0000 31.8670 0.0000
# 6 0.0000 0.0000 0.0000 -1.7889 0.0000 23.3052
#
#
#
# Elastic Compliance Matrix: (Units=1/GPa)
#
#
# Indices 1 2 3 4 5 6 
#
# 1 0.019155 -0.003665 -0.001498 0.000000 -0.008041 0.000000
# 2 -0.003665 0.017717 -0.002068 0.000000 -0.003278 0.000000
# 3 -0.001498 -0.002068 0.015650 0.000000 -0.008057 0.000000
# 4 0.000000 0.000000 0.000000 0.043179 0.000000 0.003314
# 5 -0.008041 -0.003278 -0.008057 0.000000 0.041871 0.000000
# 6 0.000000 0.000000 0.000000 0.003314 0.000000 0.043163
#
#
# Mechanical properties :
#
#
# Convention : Reuss Voigt Hill
#
# Bulk Modulus (GPa) = 26.27507 34.55622 30.41564
# Shear Modulus (GPa) = 24.05178 25.97450 25.01314
#
# Velocity S-wave (km/s) = 3.47079 3.60685 3.53947
# Velocity P-wave (km/s) = 5.40571 5.88671 5.65133
#
# Compressibility (1/GPa) = 0.03805889
#
# Stress axis : x y z
#
# Youngs Moduli (GPa) = 52.20601 56.44149 63.89948
#
# Poissons Ratio (x) = 0.20688 0.09573
# Poissons Ratio (y) = 0.19135 0.13214
# Poissons Ratio (z) = 0.07821 0.11672
#
# Static dielectric constant tensor:
#      x y z
#    x 3.731600 0.000000 -0.025240 
#    y 0.000000 3.338150 0.000000 
#    z -0.025240 0.000000 3.636290 
# 
# 
# High freq. dielectric constant tensor:
#      x y z
#    x 1.776370 0.000000 0.004790 
#    y 0.000000 1.760300 0.000000 
#    z 0.004790 0.000000 1.777350 
# 
# From -- ./inp_files/26952.got.cif
#   From: 2010.06.25/outbox.cif.g09.slc.cpg/sg10_14_cif.got.tgz:26952.got - 2010.06.27 22:07:45.
