data_PCOD8066347
_publ_section_title
;
Structure prediction by ZEFSAII (Michael W. Deem and Ramdas Pophale) SiO2 
 PCOD8066347
Probable space group: P 2/M
;
_chemical_formula_sum "Si O2"
_cell_formula_units_Z 28
_cell_length_a 19.561748
_cell_length_b 8.975612
_cell_length_c 22.447452
_cell_angle_alpha 90.000000
_cell_angle_beta 20.099229
_cell_angle_gamma 90.000000
_cell_volume 1354.413930
_symmetry_space_group_name_H-M "P 2/M"
_symmetry_group_IT_number 10
_symmetry_cell_setting 'monoclinic'
loop_
_space_group_symop_operation_xyz
x,y,z
-x,y,-z
-x,-y,-z
x,-y,z
loop_
_atom_site_type_symbol
_atom_site_label
_atom_site_fract_x
_atom_site_fract_y
_atom_site_fract_z
Si Si1 0.826686 0.324580 0.598121
Si Si2 0.431921 0.673456 0.728766
Si Si3 0.119611 0.833912 0.163203
Si Si4 0.518184 0.827650 0.052920
Si Si5 0.621170 0.171861 0.460787
Si Si6 0.960295 0.328445 0.885349
Si Si7 0.745959 0.169284 0.545817
O O1 0.833752 0.500000 0.583191
O O2 0.617201 0.276306 0.796072
O O3 0.855981 0.247303 0.510688
O O4 0.000000 0.268348 0.500000
O O5 0.485464 0.500000 0.683745
O O6 0.499407 0.744087 0.611557
O O7 0.544898 0.746818 0.692268
O O8 0.195238 0.698114 0.933114
O O9 0.152011 0.716864 0.083782
O O10 0.891366 0.823369 0.370321
O O11 0.165436 0.000000 0.101497
O O12 0.259028 0.800128 0.105832
O O13 0.452710 0.000000 0.112044
O O14 0.500000 0.773180 0.000000
O O15 0.500000 0.194831 0.500000
O O16 0.842295 0.231902 0.267693
O O17 0.638125 0.000000 0.465666
O O18 0.023274 0.500000 0.829977
O O19 0.694063 0.000000 0.605982
#
# Coordination Sequence:
#
# PCOD8066347 Si02
#       7
#     4   4   4   4   4   4   4
#     4  11  24  39  55  81 118 160 206 260 320 381
#     4  11  24  42  66  99 134 170 214 262 322 387
#     4  10  21  37  60  90 122 159 207 262 318 378
#     4  10  21  38  59  84 115 155 206 262 318 381
#     4  11  25  45  69  98 132 171 217 268 320 379
#     4  11  24  41  65  96 131 171 213 263 321 387
#     4  11  22  38  63  91 121 163 210 261 318 377
#
# _framework density 20.673147
#
# number of rings (size 3 to 8) (size 9 to 14) (size 15 to 20)
#    0.000    1.286    1.429    3.857    0.000   10.000 
#    0.000    2.857    0.000    0.000    0.000    0.000 
#    0.000    0.000    0.000    0.000    0.000    0.000 
#
# Total GULP energy -347320.539747 kJ/mol
# GULP energy per Si atom -12404.304991 kJ/mol
# Density = 2.062609 g / cm^3
# Si number density = 20.673147 Si / 1000 Ang^3
#
#
#
# Elastic Constant Matrix: (Units=GPa)
#
#
# Indices 1 2 3 4 5 6 
#
# 1 92.2570 51.9084 35.8850 0.0000 -4.2275 0.0000
# 2 51.9084 120.7798 50.0844 0.0000 0.5594 0.0000
# 3 35.8850 50.0844 106.5981 0.0000 0.4374 0.0000
# 4 0.0000 0.0000 0.0000 31.2031 0.0000 1.6975
# 5 -4.2275 0.5594 0.4374 0.0000 27.9875 0.0000
# 6 0.0000 0.0000 0.0000 1.6975 0.0000 29.7161
#
#
#
# Elastic Compliance Matrix: (Units=1/GPa)
#
#
# Indices 1 2 3 4 5 6 
#
# 1 0.014965 -0.005402 -0.002510 0.000000 0.002408 0.000000
# 2 -0.005402 0.012234 -0.003925 0.000000 -0.000999 0.000000
# 3 -0.002510 -0.003925 0.012072 0.000000 -0.000489 0.000000
# 4 0.000000 0.000000 0.000000 0.032148 0.000000 -0.001836
# 5 0.002408 -0.000999 -0.000489 0.000000 0.036122 0.000000
# 6 0.000000 0.000000 0.000000 -0.001836 0.000000 0.033757
#
#
# Mechanical properties :
#
#
# Convention : Reuss Voigt Hill
#
# Bulk Modulus (GPa) = 64.11485 66.15450 65.13467
# Shear Modulus (GPa) = 29.38234 29.89847 29.64041
#
# Velocity S-wave (km/s) = 3.77408 3.80708 3.79062
# Velocity P-wave (km/s) = 7.07619 7.16902 7.12276
#
# Compressibility (1/GPa) = 0.01559701
#
# Stress axis : x y z
#
# Youngs Moduli (GPa) = 66.82109 81.74214 82.83583
#
# Poissons Ratio (x) = 0.44159 0.20788
# Poissons Ratio (y) = 0.36098 0.32514
# Poissons Ratio (z) = 0.16769 0.32085
#
# Static dielectric constant tensor:
#      x y z
#    x 3.771320 0.000000 -0.048300 
#    y 0.000000 3.791680 0.000000 
#    z -0.048300 0.000000 3.723860 
# 
# 
# High freq. dielectric constant tensor:
#      x y z
#    x 1.812020 0.000000 -0.001710 
#    y 0.000000 1.813850 0.000000 
#    z -0.001710 0.000000 1.815620 
# 
# From -- ./inp_files/90361.got.cif
#   From: 2010.06.25/outbox.cif.g09.slc.cpg/sg10_46_cif.got.tgz:90361.got - 2010.06.27 22:07:45.
