data_PCOD8066468
_publ_section_title
;
Structure prediction by ZEFSAII (Michael W. Deem and Ramdas Pophale) SiO2 
 PCOD8066468
Probable space group: P 2/M
;
_chemical_formula_sum "Si O2"
_cell_formula_units_Z 22
_cell_length_a 14.053001
_cell_length_b 11.364348
_cell_length_c 17.023013
_cell_angle_alpha 90.000000
_cell_angle_beta 25.755318
_cell_angle_gamma 90.000000
_cell_volume 1181.322984
_symmetry_space_group_name_H-M "P 2/M"
_symmetry_group_IT_number 10
_symmetry_cell_setting 'monoclinic'
loop_
_space_group_symop_operation_xyz
x,y,z
-x,y,-z
-x,-y,-z
x,-y,z
loop_
_atom_site_type_symbol
_atom_site_label
_atom_site_fract_x
_atom_site_fract_y
_atom_site_fract_z
Si Si1 0.325624 0.302023 0.071533
Si Si2 0.050332 0.865006 0.172014
Si Si3 0.220124 0.865177 0.875269
Si Si4 0.089924 0.500000 0.340481
Si Si5 0.397140 0.729795 0.493003
Si Si6 0.662823 0.500000 0.561681
Si Si7 0.450059 0.500000 0.194272
O O1 0.176403 0.200250 0.147228
O O2 0.179613 0.383372 0.233976
O O3 0.500000 0.239978 0.000000
O O4 0.441477 0.381594 0.919418
O O5 0.810705 0.811456 0.336296
O O6 0.018123 0.000000 0.220375
O O7 0.198921 0.853763 0.984255
O O8 0.430261 0.794193 0.690928
O O9 0.250320 0.000000 0.825625
O O10 0.000000 0.812712 0.000000
O O11 0.186463 0.500000 0.359424
O O12 0.837981 0.500000 0.502526
O O13 0.500000 0.695549 0.500000
O O14 0.322810 0.611711 0.504924
O O15 0.473408 0.500000 0.769208
#
# Coordination Sequence:
#
# PCOD8066468 Si02
#       7
#     4   4   4   2   4   2   2
#     4   9  18  36  58  85 115 145 187 233 280 338
#     4  11  22  37  61  85 113 154 189 233 286 328
#     4  10  21  38  60  82 106 147 197 235 273 327
#     4   9  17  34  58  83 110 147 189 228 276 339
#     4  12  24  39  57  84 117 150 192 235 281 339
#     4  12  22  36  54  84 118 149 181 234 291 336
#     4   9  19  34  61  85 107 149 191 231 279 333
#
# _framework density 18.623187999999999
#
# number of rings (size 3 to 8) (size 9 to 14) (size 15 to 20)
#    0.000    1.636    3.636    3.273    0.000    1.091 
#    0.000    0.455    0.000    0.000    0.000    6.364 
#    0.000    0.000    0.000    0.000    0.000    0.000 
#
# Total GULP energy -272643.021033 kJ/mol
# GULP energy per Si atom -12392.864592 kJ/mol
# Density = 1.858080 g / cm^3
# Si number density = 18.623188 Si / 1000 Ang^3
#
#
#
# Elastic Constant Matrix: (Units=GPa)
#
#
# Indices 1 2 3 4 5 6 
#
# 1 132.2839 60.0605 33.9018 0.0000 3.4373 0.0000
# 2 60.0605 108.2585 37.4979 0.0000 1.7326 0.0000
# 3 33.9018 37.4979 72.1391 0.0000 -4.1791 0.0000
# 4 0.0000 0.0000 0.0000 24.4815 0.0000 0.9689
# 5 3.4373 1.7326 -4.1791 0.0000 28.0766 0.0000
# 6 0.0000 0.0000 0.0000 0.9689 0.0000 -11.4890
#
#
#
# Elastic Compliance Matrix: (Units=1/GPa)
#
#
# Indices 1 2 3 4 5 6 
#
# 1 0.010459 -0.004942 -0.002424 0.000000 -0.001336 0.000000
# 2 -0.004942 0.013670 -0.004839 0.000000 -0.000959 0.000000
# 3 -0.002424 -0.004839 0.017704 0.000000 0.003231 0.000000
# 4 0.000000 0.000000 0.000000 0.040711 0.000000 0.003433
# 5 -0.001336 -0.000959 0.003231 0.000000 0.036321 0.000000
# 6 0.000000 0.000000 0.000000 0.003433 0.000000 -0.086751
#
#
# Mechanical properties :
#
#
# Convention : Reuss Voigt Hill
#
# Bulk Modulus (GPa) = 57.39293 63.95578 60.67435
# Shear Modulus (GPa) = 80.21668 20.29524 50.25596
#
# Velocity S-wave (km/s) = 6.57016 3.30477 5.20041
# Velocity P-wave (km/s) = 9.40431 6.99847 8.28914
#
# Compressibility (1/GPa) = 0.01742375
#
# Stress axis : x y z
#
# Youngs Moduli (GPa) = 95.61099 73.15232 56.48525
#
# Poissons Ratio (x) = 0.36149 0.13692
# Poissons Ratio (y) = 0.47247 0.27333
# Poissons Ratio (z) = 0.23177 0.35398
#
# Static dielectric constant tensor:
#      x y z
#    x 3.567550 0.000000 -0.045570 
#    y 0.000000 3.252680 0.000000 
#    z -0.045570 0.000000 3.501040 
# 
# 
# High freq. dielectric constant tensor:
#      x y z
#    x 1.739970 0.000000 0.004910 
#    y 0.000000 1.708210 0.000000 
#    z 0.004910 0.000000 1.733830 
# 
# From -- ./inp_files/64637.got.cif
#   From: 2010.06.25/outbox.cif.g09.slc.cpg/sg10_33_cif.got.tgz:64637.got - 2010.06.27 22:07:45.
