data_PCOD8066462
_publ_section_title
;
Structure prediction by ZEFSAII (Michael W. Deem and Ramdas Pophale) SiO2 
 PCOD8066462
Probable space group: P 2/M
;
_chemical_formula_sum "Si O2"
_cell_formula_units_Z 28
_cell_length_a 5.150907
_cell_length_b 17.021657
_cell_length_c 15.883368
_cell_angle_alpha 90.000000
_cell_angle_beta 68.903364
_cell_angle_gamma 90.000000
_cell_volume 1299.265763
_symmetry_space_group_name_H-M "P 2/M"
_symmetry_group_IT_number 10
_symmetry_cell_setting 'monoclinic'
loop_
_space_group_symop_operation_xyz
x,y,z
-x,y,-z
-x,-y,-z
x,-y,z
loop_
_atom_site_type_symbol
_atom_site_label
_atom_site_fract_x
_atom_site_fract_y
_atom_site_fract_z
Si Si1 0.228097 0.188730 0.661592
Si Si2 0.244424 0.087716 0.237610
Si Si3 0.816042 0.708294 0.184067
Si Si4 0.426822 0.777808 0.103427
Si Si5 0.009695 0.330918 0.399469
Si Si6 0.600404 0.407536 0.322105
Si Si7 0.704294 0.911431 0.571149
O O1 0.348878 0.243927 0.721989
O O2 0.459315 0.149330 0.572493
O O3 0.071091 0.118402 0.728477
O O4 0.013113 0.240480 0.630158
O O5 0.435762 0.141913 0.156009
O O6 0.328393 0.090003 0.324962
O O7 0.258460 0.000000 0.199074
O O8 0.665858 0.720886 0.112465
O O9 0.791068 0.618164 0.219080
O O10 0.135754 0.732960 0.142807
O O11 0.500000 0.799631 0.000000
O O12 0.297806 0.370515 0.339332
O O13 0.000000 0.332741 0.500000
O O14 0.746231 0.378357 0.391626
O O15 0.570138 0.500000 0.328838
O O16 0.000000 0.881861 0.500000
O O17 0.650330 0.000000 0.543563
#
# Coordination Sequence:
#
# PCOD8066462 Si02
#       7
#     4   4   4   4   4   4   4
#     4  10  21  39  60  84 128 174 221 271 325 379
#     4  10  21  38  59  87 126 169 217 277 333 383
#     4  10  21  41  64  93 125 162 212 257 319 394
#     4  11  22  40  66  95 128 167 210 269 332 398
#     4  11  25  41  61  97 134 173 227 277 321 381
#     4  11  23  43  70  96 130 174 213 261 330 397
#     4  10  21  38  60  88 125 175 229 279 333 379
#
# _framework density 21.550635
#
# number of rings (size 3 to 8) (size 9 to 14) (size 15 to 20)
#    0.000    1.571    1.429    4.286    2.000    3.143 
#    7.714    2.143    0.000    6.429    0.000    0.000 
#    0.000    0.000    0.000    0.000    0.000    0.000 
#
# Total GULP energy -347041.989432 kJ/mol
# GULP energy per Si atom -12394.356765 kJ/mol
# Density = 2.150159 g / cm^3
# Si number density = 21.550635 Si / 1000 Ang^3
#
#
#
# Elastic Constant Matrix: (Units=GPa)
#
#
# Indices 1 2 3 4 5 6 
#
# 1 124.3732 44.0257 28.1613 0.0000 7.2429 0.0000
# 2 44.0257 105.4316 34.3734 0.0000 -4.1627 0.0000
# 3 28.1613 34.3734 106.7585 0.0000 14.4421 0.0000
# 4 0.0000 0.0000 0.0000 16.4411 0.0000 -3.8845
# 5 7.2429 -4.1627 14.4421 0.0000 34.1354 0.0000
# 6 0.0000 0.0000 0.0000 -3.8845 0.0000 3.5242
#
#
#
# Elastic Compliance Matrix: (Units=1/GPa)
#
#
# Indices 1 2 3 4 5 6 
#
# 1 0.009750 -0.003807 -0.001065 0.000000 -0.002083 0.000000
# 2 -0.003807 0.012361 -0.003489 0.000000 0.003791 0.000000
# 3 -0.001065 -0.003489 0.011454 0.000000 -0.005045 0.000000
# 4 0.000000 0.000000 0.000000 0.082241 0.000000 0.090649
# 5 -0.002083 0.003791 -0.005045 0.000000 0.032334 0.000000
# 6 0.000000 0.000000 0.000000 0.090649 0.000000 0.383671
#
#
# Mechanical properties :
#
#
# Convention : Reuss Voigt Hill
#
# Bulk Modulus (GPa) = 59.36396 61.07604 60.22000
# Shear Modulus (GPa) = 9.02290 26.15365 17.58828
#
# Velocity S-wave (km/s) = 2.04840 3.48744 2.85991
# Velocity P-wave (km/s) = 5.76200 6.67971 6.23776
#
# Compressibility (1/GPa) = 0.01684524
#
# Stress axis : x y z
#
# Youngs Moduli (GPa) = 102.56313 80.89643 87.30880
#
# Poissons Ratio (x) = 0.30794 0.09295
# Poissons Ratio (y) = 0.39041 0.30461
# Poissons Ratio (z) = 0.10919 0.28223
#
# Static dielectric constant tensor:
#      x y z
#    x 4.013960 0.000000 0.028390 
#    y 0.000000 4.054220 0.000000 
#    z 0.028390 0.000000 3.805200 
# 
# 
# High freq. dielectric constant tensor:
#      x y z
#    x 1.859490 0.000000 0.005280 
#    y 0.000000 1.837190 0.000000 
#    z 0.005280 0.000000 1.825540 
# 
# From -- ./inp_files/59380.got.cif
#   From: 2010.06.25/outbox.cif.g09.slc.cpg/sg10_30_cif.got.tgz:59380.got - 2010.06.27 22:07:45.
