data_PCOD8066562
_publ_section_title
;
Structure prediction by ZEFSAII (Michael W. Deem and Ramdas Pophale) SiO2 
 PCOD8066562
Probable space group: P 2/M
;
_chemical_formula_sum "Si O2"
_cell_formula_units_Z 26
_cell_length_a 11.835873
_cell_length_b 7.615760
_cell_length_c 14.875319
_cell_angle_alpha 90.000000
_cell_angle_beta 66.013556
_cell_angle_gamma 90.000000
_cell_volume 1225.055403
_symmetry_space_group_name_H-M "P 2/M"
_symmetry_group_IT_number 10
_symmetry_cell_setting 'monoclinic'
loop_
_space_group_symop_operation_xyz
x,y,z
-x,y,-z
-x,-y,-z
x,-y,z
loop_
_atom_site_type_symbol
_atom_site_label
_atom_site_fract_x
_atom_site_fract_y
_atom_site_fract_z
Si Si1 0.065234 0.000000 0.220915
Si Si2 0.893589 0.000000 0.108057
Si Si3 0.219029 0.305458 0.235252
Si Si4 0.308270 0.296360 0.816256
Si Si5 0.511332 0.794351 0.891602
Si Si6 0.090517 0.000000 0.552531
Si Si7 0.760697 0.700281 0.569079
Si Si8 0.490106 0.295635 0.603528
O O1 0.153789 0.829742 0.188615
O O2 0.966050 0.000000 0.176459
O O3 0.985618 0.000000 0.334248
O O4 0.810818 0.824779 0.127788
O O5 0.000000 0.000000 0.000000
O O6 0.172847 0.500000 0.224516
O O7 0.366079 0.299949 0.182227
O O8 0.183633 0.262652 0.350084
O O9 0.267311 0.500000 0.818392
O O10 0.395873 0.284449 0.875059
O O11 0.378672 0.225105 0.703085
O O12 0.520582 0.000000 0.870014
O O13 0.500000 0.750933 0.000000
O O14 0.174007 0.825132 0.523924
O O15 0.000000 0.000000 0.500000
O O16 0.784371 0.500000 0.531193
O O17 0.615349 0.743531 0.617015
O O18 0.500000 0.208914 0.500000
O O19 0.466181 0.500000 0.598366
#
# Coordination Sequence:
#
# PCOD8066562 Si02
#       8
#     2   2   4   4   4   2   4   4
#     4  12  28  47  62  90 130 177 239 276 314 388
#     4  12  32  52  66  87 132 187 237 285 327 372
#     4  11  22  40  68  99 131 170 214 274 338 393
#     4  11  24  46  74 103 133 173 222 273 334 406
#     4  11  23  40  72 107 136 164 203 274 351 398
#     4  12  24  39  60  91 124 170 217 258 310 387
#     4  10  21  38  61  93 134 167 200 260 332 393
#     4   9  19  37  64  99 135 167 204 259 333 406
#
# _framework density 21.223528000000002
#
# number of rings (size 3 to 8) (size 9 to 14) (size 15 to 20)
#    0.000    1.231    4.615    0.462    4.308    3.692 
#    0.000    0.769    0.000    0.000    0.000    0.000 
#    0.000    0.000    0.000    0.000    0.000    0.000 
#
# Total GULP energy -322392.903933 kJ/mol
# GULP energy per Si atom -12399.727074 kJ/mol
# Density = 2.117522 g / cm^3
# Si number density = 21.223528 Si / 1000 Ang^3
#
#
#
# Elastic Constant Matrix: (Units=GPa)
#
#
# Indices 1 2 3 4 5 6 
#
# 1 122.3563 53.8307 45.9235 0.0000 -3.1920 0.0000
# 2 53.8307 122.2797 35.9300 0.0000 -9.6603 0.0000
# 3 45.9235 35.9300 111.3076 0.0000 -5.0398 0.0000
# 4 0.0000 0.0000 0.0000 5.9936 0.0000 4.3068
# 5 -3.1920 -9.6603 -5.0398 0.0000 35.6782 0.0000
# 6 0.0000 0.0000 0.0000 4.3068 0.0000 12.6620
#
#
#
# Elastic Compliance Matrix: (Units=1/GPa)
#
#
# Indices 1 2 3 4 5 6 
#
# 1 0.011164 -0.003974 -0.003348 0.000000 -0.000550 0.000000
# 2 -0.003974 0.010601 -0.001679 0.000000 0.002278 0.000000
# 3 -0.003348 -0.001679 0.010943 0.000000 0.000792 0.000000
# 4 0.000000 0.000000 0.000000 0.220811 0.000000 -0.075105
# 5 -0.000550 0.002278 0.000792 0.000000 0.028708 0.000000
# 6 0.000000 0.000000 0.000000 -0.075105 0.000000 0.104522
#
#
# Mechanical properties :
#
#
# Convention : Reuss Voigt Hill
#
# Bulk Modulus (GPa) = 68.00349 69.70133 68.85241
# Shear Modulus (GPa) = 12.20545 25.55070 18.87808
#
# Velocity S-wave (km/s) = 2.40071 3.47347 2.98566
# Velocity P-wave (km/s) = 6.30838 6.99996 6.66315
#
# Compressibility (1/GPa) = 0.01470513
#
# Stress axis : x y z
#
# Youngs Moduli (GPa) = 89.57754 94.33210 91.38038
#
# Poissons Ratio (x) = 0.37490 0.30593
# Poissons Ratio (y) = 0.35600 0.15344
# Poissons Ratio (z) = 0.29990 0.15840
#
# Static dielectric constant tensor:
#      x y z
#    x 3.779450 0.000000 -0.020550 
#    y 0.000000 4.957610 0.000000 
#    z -0.020550 0.000000 3.889080 
# 
# 
# High freq. dielectric constant tensor:
#      x y z
#    x 1.824520 0.000000 -0.001170 
#    y 0.000000 1.835990 0.000000 
#    z -0.001170 0.000000 1.831570 
# 
# From -- ./inp_files/63344.got.cif
#   From: 2010.06.25/outbox.cif.g09.slc.cpg/sg10_32_cif.got.tgz:63344.got - 2010.06.27 22:07:45.
