data_PCOD8066424
_publ_section_title
;
Structure prediction by ZEFSAII (Michael W. Deem and Ramdas Pophale) SiO2 
 PCOD8066424
Probable space group: P 2/M
;
_chemical_formula_sum "Si O2"
_cell_formula_units_Z 22
_cell_length_a 11.175461
_cell_length_b 13.872454
_cell_length_c 12.059175
_cell_angle_alpha 90.000000
_cell_angle_beta 38.061020
_cell_angle_gamma 90.000000
_cell_volume 1152.576263
_symmetry_space_group_name_H-M "P 2/M"
_symmetry_group_IT_number 10
_symmetry_cell_setting 'monoclinic'
loop_
_space_group_symop_operation_xyz
x,y,z
-x,y,-z
-x,-y,-z
x,-y,z
loop_
_atom_site_type_symbol
_atom_site_label
_atom_site_fract_x
_atom_site_fract_y
_atom_site_fract_z
Si Si1 0.772851 0.107020 0.030051
Si Si2 0.547414 0.389492 0.663406
Si Si3 0.786464 0.106573 0.280966
Si Si4 0.357273 0.710872 0.002469
Si Si5 0.006281 0.612247 0.622720
Si Si6 0.500000 0.261945 0.500000
O O1 0.653042 0.185998 0.050368
O O2 0.996846 0.114584 0.832574
O O3 0.693353 0.000000 0.058292
O O4 0.761460 0.125025 0.168765
O O5 0.503454 0.500000 0.670329
O O6 0.777680 0.369092 0.489595
O O7 0.437659 0.328570 0.648533
O O8 0.455871 0.365968 0.849000
O O9 0.667985 0.191960 0.425427
O O10 0.705602 0.000000 0.370456
O O11 0.145833 0.673620 0.194001
O O12 0.500000 0.724580 0.000000
O O13 0.948075 0.500000 0.673668
O O14 0.000000 0.646560 0.500000
#
# Coordination Sequence:
#
# PCOD8066424 Si02
#       6
#     4   4   4   4   4   2
#     4   9  19  37  56  83 116 147 186 234 286 339
#     4  11  24  39  56  86 120 152 190 236 287 339
#     4   9  18  34  60  84 111 148 190 235 278 337
#     4  12  22  37  63  85 112 154 196 234 282 340
#     4  10  21  38  58  82 112 147 193 241 277 325
#     4  12  20  36  58  86 120 148 184 240 288 340
#
# _framework density 19.087672999999999
#
# number of rings (size 3 to 8) (size 9 to 14) (size 15 to 20)
#    0.000    1.636    3.636    3.273    0.000    1.091 
#    0.000    0.000    0.000    4.909    0.000    0.000 
#    0.000    0.000    0.000    0.000    0.000    0.000 
#
# Total GULP energy -272765.539526 kJ/mol
# GULP energy per Si atom -12398.433615 kJ/mol
# Density = 1.904423 g / cm^3
# Si number density = 19.087673 Si / 1000 Ang^3
#
#
#
# Elastic Constant Matrix: (Units=GPa)
#
#
# Indices 1 2 3 4 5 6 
#
# 1 55.8493 35.7452 12.7776 0.0000 5.7813 0.0000
# 2 35.7452 126.1179 34.7968 0.0000 -0.8390 0.0000
# 3 12.7776 34.7968 72.9990 0.0000 -6.4461 0.0000
# 4 0.0000 0.0000 0.0000 28.2951 0.0000 -0.9137
# 5 5.7813 -0.8390 -6.4461 0.0000 25.3057 0.0000
# 6 0.0000 0.0000 0.0000 -0.9137 0.0000 21.6911
#
#
#
# Elastic Compliance Matrix: (Units=1/GPa)
#
#
# Indices 1 2 3 4 5 6 
#
# 1 0.022741 -0.006038 -0.001615 0.000000 -0.005807 0.000000
# 2 -0.006038 0.010750 -0.004004 0.000000 0.000716 0.000000
# 3 -0.001615 -0.004004 0.016277 0.000000 0.004382 0.000000
# 4 0.000000 0.000000 0.000000 0.035390 0.000000 0.001491
# 5 -0.005807 0.000716 0.004382 0.000000 0.041984 0.000000
# 6 0.000000 0.000000 0.000000 0.001491 0.000000 0.046165
#
#
# Mechanical properties :
#
#
# Convention : Reuss Voigt Hill
#
# Bulk Modulus (GPa) = 37.80285 46.84505 42.32395
# Shear Modulus (GPa) = 24.33819 26.50148 25.41984
#
# Velocity S-wave (km/s) = 3.57469 3.73018 3.65326
# Velocity P-wave (km/s) = 6.07336 6.56868 6.32587
#
# Compressibility (1/GPa) = 0.02645303
#
# Stress axis : x y z
#
# Youngs Moduli (GPa) = 43.97415 93.02282 61.43586
#
# Poissons Ratio (x) = 0.56171 0.09921
# Poissons Ratio (y) = 0.26553 0.24600
# Poissons Ratio (z) = 0.07101 0.37247
#
# Static dielectric constant tensor:
#      x y z
#    x 3.256310 0.000000 -0.089770 
#    y 0.000000 3.603320 0.000000 
#    z -0.089770 0.000000 3.500860 
# 
# 
# High freq. dielectric constant tensor:
#      x y z
#    x 1.724070 0.000000 -0.005590 
#    y 0.000000 1.754960 0.000000 
#    z -0.005590 0.000000 1.740010 
# 
# From -- ./inp_files/46458.got.cif
#   From: 2010.06.25/outbox.cif.g09.slc.cpg/sg10_24_cif.got.tgz:46458.got - 2010.06.27 22:07:45.
