data_PCOD8066038
_publ_section_title
;
Structure prediction by ZEFSAII (Michael W. Deem and Ramdas Pophale) SiO2 
 PCOD8066038
Probable space group: P 2/M
;
_chemical_formula_sum "Si O2"
_cell_formula_units_Z 32
_cell_length_a 16.083263
_cell_length_b 9.021836
_cell_length_c 24.499353
_cell_angle_alpha 90.000000
_cell_angle_beta 153.818399
_cell_angle_gamma 90.000000
_cell_volume 1568.471505
_symmetry_space_group_name_H-M "P 2/M"
_symmetry_group_IT_number 10
_symmetry_cell_setting 'monoclinic'
loop_
_space_group_symop_operation_xyz
x,y,z
-x,y,-z
-x,-y,-z
x,-y,z
loop_
_atom_site_type_symbol
_atom_site_label
_atom_site_fract_x
_atom_site_fract_y
_atom_site_fract_z
Si Si1 0.859474 0.824719 0.253895
Si Si2 0.246859 0.670717 0.493027
Si Si3 0.840133 0.171062 0.944712
Si Si4 0.767614 0.326397 0.092768
Si Si5 0.423079 0.671871 0.395176
Si Si6 0.963263 0.171698 0.827270
Si Si7 0.613368 0.326806 0.194863
Si Si8 0.541556 0.329461 0.274109
O O1 0.738537 0.752263 0.133801
O O2 0.775243 0.767367 0.261156
O O3 0.075782 0.776254 0.376273
O O4 0.843529 0.000000 0.241022
O O5 0.189393 0.500000 0.448623
O O6 0.422293 0.715289 0.558578
O O7 0.296835 0.696518 0.585924
O O8 0.643744 0.246361 0.815374
O O9 0.816358 0.000000 0.916054
O O10 0.000000 0.241678 0.000000
O O11 0.893759 0.196904 0.038906
O O12 0.793542 0.500000 0.117717
O O13 0.957287 0.263337 0.177064
O O14 0.588939 0.289647 0.950112
O O15 0.500000 0.711476 0.500000
O O16 0.366735 0.500000 0.357524
O O17 0.240668 0.770005 0.275545
O O18 0.949264 0.000000 0.802663
O O19 0.662345 0.500000 0.217934
O O20 0.614632 0.273455 0.258444
O O21 0.484145 0.500000 0.235332
#
# Coordination Sequence:
#
# PCOD8066038 Si02
#       8
#     4   4   4   4   4   4   4   4
#     4  12  26  41  62  91 122 157 201 251 309 374
#     4  10  22  41  63  88 122 163 209 258 304 355
#     4  10  21  36  55  84 123 163 198 239 298 360
#     4  11  22  40  65  90 122 159 201 253 307 363
#     4  10  21  37  58  85 118 161 208 252 302 358
#     4  11  22  35  57  89 123 159 199 245 301 361
#     4  10  22  41  64  90 120 157 202 253 310 362
#     4  10  21  39  63  90 118 157 209 257 298 352
#
# _framework density 20.402027
#
# number of rings (size 3 to 8) (size 9 to 14) (size 15 to 20)
#    0.000    1.500    1.250    3.750    0.000    6.500 
#    0.000    2.500    0.000    0.000    0.000    0.000 
#    0.000    0.000    0.000    0.000    0.000    0.000 
#
# Total GULP energy -397016.741050 kJ/mol
# GULP energy per Si atom -12406.773158 kJ/mol
# Density = 2.035559 g / cm^3
# Si number density = 20.402027 Si / 1000 Ang^3
#
#
#
# Elastic Constant Matrix: (Units=GPa)
#
#
# Indices 1 2 3 4 5 6 
#
# 1 118.0992 34.1712 19.9954 0.0000 -3.9787 0.0000
# 2 34.1712 83.2397 32.8684 0.0000 3.1476 0.0000
# 3 19.9954 32.8684 63.0316 0.0000 0.0074 0.0000
# 4 0.0000 0.0000 0.0000 24.3355 0.0000 1.1284
# 5 -3.9787 3.1476 0.0074 0.0000 33.7391 0.0000
# 6 0.0000 0.0000 0.0000 1.1284 0.0000 21.7380
#
#
#
# Elastic Compliance Matrix: (Units=1/GPa)
#
#
# Indices 1 2 3 4 5 6 
#
# 1 0.009761 -0.003577 -0.001231 0.000000 0.001485 0.000000
# 2 -0.003577 0.016507 -0.007473 0.000000 -0.001960 0.000000
# 3 -0.001231 -0.007473 0.020152 0.000000 0.000548 0.000000
# 4 0.000000 0.000000 0.000000 0.041191 0.000000 -0.002138
# 5 0.001485 -0.001960 0.000548 0.000000 0.029997 0.000000
# 6 0.000000 0.000000 0.000000 -0.002138 0.000000 0.046113
#
#
# Mechanical properties :
#
#
# Convention : Reuss Voigt Hill
#
# Bulk Modulus (GPa) = 45.74983 48.71562 47.23273
# Shear Modulus (GPa) = 25.56632 27.78487 26.67560
#
# Velocity S-wave (km/s) = 3.54379 3.69435 3.61986
# Velocity P-wave (km/s) = 6.26239 6.49056 6.37749
#
# Compressibility (1/GPa) = 0.02185800
#
# Stress axis : x y z
#
# Youngs Moduli (GPa) = 102.44910 60.58153 49.62215
#
# Poissons Ratio (x) = 0.21670 0.06110
# Poissons Ratio (y) = 0.36645 0.37081
# Poissons Ratio (z) = 0.12616 0.45270
#
# Static dielectric constant tensor:
#      x y z
#    x 3.889780 0.000000 -0.100060 
#    y 0.000000 3.566950 0.000000 
#    z -0.100060 0.000000 3.565290 
# 
# 
# High freq. dielectric constant tensor:
#      x y z
#    x 1.813650 0.000000 -0.003300 
#    y 0.000000 1.788020 0.000000 
#    z -0.003300 0.000000 1.796250 
# 
# From -- ./inp_files/89650.got.cif
#   From: 2010.06.25/outbox.cif.g09.slc.cpg/sg10_45_cif.got.tgz:89650.got - 2010.06.27 22:07:45.
