data_PCOD8066083
_publ_section_title
;
Structure prediction by ZEFSAII (Michael W. Deem and Ramdas Pophale) SiO2 
 PCOD8066083
Probable space group: P 2/M
;
_chemical_formula_sum "Si O2"
_cell_formula_units_Z 32
_cell_length_a 12.184317
_cell_length_b 18.172150
_cell_length_c 15.220305
_cell_angle_alpha 90.000000
_cell_angle_beta 152.173240
_cell_angle_gamma 90.000000
_cell_volume 1573.118567
_symmetry_space_group_name_H-M "P 2/M"
_symmetry_group_IT_number 10
_symmetry_cell_setting 'monoclinic'
loop_
_space_group_symop_operation_xyz
x,y,z
-x,y,-z
-x,-y,-z
x,-y,z
loop_
_atom_site_type_symbol
_atom_site_label
_atom_site_fract_x
_atom_site_fract_y
_atom_site_fract_z
Si Si1 0.606284 0.583505 0.980137
Si Si2 0.531970 0.802866 0.234206
Si Si3 0.320511 0.919863 0.794569
Si Si4 0.220617 0.082751 0.302028
Si Si5 0.231429 0.656506 0.608453
Si Si6 0.000574 0.771955 0.904705
Si Si7 0.067339 0.149542 0.369422
Si Si8 0.019737 0.304139 0.278617
O O1 0.699252 0.500000 0.042380
O O2 0.417005 0.593704 0.767598
O O3 0.500000 0.601692 0.000000
O O4 0.818175 0.638626 0.113829
O O5 0.541731 0.870925 0.176530
O O6 0.666898 0.734061 0.285962
O O7 0.667346 0.826671 0.418392
O O8 0.268116 0.781030 0.065606
O O9 0.066715 0.888698 0.644856
O O10 0.274076 0.000000 0.719946
O O11 0.500000 0.926866 0.000000
O O12 0.500000 0.089367 0.500000
O O13 0.096505 0.094457 0.308763
O O14 0.122618 0.147987 0.170995
O O15 0.149322 0.000000 0.219633
O O16 0.191708 0.658741 0.473875
O O17 0.000000 0.638969 0.500000
O O18 0.868537 0.719681 0.738160
O O19 0.000000 0.733421 0.000000
O O20 0.924069 0.225134 0.246579
#
# Coordination Sequence:
#
# PCOD8066083 Si02
#       8
#     4   4   4   4   4   4   4   4
#     4  11  23  37  62  98 136 172 202 243 304 376
#     4  11  22  36  57  83 112 155 207 259 314 373
#     4  11  23  35  51  79 115 159 205 254 310 375
#     4  10  21  38  58  83 120 161 205 267 332 381
#     4  11  21  36  62  93 128 170 207 241 300 378
#     4  11  23  40  64  87 115 158 219 274 319 372
#     4  10  21  36  57  84 115 161 209 256 312 378
#     4  10  21  39  60  88 126 165 208 255 312 359
#
# _framework density 20.341760000000001
#
# number of rings (size 3 to 8) (size 9 to 14) (size 15 to 20)
#    0.000    1.375    2.500    4.500    0.000    4.000 
#    0.000    0.000    0.000    0.375    0.000    0.875 
#    0.000    0.000    0.000    0.000    0.000    0.000 
#
# Total GULP energy -396555.415808 kJ/mol
# GULP energy per Si atom -12392.356744 kJ/mol
# Density = 2.029546 g / cm^3
# Si number density = 20.341760 Si / 1000 Ang^3
#
#
#
# Elastic Constant Matrix: (Units=GPa)
#
#
# Indices 1 2 3 4 5 6 
#
# 1 92.1300 28.3892 27.1243 0.0000 -20.9474 0.0000
# 2 28.3892 101.9522 34.0376 0.0000 -4.7174 0.0000
# 3 27.1243 34.0376 89.8533 0.0000 -9.3539 0.0000
# 4 0.0000 0.0000 0.0000 26.9412 0.0000 -0.7027
# 5 -20.9474 -4.7174 -9.3539 0.0000 36.8977 0.0000
# 6 0.0000 0.0000 0.0000 -0.7027 0.0000 13.7505
#
#
#
# Elastic Compliance Matrix: (Units=1/GPa)
#
#
# Indices 1 2 3 4 5 6 
#
# 1 0.014015 -0.002759 -0.002459 0.000000 0.006981 0.000000
# 2 -0.002759 0.011776 -0.003733 0.000000 -0.001007 0.000000
# 3 -0.002459 -0.003733 0.013446 0.000000 0.001535 0.000000
# 4 0.000000 0.000000 0.000000 0.037167 0.000000 0.001899
# 5 0.006981 -0.001007 0.001535 0.000000 0.031325 0.000000
# 6 0.000000 0.000000 0.000000 0.001899 0.000000 0.072821
#
#
# Mechanical properties :
#
#
# Convention : Reuss Voigt Hill
#
# Bulk Modulus (GPa) = 46.87008 51.44863 49.15936
# Shear Modulus (GPa) = 24.32313 28.47685 26.39999
#
# Velocity S-wave (km/s) = 3.46168 3.74561 3.60644
# Velocity P-wave (km/s) = 6.25051 6.63726 6.44679
#
# Compressibility (1/GPa) = 0.02133557
#
# Stress axis : x y z
#
# Youngs Moduli (GPa) = 71.34958 84.91542 74.37392
#
# Poissons Ratio (x) = 0.23425 0.18290
# Poissons Ratio (y) = 0.19683 0.27765
# Poissons Ratio (z) = 0.17546 0.31700
#
# Static dielectric constant tensor:
#      x y z
#    x 3.657730 0.000000 -0.329530 
#    y 0.000000 3.749960 0.000000 
#    z -0.329530 0.000000 3.955100 
# 
# 
# High freq. dielectric constant tensor:
#      x y z
#    x 1.769600 0.000000 -0.015110 
#    y 0.000000 1.782670 0.000000 
#    z -0.015110 0.000000 1.805550 
# 
# From -- ./inp_files/65405.got.cif
#   From: 2010.06.25/outbox.cif.g09.slc.cpg/sg10_33_cif.got.tgz:65405.got - 2010.06.27 22:07:45.
