data_PCOD8066292
_publ_section_title
;
Structure prediction by ZEFSAII (Michael W. Deem and Ramdas Pophale) SiO2 
 PCOD8066292
Probable space group: P 2/M
;
_chemical_formula_sum "Si O2"
_cell_formula_units_Z 28
_cell_length_a 24.666029
_cell_length_b 8.905061
_cell_length_c 22.313337
_cell_angle_alpha 90.000000
_cell_angle_beta 17.116631
_cell_angle_gamma 90.000000
_cell_volume 1442.504283
_symmetry_space_group_name_H-M "P 2/M"
_symmetry_group_IT_number 10
_symmetry_cell_setting 'monoclinic'
loop_
_space_group_symop_operation_xyz
x,y,z
-x,y,-z
-x,-y,-z
x,-y,z
loop_
_atom_site_type_symbol
_atom_site_label
_atom_site_fract_x
_atom_site_fract_y
_atom_site_fract_z
Si Si1 0.072722 0.164562 0.363627
Si Si2 0.495492 0.834329 0.938830
Si Si3 0.087811 0.674495 0.687032
Si Si4 0.295389 0.822732 0.705019
Si Si5 0.949596 0.822251 0.146669
Si Si6 0.541970 0.325743 0.773548
Si Si7 0.837471 0.179424 0.855695
O O1 0.041658 0.238059 0.330523
O O2 0.000000 0.255268 0.500000
O O3 0.976344 0.000000 0.467299
O O4 0.289043 0.147401 0.136258
O O5 0.596789 0.732630 0.782385
O O6 0.589689 0.000000 0.842316
O O7 0.500000 0.758059 0.000000
O O8 0.038097 0.500000 0.736446
O O9 0.089067 0.729860 0.753254
O O10 0.287614 0.707965 0.449294
O O11 0.932644 0.764429 0.815125
O O12 0.500000 0.751556 0.500000
O O13 0.210356 0.773266 0.731022
O O14 0.312618 0.000000 0.687367
O O15 0.151474 0.774442 0.908813
O O16 0.942280 0.000000 0.166716
O O17 0.493482 0.500000 0.829632
O O18 0.369524 0.240994 0.926811
O O19 0.829250 0.000000 0.863522
#
# Coordination Sequence:
#
# PCOD8066292 Si02
#       7
#     4   4   4   4   4   4   4
#     4   8  15  28  47  74 101 125 163 223 288 337
#     4   9  18  31  51  77 102 133 179 235 286 336
#     4  11  24  39  56  80 117 160 193 230 284 338
#     4   8  15  31  56  85 117 146 177 228 282 321
#     4   9  18  33  55  85 113 143 190 234 269 322
#     4  10  22  39  55  75 112 153 186 228 285 349
#     4  10  21  37  59  82 106 141 189 242 288 337
#
# _framework density 19.410686999999999
#
# number of rings (size 3 to 8) (size 9 to 14) (size 15 to 20)
#    0.000    2.714    0.000    3.000    2.000    3.714 
#    0.000    2.857    0.000    3.000    0.000    0.000 
#    0.000    0.000    0.000    0.000    0.000    0.000 
#
# Total GULP energy -346932.528104 kJ/mol
# GULP energy per Si atom -12390.447432 kJ/mol
# Density = 1.936651 g / cm^3
# Si number density = 19.410687 Si / 1000 Ang^3
#
#
#
# Elastic Constant Matrix: (Units=GPa)
#
#
# Indices 1 2 3 4 5 6 
#
# 1 143.7952 44.0624 74.2148 0.0000 16.4197 0.0000
# 2 44.0624 67.2867 45.7088 0.0000 6.5317 0.0000
# 3 74.2148 45.7088 114.8933 0.0000 7.3935 0.0000
# 4 0.0000 0.0000 0.0000 18.7203 0.0000 -3.4005
# 5 16.4197 6.5317 7.3935 0.0000 36.3924 0.0000
# 6 0.0000 0.0000 0.0000 -3.4005 0.0000 -4.2399
#
#
#
# Elastic Compliance Matrix: (Units=1/GPa)
#
#
# Indices 1 2 3 4 5 6 
#
# 1 0.011311 -0.003103 -0.005855 0.000000 -0.003357 0.000000
# 2 -0.003103 0.021367 -0.006423 0.000000 -0.001130 0.000000
# 3 -0.005855 -0.006423 0.014993 0.000000 0.000749 0.000000
# 4 0.000000 0.000000 0.000000 0.046625 0.000000 -0.037395
# 5 -0.003357 -0.001130 0.000749 0.000000 0.029043 0.000000
# 6 0.000000 0.000000 0.000000 -0.037395 0.000000 -0.205861
#
#
# Mechanical properties :
#
#
# Convention : Reuss Voigt Hill
#
# Bulk Modulus (GPa) = 59.14748 72.66079 65.90413
# Shear Modulus (GPa) = -108.40858 20.97383 -43.71738
#
# Velocity S-wave (km/s) = -7.48139 3.29071 -4.75092
# Velocity P-wave (km/s) = 6.64007 7.20784 1.98274
#
# Compressibility (1/GPa) = 0.01690689
#
# Stress axis : x y z
#
# Youngs Moduli (GPa) = 88.41260 46.80094 66.69618
#
# Poissons Ratio (x) = 0.14523 0.39054
# Poissons Ratio (y) = 0.27436 0.42842
# Poissons Ratio (z) = 0.51770 0.30062
#
# Static dielectric constant tensor:
#      x y z
#    x 3.780220 0.000000 0.010900 
#    y 0.000000 3.309710 0.000000 
#    z 0.010900 0.000000 3.654510 
# 
# 
# High freq. dielectric constant tensor:
#      x y z
#    x 1.766320 0.000000 0.002630 
#    y 0.000000 1.717180 0.000000 
#    z 0.002630 0.000000 1.757760 
# 
# From -- ./inp_files/86456.got.cif
#   From: 2010.06.25/outbox.cif.g09.slc.cpg/sg10_44_cif.got.tgz:86456.got - 2010.06.27 22:07:45.
