data_PCOD8066513
_publ_section_title
;
Structure prediction by ZEFSAII (Michael W. Deem and Ramdas Pophale) SiO2 
 PCOD8066513
Probable space group: P 2/M
;
_chemical_formula_sum "Si O2"
_cell_formula_units_Z 28
_cell_length_a 12.729696
_cell_length_b 20.104959
_cell_length_c 5.284869
_cell_angle_alpha 90.000000
_cell_angle_beta 78.018537
_cell_angle_gamma 90.000000
_cell_volume 1323.090913
_symmetry_space_group_name_H-M "P 2/M"
_symmetry_group_IT_number 10
_symmetry_cell_setting 'monoclinic'
loop_
_space_group_symop_operation_xyz
x,y,z
-x,y,-z
-x,-y,-z
x,-y,z
loop_
_atom_site_type_symbol
_atom_site_label
_atom_site_fract_x
_atom_site_fract_y
_atom_site_fract_z
Si Si1 0.893040 0.684255 0.170544
Si Si2 0.259942 0.425576 0.647886
Si Si3 0.106961 0.815755 0.563500
Si Si4 0.275010 0.249989 0.112438
Si Si5 0.624473 0.616491 0.892459
Si Si6 0.624467 0.883526 0.983033
Si Si7 0.740067 0.925579 0.407780
O O1 0.837992 0.626016 0.365176
O O2 0.938995 0.749995 0.280609
O O3 0.799084 0.710872 0.042370
O O4 0.000000 0.651066 0.000000
O O5 0.212777 0.500000 0.693818
O O6 0.341846 0.424987 0.371788
O O7 0.315147 0.407675 0.886099
O O8 0.200881 0.789173 0.341217
O O9 0.162018 0.873970 0.703183
O O10 0.000000 0.848963 0.500000
O O11 0.351777 0.306368 0.192783
O O12 0.351838 0.193621 0.955430
O O13 0.500000 0.605095 0.000000
O O14 0.684840 0.907678 0.701183
O O15 0.500000 0.894954 0.000000
O O16 0.658182 0.925003 0.213552
O O17 0.787249 0.000000 0.406564
#
# Coordination Sequence:
#
# PCOD8066513 Si02
#       7
#     4   4   4   4   4   4   4
#     4  11  21  39  67  92 124 168 215 264 325 383
#     4  11  25  42  62  94 132 167 210 265 319 381
#     4  11  21  39  67  92 124 168 215 264 325 383
#     4  10  21  38  60  94 128 158 211 270 318 370
#     4  11  23  40  65  92 127 170 214 262 318 380
#     4  11  23  40  65  92 127 170 214 262 318 380
#     4  11  25  42  62  94 132 167 210 265 319 381
#
# _framework density 21.162569000000001
#
# number of rings (size 3 to 8) (size 9 to 14) (size 15 to 20)
#    0.000    1.143    4.286    2.143    0.000    4.000 
#    0.000    2.857    0.000    6.000    0.000    0.000 
#    0.000    0.000    0.000    0.000    0.000    0.000 
#
# Total GULP energy -346944.505743 kJ/mol
# GULP energy per Si atom -12390.875205 kJ/mol
# Density = 2.111440 g / cm^3
# Si number density = 21.162569 Si / 1000 Ang^3
#
#
#
# Elastic Constant Matrix: (Units=GPa)
#
#
# Indices 1 2 3 4 5 6 
#
# 1 107.3304 53.1111 33.1365 0.0000 -4.3429 0.0000
# 2 53.1111 147.2170 31.8133 0.0000 -7.4645 0.0000
# 3 33.1365 31.8133 107.4846 0.0000 4.3792 0.0000
# 4 0.0000 0.0000 0.0000 -5.3542 0.0000 -6.4527
# 5 -4.3429 -7.4645 4.3792 0.0000 33.9782 0.0000
# 6 0.0000 0.0000 0.0000 -6.4527 0.0000 13.3374
#
#
#
# Elastic Compliance Matrix: (Units=1/GPa)
#
#
# Indices 1 2 3 4 5 6 
#
# 1 0.012012 -0.003707 -0.002649 0.000000 0.001062 0.000000
# 2 -0.003707 0.008523 -0.001444 0.000000 0.001585 0.000000
# 3 -0.002649 -0.001444 0.010630 0.000000 -0.002026 0.000000
# 4 0.000000 0.000000 0.000000 -0.117981 0.000000 -0.057079
# 5 0.001062 0.001585 -0.002026 0.000000 0.030176 0.000000
# 6 0.000000 0.000000 0.000000 -0.057079 0.000000 0.047362
#
#
# Mechanical properties :
#
#
# Convention : Reuss Voigt Hill
#
# Bulk Modulus (GPa) = 64.25134 66.46155 65.35645
# Shear Modulus (GPa) = 434.32566 24.65702 229.49134
#
# Velocity S-wave (km/s) = 14.34150 3.41709 10.42485
# Velocity P-wave (km/s) = 17.45465 6.85873 13.26097
#
# Compressibility (1/GPa) = 0.01556388
#
# Stress axis : x y z
#
# Youngs Moduli (GPa) = 83.24685 117.33509 94.06978
#
# Poissons Ratio (x) = 0.43500 0.24922
# Poissons Ratio (y) = 0.30862 0.13585
# Poissons Ratio (z) = 0.22055 0.16945
#
# Static dielectric constant tensor:
#      x y z
#    x 3.744520 0.000000 -0.410050 
#    y 0.000000 4.828310 0.000000 
#    z -0.410050 0.000000 2.576020 
# 
# 
# High freq. dielectric constant tensor:
#      x y z
#    x 1.825930 0.000000 -0.001440 
#    y 0.000000 1.842340 0.000000 
#    z -0.001440 0.000000 1.821810 
# 
# From -- ./inp_files/7689.got.cif
#   From: 2010.06.25/outbox.cif.g09.slc.cpg/sg10_4_cif.got.tgz:7689.got - 2010.06.27 22:07:45.
