data_PCOD8066165
_publ_section_title
;
Structure prediction by ZEFSAII (Michael W. Deem and Ramdas Pophale) SiO2 
 PCOD8066165
Probable space group: P 2/M
;
_chemical_formula_sum "Si O2"
_cell_formula_units_Z 28
_cell_length_a 8.927393
_cell_length_b 9.116370
_cell_length_c 24.975356
_cell_angle_alpha 90.000000
_cell_angle_beta 134.972494
_cell_angle_gamma 90.000000
_cell_volume 1437.976134
_symmetry_space_group_name_H-M "P 2/M"
_symmetry_group_IT_number 10
_symmetry_cell_setting 'monoclinic'
loop_
_space_group_symop_operation_xyz
x,y,z
-x,y,-z
-x,-y,-z
x,-y,z
loop_
_atom_site_type_symbol
_atom_site_label
_atom_site_fract_x
_atom_site_fract_y
_atom_site_fract_z
Si Si1 0.738049 0.829224 0.294105
Si Si2 0.466770 0.327157 0.408309
Si Si3 0.819161 0.169476 0.993824
Si Si4 0.159361 0.673338 0.422521
Si Si5 0.616892 0.326484 0.731260
Si Si6 0.903037 0.327837 0.123902
Si Si7 0.344050 0.166666 0.847871
O O1 0.527171 0.753161 0.262007
O O2 0.753214 0.800897 0.234701
O O3 0.940184 0.758031 0.373863
O O4 0.728544 0.000000 0.305625
O O5 0.440637 0.500000 0.400634
O O6 0.697593 0.286184 0.489732
O O7 0.281159 0.268360 0.400345
O O8 0.439540 0.263447 0.341950
O O9 0.817194 0.255973 0.048522
O O10 0.863716 0.000000 0.018168
O O11 0.595261 0.193532 0.908412
O O12 0.000000 0.231938 0.000000
O O13 0.114850 0.500000 0.408550
O O14 0.579218 0.500000 0.725082
O O15 0.855888 0.282208 0.804902
O O16 0.876856 0.500000 0.111689
O O17 0.761712 0.276820 0.137639
O O18 0.296773 0.000000 0.854040
#
# Coordination Sequence:
#
# PCOD8066165 Si02
#       7
#     4   4   4   4   4   4   4
#     4  11  23  37  54  80 111 143 182 226 272 320
#     4   8  16  33  58  82 104 140 187 223 260 324
#     4  10  21  39  61  82 110 150 188 218 258 321
#     4   9  17  34  59  82 106 140 182 226 270 320
#     4  10  21  37  55  78 109 144 181 221 270 326
#     4  11  23  37  58  87 113 138 177 231 280 317
#     4  10  22  39  58  79 107 147 188 220 260 324
#
# _framework density 19.471810999999999
#
# number of rings (size 3 to 8) (size 9 to 14) (size 15 to 20)
#    0.000    2.143    0.000    3.857    0.000    7.714 
#    0.000    5.714    0.000    0.000    0.000    0.000 
#    0.000    0.000    0.000    0.000    0.000    0.000 
#
# Total GULP energy -347288.953532 kJ/mol
# GULP energy per Si atom -12403.176912 kJ/mol
# Density = 1.942749 g / cm^3
# Si number density = 19.471811 Si / 1000 Ang^3
#
#
#
# Elastic Constant Matrix: (Units=GPa)
#
#
# Indices 1 2 3 4 5 6 
#
# 1 69.4702 23.7082 9.2745 0.0000 13.9520 0.0000
# 2 23.7082 46.6309 27.0946 0.0000 8.5394 0.0000
# 3 9.2745 27.0946 82.9223 0.0000 8.0999 0.0000
# 4 0.0000 0.0000 0.0000 22.6099 0.0000 0.5311
# 5 13.9520 8.5394 8.0999 0.0000 34.9219 0.0000
# 6 0.0000 0.0000 0.0000 0.5311 0.0000 29.2852
#
#
#
# Elastic Compliance Matrix: (Units=1/GPa)
#
#
# Indices 1 2 3 4 5 6 
#
# 1 0.018446 -0.009246 0.001491 0.000000 -0.005455 0.000000
# 2 -0.009246 0.031837 -0.009177 0.000000 -0.001963 0.000000
# 3 0.001491 -0.009177 0.015072 0.000000 -0.001847 0.000000
# 4 0.000000 0.000000 0.000000 0.044247 0.000000 -0.000802
# 5 -0.005455 -0.001963 -0.001847 0.000000 0.031723 0.000000
# 6 0.000000 0.000000 0.000000 -0.000802 0.000000 0.034161
#
#
# Mechanical properties :
#
#
# Convention : Reuss Voigt Hill
#
# Bulk Modulus (GPa) = 31.75470 35.46424 33.60947
# Shear Modulus (GPa) = 22.74290 26.62647 24.68468
#
# Velocity S-wave (km/s) = 3.42130 3.70190 3.56436
# Velocity P-wave (km/s) = 5.65247 6.04357 5.85129
#
# Compressibility (1/GPa) = 0.03149140
#
# Stress axis : x y z
#
# Youngs Moduli (GPa) = 54.21085 31.40954 66.34934
#
# Poissons Ratio (x) = 0.29041 -0.09891
# Poissons Ratio (y) = 0.50123 0.60889
# Poissons Ratio (z) = -0.08081 0.28824
#
# Static dielectric constant tensor:
#      x y z
#    x 3.593890 0.000000 -0.073590 
#    y 0.000000 3.322200 0.000000 
#    z -0.073590 0.000000 3.743470 
# 
# 
# High freq. dielectric constant tensor:
#      x y z
#    x 1.762380 0.000000 0.002260 
#    y 0.000000 1.737410 0.000000 
#    z 0.002260 0.000000 1.773450 
# 
# From -- ./inp_files/37076.got.cif
#   From: 2010.06.25/outbox.cif.g09.slc.cpg/sg10_19_cif.got.tgz:37076.got - 2010.06.27 22:07:45.
