data_PCOD8066748
_publ_section_title
;
Structure prediction by ZEFSAII (Michael W. Deem and Ramdas Pophale) SiO2 
 PCOD8066748
Probable space group: P 2/M
;
_chemical_formula_sum "Si O2"
_cell_formula_units_Z 24
_cell_length_a 22.420428
_cell_length_b 7.751132
_cell_length_c 7.904538
_cell_angle_alpha 90.000000
_cell_angle_beta 121.927076
_cell_angle_gamma 90.000000
_cell_volume 1165.872121
_symmetry_space_group_name_H-M "P 2/M"
_symmetry_group_IT_number 10
_symmetry_cell_setting 'monoclinic'
loop_
_space_group_symop_operation_xyz
x,y,z
-x,y,-z
-x,-y,-z
x,-y,z
loop_
_atom_site_type_symbol
_atom_site_label
_atom_site_fract_x
_atom_site_fract_y
_atom_site_fract_z
Si Si1 0.079990 0.500000 0.673720
Si Si2 0.420591 0.294281 0.380887
Si Si3 0.175313 0.189257 0.314989
Si Si4 0.824687 0.189257 0.289049
Si Si5 0.327914 0.296361 0.551022
Si Si6 0.672086 0.296361 0.067279
Si Si7 0.920010 0.500000 0.933751
O O1 0.115606 0.326432 0.661838
O O2 0.000000 0.500000 0.500000
O O3 0.087564 0.500000 0.881346
O O4 0.500000 0.224733 0.500000
O O5 0.417768 0.500000 0.376653
O O6 0.383640 0.223945 0.497403
O O7 0.383640 0.223944 0.153517
O O8 0.181937 0.176473 0.522906
O O9 0.251526 0.246646 0.362042
O O10 0.115606 0.326432 0.184980
O O11 0.155466 0.000000 0.209788
O O12 0.748474 0.246646 0.107464
O O13 0.844534 0.000000 0.243388
O O14 0.332938 0.500000 0.569483
O O15 0.341722 0.220820 0.762584
O O16 0.667062 0.500000 0.070668
O O17 0.000000 0.500000 0.000000
#
# Coordination Sequence:
#
# PCOD8066748 Si02
#       7
#     2   4   4   4   4   4   2
#     4  12  26  42  64  90 124 161 196 245 305 367
#     4   9  18  30  49  81 119 156 203 259 308 363
#     4  10  21  39  64  91 120 157 203 254 304 362
#     4  10  21  39  64  91 120 157 203 254 304 362
#     4   9  17  31  54  81 114 156 202 251 306 363
#     4   9  17  31  54  81 114 156 202 251 306 363
#     4  12  26  42  64  90 124 161 196 245 305 367
#
# _framework density 20.585448
#
# number of rings (size 3 to 8) (size 9 to 14) (size 15 to 20)
#    0.000    2.167    1.667    1.500    2.333    2.000 
#    0.000    3.333    0.000    2.000    0.000    4.667 
#    0.000    0.000    0.000    0.000    0.000    0.000 
#
# Total GULP energy -297449.271098 kJ/mol
# GULP energy per Si atom -12393.719629 kJ/mol
# Density = 2.053859 g / cm^3
# Si number density = 20.585448 Si / 1000 Ang^3
#
#
#
# Elastic Constant Matrix: (Units=GPa)
#
#
# Indices 1 2 3 4 5 6 
#
# 1 144.5890 40.6380 58.2749 0.0000 23.9451 0.0000
# 2 40.6380 76.8902 36.9945 0.0000 10.3360 0.0000
# 3 58.2749 36.9945 127.6377 0.0000 24.1446 0.0000
# 4 0.0000 0.0000 0.0000 2.5212 0.0000 -1.2111
# 5 23.9451 10.3360 24.1446 0.0000 38.3709 0.0000
# 6 0.0000 0.0000 0.0000 -1.2111 0.0000 2.0944
#
#
#
# Elastic Compliance Matrix: (Units=1/GPa)
#
#
# Indices 1 2 3 4 5 6 
#
# 1 0.009490 -0.003239 -0.002768 0.000000 -0.003308 0.000000
# 2 -0.003239 0.016294 -0.003174 0.000000 -0.000371 0.000000
# 3 -0.002768 -0.003174 0.010818 0.000000 -0.004224 0.000000
# 4 0.000000 0.000000 0.000000 0.549177 0.000000 0.317568
# 5 -0.003308 -0.000371 -0.004224 0.000000 0.030884 0.000000
# 6 0.000000 0.000000 0.000000 0.317568 0.000000 0.661104
#
#
# Mechanical properties :
#
#
# Convention : Reuss Voigt Hill
#
# Bulk Modulus (GPa) = 54.82553 68.99242 61.90897
# Shear Modulus (GPa) = 3.83963 22.81128 13.32545
#
# Velocity S-wave (km/s) = 1.36721 3.33246 2.54702
# Velocity P-wave (km/s) = 5.40216 6.95665 6.22809
#
# Compressibility (1/GPa) = 0.01823968
#
# Stress axis : x y z
#
# Youngs Moduli (GPa) = 105.37349 61.37100 92.44215
#
# Poissons Ratio (x) = 0.19879 0.25591
# Poissons Ratio (y) = 0.34132 0.29339
# Poissons Ratio (z) = 0.29170 0.19478
#
# Static dielectric constant tensor:
#      x y z
#    x 3.900420 0.000000 -0.175080 
#    y 0.000000 3.809760 0.000000 
#    z -0.175080 0.000000 3.962140 
# 
# 
# High freq. dielectric constant tensor:
#      x y z
#    x 1.802480 0.000000 -0.006310 
#    y 0.000000 1.795330 0.000000 
#    z -0.006310 0.000000 1.804700 
# 
# From -- ./inp_files/34006.got.cif
#   From: 2010.06.25/outbox.cif.g09.slc.cpg/sg10_18_cif.got.tgz:34006.got - 2010.06.27 22:07:45.
