data_PCOD8066011
_publ_section_title
;
Structure prediction by ZEFSAII (Michael W. Deem and Ramdas Pophale) SiO2 
 PCOD8066011
Probable space group: P 2/M
;
_chemical_formula_sum "Si O2"
_cell_formula_units_Z 28
_cell_length_a 8.933713
_cell_length_b 21.286338
_cell_length_c 15.300933
_cell_angle_alpha 90.000000
_cell_angle_beta 30.270126
_cell_angle_gamma 90.000000
_cell_volume 1466.722905
_symmetry_space_group_name_H-M "P 2/M"
_symmetry_group_IT_number 10
_symmetry_cell_setting 'monoclinic'
loop_
_space_group_symop_operation_xyz
x,y,z
-x,y,-z
-x,-y,-z
x,-y,z
loop_
_atom_site_type_symbol
_atom_site_label
_atom_site_fract_x
_atom_site_fract_y
_atom_site_fract_z
Si Si1 0.798551 0.366010 0.021356
Si Si2 0.165464 0.072712 0.652462
Si Si3 0.162745 0.366763 0.659392
Si Si4 0.824180 0.297362 0.677011
Si Si5 0.605262 0.500000 0.085146
Si Si6 0.358503 0.068802 0.975287
Si Si7 0.966248 0.500000 0.725803
Si Si8 0.843640 0.849511 0.668776
O O1 0.986675 0.359800 0.838339
O O2 0.508515 0.323243 0.160626
O O3 0.698911 0.437832 0.090802
O O4 0.000000 0.342515 0.000000
O O5 0.500000 0.092131 0.500000
O O6 0.990119 0.083229 0.832858
O O7 0.044785 0.119600 0.640991
O O8 0.131863 0.000000 0.638658
O O9 0.500000 0.342892 0.500000
O O10 0.996826 0.325872 0.671403
O O11 0.172869 0.438665 0.620611
O O12 0.806025 0.223756 0.703977
O O13 0.000000 0.313580 0.500000
O O14 0.249179 0.500000 0.250264
O O15 0.761501 0.500000 0.913458
O O16 0.401679 0.000000 0.910577
O O17 0.500000 0.069999 0.000000
O O18 0.513686 0.119991 0.835092
O O19 0.000000 0.865085 0.500000
#
# Coordination Sequence:
#
# PCOD8066011 Si02
#       8
#     4   4   4   4   2   4   2   4
#     4  11  22  39  62  86 115 149 188 238 294 350
#     4   9  18  34  57  85 115 145 182 229 276 330
#     4  11  22  38  61  85 114 151 188 235 291 347
#     4  11  24  41  56  80 116 152 200 244 285 339
#     4   9  17  34  60  87 114 144 182 235 292 347
#     4   8  15  30  53  80 108 140 178 217 263 325
#     4   9  17  34  58  87 114 142 186 233 282 353
#     4  10  21  36  55  79 109 147 188 233 276 329
#
# _framework density 19.090176
#
# number of rings (size 3 to 8) (size 9 to 14) (size 15 to 20)
#    0.000    2.143    1.429    3.000    0.000    5.143 
#    0.000    6.429    0.000    2.571    0.000    0.000 
#    0.000    0.000    0.000    0.000    0.000    0.000 
#
# Total GULP energy -347139.536559 kJ/mol
# GULP energy per Si atom -12397.840591 kJ/mol
# Density = 1.904673 g / cm^3
# Si number density = 19.090176 Si / 1000 Ang^3
#
#
#
# Elastic Constant Matrix: (Units=GPa)
#
#
# Indices 1 2 3 4 5 6 
#
# 1 109.4234 53.6196 65.8192 0.0000 -13.9472 0.0000
# 2 53.6196 113.4907 79.2074 0.0000 5.5453 0.0000
# 3 65.8192 79.2074 147.4567 0.0000 -15.8079 0.0000
# 4 0.0000 0.0000 0.0000 31.5604 0.0000 0.6786
# 5 -13.9472 5.5453 -15.8079 0.0000 35.2633 0.0000
# 6 0.0000 0.0000 0.0000 0.6786 0.0000 26.0684
#
#
#
# Elastic Compliance Matrix: (Units=1/GPa)
#
#
# Indices 1 2 3 4 5 6 
#
# 1 0.013936 -0.004528 -0.003278 0.000000 0.004754 0.000000
# 2 -0.004528 0.016838 -0.007878 0.000000 -0.007971 0.000000
# 3 -0.003278 -0.007878 0.013100 0.000000 0.005815 0.000000
# 4 0.000000 0.000000 0.000000 0.031703 0.000000 -0.000825
# 5 0.004754 -0.007971 0.005815 0.000000 0.034099 0.000000
# 6 0.000000 0.000000 0.000000 -0.000825 0.000000 0.038382
#
#
# Mechanical properties :
#
#
# Convention : Reuss Voigt Hill
#
# Bulk Modulus (GPa) = 79.96907 85.29592 82.63250
# Shear Modulus (GPa) = 27.23378 30.02674 28.63026
#
# Velocity S-wave (km/s) = 3.78111 3.97027 3.87685
# Velocity P-wave (km/s) = 7.81304 8.11141 7.96362
#
# Compressibility (1/GPa) = 0.01250483
#
# Stress axis : x y z
#
# Youngs Moduli (GPa) = 71.75821 59.38779 76.33549
#
# Poissons Ratio (x) = 0.26893 0.25025
# Poissons Ratio (y) = 0.32495 0.60138
# Poissons Ratio (z) = 0.23524 0.46786
#
# Static dielectric constant tensor:
#      x y z
#    x 3.300990 0.000000 -0.211880 
#    y 0.000000 3.582790 0.000000 
#    z -0.211880 0.000000 4.101320 
# 
# 
# High freq. dielectric constant tensor:
#      x y z
#    x 1.723620 0.000000 -0.010860 
#    y 0.000000 1.742280 0.000000 
#    z -0.010860 0.000000 1.753840 
# 
# From -- ./inp_files/62599.got.cif
#   From: 2010.06.25/outbox.cif.g09.slc.cpg/sg10_32_cif.got.tgz:62599.got - 2010.06.27 22:07:45.
