data_PCOD8066232
_publ_section_title
;
Structure prediction by ZEFSAII (Michael W. Deem and Ramdas Pophale) SiO2 
 PCOD8066232
Probable space group: P 2/M
;
_chemical_formula_sum "Si O2"
_cell_formula_units_Z 32
_cell_length_a 15.092931
_cell_length_b 9.111669
_cell_length_c 11.972843
_cell_angle_alpha 90.000000
_cell_angle_beta 92.977127
_cell_angle_gamma 90.000000
_cell_volume 1644.304581
_symmetry_space_group_name_H-M "P 2/M"
_symmetry_group_IT_number 10
_symmetry_cell_setting 'monoclinic'
loop_
_space_group_symop_operation_xyz
x,y,z
-x,y,-z
-x,-y,-z
x,-y,z
loop_
_atom_site_type_symbol
_atom_site_label
_atom_site_fract_x
_atom_site_fract_y
_atom_site_fract_z
Si Si1 0.133527 0.667635 0.703521
Si Si2 0.817100 0.670518 0.543008
Si Si3 0.361515 0.826292 0.449977
Si Si4 0.046642 0.167722 0.299395
Si Si5 0.905852 0.167834 0.947322
Si Si6 0.468405 0.173765 0.669633
Si Si7 0.241519 0.329641 0.927600
Si Si8 0.578246 0.826728 0.088894
O O1 0.099209 0.500000 0.707870
O O2 0.177863 0.701437 0.588042
O O3 0.208487 0.699563 0.799880
O O4 0.052805 0.775611 0.722196
O O5 0.813004 0.500000 0.571523
O O6 0.729886 0.747304 0.586332
O O7 0.904634 0.736904 0.604257
O O8 0.433421 0.775914 0.362182
O O9 0.395786 0.773904 0.574189
O O10 0.346014 0.000000 0.446093
O O11 0.097846 0.181461 0.186108
O O12 0.043191 0.000000 0.339710
O O13 0.890929 0.000000 0.985483
O O14 0.828825 0.269656 0.988637
O O15 0.000000 0.225240 0.000000
O O16 0.445569 0.237813 0.789981
O O17 0.467988 0.000000 0.672972
O O18 0.255801 0.500000 0.952911
O O19 0.333553 0.247133 0.952084
O O20 0.593673 0.000000 0.094725
O O21 0.500000 0.784185 0.000000
#
# Coordination Sequence:
#
# PCOD8066232 Si02
#       8
#     4   4   4   4   4   4   4   4
#     4  10  22  39  57  80 115 154 188 229 283 341
#     4  11  23  37  53  80 120 155 185 225 283 345
#     4   9  17  33  57  81 105 140 189 238 279 328
#     4  11  23  38  59  84 110 145 191 239 283 333
#     4  10  21  40  62  85 113 146 190 243 289 334
#     4   8  16  33  57  81 106 140 186 238 286 329
#     4  11  23  38  61  89 116 152 195 237 287 345
#     4  10  21  37  57  82 114 151 189 234 289 342
#
# _framework density 19.461113999999998
#
# number of rings (size 3 to 8) (size 9 to 14) (size 15 to 20)
#    0.000    2.000    1.250    3.000    0.000    5.500 
#    0.000    4.375    0.000    0.000    0.000    0.000 
#    0.000    0.000    0.000    0.000    0.000    0.000 
#
# Total GULP energy -396926.051984 kJ/mol
# GULP energy per Si atom -12403.939125 kJ/mol
# Density = 1.941682 g / cm^3
# Si number density = 19.461114 Si / 1000 Ang^3
#
#
#
# Elastic Constant Matrix: (Units=GPa)
#
#
# Indices 1 2 3 4 5 6 
#
# 1 129.7677 54.9885 35.2572 0.0000 -0.8062 0.0000
# 2 54.9885 76.2606 34.9120 0.0000 1.9973 0.0000
# 3 35.2572 34.9120 56.2731 0.0000 -3.4840 0.0000
# 4 0.0000 0.0000 0.0000 21.3323 0.0000 7.5039
# 5 -0.8062 1.9973 -3.4840 0.0000 26.6010 0.0000
# 6 0.0000 0.0000 0.0000 7.5039 0.0000 7.1531
#
#
#
# Elastic Compliance Matrix: (Units=1/GPa)
#
#
# Indices 1 2 3 4 5 6 
#
# 1 0.011423 -0.006966 -0.002804 0.000000 0.000502 0.000000
# 2 -0.006966 0.022785 -0.009971 0.000000 -0.003228 0.000000
# 3 -0.002804 -0.009971 0.025965 0.000000 0.004064 0.000000
# 4 0.000000 0.000000 0.000000 0.074293 0.000000 -0.077937
# 5 0.000502 -0.003228 0.004064 0.000000 0.038383 0.000000
# 6 0.000000 0.000000 0.000000 -0.077937 0.000000 0.221558
#
#
# Mechanical properties :
#
#
# Convention : Reuss Voigt Hill
#
# Bulk Modulus (GPa) = 48.33151 56.95742 52.64446
# Shear Modulus (GPa) = 11.34335 20.16018 15.75176
#
# Velocity S-wave (km/s) = 2.41689 3.22206 2.84808
# Velocity P-wave (km/s) = 5.71641 6.57062 6.15835
#
# Compressibility (1/GPa) = 0.02069044
#
# Stress axis : x y z
#
# Youngs Moduli (GPa) = 87.54371 43.88783 38.51297
#
# Poissons Ratio (x) = 0.30573 0.10799
# Poissons Ratio (y) = 0.60983 0.38403
# Poissons Ratio (z) = 0.24547 0.43763
#
# Static dielectric constant tensor:
#      x y z
#    x 3.452890 0.000000 -0.049400 
#    y 0.000000 3.380860 0.000000 
#    z -0.049400 0.000000 3.721650 
# 
# 
# High freq. dielectric constant tensor:
#      x y z
#    x 1.762110 0.000000 -0.002790 
#    y 0.000000 1.743330 0.000000 
#    z -0.002790 0.000000 1.762360 
# 
# From -- ./inp_files/49822.got.cif
#   From: 2010.06.25/outbox.cif.g09.slc.cpg/sg10_25_cif.got.tgz:49822.got - 2010.06.27 22:07:45.
