data_PCOD8066407
_publ_section_title
;
Structure prediction by ZEFSAII (Michael W. Deem and Ramdas Pophale) SiO2 
 PCOD8066407
Probable space group: P 2/M
;
_chemical_formula_sum "Si O2"
_cell_formula_units_Z 28
_cell_length_a 9.712697
_cell_length_b 9.082741
_cell_length_c 26.874916
_cell_angle_alpha 90.000000
_cell_angle_beta 38.566253
_cell_angle_gamma 90.000000
_cell_volume 1478.032702
_symmetry_space_group_name_H-M "P 2/M"
_symmetry_group_IT_number 10
_symmetry_cell_setting 'monoclinic'
loop_
_space_group_symop_operation_xyz
x,y,z
-x,y,-z
-x,-y,-z
x,-y,z
loop_
_atom_site_type_symbol
_atom_site_label
_atom_site_fract_x
_atom_site_fract_y
_atom_site_fract_z
Si Si1 0.750008 0.326162 0.434202
Si Si2 0.372110 0.829611 0.700605
Si Si3 0.486229 0.827997 0.146155
Si Si4 0.016907 0.830688 0.720764
Si Si5 0.295675 0.325848 0.823235
Si Si6 0.101439 0.162063 0.025755
Si Si7 0.803585 0.170482 0.518514
O O1 0.500000 0.268193 0.500000
O O2 0.761221 0.500000 0.432789
O O3 0.892060 0.272051 0.347956
O O4 0.852962 0.263171 0.455436
O O5 0.143134 0.799096 0.736629
O O6 0.387200 0.729449 0.744893
O O7 0.571640 0.782347 0.608233
O O8 0.395286 0.000000 0.709895
O O9 0.547191 0.737032 0.178124
O O10 0.645241 0.784853 0.054436
O O11 0.239243 0.791993 0.198516
O O12 0.518698 0.000000 0.150006
O O13 0.050335 0.000000 0.695114
O O14 0.303895 0.500000 0.823011
O O15 0.040316 0.274267 0.901026
O O16 0.093658 0.000000 0.053403
O O17 0.000000 0.152316 0.000000
O O18 0.000000 0.208535 0.500000
O O19 0.800830 0.000000 0.504403
#
# Coordination Sequence:
#
# PCOD8066407 Si02
#       7
#     4   4   4   4   4   4   4
#     4  11  23  38  57  82 114 149 181 220 276 333
#     4  10  21  38  57  79 110 146 185 230 275 318
#     4   9  19  36  59  85 109 138 182 233 275 319
#     4  10  21  38  61  83 106 142 189 232 272 322
#     4  11  22  34  54  83 115 149 181 218 271 331
#     4   8  15  32  56  80 108 141 180 226 272 317
#     4  10  22  39  60  84 108 142 189 235 272 314
#
# _framework density 18.944099999999999
#
# number of rings (size 3 to 8) (size 9 to 14) (size 15 to 20)
#    0.000    2.143    1.429    2.571    2.000    5.143 
#    0.000    0.714    0.000    4.286    0.000    0.000 
#    0.000    0.000    0.000    0.000    0.000    0.000 
#
# Total GULP energy -347232.534237 kJ/mol
# GULP energy per Si atom -12401.161937 kJ/mol
# Density = 1.890098 g / cm^3
# Si number density = 18.944100 Si / 1000 Ang^3
#
#
#
# Elastic Constant Matrix: (Units=GPa)
#
#
# Indices 1 2 3 4 5 6 
#
# 1 70.2612 31.2475 24.1414 0.0000 -13.4269 0.0000
# 2 31.2475 71.7363 15.7405 0.0000 0.5557 0.0000
# 3 24.1414 15.7405 48.9163 0.0000 -20.6102 0.0000
# 4 0.0000 0.0000 0.0000 4.8279 0.0000 -9.2094
# 5 -13.4269 0.5557 -20.6102 0.0000 34.8378 0.0000
# 6 0.0000 0.0000 0.0000 -9.2094 0.0000 9.5724
#
#
#
# Elastic Compliance Matrix: (Units=1/GPa)
#
#
# Indices 1 2 3 4 5 6 
#
# 1 0.020509 -0.007727 -0.005665 0.000000 0.004676 0.000000
# 2 -0.007727 0.018368 -0.004629 0.000000 -0.006010 0.000000
# 3 -0.005665 -0.004629 0.031755 0.000000 0.016677 0.000000
# 4 0.000000 0.000000 0.000000 -0.248003 0.000000 -0.238597
# 5 0.004676 -0.006010 0.016677 0.000000 0.040469 0.000000
# 6 0.000000 0.000000 0.000000 -0.238597 0.000000 -0.125081
#
#
# Mechanical properties :
#
#
# Convention : Reuss Voigt Hill
#
# Bulk Modulus (GPa) = 28.91015 37.01919 32.96467
# Shear Modulus (GPa) = -23.31973 17.83323 -2.74325
#
# Velocity S-wave (km/s) = -3.51233 3.07149 -1.20467
# Velocity P-wave (km/s) = 1.07459 5.67119 3.93749
#
# Compressibility (1/GPa) = 0.03458993
#
# Stress axis : x y z
#
# Youngs Moduli (GPa) = 48.75894 54.44271 31.49083
#
# Poissons Ratio (x) = 0.42066 0.17840
# Poissons Ratio (y) = 0.37674 0.14578
# Poissons Ratio (z) = 0.27623 0.25203
#
# Static dielectric constant tensor:
#      x y z
#    x 3.366140 0.000000 -0.272650 
#    y 0.000000 3.324530 0.000000 
#    z -0.272650 0.000000 3.828470 
# 
# 
# High freq. dielectric constant tensor:
#      x y z
#    x 1.722780 0.000000 -0.009660 
#    y 0.000000 1.723750 0.000000 
#    z -0.009660 0.000000 1.746160 
# 
# From -- ./inp_files/91983.got.cif
#   From: 2010.06.25/outbox.cif.g09.slc.cpg/sg10_46_cif.got.tgz:91983.got - 2010.06.27 22:07:45.
