data_PCOD8066233
_publ_section_title
;
Structure prediction by ZEFSAII (Michael W. Deem and Ramdas Pophale) SiO2 
 PCOD8066233
Probable space group: P 2/M
;
_chemical_formula_sum "Si O2"
_cell_formula_units_Z 32
_cell_length_a 15.201452
_cell_length_b 8.865412
_cell_length_c 23.386446
_cell_angle_alpha 90.000000
_cell_angle_beta 149.720681
_cell_angle_gamma 90.000000
_cell_volume 1589.149665
_symmetry_space_group_name_H-M "P 2/M"
_symmetry_group_IT_number 10
_symmetry_cell_setting 'monoclinic'
loop_
_space_group_symop_operation_xyz
x,y,z
-x,y,-z
-x,-y,-z
x,-y,z
loop_
_atom_site_type_symbol
_atom_site_label
_atom_site_fract_x
_atom_site_fract_y
_atom_site_fract_z
Si Si1 0.990619 0.825748 0.248868
Si Si2 0.815085 0.827423 0.426305
Si Si3 0.593022 0.825369 0.996939
Si Si4 0.497594 0.325630 0.561181
Si Si5 0.117544 0.326815 0.213300
Si Si6 0.171514 0.677776 0.446809
Si Si7 0.526672 0.820960 0.833648
Si Si8 0.107609 0.822012 0.006589
O O1 0.114313 0.726327 0.277401
O O2 0.012043 0.762135 0.325276
O O3 0.796693 0.800804 0.118305
O O4 0.044852 0.000000 0.277226
O O5 0.823466 0.718797 0.484566
O O6 0.656394 0.770352 0.296923
O O7 0.000000 0.811552 0.500000
O O8 0.781079 0.000000 0.425842
O O9 0.539417 0.000000 0.966039
O O10 0.500000 0.748212 0.000000
O O11 0.535669 0.753464 0.903542
O O12 0.500000 0.246748 0.500000
O O13 0.451257 0.500000 0.526283
O O14 0.684151 0.305897 0.697040
O O15 0.349505 0.256423 0.518694
O O16 0.057108 0.500000 0.174321
O O17 0.992245 0.220346 0.107008
O O18 0.147789 0.500000 0.427377
O O19 0.691843 0.763062 0.887632
O O20 0.540856 0.000000 0.846056
O O21 0.108455 0.000000 0.013577
O O22 0.000000 0.750307 0.000000
#
# Coordination Sequence:
#
# PCOD8066233 Si02
#       8
#     4   4   4   4   4   4   4   4
#     4  11  21  36  60  89 118 148 194 244 294 350
#     4  10  23  41  63  88 116 154 203 252 294 344
#     4   9  18  32  58  88 113 145 184 233 294 351
#     4   9  18  35  55  78 113 155 188 222 281 350
#     4  11  21  36  58  82 116 155 193 236 289 349
#     4  11  23  40  61  84 118 159 200 242 292 350
#     4   9  18  36  57  83 119 152 189 238 292 346
#     4  10  21  37  57  82 115 154 191 238 294 345
#
# _framework density 20.136554
#
# number of rings (size 3 to 8) (size 9 to 14) (size 15 to 20)
#    0.000    2.000    2.500    1.125    3.500    0.500 
#    0.000    3.125    0.000    1.500    0.000    0.000 
#    0.000    0.000    0.000    0.000    0.000    0.000 
#
# Total GULP energy -396692.971000 kJ/mol
# GULP energy per Si atom -12396.655344 kJ/mol
# Density = 2.009072 g / cm^3
# Si number density = 20.136554 Si / 1000 Ang^3
#
#
#
# Elastic Constant Matrix: (Units=GPa)
#
#
# Indices 1 2 3 4 5 6 
#
# 1 115.2166 20.2864 45.6792 0.0000 -6.4013 0.0000
# 2 20.2864 27.9021 21.6160 0.0000 2.9362 0.0000
# 3 45.6792 21.6160 117.0703 0.0000 -13.0112 0.0000
# 4 0.0000 0.0000 0.0000 20.1174 0.0000 -4.8333
# 5 -6.4013 2.9362 -13.0112 0.0000 28.5572 0.0000
# 6 0.0000 0.0000 0.0000 -4.8333 0.0000 20.5953
#
#
#
# Elastic Compliance Matrix: (Units=1/GPa)
#
#
# Indices 1 2 3 4 5 6 
#
# 1 0.011000 -0.005829 -0.003029 0.000000 0.001685 0.000000
# 2 -0.005829 0.046834 -0.007430 0.000000 -0.009507 0.000000
# 3 -0.003029 -0.007430 0.011697 0.000000 0.005414 0.000000
# 4 0.000000 0.000000 0.000000 0.052678 0.000000 0.012363
# 5 0.001685 -0.009507 0.005414 0.000000 0.038840 0.000000
# 6 0.000000 0.000000 0.000000 0.012363 0.000000 0.051456
#
#
# Mechanical properties :
#
#
# Convention : Reuss Voigt Hill
#
# Bulk Modulus (GPa) = 27.05855 48.37246 37.71551
# Shear Modulus (GPa) = 19.42521 25.36115 22.39318
#
# Velocity S-wave (km/s) = 3.10929 3.55273 3.33838
# Velocity P-wave (km/s) = 5.13390 6.39559 5.79916
#
# Compressibility (1/GPa) = 0.03695689
#
# Stress axis : x y z
#
# Youngs Moduli (GPa) = 90.91008 21.35213 85.49078
#
# Poissons Ratio (x) = 0.12445 0.25891
# Poissons Ratio (y) = 0.52988 0.63518
# Poissons Ratio (z) = 0.27532 0.15864
#
# Static dielectric constant tensor:
#      x y z
#    x 3.963080 0.000000 0.100250 
#    y 0.000000 3.199030 0.000000 
#    z 0.100250 0.000000 3.695250 
# 
# 
# High freq. dielectric constant tensor:
#      x y z
#    x 1.792520 0.000000 0.002270 
#    y 0.000000 1.741610 0.000000 
#    z 0.002270 0.000000 1.796840 
# 
# From -- ./inp_files/89594.got.cif
#   From: 2010.06.25/outbox.cif.g09.slc.cpg/sg10_45_cif.got.tgz:89594.got - 2010.06.27 22:07:45.
