data_PCOD8066752
_publ_section_title
;
Structure prediction by ZEFSAII (Michael W. Deem and Ramdas Pophale) SiO2 
 PCOD8066752
Probable space group: P 2/M
;
_chemical_formula_sum "Si O2"
_cell_formula_units_Z 28
_cell_length_a 14.835959
_cell_length_b 9.135166
_cell_length_c 11.003776
_cell_angle_alpha 90.000000
_cell_angle_beta 113.869101
_cell_angle_gamma 90.000000
_cell_volume 1363.780163
_symmetry_space_group_name_H-M "P 2/M"
_symmetry_group_IT_number 10
_symmetry_cell_setting 'monoclinic'
loop_
_space_group_symop_operation_xyz
x,y,z
-x,y,-z
-x,-y,-z
x,-y,z
loop_
_atom_site_type_symbol
_atom_site_label
_atom_site_fract_x
_atom_site_fract_y
_atom_site_fract_z
Si Si1 0.407172 0.835890 0.535807
Si Si2 0.940939 0.828170 0.843307
Si Si3 0.952743 0.173208 0.348962
Si Si4 0.737473 0.171924 0.168855
Si Si5 0.261938 0.668917 0.293824
Si Si6 0.562927 0.331141 0.208214
Si Si7 0.341088 0.663783 0.078427
O O1 0.500000 0.844466 0.500000
O O2 0.308954 0.767390 0.424328
O O3 0.440200 0.729830 0.659120
O O4 0.379705 0.000000 0.566134
O O5 0.843599 0.732019 0.798999
O O6 0.996635 0.775698 0.749916
O O7 0.915591 0.000000 0.821574
O O8 0.000000 0.795060 0.000000
O O9 0.839115 0.225389 0.285088
O O10 0.000000 0.238681 0.500000
O O11 0.958840 0.000000 0.357395
O O12 0.644185 0.244560 0.179272
O O13 0.727556 0.000000 0.171031
O O14 0.733367 0.222271 0.026023
O O15 0.252420 0.500000 0.330377
O O16 0.334355 0.683361 0.218625
O O17 0.592775 0.500000 0.226480
O O18 0.453274 0.309188 0.094041
O O19 0.308922 0.500000 0.023313
#
# Coordination Sequence:
#
# PCOD8066752 Si02
#       7
#     4   4   4   4   4   4   4
#     4  11  23  39  61  90 122 158 203 255 303 356
#     4  10  21  39  64  92 120 158 209 263 316 370
#     4   9  20  39  60  84 120 160 199 253 319 370
#     4  11  23  38  62  91 118 155 207 259 301 354
#     4  11  23  39  62  91 124 163 203 248 308 372
#     4  11  23  40  61  86 124 166 201 241 301 372
#     4  10  22  40  60  85 123 167 198 235 303 373
#
# _framework density 20.531168000000001
#
# number of rings (size 3 to 8) (size 9 to 14) (size 15 to 20)
#    0.000    1.571    1.429    3.000    2.000    6.000 
#    0.000    1.429    0.000    2.143    0.000    0.000 
#    0.000    0.000    0.000    0.000    0.000    0.000 
#
# Total GULP energy -347143.217341 kJ/mol
# GULP energy per Si atom -12397.972048 kJ/mol
# Density = 2.048444 g / cm^3
# Si number density = 20.531168 Si / 1000 Ang^3
#
#
#
# Elastic Constant Matrix: (Units=GPa)
#
#
# Indices 1 2 3 4 5 6 
#
# 1 89.7719 37.1291 30.3497 0.0000 8.5769 0.0000
# 2 37.1291 56.3525 37.7633 0.0000 20.2648 0.0000
# 3 30.3497 37.7633 112.2789 0.0000 10.4662 0.0000
# 4 0.0000 0.0000 0.0000 24.6576 0.0000 -0.9004
# 5 8.5769 20.2648 10.4662 0.0000 35.4105 0.0000
# 6 0.0000 0.0000 0.0000 -0.9004 0.0000 18.8278
#
#
#
# Elastic Compliance Matrix: (Units=1/GPa)
#
#
# Indices 1 2 3 4 5 6 
#
# 1 0.015572 -0.010581 -0.000888 0.000000 0.002546 0.000000
# 2 -0.010581 0.035351 -0.007592 0.000000 -0.015424 0.000000
# 3 -0.000888 -0.007592 0.011594 0.000000 0.001133 0.000000
# 4 0.000000 0.000000 0.000000 0.040626 0.000000 0.001943
# 5 0.002546 -0.015424 0.001133 0.000000 0.036116 0.000000
# 6 0.000000 0.000000 0.000000 0.001943 0.000000 0.053206
#
#
# Mechanical properties :
#
#
# Convention : Reuss Voigt Hill
#
# Bulk Modulus (GPa) = 40.98964 52.09862 46.54413
# Shear Modulus (GPa) = 20.94514 25.98991 23.46753
#
# Velocity S-wave (km/s) = 3.19746 3.56178 3.38453
# Velocity P-wave (km/s) = 5.79997 6.50734 6.16381
#
# Compressibility (1/GPa) = 0.02439641
#
# Stress axis : x y z
#
# Youngs Moduli (GPa) = 64.21619 28.28780 86.24958
#
# Poissons Ratio (x) = 0.29930 0.07659
# Poissons Ratio (y) = 0.67945 0.65481
# Poissons Ratio (z) = 0.05702 0.21476
#
# Static dielectric constant tensor:
#      x y z
#    x 3.750330 0.000000 -0.049240 
#    y 0.000000 3.850510 0.000000 
#    z -0.049240 0.000000 4.269420 
# 
# 
# High freq. dielectric constant tensor:
#      x y z
#    x 1.807100 0.000000 -0.000030 
#    y 0.000000 1.792560 0.000000 
#    z -0.000030 0.000000 1.815370 
# 
# From -- ./inp_files/50112.got.cif
#   From: 2010.06.25/outbox.cif.g09.slc.cpg/sg10_26_cif.got.tgz:50112.got - 2010.06.27 22:07:45.
