data_PCOD8066800
_publ_section_title
;
Structure prediction by ZEFSAII (Michael W. Deem and Ramdas Pophale) SiO2 
 PCOD8066800
Probable space group: P 2/M
;
_chemical_formula_sum "Si O2"
_cell_formula_units_Z 28
_cell_length_a 11.719752
_cell_length_b 9.049310
_cell_length_c 15.347428
_cell_angle_alpha 90.000000
_cell_angle_beta 59.438423
_cell_angle_gamma 90.000000
_cell_volume 1401.569405
_symmetry_space_group_name_H-M "P 2/M"
_symmetry_group_IT_number 10
_symmetry_cell_setting 'monoclinic'
loop_
_space_group_symop_operation_xyz
x,y,z
-x,y,-z
-x,-y,-z
x,-y,z
loop_
_atom_site_type_symbol
_atom_site_label
_atom_site_fract_x
_atom_site_fract_y
_atom_site_fract_z
Si Si1 0.093396 0.332509 0.835869
Si Si2 0.452815 0.171199 0.921572
Si Si3 0.619789 0.324771 0.708572
Si Si4 0.078413 0.326041 0.384492
Si Si5 0.599880 0.173950 0.537145
Si Si6 0.123765 0.827253 0.653217
Si Si7 0.194267 0.668258 0.984590
O O1 0.098501 0.500000 0.798826
O O2 0.150437 0.222821 0.741442
O O3 0.186046 0.315594 0.883799
O O4 0.943779 0.288784 0.917600
O O5 0.533471 0.269792 0.822470
O O6 0.299678 0.215918 0.979054
O O7 0.470169 0.000000 0.890435
O O8 0.500000 0.206191 0.000000
O O9 0.608986 0.500000 0.705775
O O10 0.770476 0.272762 0.666784
O O11 0.564334 0.256605 0.640411
O O12 0.068805 0.500000 0.375335
O O13 0.000000 0.272341 0.500000
O O14 0.009568 0.250798 0.328515
O O15 0.500000 0.226821 0.500000
O O16 0.749160 0.218400 0.453118
O O17 0.584804 0.000000 0.558506
O O18 0.100286 0.000000 0.659905
O O19 0.233935 0.500000 0.993218
#
# Coordination Sequence:
#
# PCOD8066800 Si02
#       7
#     4   4   4   4   4   4   4
#     4   9  20  39  63  90 122 155 195 253 305 352
#     4  11  26  44  62  88 125 163 202 252 308 366
#     4  11  24  42  66  92 118 159 209 256 306 361
#     4  10  21  40  62  86 118 153 196 247 297 351
#     4  10  23  42  61  88 129 168 202 246 303 365
#     4  11  23  36  59  92 123 159 201 243 298 363
#     4   9  20  41  65  89 117 156 204 250 303 359
#
# _framework density 19.977606999999999
#
# number of rings (size 3 to 8) (size 9 to 14) (size 15 to 20)
#    0.000    1.857    1.429    2.143    4.000    4.571 
#    0.000    1.429    0.000    0.000    0.000    0.000 
#    0.000    0.000    0.000    0.000    0.000    0.000 
#
# Total GULP energy -347334.455762 kJ/mol
# GULP energy per Si atom -12404.801992 kJ/mol
# Density = 1.993214 g / cm^3
# Si number density = 19.977607 Si / 1000 Ang^3
#
#
#
# Elastic Constant Matrix: (Units=GPa)
#
#
# Indices 1 2 3 4 5 6 
#
# 1 114.9553 43.3680 24.9162 0.0000 7.7257 0.0000
# 2 43.3680 51.6964 37.0704 0.0000 6.6278 0.0000
# 3 24.9162 37.0704 85.7533 0.0000 14.4252 0.0000
# 4 0.0000 0.0000 0.0000 32.9528 0.0000 5.7192
# 5 7.7257 6.6278 14.4252 0.0000 26.3058 0.0000
# 6 0.0000 0.0000 0.0000 5.7192 0.0000 27.0066
#
#
#
# Elastic Compliance Matrix: (Units=1/GPa)
#
#
# Indices 1 2 3 4 5 6 
#
# 1 0.012902 -0.011771 0.001629 0.000000 -0.001716 0.000000
# 2 -0.011771 0.038779 -0.013529 0.000000 0.001106 0.000000
# 3 0.001629 -0.013529 0.018225 0.000000 -0.007063 0.000000
# 4 0.000000 0.000000 0.000000 0.031504 0.000000 -0.006672
# 5 -0.001716 0.001106 -0.007063 0.000000 0.042113 0.000000
# 6 0.000000 0.000000 0.000000 -0.006672 0.000000 0.038441
#
#
# Mechanical properties :
#
#
# Convention : Reuss Voigt Hill
#
# Bulk Modulus (GPa) = 44.32354 51.45714 47.89034
# Shear Modulus (GPa) = 21.11222 27.05640 24.08431
#
# Velocity S-wave (km/s) = 3.25436 3.68412 3.47589
# Velocity P-wave (km/s) = 6.02959 6.62649 6.33507
#
# Compressibility (1/GPa) = 0.02256137
#
# Stress axis : x y z
#
# Youngs Moduli (GPa) = 77.50558 25.78737 54.86959
#
# Poissons Ratio (x) = 0.30356 -0.08936
# Poissons Ratio (y) = 0.91236 0.74236
# Poissons Ratio (z) = -0.12623 0.34889
#
# Static dielectric constant tensor:
#      x y z
#    x 3.698780 0.000000 0.003080 
#    y 0.000000 3.490580 0.000000 
#    z 0.003080 0.000000 3.588220 
# 
# 
# High freq. dielectric constant tensor:
#      x y z
#    x 1.787690 0.000000 0.002980 
#    y 0.000000 1.774390 0.000000 
#    z 0.002980 0.000000 1.784310 
# 
# From -- ./inp_files/63389.got.cif
#   From: 2010.06.25/outbox.cif.g09.slc.cpg/sg10_32_cif.got.tgz:63389.got - 2010.06.27 22:07:45.
