data_PCOD8066532
_publ_section_title
;
Structure prediction by ZEFSAII (Michael W. Deem and Ramdas Pophale) SiO2 
 PCOD8066532
Probable space group: P 2/M
;
_chemical_formula_sum "Si O2"
_cell_formula_units_Z 28
_cell_length_a 27.063645
_cell_length_b 8.730247
_cell_length_c 9.741899
_cell_angle_alpha 90.000000
_cell_angle_beta 142.216675
_cell_angle_gamma 90.000000
_cell_volume 1410.223884
_symmetry_space_group_name_H-M "P 2/M"
_symmetry_group_IT_number 10
_symmetry_cell_setting 'monoclinic'
loop_
_space_group_symop_operation_xyz
x,y,z
-x,y,-z
-x,-y,-z
x,-y,z
loop_
_atom_site_type_symbol
_atom_site_label
_atom_site_fract_x
_atom_site_fract_y
_atom_site_fract_z
Si Si1 0.483333 0.319604 0.811538
Si Si2 0.261330 0.818842 0.989162
Si Si3 0.854574 0.321064 0.480523
Si Si4 0.301108 0.319336 0.358630
Si Si5 0.432348 0.818958 0.249076
Si Si6 0.985727 0.832060 0.128838
Si Si7 0.812932 0.818455 0.678029
O O1 0.494189 0.500000 0.829797
O O2 0.394505 0.269688 0.567848
O O3 0.551425 0.245042 0.866135
O O4 0.500000 0.256679 0.000000
O O5 0.189902 0.734270 0.753504
O O6 0.249865 0.000000 0.952823
O O7 0.257843 0.769064 0.139770
O O8 0.345326 0.762466 0.107886
O O9 0.842848 0.500000 0.477375
O O10 0.949673 0.285359 0.666028
O O11 0.818415 0.233665 0.532292
O O12 0.291362 0.500000 0.318097
O O13 0.261258 0.267614 0.414041
O O14 0.500000 0.751535 0.500000
O O15 0.436733 0.000000 0.254869
O O16 0.996727 0.000000 0.222185
O O17 0.000000 0.850023 0.000000
O O18 0.893614 0.773367 0.941900
O O19 0.799188 0.000000 0.648938
#
# Coordination Sequence:
#
# PCOD8066532 Si02
#       7
#     4   4   4   4   4   4   4
#     4  10  23  40  58  84 118 153 188 233 290 346
#     4  11  23  40  60  83 116 155 196 241 290 346
#     4  11  22  36  59  90 120 150 191 241 287 340
#     4  11  23  39  58  85 119 155 194 239 291 343
#     4  10  21  39  61  85 110 147 197 240 281 336
#     4   8  16  34  58  84 115 151 191 232 283 343
#     4  10  21  38  61  87 118 156 193 235 287 343
#
# _framework density 19.855004000000001
#
# number of rings (size 3 to 8) (size 9 to 14) (size 15 to 20)
#    0.000    1.857    1.429    3.429    2.000    5.429 
#    0.000    0.714    0.000    4.286    0.000    0.000 
#    0.000    0.000    0.000    0.000    0.000    0.000 
#
# Total GULP energy -347259.940057 kJ/mol
# GULP energy per Si atom -12402.140716 kJ/mol
# Density = 1.980981 g / cm^3
# Si number density = 19.855004 Si / 1000 Ang^3
#
#
#
# Elastic Constant Matrix: (Units=GPa)
#
#
# Indices 1 2 3 4 5 6 
#
# 1 45.0131 9.7085 -2.6629 0.0000 -6.9169 0.0000
# 2 9.7085 57.8255 25.5554 0.0000 6.7909 0.0000
# 3 -2.6629 25.5554 91.2201 0.0000 -8.6185 0.0000
# 4 0.0000 0.0000 0.0000 26.1384 0.0000 -6.1865
# 5 -6.9169 6.7909 -8.6185 0.0000 28.0439 0.0000
# 6 0.0000 0.0000 0.0000 -6.1865 0.0000 27.8946
#
#
#
# Elastic Compliance Matrix: (Units=1/GPa)
#
#
# Indices 1 2 3 4 5 6 
#
# 1 0.025278 -0.006845 0.003503 0.000000 0.008969 0.000000
# 2 -0.006845 0.022882 -0.007512 0.000000 -0.009538 0.000000
# 3 0.003503 -0.007512 0.013824 0.000000 0.006931 0.000000
# 4 0.000000 0.000000 0.000000 0.040377 0.000000 0.008955
# 5 0.008969 -0.009538 0.006931 0.000000 0.042310 0.000000
# 6 0.000000 0.000000 0.000000 0.008955 0.000000 0.037835
#
#
# Mechanical properties :
#
#
# Convention : Reuss Voigt Hill
#
# Bulk Modulus (GPa) = 24.82848 28.80675 26.81762
# Shear Modulus (GPa) = 22.97372 27.17924 25.07648
#
# Velocity S-wave (km/s) = 3.40527 3.70386 3.55770
# Velocity P-wave (km/s) = 5.29086 5.72988 5.51474
#
# Compressibility (1/GPa) = 0.04027632
#
# Stress axis : x y z
#
# Youngs Moduli (GPa) = 39.56075 43.70157 72.33791
#
# Poissons Ratio (x) = 0.29915 -0.25340
# Poissons Ratio (y) = 0.27081 0.54337
# Poissons Ratio (z) = -0.13858 0.32827
#
# Static dielectric constant tensor:
#      x y z
#    x 3.621740 0.000000 0.227870 
#    y 0.000000 3.487800 0.000000 
#    z 0.227870 0.000000 3.774670 
# 
# 
# High freq. dielectric constant tensor:
#      x y z
#    x 1.766170 0.000000 0.008840 
#    y 0.000000 1.771990 0.000000 
#    z 0.008840 0.000000 1.776360 
# 
# From -- ./inp_files/36997.got.cif
#   From: 2010.06.25/outbox.cif.g09.slc.cpg/sg10_19_cif.got.tgz:36997.got - 2010.06.27 22:07:45.
