data_PCOD8066040
_publ_section_title
;
Structure prediction by ZEFSAII (Michael W. Deem and Ramdas Pophale) SiO2 
 PCOD8066040
Probable space group: P 2/M
;
_chemical_formula_sum "Si O2"
_cell_formula_units_Z 30
_cell_length_a 30.100469
_cell_length_b 10.271745
_cell_length_c 30.121767
_cell_angle_alpha 90.000000
_cell_angle_beta 170.097658
_cell_angle_gamma 90.000000
_cell_volume 1601.581448
_symmetry_space_group_name_H-M "P 2/M"
_symmetry_group_IT_number 10
_symmetry_cell_setting 'monoclinic'
loop_
_space_group_symop_operation_xyz
x,y,z
-x,y,-z
-x,-y,-z
x,-y,z
loop_
_atom_site_type_symbol
_atom_site_label
_atom_site_fract_x
_atom_site_fract_y
_atom_site_fract_z
Si Si1 0.345887 0.846025 0.601566
Si Si2 0.049974 0.844463 0.948362
Si Si3 0.660252 0.652408 0.322235
Si Si4 0.477675 0.844813 0.527979
Si Si5 0.762021 0.851421 0.238919
Si Si6 0.765374 0.500000 0.236204
Si Si7 0.809433 0.290936 0.204991
Si Si8 0.883682 0.848673 0.084685
O O1 0.363824 0.752344 0.661115
O O2 0.597099 0.819173 0.819282
O O3 0.328244 0.000000 0.597850
O O4 0.096860 0.796480 0.329060
O O5 0.784569 0.792334 0.708057
O O6 0.056351 0.000000 0.953782
O O7 0.283610 0.791046 0.208373
O O8 0.079249 0.785901 0.927540
O O9 0.657475 0.500000 0.334398
O O10 0.921814 0.685138 0.554506
O O11 0.417860 0.681932 0.052850
O O12 0.500000 0.790405 0.500000
O O13 0.478005 0.000000 0.527659
O O14 0.791235 0.846793 0.212995
O O15 0.000000 0.784517 0.500000
O O16 0.754232 0.000000 0.245539
O O17 0.500000 0.784408 0.000000
O O18 0.781684 0.376216 0.221295
O O19 0.000000 0.500000 0.500000
O O20 0.500000 0.500000 0.000000
O O21 0.936423 0.000000 0.131699
#
# Coordination Sequence:
#
# PCOD8066040 Si02
#       8
#     4   4   4   4   4   2   4   4
#     4  10  21  36  56  77 100 131 173 218 259 309
#     4   9  15  23  37  55  82 119 161 213 259 293
#     4  12  24  41  57  79 112 139 169 207 259 311
#     4   9  15  21  30  50  82 123 168 207 247 303
#     4  10  21  38  58  82 110 139 170 206 246 288
#     4  12  22  36  58  80 104 130 164 198 234 272
#     4  12  23  39  58  80 108 136 170 203 244 296
#     4   9  17  31  49  72  95 123 171 225 266 304
#
# _framework density 18.731486
#
# number of rings (size 3 to 8) (size 9 to 14) (size 15 to 20)
#    0.000    1.733    1.333    4.400    0.000    5.867 
#    0.000    0.000    0.000    0.000    0.000    0.000 
#    0.000    0.000    0.000    0.000    0.000   46.667 
#
# Total GULP energy -371822.402937 kJ/mol
# GULP energy per Si atom -12394.080098 kJ/mol
# Density = 1.868885 g / cm^3
# Si number density = 18.731486 Si / 1000 Ang^3
#
#
#
# Elastic Constant Matrix: (Units=GPa)
#
#
# Indices 1 2 3 4 5 6 
#
# 1 138.0048 37.8681 55.3138 0.0000 -6.9128 0.0000
# 2 37.8681 41.8508 22.4427 0.0000 -1.7209 0.0000
# 3 55.3138 22.4427 154.7212 0.0000 -6.6712 0.0000
# 4 0.0000 0.0000 0.0000 10.9521 0.0000 -1.9269
# 5 -6.9128 -1.7209 -6.6712 0.0000 38.9634 0.0000
# 6 0.0000 0.0000 0.0000 -1.9269 0.0000 12.5304
#
#
#
# Elastic Compliance Matrix: (Units=1/GPa)
#
#
# Indices 1 2 3 4 5 6 
#
# 1 0.010554 -0.008140 -0.002546 0.000000 0.001077 0.000000
# 2 -0.008140 0.032198 -0.001774 0.000000 -0.000326 0.000000
# 3 -0.002546 -0.001774 0.007665 0.000000 0.000782 0.000000
# 4 0.000000 0.000000 0.000000 0.093845 0.000000 0.014432
# 5 0.001077 -0.000326 0.000782 0.000000 0.025976 0.000000
# 6 0.000000 0.000000 0.000000 0.014432 0.000000 0.082025
#
#
# Mechanical properties :
#
#
# Convention : Reuss Voigt Hill
#
# Bulk Modulus (GPa) = 39.22214 62.86955 51.04584
# Shear Modulus (GPa) = 17.50193 27.08600 22.29396
#
# Velocity S-wave (km/s) = 3.06004 3.80677 3.45365
# Velocity P-wave (km/s) = 5.78531 7.27726 6.57374
#
# Compressibility (1/GPa) = 0.02549581
#
# Stress axis : x y z
#
# Youngs Moduli (GPa) = 94.74903 31.05776 130.47101
#
# Poissons Ratio (x) = 0.25282 0.33218
# Poissons Ratio (y) = 0.77128 0.23149
# Poissons Ratio (z) = 0.24123 0.05510
#
# Static dielectric constant tensor:
#      x y z
#    x 3.672530 0.000000 -0.019250 
#    y 0.000000 3.021420 0.000000 
#    z -0.019250 0.000000 3.882440 
# 
# 
# High freq. dielectric constant tensor:
#      x y z
#    x 1.736950 0.000000 0.000670 
#    y 0.000000 1.672770 0.000000 
#    z 0.000670 0.000000 1.755150 
# 
# From -- ./inp_files/94103.got.cif
#   From: 2010.06.25/outbox.cif.g09.slc.cpg/sg10_48_cif.got.tgz:94103.got - 2010.06.27 22:07:45.
