data_PCOD8066271
_publ_section_title
;
Structure prediction by ZEFSAII (Michael W. Deem and Ramdas Pophale) SiO2 
 PCOD8066271
Probable space group: P 2/M
;
_chemical_formula_sum "Si O2"
_cell_formula_units_Z 32
_cell_length_a 9.074099
_cell_length_b 13.495455
_cell_length_c 14.485829
_cell_angle_alpha 90.000000
_cell_angle_beta 96.946477
_cell_angle_gamma 90.000000
_cell_volume 1760.900147
_symmetry_space_group_name_H-M "P 2/M"
_symmetry_group_IT_number 10
_symmetry_cell_setting 'monoclinic'
loop_
_space_group_symop_operation_xyz
x,y,z
-x,y,-z
-x,-y,-z
x,-y,z
loop_
_atom_site_type_symbol
_atom_site_label
_atom_site_fract_x
_atom_site_fract_y
_atom_site_fract_z
Si Si1 0.428153 0.265751 0.592385
Si Si2 0.985215 0.614708 0.763237
Si Si3 0.628476 0.383596 0.942635
Si Si4 0.873910 0.731517 0.058099
Si Si5 0.372865 0.111903 0.921469
Si Si6 0.130611 0.386071 0.577760
Si Si7 0.337997 0.696954 0.252963
Si Si8 0.485672 0.112065 0.267234
O O1 0.500000 0.242476 0.500000
O O2 0.271485 0.318423 0.567673
O O3 0.540989 0.335806 0.660355
O O4 0.409397 0.160353 0.645055
O O5 0.977034 0.500000 0.793222
O O6 0.059642 0.679727 0.847330
O O7 0.081419 0.627905 0.679172
O O8 0.820117 0.653857 0.731449
O O9 0.625601 0.500000 0.935703
O O10 0.600265 0.341407 0.839389
O O11 0.500000 0.343203 0.000000
O O12 0.786543 0.351029 0.993570
O O13 0.773499 0.822938 0.080182
O O14 0.000000 0.773855 0.000000
O O15 0.425709 0.115884 0.820938
O O16 0.331267 0.000000 0.947186
O O17 0.500000 0.152535 0.000000
O O18 0.172133 0.500000 0.560278
O O19 0.000000 0.350776 0.500000
O O20 0.337437 0.818406 0.248297
O O21 0.439587 0.000000 0.289454
#
# Coordination Sequence:
#
# PCOD8066271 Si02
#       8
#     4   4   4   4   4   4   4   4
#     4  10  22  39  63  90 114 150 192 245 293 344
#     4  11  23  38  56  82 121 159 193 235 289 347
#     4  11  23  37  56  83 120 159 202 246 285 345
#     4  12  23  35  56  85 121 158 196 239 295 349
#     4  10  21  39  62  83 114 156 199 246 292 347
#     4  10  22  39  60  86 118 156 191 232 290 352
#     4  10  21  37  58  85 111 154 194 239 287 344
#     4   9  20  38  62  88 111 145 195 245 295 341
#
# _framework density 18.172523000000002
#
# number of rings (size 3 to 8) (size 9 to 14) (size 15 to 20)
#    0.750    0.875    1.250    4.125    1.750    2.250 
#    0.000    0.625    0.000    1.125    0.000    0.000 
#    0.000    0.000    0.000    0.000    0.000    0.000 
#
# Total GULP energy -396711.835185 kJ/mol
# GULP energy per Si atom -12397.244850 kJ/mol
# Density = 1.813116 g / cm^3
# Si number density = 18.172523 Si / 1000 Ang^3
#
#
#
# Elastic Constant Matrix: (Units=GPa)
#
#
# Indices 1 2 3 4 5 6 
#
# 1 103.7223 54.3197 40.7894 0.0000 3.4032 0.0000
# 2 54.3197 107.2532 30.5625 0.0000 -2.3809 0.0000
# 3 40.7894 30.5625 115.2963 0.0000 2.6143 0.0000
# 4 0.0000 0.0000 0.0000 17.2921 0.0000 0.5659
# 5 3.4032 -2.3809 2.6143 0.0000 28.1292 0.0000
# 6 0.0000 0.0000 0.0000 0.5659 0.0000 29.8239
#
#
#
# Elastic Compliance Matrix: (Units=1/GPa)
#
#
# Indices 1 2 3 4 5 6 
#
# 1 0.014352 -0.006358 -0.003347 0.000000 -0.001963 0.000000
# 2 -0.006358 0.012937 -0.001225 0.000000 0.001978 0.000000
# 3 -0.003347 -0.001225 0.010197 0.000000 -0.000646 0.000000
# 4 0.000000 0.000000 0.000000 0.057866 0.000000 -0.001098
# 5 -0.001963 0.001978 -0.000646 0.000000 0.036015 0.000000
# 6 0.000000 0.000000 0.000000 -0.001098 0.000000 0.033551
#
#
# Mechanical properties :
#
#
# Convention : Reuss Voigt Hill
#
# Bulk Modulus (GPa) = 64.00138 64.17945 64.09041
# Shear Modulus (GPa) = 26.04345 28.42238 27.23292
#
# Velocity S-wave (km/s) = 3.78977 3.95907 3.87534
# Velocity P-wave (km/s) = 7.37869 7.50283 7.44102
#
# Compressibility (1/GPa) = 0.01562466
#
# Stress axis : x y z
#
# Youngs Moduli (GPa) = 69.67755 77.29830 98.06964
#
# Poissons Ratio (x) = 0.49149 0.32828
# Poissons Ratio (y) = 0.44304 0.12010
# Poissons Ratio (z) = 0.23324 0.09467
#
# Static dielectric constant tensor:
#      x y z
#    x 3.294340 0.000000 -0.031850 
#    y 0.000000 3.381540 0.000000 
#    z -0.031850 0.000000 3.442740 
# 
# 
# High freq. dielectric constant tensor:
#      x y z
#    x 1.696370 0.000000 -0.004580 
#    y 0.000000 1.700550 0.000000 
#    z -0.004580 0.000000 1.718950 
# 
# From -- ./inp_files/61583.got.cif
#   From: 2010.06.25/outbox.cif.g09.slc.cpg/sg10_31_cif.got.tgz:61583.got - 2010.06.27 22:07:45.
