data_PCOD8066376
_publ_section_title
;
Structure prediction by ZEFSAII (Michael W. Deem and Ramdas Pophale) SiO2 
 PCOD8066376
Probable space group: P 2/M
;
_chemical_formula_sum "Si O2"
_cell_formula_units_Z 32
_cell_length_a 15.067038
_cell_length_b 8.771947
_cell_length_c 23.175959
_cell_angle_alpha 90.000000
_cell_angle_beta 30.776334
_cell_angle_gamma 90.000000
_cell_volume 1567.353119
_symmetry_space_group_name_H-M "P 2/M"
_symmetry_group_IT_number 10
_symmetry_cell_setting 'monoclinic'
loop_
_space_group_symop_operation_xyz
x,y,z
-x,y,-z
-x,-y,-z
x,-y,z
loop_
_atom_site_type_symbol
_atom_site_label
_atom_site_fract_x
_atom_site_fract_y
_atom_site_fract_z
Si Si1 0.799351 0.820075 0.962894
Si Si2 0.602817 0.322205 0.499350
Si Si3 0.463061 0.181172 0.339918
Si Si4 0.944674 0.171782 0.274573
Si Si5 0.868708 0.172144 0.714907
Si Si6 0.184663 0.818569 0.918192
Si Si7 0.881879 0.319068 0.511311
Si Si8 0.483332 0.676787 0.076088
O O1 0.972749 0.769514 0.831617
O O2 0.795732 0.000000 0.966885
O O3 0.798402 0.750548 0.027170
O O4 0.629301 0.766381 0.026897
O O5 0.500000 0.265445 0.500000
O O6 0.573001 0.500000 0.527655
O O7 0.546521 0.232661 0.588154
O O8 0.802453 0.291402 0.374084
O O9 0.651076 0.236225 0.211534
O O10 0.313887 0.251877 0.381395
O O11 0.442387 0.000000 0.348994
O O12 0.099505 0.171201 0.234509
O O13 0.866975 0.000000 0.312378
O O14 0.697253 0.266578 0.796728
O O15 0.029471 0.255875 0.595545
O O16 0.850701 0.000000 0.701187
O O17 0.180785 0.000000 0.920497
O O18 0.000000 0.753549 0.000000
O O19 0.867901 0.500000 0.517085
O O20 0.000000 0.266144 0.500000
O O21 0.502689 0.500000 0.078196
O O22 0.500000 0.715829 0.000000
#
# Coordination Sequence:
#
# PCOD8066376 Si02
#       8
#     4   4   4   4   4   4   4   4
#     4  10  21  39  63  90 122 161 206 254 307 365
#     4  11  25  42  63  91 125 163 203 254 320 380
#     4  11  23  41  67  97 127 163 212 263 313 371
#     4  10  21  37  62  94 122 155 204 259 313 370
#     4  11  22  38  61  89 122 158 207 260 309 366
#     4   9  21  41  65  93 123 159 205 259 312 364
#     4  11  25  43  63  89 126 170 210 255 315 378
#     4  11  23  37  56  86 125 165 202 245 304 369
#
# _framework density 20.416585999999999
#
# number of rings (size 3 to 8) (size 9 to 14) (size 15 to 20)
#    0.000    1.500    2.500    1.875    3.500    3.500 
#    0.000    0.625    0.000    1.875    0.000    0.000 
#    0.000    0.000    0.000    0.000    0.000    0.000 
#
# Total GULP energy -396788.347052 kJ/mol
# GULP energy per Si atom -12399.635845 kJ/mol
# Density = 2.037012 g / cm^3
# Si number density = 20.416586 Si / 1000 Ang^3
#
#
#
# Elastic Constant Matrix: (Units=GPa)
#
#
# Indices 1 2 3 4 5 6 
#
# 1 196.4652 24.1014 75.5299 0.0000 -13.8675 0.0000
# 2 24.1014 181.4097 63.7515 0.0000 -12.4148 0.0000
# 3 75.5299 63.7515 168.2603 0.0000 -6.5845 0.0000
# 4 0.0000 0.0000 0.0000 8.5037 0.0000 1.0241
# 5 -13.8675 -12.4148 -6.5845 0.0000 38.4608 0.0000
# 6 0.0000 0.0000 0.0000 1.0241 0.0000 31.0084
#
#
#
# Elastic Compliance Matrix: (Units=1/GPa)
#
#
# Indices 1 2 3 4 5 6 
#
# 1 0.006286 0.000299 -0.002861 0.000000 0.001873 0.000000
# 2 0.000299 0.006479 -0.002520 0.000000 0.001768 0.000000
# 3 -0.002861 -0.002520 0.008165 0.000000 -0.000447 0.000000
# 4 0.000000 0.000000 0.000000 0.118066 0.000000 -0.003899
# 5 0.001873 0.001768 -0.000447 0.000000 0.027170 0.000000
# 6 0.000000 0.000000 0.000000 -0.003899 0.000000 0.032378
#
#
# Mechanical properties :
#
#
# Convention : Reuss Voigt Hill
#
# Bulk Modulus (GPa) = 92.89722 96.98898 94.94310
# Shear Modulus (GPa) = 23.55196 41.11139 32.33167
#
# Velocity S-wave (km/s) = 3.40011 4.49221 3.98376
# Velocity P-wave (km/s) = 7.81114 8.63219 8.23191
#
# Compressibility (1/GPa) = 0.01076458
#
# Stress axis : x y z
#
# Youngs Moduli (GPa) = 159.09494 154.34044 122.47693
#
# Poissons Ratio (x) = -0.04609 0.35045
# Poissons Ratio (y) = -0.04751 0.30861
# Poissons Ratio (z) = 0.45523 0.38890
#
# Static dielectric constant tensor:
#      x y z
#    x 2.560450 0.000000 -0.849540 
#    y 0.000000 3.538760 0.000000 
#    z -0.849540 0.000000 3.170360 
# 
# 
# High freq. dielectric constant tensor:
#      x y z
#    x 1.803400 0.000000 0.000260 
#    y 0.000000 1.784860 0.000000 
#    z 0.000260 0.000000 1.808440 
# 
# From -- ./inp_files/89572.got.cif
#   From: 2010.06.25/outbox.cif.g09.slc.cpg/sg10_45_cif.got.tgz:89572.got - 2010.06.27 22:07:45.
