data_PCOD8066434
_publ_section_title
;
Structure prediction by ZEFSAII (Michael W. Deem and Ramdas Pophale) SiO2 
 PCOD8066434
Probable space group: P 2/M
;
_chemical_formula_sum "Si O2"
_cell_formula_units_Z 28
_cell_length_a 12.312589
_cell_length_b 9.213352
_cell_length_c 13.860825
_cell_angle_alpha 90.000000
_cell_angle_beta 62.947750
_cell_angle_gamma 90.000000
_cell_volume 1400.344813
_symmetry_space_group_name_H-M "P 2/M"
_symmetry_group_IT_number 10
_symmetry_cell_setting 'monoclinic'
loop_
_space_group_symop_operation_xyz
x,y,z
-x,y,-z
-x,-y,-z
x,-y,z
loop_
_atom_site_type_symbol
_atom_site_label
_atom_site_fract_x
_atom_site_fract_y
_atom_site_fract_z
Si Si1 0.521180 0.329847 0.599653
Si Si2 0.239844 0.832545 0.512627
Si Si3 0.124670 0.654213 0.407909
Si Si4 0.633282 0.168472 0.987229
Si Si5 0.330178 0.834546 0.802327
Si Si6 0.107801 0.168501 0.762448
Si Si7 0.132188 0.670332 0.183880
O O1 0.500000 0.278504 0.500000
O O2 0.525917 0.500000 0.610067
O O3 0.648975 0.260785 0.573557
O O4 0.415632 0.272194 0.709851
O O5 0.151876 0.797273 0.459991
O O6 0.185025 0.778825 0.637187
O O7 0.275381 0.000000 0.504432
O O8 0.203758 0.500000 0.381734
O O9 0.114838 0.706755 0.302417
O O10 0.000000 0.598656 0.500000
O O11 0.737499 0.263790 0.896472
O O12 0.655604 0.000000 0.953658
O O13 0.500000 0.216050 0.000000
O O14 0.646901 0.197685 0.095256
O O15 0.190332 0.805524 0.824903
O O16 0.365197 0.000000 0.762825
O O17 0.982190 0.257061 0.826059
O O18 0.073210 0.000000 0.764167
O O19 0.131460 0.500000 0.160338
#
# Coordination Sequence:
#
# PCOD8066434 Si02
#       7
#     4   4   4   4   4   4   4
#     4  11  23  37  58  90 128 166 200 244 306 369
#     4  11  22  35  57  88 124 164 204 251 300 359
#     4  10  21  38  58  86 125 163 198 242 304 369
#     4  10  24  46  68  90 119 157 206 259 308 364
#     4  10  22  42  65  90 122 163 209 259 309 357
#     4  10  21  38  62  91 124 160 204 254 304 364
#     4  11  24  41  64  91 124 164 203 253 310 366
#
# _framework density 19.995076000000001
#
# number of rings (size 3 to 8) (size 9 to 14) (size 15 to 20)
#    0.000    1.571    2.857    1.286    2.000    4.571 
#    0.000    2.857    0.000    0.000    0.000    0.000 
#    0.000    0.000    0.000    0.000    0.000    0.000 
#
# Total GULP energy -346949.943643 kJ/mol
# GULP energy per Si atom -12391.069416 kJ/mol
# Density = 1.994957 g / cm^3
# Si number density = 19.995076 Si / 1000 Ang^3
#
#
#
# Elastic Constant Matrix: (Units=GPa)
#
#
# Indices 1 2 3 4 5 6 
#
# 1 108.3426 -14.0999 65.2054 0.0000 16.9762 0.0000
# 2 -14.0999 -76.6272 58.7401 0.0000 29.9783 0.0000
# 3 65.2054 58.7401 93.6815 0.0000 -3.8902 0.0000
# 4 0.0000 0.0000 0.0000 38.8875 0.0000 3.5355
# 5 16.9762 29.9783 -3.8902 0.0000 29.8720 0.0000
# 6 0.0000 0.0000 0.0000 3.5355 0.0000 125.7593
#
#
#
# Elastic Compliance Matrix: (Units=1/GPa)
#
#
# Indices 1 2 3 4 5 6 
#
# 1 0.011211 -0.005760 -0.004239 0.000000 -0.001143 0.000000
# 2 -0.005760 -0.003760 0.006695 0.000000 0.007919 0.000000
# 3 -0.004239 0.006695 0.009298 0.000000 -0.003099 0.000000
# 4 0.000000 0.000000 0.000000 0.025781 0.000000 -0.000725
# 5 -0.001143 0.007919 -0.003099 0.000000 0.025775 0.000000
# 6 0.000000 0.000000 0.000000 -0.000725 0.000000 0.007972
#
#
# Mechanical properties :
#
#
# Convention : Reuss Voigt Hill
#
# Bulk Modulus (GPa) = 98.59869 38.34314 68.47092
# Shear Modulus (GPa) = 57.96076 39.94051 48.95063
#
# Velocity S-wave (km/s) = 5.38985 4.47421 4.95323
# Velocity P-wave (km/s) = 9.38895 6.77564 8.18724
#
# Compressibility (1/GPa) = 0.01014212
#
# Stress axis : x y z
#
# Youngs Moduli (GPa) = 89.19958 -265.95537 107.54708
#
# Poissons Ratio (x) = -1.53181 0.45591
# Poissons Ratio (y) = 0.51376 -0.72006
# Poissons Ratio (z) = 0.37813 1.78066
#
# Static dielectric constant tensor:
#      x y z
#    x 3.748930 0.000000 0.050370 
#    y 0.000000 3.570830 0.000000 
#    z 0.050370 0.000000 3.383250 
# 
# 
# High freq. dielectric constant tensor:
#      x y z
#    x 1.787470 0.000000 0.002420 
#    y 0.000000 1.784990 0.000000 
#    z 0.002420 0.000000 1.771390 
# 
# From -- ./inp_files/63658.got.cif
#   From: 2010.06.25/outbox.cif.g09.slc.cpg/sg10_32_cif.got.tgz:63658.got - 2010.06.27 22:07:45.
