data_PCOD8066764
_publ_section_title
;
Structure prediction by ZEFSAII (Michael W. Deem and Ramdas Pophale) SiO2 
 PCOD8066764
Probable space group: P 2/M
;
_chemical_formula_sum "Si O2"
_cell_formula_units_Z 32
_cell_length_a 18.467521
_cell_length_b 14.199341
_cell_length_c 12.317263
_cell_angle_alpha 90.000000
_cell_angle_beta 28.772319
_cell_angle_gamma 90.000000
_cell_volume 1554.655487
_symmetry_space_group_name_H-M "P 2/M"
_symmetry_group_IT_number 10
_symmetry_cell_setting 'monoclinic'
loop_
_space_group_symop_operation_xyz
x,y,z
-x,y,-z
-x,-y,-z
x,-y,z
loop_
_atom_site_type_symbol
_atom_site_label
_atom_site_fract_x
_atom_site_fract_y
_atom_site_fract_z
Si Si1 0.325620 0.105265 0.211205
Si Si2 0.597378 0.107872 0.474769
Si Si3 0.686345 0.894794 0.024983
Si Si4 0.154883 0.282203 0.096562
Si Si5 0.184343 0.292941 0.430208
Si Si6 0.662405 0.609748 0.974358
Si Si7 0.685683 0.609309 0.536792
Si Si8 0.835883 0.264605 0.165855
O O1 0.232829 0.185559 0.396293
O O2 0.281324 0.000000 0.310687
O O3 0.500000 0.123434 0.000000
O O4 0.283482 0.116733 0.141055
O O5 0.500000 0.143290 0.500000
O O6 0.491270 0.123057 0.719526
O O7 0.750005 0.165667 0.286180
O O8 0.646266 0.000000 0.395763
O O9 0.728561 0.000000 0.009651
O O10 0.790514 0.824090 0.954822
O O11 0.263936 0.357885 0.009566
O O12 0.991635 0.295230 0.364165
O O13 0.150418 0.301975 0.974605
O O14 0.273410 0.329814 0.208853
O O15 0.215689 0.358246 0.491426
O O16 0.694774 0.500000 0.911438
O O17 0.487025 0.632596 0.211902
O O18 0.712494 0.500000 0.483536
O O19 0.739357 0.658561 0.356679
O O20 0.000000 0.250096 0.000000
#
# Coordination Sequence:
#
# PCOD8066764 Si02
#       8
#     4   4   4   4   4   4   4   4
#     4  10  22  38  62  97 133 172 216 261 319 388
#     4  10  21  39  68  97 125 169 219 266 317 378
#     4  10  21  39  64  95 134 175 217 265 320 387
#     4  12  25  42  63  99 135 172 214 268 331 393
#     4  12  24  42  68  97 137 174 212 264 332 391
#     4  11  25  44  69  99 125 163 221 278 328 387
#     4  11  26  47  71  96 126 174 223 269 328 392
#     4  12  26  45  65  96 135 174 219 269 332 389
#
# _framework density 20.583338999999999
#
# number of rings (size 3 to 8) (size 9 to 14) (size 15 to 20)
#    0.000    1.000    3.750    2.625    1.750    4.000 
#    0.000    2.500    0.000    0.000    0.000    0.000 
#    0.000    0.000    0.000    0.000    0.000    0.000 
#
# Total GULP energy -396950.571219 kJ/mol
# GULP energy per Si atom -12404.705351 kJ/mol
# Density = 2.053649 g / cm^3
# Si number density = 20.583339 Si / 1000 Ang^3
#
#
#
# Elastic Constant Matrix: (Units=GPa)
#
#
# Indices 1 2 3 4 5 6 
#
# 1 90.0122 40.5847 26.4870 0.0000 1.4056 0.0000
# 2 40.5847 119.0904 63.4938 0.0000 -9.9127 0.0000
# 3 26.4870 63.4938 93.7953 0.0000 -1.9227 0.0000
# 4 0.0000 0.0000 0.0000 13.3627 0.0000 5.5402
# 5 1.4056 -9.9127 -1.9227 0.0000 25.1599 0.0000
# 6 0.0000 0.0000 0.0000 5.5402 0.0000 29.2752
#
#
#
# Elastic Compliance Matrix: (Units=1/GPa)
#
#
# Indices 1 2 3 4 5 6 
#
# 1 0.013343 -0.004254 -0.000940 0.000000 -0.002493 0.000000
# 2 -0.004254 0.015025 -0.008858 0.000000 0.005481 0.000000
# 3 -0.000940 -0.008858 0.016879 0.000000 -0.002147 0.000000
# 4 0.000000 0.000000 0.000000 0.081207 0.000000 -0.015368
# 5 -0.002493 0.005481 -0.002147 0.000000 0.041880 0.000000
# 6 0.000000 0.000000 0.000000 -0.015368 0.000000 0.037067
#
#
# Mechanical properties :
#
#
# Convention : Reuss Voigt Hill
#
# Bulk Modulus (GPa) = 58.32496 62.66987 60.49741
# Shear Modulus (GPa) = 20.90141 25.04838 22.97490
#
# Velocity S-wave (km/s) = 3.19007 3.49223 3.34457
# Velocity P-wave (km/s) = 6.47814 6.83914 6.66109
#
# Compressibility (1/GPa) = 0.01714532
#
# Stress axis : x y z
#
# Youngs Moduli (GPa) = 74.94612 66.55438 59.24556
#
# Poissons Ratio (x) = 0.28311 0.05566
# Poissons Ratio (y) = 0.31880 0.52478
# Poissons Ratio (z) = 0.07041 0.58952
#
# Static dielectric constant tensor:
#      x y z
#    x 3.765750 0.000000 0.078420 
#    y 0.000000 3.882800 0.000000 
#    z 0.078420 0.000000 3.808050 
# 
# 
# High freq. dielectric constant tensor:
#      x y z
#    x 1.808430 0.000000 0.002310 
#    y 0.000000 1.814650 0.000000 
#    z 0.002310 0.000000 1.805520 
# 
# From -- ./inp_files/54005.got.cif
#   From: 2010.06.25/outbox.cif.g09.slc.cpg/sg10_28_cif.got.tgz:54005.got - 2010.06.27 22:07:45.
