data_PCOD8066788
_publ_section_title
;
Structure prediction by ZEFSAII (Michael W. Deem and Ramdas Pophale) SiO2 
 PCOD8066788
Probable space group: P 2/M
;
_chemical_formula_sum "Si O2"
_cell_formula_units_Z 32
_cell_length_a 32.692261
_cell_length_b 8.914483
_cell_length_c 12.249252
_cell_angle_alpha 90.000000
_cell_angle_beta 150.545071
_cell_angle_gamma 90.000000
_cell_volume 1755.436499
_symmetry_space_group_name_H-M "P 2/M"
_symmetry_group_IT_number 10
_symmetry_cell_setting 'monoclinic'
loop_
_space_group_symop_operation_xyz
x,y,z
-x,y,-z
-x,-y,-z
x,-y,z
loop_
_atom_site_type_symbol
_atom_site_label
_atom_site_fract_x
_atom_site_fract_y
_atom_site_fract_z
Si Si1 0.697559 0.825447 0.532306
Si Si2 0.175494 0.324476 0.021676
Si Si3 0.218142 0.676348 0.679200
Si Si4 0.654368 0.174555 0.180101
Si Si5 0.055769 0.828754 0.227940
Si Si6 0.824167 0.175421 0.197379
Si Si7 0.520424 0.176818 0.163285
Si Si8 0.010221 0.168657 0.689828
O O1 0.683359 0.790373 0.371351
O O2 0.615403 0.776703 0.413399
O O3 0.718286 0.000000 0.596937
O O4 0.774829 0.730882 0.756459
O O5 0.186109 0.500000 0.033078
O O6 0.211820 0.245448 0.997445
O O7 0.078561 0.285845 0.809590
O O8 0.217027 0.500000 0.692919
O O9 0.297880 0.723473 0.794884
O O10 0.136624 0.726172 0.423727
O O11 0.222049 0.751946 0.807003
O O12 0.670025 0.000000 0.190071
O O13 0.555987 0.217845 0.933548
O O14 0.998888 0.818570 0.201978
O O15 0.085310 0.000000 0.276366
O O16 0.000000 0.767474 0.000000
O O17 0.922879 0.208592 0.430138
O O18 0.805360 0.000000 0.157765
O O19 0.520753 0.000000 0.147013
O O20 0.500000 0.253430 0.000000
O O21 0.038201 0.000000 0.721926
#
# Coordination Sequence:
#
# PCOD8066788 Si02
#       8
#     4   4   4   4   4   4   4   4
#     4   9  18  33  54  79 107 139 175 214 256 303
#     4  12  24  34  50  78 111 139 168 213 267 316
#     4  11  22  34  51  78 109 137 169 211 264 316
#     4   9  17  32  56  81 106 138 177 215 251 304
#     4   9  19  35  53  72  99 139 181 218 255 298
#     4  10  21  40  60  74  94 133 185 226 259 302
#     4   7  12  27  52  79 102 130 173 219 254 290
#     4   9  19  35  54  75  97 131 179 222 258 303
#
# _framework density 18.229084
#
# number of rings (size 3 to 8) (size 9 to 14) (size 15 to 20)
#    0.000    2.500    0.000    5.250    1.750    4.750 
#    0.000    0.625    0.000    3.000    0.000    5.250 
#    0.000    0.000    0.000    0.000    0.000    0.000 
#
# Total GULP energy -396631.274246 kJ/mol
# GULP energy per Si atom -12394.727320 kJ/mol
# Density = 1.818759 g / cm^3
# Si number density = 18.229084 Si / 1000 Ang^3
#
#
#
# Elastic Constant Matrix: (Units=GPa)
#
#
# Indices 1 2 3 4 5 6 
#
# 1 71.5245 41.0049 33.8385 0.0000 16.1719 0.0000
# 2 41.0049 96.8391 26.8537 0.0000 8.6735 0.0000
# 3 33.8385 26.8537 41.3168 0.0000 6.3242 0.0000
# 4 0.0000 0.0000 0.0000 5.9438 0.0000 -4.5167
# 5 16.1719 8.6735 6.3242 0.0000 23.4128 0.0000
# 6 0.0000 0.0000 0.0000 -4.5167 0.0000 16.2078
#
#
#
# Elastic Compliance Matrix: (Units=1/GPa)
#
#
# Indices 1 2 3 4 5 6 
#
# 1 0.028703 -0.006138 -0.017558 0.000000 -0.012810 0.000000
# 2 -0.006138 0.014058 -0.004133 0.000000 0.000148 0.000000
# 3 -0.017558 -0.004133 0.040868 0.000000 0.002619 0.000000
# 4 0.000000 0.000000 0.000000 0.213440 0.000000 0.059480
# 5 -0.012810 0.000148 0.002619 0.000000 0.050797 0.000000
# 6 0.000000 0.000000 0.000000 0.059480 0.000000 0.078274
#
#
# Mechanical properties :
#
#
# Convention : Reuss Voigt Hill
#
# Bulk Modulus (GPa) = 35.74934 45.89716 40.82325
# Shear Modulus (GPa) = 10.18077 16.31177 13.24627
#
# Velocity S-wave (km/s) = 2.36580 2.99460 2.69858
# Velocity P-wave (km/s) = 5.20734 6.09832 5.67036
#
# Compressibility (1/GPa) = 0.02797255
#
# Stress axis : x y z
#
# Youngs Moduli (GPa) = 34.83977 71.13341 24.46882
#
# Poissons Ratio (x) = 0.43659 0.42962
# Poissons Ratio (y) = 0.21383 0.10113
# Poissons Ratio (z) = 0.61171 0.29399
#
# Static dielectric constant tensor:
#      x y z
#    x 3.398850 0.000000 0.086260 
#    y 0.000000 3.120310 0.000000 
#    z 0.086260 0.000000 3.370100 
# 
# 
# High freq. dielectric constant tensor:
#      x y z
#    x 1.704850 0.000000 0.006980 
#    y 0.000000 1.686860 0.000000 
#    z 0.006980 0.000000 1.691220 
# 
# From -- ./inp_files/55301.got.cif
#   From: 2010.06.25/outbox.cif.g09.slc.cpg/sg10_28_cif.got.tgz:55301.got - 2010.06.27 22:07:45.
