data_PCOD8066340
_publ_section_title
;
Structure prediction by ZEFSAII (Michael W. Deem and Ramdas Pophale) SiO2 
 PCOD8066340
Probable space group: P 2/M
;
_chemical_formula_sum "Si O2"
_cell_formula_units_Z 28
_cell_length_a 10.779676
_cell_length_b 9.978412
_cell_length_c 14.146167
_cell_angle_alpha 90.000000
_cell_angle_beta 62.121584
_cell_angle_gamma 90.000000
_cell_volume 1345.022694
_symmetry_space_group_name_H-M "P 2/M"
_symmetry_group_IT_number 10
_symmetry_cell_setting 'monoclinic'
loop_
_space_group_symop_operation_xyz
x,y,z
-x,y,-z
-x,-y,-z
x,-y,z
loop_
_atom_site_type_symbol
_atom_site_label
_atom_site_fract_x
_atom_site_fract_y
_atom_site_fract_z
Si Si1 0.396671 0.152452 0.119798
Si Si2 0.593280 0.644293 0.378055
Si Si3 0.092477 0.155955 0.884155
Si Si4 0.839264 0.853775 0.534825
Si Si5 0.109180 0.729084 0.675998
Si Si6 0.188638 0.655762 0.288671
Si Si7 0.405597 0.851971 0.773448
O O1 0.271549 0.260777 0.177423
O O2 0.490464 0.153543 0.178111
O O3 0.338512 0.000000 0.121878
O O4 0.500000 0.199600 0.000000
O O5 0.500000 0.676667 0.500000
O O6 0.554701 0.500000 0.348661
O O7 0.759468 0.637699 0.341506
O O8 0.537908 0.754749 0.326282
O O9 0.054829 0.199852 0.790860
O O10 0.250074 0.194342 0.858235
O O11 0.062446 0.000000 0.897019
O O12 0.000000 0.226021 0.000000
O O13 0.825657 0.826327 0.427639
O O14 0.780877 0.734054 0.622967
O O15 0.000000 0.871218 0.500000
O O16 0.765887 0.000000 0.582809
O O17 0.976819 0.650751 0.678329
O O18 0.239281 0.500000 0.278321
O O19 0.396071 0.000000 0.732569
#
# Coordination Sequence:
#
# PCOD8066340 Si02
#       7
#     4   4   4   4   4   4   4
#     4  10  23  42  65  90 120 158 201 250 303 359
#     4  10  22  39  61  87 118 160 199 240 295 356
#     4   9  18  33  60  91 118 151 193 246 302 354
#     4   9  19  36  58  87 120 155 197 244 298 356
#     4  10  21  37  60  88 123 157 200 249 298 357
#     4  11  24  39  60  89 123 162 201 247 303 362
#     4   9  20  39  59  88 120 150 194 246 299 352
#
# _framework density 20.817492999999999
#
# number of rings (size 3 to 8) (size 9 to 14) (size 15 to 20)
#    0.000    2.286    0.000    1.286    4.000    6.571 
#    0.000    0.000    0.000    2.143    0.000    0.000 
#    0.000    0.000    0.000    0.000    0.000    0.000 
#
# Total GULP energy -346902.004527 kJ/mol
# GULP energy per Si atom -12389.357305 kJ/mol
# Density = 2.077011 g / cm^3
# Si number density = 20.817493 Si / 1000 Ang^3
#
#
#
# Elastic Constant Matrix: (Units=GPa)
#
#
# Indices 1 2 3 4 5 6 
#
# 1 37.5660 7.2594 35.7522 0.0000 -0.1071 0.0000
# 2 7.2594 110.1260 69.0873 0.0000 -7.8830 0.0000
# 3 35.7522 69.0873 52.2448 0.0000 -5.7024 0.0000
# 4 0.0000 0.0000 0.0000 61.7012 0.0000 -53.7304
# 5 -0.1071 -7.8830 -5.7024 0.0000 24.3451 0.0000
# 6 0.0000 0.0000 0.0000 -53.7304 0.0000 64.0501
#
#
#
# Elastic Compliance Matrix: (Units=1/GPa)
#
#
# Indices 1 2 3 4 5 6 
#
# 1 -0.013768 -0.029327 0.048397 0.000000 0.001779 0.000000
# 2 -0.029327 -0.009168 0.032690 0.000000 0.004559 0.000000
# 3 0.048397 0.032690 -0.057498 0.000000 -0.002670 0.000000
# 4 0.000000 0.000000 0.000000 0.060140 0.000000 0.050450
# 5 0.001779 0.004559 -0.002670 0.000000 0.041935 0.000000
# 6 0.000000 0.000000 0.000000 0.050450 0.000000 0.057935
#
#
# Mechanical properties :
#
#
# Convention : Reuss Voigt Hill
#
# Bulk Modulus (GPa) = 43.31582 47.12608 45.22095
# Shear Modulus (GPa) = -307.72824 35.87515 -135.92655
#
# Velocity S-wave (km/s) = -12.17140 4.15579 -8.08926
# Velocity P-wave (km/s) = 13.29177 6.76124 8.09188
#
# Compressibility (1/GPa) = 0.02308626
#
# Stress axis : x y z
#
# Youngs Moduli (GPa) = -72.63304 -109.07810 -17.39199
#
# Poissons Ratio (x) = -3.19890 0.84172
# Poissons Ratio (y) = -2.13009 0.56854
# Poissons Ratio (z) = 3.51520 3.56573
#
# Static dielectric constant tensor:
#      x y z
#    x 3.692600 0.000000 -0.074920 
#    y 0.000000 3.823210 0.000000 
#    z -0.074920 0.000000 4.016210 
# 
# 
# High freq. dielectric constant tensor:
#      x y z
#    x 1.811650 0.000000 -0.005370 
#    y 0.000000 1.800340 0.000000 
#    z -0.005370 0.000000 1.819370 
# 
# From -- ./inp_files/63680.got.cif
#   From: 2010.06.25/outbox.cif.g09.slc.cpg/sg10_32_cif.got.tgz:63680.got - 2010.06.27 22:07:45.
