data_PCOD8066935
_publ_section_title
;
Structure prediction by ZEFSAII (Michael W. Deem and Ramdas Pophale) SiO2 
 PCOD8066935
Probable space group: P 2/M
;
_chemical_formula_sum "Si O2"
_cell_formula_units_Z 26
_cell_length_a 14.228979
_cell_length_b 14.052678
_cell_length_c 20.206855
_cell_angle_alpha 90.000000
_cell_angle_beta 18.562932
_cell_angle_gamma 90.000000
_cell_volume 1286.266797
_symmetry_space_group_name_H-M "P 2/M"
_symmetry_group_IT_number 10
_symmetry_cell_setting 'monoclinic'
loop_
_space_group_symop_operation_xyz
x,y,z
-x,y,-z
-x,-y,-z
x,-y,z
loop_
_atom_site_type_symbol
_atom_site_label
_atom_site_fract_x
_atom_site_fract_y
_atom_site_fract_z
Si Si1 0.382702 0.604250 0.184459
Si Si2 0.229504 0.111381 0.030611
Si Si3 0.180972 0.889190 0.281762
Si Si4 0.141313 0.807707 0.615652
Si Si5 0.699851 0.887595 0.166176
Si Si6 0.036140 0.394783 0.279972
Si Si7 0.000000 0.752223 0.500000
O O1 0.340792 0.500000 0.244966
O O2 0.179316 0.613069 0.256058
O O3 0.287340 0.685068 0.299940
O O4 0.720287 0.619030 0.939567
O O5 0.935789 0.162526 0.257182
O O6 0.160806 0.000000 0.074496
O O7 0.509631 0.133757 0.890474
O O8 0.297036 0.150549 0.911727
O O9 0.934188 0.823840 0.482973
O O10 0.151934 0.851654 0.226161
O O11 0.096600 0.000000 0.342915
O O12 0.434375 0.851966 0.389641
O O13 0.185636 0.693318 0.580676
O O14 0.671873 0.000000 0.183400
O O15 0.000000 0.852893 0.000000
O O16 0.886548 0.500000 0.371869
#
# Coordination Sequence:
#
# PCOD8066935 Si02
#       7
#     4   4   4   4   4   4   2
#     4   9  18  31  47  70 103 145 193 236 276 327
#     4  10  22  37  56  85 118 152 190 231 281 345
#     4  11  22  32  48  82 124 157 186 222 275 350
#     4  12  21  36  61  83 115 159 194 225 288 350
#     4  10  23  42  61  86 117 148 195 251 286 324
#     4   9  19  35  51  73 109 150 191 236 282 336
#     4  12  18  28  46  70 104 156 196 224 264 326
#
# _framework density 20.213536000000001
#
# number of rings (size 3 to 8) (size 9 to 14) (size 15 to 20)
#    0.000    1.692    1.538    5.077    2.154    3.077 
#    0.000    2.308    0.000    0.462    0.000    1.077 
#    0.000    0.000    0.000    0.000    0.000    0.000 
#
# Total GULP energy -322142.213143 kJ/mol
# GULP energy per Si atom -12390.085121 kJ/mol
# Density = 2.016753 g / cm^3
# Si number density = 20.213536 Si / 1000 Ang^3
#
#
#
# Elastic Constant Matrix: (Units=GPa)
#
#
# Indices 1 2 3 4 5 6 
#
# 1 56.0069 27.6094 53.8846 0.0000 9.7319 0.0000
# 2 27.6094 119.9223 34.7094 0.0000 14.0898 0.0000
# 3 53.8846 34.7094 103.5807 0.0000 23.0032 0.0000
# 4 0.0000 0.0000 0.0000 30.4124 0.0000 11.8883
# 5 9.7319 14.0898 23.0032 0.0000 29.0369 0.0000
# 6 0.0000 0.0000 0.0000 11.8883 0.0000 20.7924
#
#
#
# Elastic Compliance Matrix: (Units=1/GPa)
#
#
# Indices 1 2 3 4 5 6 
#
# 1 0.037313 -0.003553 -0.019205 0.000000 0.004432 0.000000
# 2 -0.003553 0.009720 -0.000760 0.000000 -0.002924 0.000000
# 3 -0.019205 -0.000760 0.022314 0.000000 -0.010872 0.000000
# 4 0.000000 0.000000 0.000000 0.042346 0.000000 -0.024212
# 5 0.004432 -0.002924 -0.010872 0.000000 0.042985 0.000000
# 6 0.000000 0.000000 0.000000 -0.024212 0.000000 0.061938
#
#
# Mechanical properties :
#
#
# Convention : Reuss Voigt Hill
#
# Bulk Modulus (GPa) = 44.81696 56.87961 50.84829
# Shear Modulus (GPa) = 18.44420 26.93544 22.68982
#
# Velocity S-wave (km/s) = 3.02399 3.65436 3.35402
# Velocity P-wave (km/s) = 5.86622 6.78279 6.34109
#
# Compressibility (1/GPa) = 0.02231298
#
# Stress axis : x y z
#
# Youngs Moduli (GPa) = 26.80016 102.87990 44.81492
#
# Poissons Ratio (x) = 0.36551 0.86066
# Poissons Ratio (y) = 0.09522 0.03404
# Poissons Ratio (z) = 0.51469 0.07814
#
# Static dielectric constant tensor:
#      x y z
#    x 3.607530 0.000000 0.423990 
#    y 0.000000 4.049550 0.000000 
#    z 0.423990 0.000000 3.620910 
# 
# 
# High freq. dielectric constant tensor:
#      x y z
#    x 1.746860 0.000000 0.045830 
#    y 0.000000 1.798260 0.000000 
#    z 0.045830 0.000000 1.778010 
# 
# From -- ./inp_files/85295.got.cif
#   From: 2010.06.25/outbox.cif.g09.slc.cpg/sg10_43_cif.got.tgz:85295.got - 2010.06.27 22:07:45.
