data_PCOD8066578
_publ_section_title
;
Structure prediction by ZEFSAII (Michael W. Deem and Ramdas Pophale) SiO2 
 PCOD8066578
Probable space group: P 2/M
;
_chemical_formula_sum "Si O2"
_cell_formula_units_Z 24
_cell_length_a 14.954730
_cell_length_b 8.457297
_cell_length_c 14.676735
_cell_angle_alpha 90.000000
_cell_angle_beta 40.050562
_cell_angle_gamma 90.000000
_cell_volume 1194.437536
_symmetry_space_group_name_H-M "P 2/M"
_symmetry_group_IT_number 10
_symmetry_cell_setting 'monoclinic'
loop_
_space_group_symop_operation_xyz
x,y,z
-x,y,-z
-x,-y,-z
x,-y,z
loop_
_atom_site_type_symbol
_atom_site_label
_atom_site_fract_x
_atom_site_fract_y
_atom_site_fract_z
Si Si1 0.641791 0.315680 0.670140
Si Si2 0.848210 0.816190 0.650749
Si Si3 0.177702 0.313701 0.641995
Si Si4 0.359523 0.813592 0.653010
Si Si5 0.650742 0.815242 0.132904
Si Si6 0.872453 0.315666 0.826325
O O1 0.605515 0.500000 0.692005
O O2 0.734410 0.285555 0.686514
O O3 0.723862 0.255860 0.516839
O O4 0.501620 0.215520 0.788871
O O5 0.828368 0.783953 0.772748
O O6 0.000000 0.759279 0.500000
O O7 0.825245 0.000000 0.647337
O O8 0.183070 0.500000 0.648776
O O9 0.226382 0.236286 0.698260
O O10 0.022190 0.254901 0.743502
O O11 0.500000 0.739236 0.500000
O O12 0.342268 0.751038 0.769090
O O13 0.372765 0.000000 0.644553
O O14 0.686385 0.000000 0.097572
O O15 0.762214 0.713950 0.991213
O O16 0.877945 0.500000 0.796431
#
# Coordination Sequence:
#
# PCOD8066578 Si02
#       6
#     4   4   4   4   4   4
#     4  11  22  39  64  93 123 161 205 252 305 362
#     4  11  23  39  64  95 124 160 204 252 304 363
#     4  10  22  38  62  92 122 159 205 252 300 361
#     4  10  21  38  62  90 122 161 205 252 304 361
#     4  11  24  42  62  91 127 162 204 256 309 363
#     4  11  24  43  63  90 127 164 203 252 308 365
#
# _framework density 20.093139000000001
#
# number of rings (size 3 to 8) (size 9 to 14) (size 15 to 20)
#    0.000    1.333    3.333    2.000    0.000    5.667 
#    0.000    6.667    0.000    0.000    0.000    0.000 
#    0.000    0.000    0.000    0.000    0.000    0.000 
#
# Total GULP energy -297780.940948 kJ/mol
# GULP energy per Si atom -12407.539206 kJ/mol
# Density = 2.004741 g / cm^3
# Si number density = 20.093139 Si / 1000 Ang^3
#
#
#
# Elastic Constant Matrix: (Units=GPa)
#
#
# Indices 1 2 3 4 5 6 
#
# 1 128.6512 10.4830 37.9303 0.0000 5.8056 0.0000
# 2 10.4830 31.3116 13.9783 0.0000 2.1956 0.0000
# 3 37.9303 13.9783 112.7523 0.0000 2.7335 0.0000
# 4 0.0000 0.0000 0.0000 22.8522 0.0000 -2.6998
# 5 5.8056 2.1956 2.7335 0.0000 34.4140 0.0000
# 6 0.0000 0.0000 0.0000 -2.6998 0.0000 34.6915
#
#
#
# Elastic Compliance Matrix: (Units=1/GPa)
#
#
# Indices 1 2 3 4 5 6 
#
# 1 0.008759 -0.001639 -0.002715 0.000000 -0.001157 0.000000
# 2 -0.001639 0.034230 -0.003653 0.000000 -0.001617 0.000000
# 3 -0.002715 -0.003653 0.010238 0.000000 -0.000122 0.000000
# 4 0.000000 0.000000 0.000000 0.044165 0.000000 0.003437
# 5 -0.001157 -0.001617 -0.000122 0.000000 0.029366 0.000000
# 6 0.000000 0.000000 0.000000 0.003437 0.000000 0.029093
#
#
# Mechanical properties :
#
#
# Convention : Reuss Voigt Hill
#
# Bulk Modulus (GPa) = 26.87271 44.16650 35.51961
# Shear Modulus (GPa) = 27.13388 32.41312 29.77350
#
# Velocity S-wave (km/s) = 3.67877 4.02075 3.85356
# Velocity P-wave (km/s) = 5.60782 6.60181 6.12501
#
# Compressibility (1/GPa) = 0.03721247
#
# Stress axis : x y z
#
# Youngs Moduli (GPa) = 114.16388 29.21413 97.67247
#
# Poissons Ratio (x) = 0.04789 0.26522
# Poissons Ratio (y) = 0.18714 0.35680
# Poissons Ratio (z) = 0.31000 0.10672
#
# Static dielectric constant tensor:
#      x y z
#    x 3.731050 0.000000 0.006560 
#    y 0.000000 3.470870 0.000000 
#    z 0.006560 0.000000 3.656190 
# 
# 
# High freq. dielectric constant tensor:
#      x y z
#    x 1.796630 0.000000 0.000110 
#    y 0.000000 1.780450 0.000000 
#    z 0.000110 0.000000 1.782050 
# 
# From -- ./inp_files/66310.got.cif
#   From: 2010.06.25/outbox.cif.g09.slc.cpg/sg10_34_cif.got.tgz:66310.got - 2010.06.27 22:07:45.
