data_PCOD8066406
_publ_section_title
;
Structure prediction by ZEFSAII (Michael W. Deem and Ramdas Pophale) SiO2 
 PCOD8066406
Probable space group: P 2/M
;
_chemical_formula_sum "Si O2"
_cell_formula_units_Z 28
_cell_length_a 14.384225
_cell_length_b 19.441477
_cell_length_c 8.466700
_cell_angle_alpha 90.000000
_cell_angle_beta 33.463051
_cell_angle_gamma 90.000000
_cell_volume 1305.557363
_symmetry_space_group_name_H-M "P 2/M"
_symmetry_group_IT_number 10
_symmetry_cell_setting 'monoclinic'
loop_
_space_group_symop_operation_xyz
x,y,z
-x,y,-z
-x,-y,-z
x,-y,z
loop_
_atom_site_type_symbol
_atom_site_label
_atom_site_fract_x
_atom_site_fract_y
_atom_site_fract_z
Si Si1 0.163842 0.818820 0.866446
Si Si2 0.684271 0.305241 0.171880
Si Si3 0.825694 0.298217 0.652897
Si Si4 0.683997 0.422259 0.688609
Si Si5 0.686813 0.829885 0.664896
Si Si6 0.980497 0.919391 0.346298
Si Si7 0.829877 0.422725 0.158127
O O1 0.202916 0.756700 0.925977
O O2 0.316620 0.829333 0.523001
O O3 0.000000 0.798597 0.000000
O O4 0.124866 0.885021 0.031426
O O5 0.500000 0.300293 0.500000
O O6 0.775955 0.376066 0.088461
O O7 0.675888 0.300333 0.994624
O O8 0.824061 0.370551 0.561198
O O9 0.788516 0.236532 0.584686
O O10 0.000000 0.288129 0.500000
O O11 0.722784 0.500000 0.693111
O O12 0.685223 0.419775 0.496714
O O13 0.500000 0.397028 0.000000
O O14 0.792310 0.897282 0.563250
O O15 0.500000 0.834434 0.000000
O O16 0.000000 0.897033 0.500000
O O17 0.001009 0.000000 0.292980
O O18 0.855399 0.500000 0.056336
O O19 0.000000 0.396198 0.000000
#
# Coordination Sequence:
#
# PCOD8066406 Si02
#       7
#     4   4   4   4   4   4   4
#     4  10  21  38  61  84 115 157 197 233 277 344
#     4  12  23  35  56  85 116 147 189 244 294 339
#     4  12  23  36  57  84 117 150 192 244 292 345
#     4  10  21  38  57  77 108 151 195 240 294 351
#     4  11  22  38  61  88 120 155 195 239 282 338
#     4  10  22  42  66  91 121 154 188 231 284 340
#     4  10  21  38  57  77 108 150 194 237 287 349
#
# _framework density 21.446778999999999
#
# number of rings (size 3 to 8) (size 9 to 14) (size 15 to 20)
#    0.000    1.286    0.000    7.286    0.000    4.000 
#    0.000    0.000    0.000    2.143    0.000    0.000 
#    0.000    0.000    0.000    0.000    0.000    0.000 
#
# Total GULP energy -347214.638280 kJ/mol
# GULP energy per Si atom -12400.522796 kJ/mol
# Density = 2.139796 g / cm^3
# Si number density = 21.446779 Si / 1000 Ang^3
#
#
#
# Elastic Constant Matrix: (Units=GPa)
#
#
# Indices 1 2 3 4 5 6 
#
# 1 71.3117 49.7359 16.9092 0.0000 21.0101 0.0000
# 2 49.7359 110.3986 33.3752 0.0000 10.0432 0.0000
# 3 16.9092 33.3752 110.0330 0.0000 11.9027 0.0000
# 4 0.0000 0.0000 0.0000 4.1892 0.0000 61.1180
# 5 21.0101 10.0432 11.9027 0.0000 35.6131 0.0000
# 6 0.0000 0.0000 0.0000 61.1180 0.0000 -101.4779
#
#
#
# Elastic Compliance Matrix: (Units=1/GPa)
#
#
# Indices 1 2 3 4 5 6 
#
# 1 0.024380 -0.010093 0.000584 0.000000 -0.011732 0.000000
# 2 -0.010093 0.014272 -0.003099 0.000000 0.002965 0.000000
# 3 0.000584 -0.003099 0.010252 0.000000 -0.002897 0.000000
# 4 0.000000 0.000000 0.000000 0.024391 0.000000 0.014690
# 5 -0.011732 0.002965 -0.002897 0.000000 0.035133 0.000000
# 6 0.000000 0.000000 0.000000 0.014690 0.000000 -0.001007
#
#
# Mechanical properties :
#
#
# Convention : Reuss Voigt Hill
#
# Bulk Modulus (GPa) = 42.21434 54.64266 48.42850
# Shear Modulus (GPa) = 35.57898 0.44641 18.01269
#
# Velocity S-wave (km/s) = 4.07743 0.45673 2.90121
# Velocity P-wave (km/s) = 6.47250 5.08052 5.81829
#
# Compressibility (1/GPa) = 0.02368863
#
# Stress axis : x y z
#
# Youngs Moduli (GPa) = 41.01689 70.06695 97.54436
#
# Poissons Ratio (x) = 0.70717 -0.05695
# Poissons Ratio (y) = 0.41397 0.30227
# Poissons Ratio (z) = -0.02395 0.21712
#
# Static dielectric constant tensor:
#      x y z
#    x 3.957000 0.000000 0.340410 
#    y 0.000000 3.774540 0.000000 
#    z 0.340410 0.000000 4.179350 
# 
# 
# High freq. dielectric constant tensor:
#      x y z
#    x 1.831520 0.000000 0.018990 
#    y 0.000000 1.837950 0.000000 
#    z 0.018990 0.000000 1.858590 
# 
# From -- ./inp_files/30423.got.cif
#   From: 2010.06.25/outbox.cif.g09.slc.cpg/sg10_16_cif.got.tgz:30423.got - 2010.06.27 22:07:45.
