data_PCOD8066204
_publ_section_title
;
Structure prediction by ZEFSAII (Michael W. Deem and Ramdas Pophale) SiO2 
 PCOD8066204
Probable space group: P 2/M
;
_chemical_formula_sum "Si O2"
_cell_formula_units_Z 28
_cell_length_a 15.245755
_cell_length_b 12.559499
_cell_length_c 8.858413
_cell_angle_alpha 90.000000
_cell_angle_beta 54.702059
_cell_angle_gamma 90.000000
_cell_volume 1384.368177
_symmetry_space_group_name_H-M "P 2/M"
_symmetry_group_IT_number 10
_symmetry_cell_setting 'monoclinic'
loop_
_space_group_symop_operation_xyz
x,y,z
-x,y,-z
-x,-y,-z
x,-y,z
loop_
_atom_site_type_symbol
_atom_site_label
_atom_site_fract_x
_atom_site_fract_y
_atom_site_fract_z
Si Si1 0.232629 0.875149 0.602197
Si Si2 0.191258 0.119351 0.991544
Si Si3 0.877544 0.500000 0.434933
Si Si4 0.487334 0.382031 0.676672
Si Si5 0.874834 0.500000 0.795650
Si Si6 0.703772 0.671221 0.601134
Si Si7 0.284149 0.313274 0.055123
Si Si8 0.974819 0.878561 0.363785
O O1 0.315974 0.787931 0.457394
O O2 0.131031 0.833203 0.607233
O O3 0.263464 0.000000 0.542794
O O4 0.212866 0.853317 0.796908
O O5 0.252088 0.193800 0.046977
O O6 0.065451 0.133407 0.147788
O O7 0.229372 0.000000 0.990806
O O8 0.882386 0.500000 0.609417
O O9 0.811685 0.605297 0.444057
O O10 0.003389 0.500000 0.253171
O O11 0.500000 0.325041 0.500000
O O12 0.442147 0.500000 0.692939
O O13 0.599148 0.392389 0.654094
O O14 0.399243 0.323961 0.864147
O O15 0.806825 0.395855 0.915488
O O16 0.701574 0.678800 0.782044
O O17 0.000000 0.819501 0.500000
O O18 0.950804 0.000000 0.427413
#
# Coordination Sequence:
#
# PCOD8066204 Si02
#       8
#     4   4   2   4   2   4   4   4
#     4  10  21  37  56  83 122 162 199 244 302 362
#     4  10  21  37  56  83 122 162 199 244 302 362
#     4   9  20  37  57  88 126 159 191 240 303 356
#     4  11  23  41  64  87 118 157 203 251 299 358
#     4   9  20  37  57  88 126 159 191 240 303 356
#     4  11  22  38  64  91 120 157 203 253 298 355
#     4  11  22  38  64  91 120 157 203 253 298 355
#     4   9  17  31  53  80 111 154 205 247 287 344
#
# _framework density 20.225833000000002
#
# number of rings (size 3 to 8) (size 9 to 14) (size 15 to 20)
#    0.000    1.857    1.429    2.571    2.000    4.000 
#    0.000    0.714    0.000    7.714    0.000    0.000 
#    0.000    0.000    0.000    0.000    0.000    0.000 
#
# Total GULP energy -346961.843708 kJ/mol
# GULP energy per Si atom -12391.494418 kJ/mol
# Density = 2.017980 g / cm^3
# Si number density = 20.225833 Si / 1000 Ang^3
#
#
#
# Elastic Constant Matrix: (Units=GPa)
#
#
# Indices 1 2 3 4 5 6 
#
# 1 90.7892 22.3332 26.9377 0.0000 -2.6526 0.0000
# 2 22.3332 94.9707 33.9146 0.0000 1.7577 0.0000
# 3 26.9377 33.9146 90.7905 0.0000 3.8297 0.0000
# 4 0.0000 0.0000 0.0000 5.6925 0.0000 66.2846
# 5 -2.6526 1.7577 3.8297 0.0000 31.3927 0.0000
# 6 0.0000 0.0000 0.0000 66.2846 0.0000 -194.6599
#
#
#
# Elastic Compliance Matrix: (Units=1/GPa)
#
#
# Indices 1 2 3 4 5 6 
#
# 1 0.012423 -0.001858 -0.003056 0.000000 0.001527 0.000000
# 2 -0.001858 0.012429 -0.004076 0.000000 -0.000356 0.000000
# 3 -0.003056 -0.004076 0.013515 0.000000 -0.001679 0.000000
# 4 0.000000 0.000000 0.000000 0.035381 0.000000 0.012048
# 5 0.001527 -0.000356 -0.001679 0.000000 0.032208 0.000000
# 6 0.000000 0.000000 0.000000 0.012048 0.000000 -0.001035
#
#
# Mechanical properties :
#
#
# Convention : Reuss Voigt Hill
#
# Bulk Modulus (GPa) = 49.05607 49.21351 49.13479
# Shear Modulus (GPa) = 38.55100 -18.62396 9.96352
#
# Velocity S-wave (km/s) = 4.37054 -3.03776 2.22190
# Velocity P-wave (km/s) = 7.05519 3.47575 5.56132
#
# Compressibility (1/GPa) = 0.02038484
#
# Stress axis : x y z
#
# Youngs Moduli (GPa) = 80.49569 80.45796 73.99359
#
# Poissons Ratio (x) = 0.14951 0.22614
# Poissons Ratio (y) = 0.14958 0.30163
# Poissons Ratio (z) = 0.24601 0.32798
#
# Static dielectric constant tensor:
#      x y z
#    x 3.710870 0.000000 0.017670 
#    y 0.000000 3.699150 0.000000 
#    z 0.017670 0.000000 3.684570 
# 
# 
# High freq. dielectric constant tensor:
#      x y z
#    x 1.782330 0.000000 0.005360 
#    y 0.000000 1.788420 0.000000 
#    z 0.005360 0.000000 1.783330 
# 
# From -- ./inp_files/28515.got.cif
#   From: 2010.06.25/outbox.cif.g09.slc.cpg/sg10_15_cif.got.tgz:28515.got - 2010.06.27 22:07:45.
