data_PCOD8066024
_publ_section_title
;
Structure prediction by ZEFSAII (Michael W. Deem and Ramdas Pophale) SiO2 
 PCOD8066024
Probable space group: P 2/M
;
_chemical_formula_sum "Si O2"
_cell_formula_units_Z 28
_cell_length_a 15.865618
_cell_length_b 8.905539
_cell_length_c 20.116847
_cell_angle_alpha 90.000000
_cell_angle_beta 30.086861
_cell_angle_gamma 90.000000
_cell_volume 1424.903658
_symmetry_space_group_name_H-M "P 2/M"
_symmetry_group_IT_number 10
_symmetry_cell_setting 'monoclinic'
loop_
_space_group_symop_operation_xyz
x,y,z
-x,y,-z
-x,-y,-z
x,-y,z
loop_
_atom_site_type_symbol
_atom_site_label
_atom_site_fract_x
_atom_site_fract_y
_atom_site_fract_z
Si Si1 0.313771 0.323773 0.942300
Si Si2 0.155109 0.322529 0.565119
Si Si3 0.640206 0.177128 0.353212
Si Si4 0.495879 0.177464 0.696158
Si Si5 0.079457 0.173506 0.376496
Si Si6 0.468407 0.827134 0.097379
Si Si7 0.931895 0.676568 0.228019
O O1 0.331362 0.500000 0.916773
O O2 0.377685 0.233226 0.835388
O O3 0.418417 0.281286 0.935842
O O4 0.122601 0.274727 0.085229
O O5 0.173798 0.500000 0.549376
O O6 0.320495 0.248260 0.421366
O O7 0.994590 0.273351 0.632024
O O8 0.126903 0.265329 0.659562
O O9 0.500000 0.237896 0.500000
O O10 0.588072 0.229260 0.315421
O O11 0.819245 0.248579 0.248024
O O12 0.657962 0.000000 0.346444
O O13 0.516185 0.000000 0.686569
O O14 0.276582 0.202946 0.247068
O O15 0.000000 0.225894 0.500000
O O16 0.038512 0.000000 0.389307
O O17 0.518425 0.000000 0.076687
O O18 0.500000 0.782935 0.000000
O O19 0.910009 0.500000 0.237945
#
# Coordination Sequence:
#
# PCOD8066024 Si02
#       7
#     4   4   4   4   4   4   4
#     4  11  24  41  60  88 124 161 201 243 296 357
#     4  11  22  37  60  89 117 153 199 242 294 355
#     4  10  21  39  63  91 118 152 200 247 295 351
#     4  11  23  40  62  88 121 157 197 249 302 352
#     4  10  21  36  55  81 114 151 193 242 293 345
#     4  10  21  38  60  86 117 157 202 245 295 351
#     4  10  23  40  60  88 122 157 194 240 293 354
#
# _framework density 19.650452999999999
#
# number of rings (size 3 to 8) (size 9 to 14) (size 15 to 20)
#    0.000    1.571    1.429    3.000    0.000    6.000 
#    0.000    2.857    0.000    0.000    0.000    0.000 
#    0.000    0.000    0.000    0.000    0.000    0.000 
#
# Total GULP energy -347398.978867 kJ/mol
# GULP energy per Si atom -12407.106388 kJ/mol
# Density = 1.960573 g / cm^3
# Si number density = 19.650453 Si / 1000 Ang^3
#
#
#
# Elastic Constant Matrix: (Units=GPa)
#
#
# Indices 1 2 3 4 5 6 
#
# 1 107.9936 30.4083 38.8958 0.0000 -7.2843 0.0000
# 2 30.4083 49.0978 25.5833 0.0000 -5.0616 0.0000
# 3 38.8958 25.5833 109.4248 0.0000 0.7902 0.0000
# 4 0.0000 0.0000 0.0000 12.4510 0.0000 -4.3302
# 5 -7.2843 -5.0616 0.7902 0.0000 34.5547 0.0000
# 6 0.0000 0.0000 0.0000 -4.3302 0.0000 32.9900
#
#
#
# Elastic Compliance Matrix: (Units=1/GPa)
#
#
# Indices 1 2 3 4 5 6 
#
# 1 0.012062 -0.005748 -0.002957 0.000000 0.001768 0.000000
# 2 -0.005748 0.026369 -0.004142 0.000000 0.002746 0.000000
# 3 -0.002957 -0.004142 0.011169 0.000000 -0.001485 0.000000
# 4 0.000000 0.000000 0.000000 0.084156 0.000000 0.011046
# 5 0.001768 0.002746 -0.001485 0.000000 0.029749 0.000000
# 6 0.000000 0.000000 0.000000 0.011046 0.000000 0.031762
#
#
# Mechanical properties :
#
#
# Convention : Reuss Voigt Hill
#
# Bulk Modulus (GPa) = 41.82797 50.69902 46.26349
# Shear Modulus (GPa) = 21.84096 27.44107 24.64101
#
# Velocity S-wave (km/s) = 3.33749 3.74098 3.54498
# Velocity P-wave (km/s) = 6.01532 6.67206 6.35218
#
# Compressibility (1/GPa) = 0.02390745
#
# Stress axis : x y z
#
# Youngs Moduli (GPa) = 82.90211 37.92400 89.53613
#
# Poissons Ratio (x) = 0.21798 0.26472
# Poissons Ratio (y) = 0.47651 0.37083
# Poissons Ratio (z) = 0.24511 0.15707
#
# Static dielectric constant tensor:
#      x y z
#    x 3.650370 0.000000 0.060030 
#    y 0.000000 3.479500 0.000000 
#    z 0.060030 0.000000 3.706580 
# 
# 
# High freq. dielectric constant tensor:
#      x y z
#    x 1.777150 0.000000 -0.000050 
#    y 0.000000 1.761650 0.000000 
#    z -0.000050 0.000000 1.777630 
# 
# From -- ./inp_files/37298.got.cif
#   From: 2010.06.25/outbox.cif.g09.slc.cpg/sg10_19_cif.got.tgz:37298.got - 2010.06.27 22:07:45.
