data_PCOD8066557
_publ_section_title
;
Structure prediction by ZEFSAII (Michael W. Deem and Ramdas Pophale) SiO2 
 PCOD8066557
Probable space group: P 2/M
;
_chemical_formula_sum "Si O2"
_cell_formula_units_Z 22
_cell_length_a 5.385723
_cell_length_b 24.387197
_cell_length_c 7.156779
_cell_angle_alpha 90.000000
_cell_angle_beta 76.554135
_cell_angle_gamma 90.000000
_cell_volume 914.225498
_symmetry_space_group_name_H-M "P 2/M"
_symmetry_group_IT_number 10
_symmetry_cell_setting 'monoclinic'
loop_
_space_group_symop_operation_xyz
x,y,z
-x,y,-z
-x,-y,-z
x,-y,z
loop_
_atom_site_type_symbol
_atom_site_label
_atom_site_fract_x
_atom_site_fract_y
_atom_site_fract_z
Si Si1 0.932919 0.726413 0.229700
Si Si2 0.500000 0.876459 0.000000
Si Si3 0.569331 0.672959 0.781518
Si Si4 0.269514 0.159712 0.679807
Si Si5 0.286273 0.560163 0.379569
Si Si6 0.058068 0.060555 0.208067
O O1 0.664713 0.692943 0.312001
O O2 0.917430 0.788824 0.305970
O O3 0.161442 0.701969 0.317517
O O4 0.000000 0.721910 0.000000
O O5 0.340185 0.838289 0.888561
O O6 0.657999 0.915093 0.829302
O O7 0.618073 0.607652 0.775089
O O8 0.500000 0.691916 0.000000
O O9 0.500000 0.167725 0.500000
O O10 0.131926 0.102124 0.652514
O O11 0.500000 0.558710 0.500000
O O12 0.281008 0.500000 0.281184
O O13 0.000000 0.573681 0.500000
O O14 0.040281 0.000000 0.302958
O O15 0.000000 0.057495 0.000000
#
# Coordination Sequence:
#
# PCOD8066557 Si02
#       6
#     4   2   4   4   4   4
#     4  10  22  40  63  88 125 167 207 264 324 380
#     4  10  21  40  66  84 124 162 201 268 322 388
#     4  10  22  39  64  90 123 163 210 261 315 370
#     4  11  25  40  61  92 123 163 213 261 325 393
#     4  10  21  38  61  90 128 168 208 257 314 374
#     4   9  19  38  63  90 120 160 208 259 323 388
#
# _framework density 24.064084999999999
#
# number of rings (size 3 to 8) (size 9 to 14) (size 15 to 20)
#    0.000    2.000    0.000    3.000    6.364    4.364 
#    0.000    0.909    0.000    6.545    0.000    0.000 
#    0.000    0.000    0.000    0.000    0.000    0.000 
#
# Total GULP energy -272677.933830 kJ/mol
# GULP energy per Si atom -12394.451538 kJ/mol
# Density = 2.400931 g / cm^3
# Si number density = 24.064085 Si / 1000 Ang^3
#
#
#
# Elastic Constant Matrix: (Units=GPa)
#
#
# Indices 1 2 3 4 5 6 
#
# 1 167.1066 57.3010 25.8855 0.0000 -19.9335 0.0000
# 2 57.3010 187.1655 22.1030 0.0000 -19.3629 0.0000
# 3 25.8855 22.1030 31.8900 0.0000 -17.4606 0.0000
# 4 0.0000 0.0000 0.0000 -1.3322 0.0000 -27.7514
# 5 -19.9335 -19.3629 -17.4606 0.0000 28.6393 0.0000
# 6 0.0000 0.0000 0.0000 -27.7514 0.0000 -2.1216
#
#
#
# Elastic Compliance Matrix: (Units=1/GPa)
#
#
# Indices 1 2 3 4 5 6 
#
# 1 0.007343 -0.001614 -0.003964 0.000000 0.001603 0.000000
# 2 -0.001614 0.006269 -0.001995 0.000000 0.001898 0.000000
# 3 -0.003964 -0.001995 0.050600 0.000000 0.026742 0.000000
# 4 0.000000 0.000000 0.000000 0.002765 0.000000 -0.036167
# 5 0.001603 0.001898 0.026742 0.000000 0.053620 0.000000
# 6 0.000000 0.000000 0.000000 -0.036167 0.000000 0.001736
#
#
# Mechanical properties :
#
#
# Convention : Reuss Voigt Hill
#
# Bulk Modulus (GPa) = 20.38109 66.30457 43.34283
# Shear Modulus (GPa) = 32.50223 23.76193 28.13208
#
# Velocity S-wave (km/s) = 3.67911 3.14577 3.42284
# Velocity P-wave (km/s) = 5.15128 6.38809 5.80273
#
# Compressibility (1/GPa) = 0.04906509
#
# Stress axis : x y z
#
# Youngs Moduli (GPa) = 136.18573 159.51305 19.76273
#
# Poissons Ratio (x) = 0.25747 0.07834
# Poissons Ratio (y) = 0.21982 0.03944
# Poissons Ratio (z) = 0.53985 0.31830
#
# Static dielectric constant tensor:
#      x y z
#    x 4.771300 0.000000 -0.241860 
#    y 0.000000 4.712960 0.000000 
#    z -0.241860 0.000000 3.775460 
# 
# 
# High freq. dielectric constant tensor:
#      x y z
#    x 1.969220 0.000000 -0.014250 
#    y 0.000000 1.963130 0.000000 
#    z -0.014250 0.000000 1.930190 
# 
# From -- ./inp_files/15540.got.cif
#   From: 2010.06.25/outbox.cif.g09.slc.cpg/sg10_8_cif.got.tgz:15540.got - 2010.06.27 22:07:45.
