data_PCOD8066852
_publ_section_title
;
Structure prediction by ZEFSAII (Michael W. Deem and Ramdas Pophale) SiO2 
 PCOD8066852
Probable space group: P 2/M
;
_chemical_formula_sum "Si O2"
_cell_formula_units_Z 16
_cell_length_a 20.476753
_cell_length_b 7.415080
_cell_length_c 9.637242
_cell_angle_alpha 90.000000
_cell_angle_beta 149.439581
_cell_angle_gamma 90.000000
_cell_volume 744.003727
_symmetry_space_group_name_H-M "P 2/M"
_symmetry_group_IT_number 10
_symmetry_cell_setting 'monoclinic'
loop_
_space_group_symop_operation_xyz
x,y,z
-x,y,-z
-x,-y,-z
x,-y,z
loop_
_atom_site_type_symbol
_atom_site_label
_atom_site_fract_x
_atom_site_fract_y
_atom_site_fract_z
Si Si1 0.812596 0.711275 0.234035
Si Si2 0.414935 0.000000 0.706140
Si Si3 0.473402 0.712310 0.289848
Si Si4 0.931166 0.711707 0.167167
Si Si5 0.131089 0.000000 0.157941
O O1 0.806617 0.500000 0.201997
O O2 0.861380 0.787078 0.176649
O O3 0.916068 0.759681 0.542692
O O4 0.670817 0.781095 0.010700
O O5 0.436622 0.176501 0.649718
O O6 0.266552 0.000000 0.487636
O O7 0.500000 0.000000 0.000000
O O8 0.500000 0.756420 0.500000
O O9 0.494344 0.500000 0.299193
O O10 0.909829 0.500000 0.104242
O O11 0.867582 0.816090 0.925858
O O12 0.000000 0.000000 0.000000
#
# Coordination Sequence:
#
# PCOD8066852 Si02
#       5
#     4   2   4   4   2
#     4   8  16  33  64  99 120 150 196 251 317 370
#     4  12  29  45  61  91 134 172 208 257 316 380
#     4  10  21  40  69  97 125 163 212 262 316 375
#     4   9  19  38  62  91 126 152 195 260 309 355
#     4  12  28  42  59  86 115 168 222 241 289 370
#
# _framework density 21.505268000000001
#
# number of rings (size 3 to 8) (size 9 to 14) (size 15 to 20)
#    0.000    2.250    0.000    3.375    3.500    7.000 
#    0.000    0.000    0.000    0.000    0.000    0.000 
#    0.000    0.000    0.000    0.000    0.000    0.000 
#
# Total GULP energy -198277.711327 kJ/mol
# GULP energy per Si atom -12392.356958 kJ/mol
# Density = 2.145632 g / cm^3
# Si number density = 21.505268 Si / 1000 Ang^3
#
#
#
# Elastic Constant Matrix: (Units=GPa)
#
#
# Indices 1 2 3 4 5 6 
#
# 1 86.3864 33.9311 49.2297 0.0000 16.0952 0.0000
# 2 33.9311 95.6497 35.9032 0.0000 -5.0675 0.0000
# 3 49.2297 35.9032 143.4533 0.0000 17.4488 0.0000
# 4 0.0000 0.0000 0.0000 24.6370 0.0000 0.1820
# 5 16.0952 -5.0675 17.4488 0.0000 44.0791 0.0000
# 6 0.0000 0.0000 0.0000 0.1820 0.0000 21.1278
#
#
#
# Elastic Compliance Matrix: (Units=1/GPa)
#
#
# Indices 1 2 3 4 5 6 
#
# 1 0.016581 -0.004684 -0.003904 0.000000 -0.005048 0.000000
# 2 -0.004684 0.013152 -0.002181 0.000000 0.004086 0.000000
# 3 -0.003904 -0.002181 0.009154 0.000000 -0.002449 0.000000
# 4 0.000000 0.000000 0.000000 0.040592 0.000000 -0.000350
# 5 -0.005048 0.004086 -0.002449 0.000000 0.025969 0.000000
# 6 0.000000 0.000000 0.000000 -0.000350 0.000000 0.047334
#
#
# Mechanical properties :
#
#
# Convention : Reuss Voigt Hill
#
# Bulk Modulus (GPa) = 57.64051 62.62415 60.13233
# Shear Modulus (GPa) = 27.76196 31.73045 29.74621
#
# Velocity S-wave (km/s) = 3.59686 3.84536 3.72318
# Velocity P-wave (km/s) = 6.64161 6.99280 6.81947
#
# Compressibility (1/GPa) = 0.01734891
#
# Stress axis : x y z
#
# Youngs Moduli (GPa) = 60.31037 76.03645 109.23708
#
# Poissons Ratio (x) = 0.35616 0.42645
# Poissons Ratio (y) = 0.28249 0.23825
# Poissons Ratio (z) = 0.23545 0.16584
#
# Static dielectric constant tensor:
#      x y z
#    x 3.955960 0.000000 0.559500 
#    y 0.000000 3.816010 0.000000 
#    z 0.559500 0.000000 4.382930 
# 
# 
# High freq. dielectric constant tensor:
#      x y z
#    x 1.816140 0.000000 0.022600 
#    y 0.000000 1.844630 0.000000 
#    z 0.022600 0.000000 1.854640 
# 
# From -- ./inp_files/34137.got.cif
#   From: 2010.06.25/outbox.cif.g09.slc.cpg/sg10_18_cif.got.tgz:34137.got - 2010.06.27 22:07:45.
