data_PCOD8066841
_publ_section_title
;
Structure prediction by ZEFSAII (Michael W. Deem and Ramdas Pophale) SiO2 
 PCOD8066841
Probable space group: P 2/M
;
_chemical_formula_sum "Si O2"
_cell_formula_units_Z 28
_cell_length_a 14.134696
_cell_length_b 21.838160
_cell_length_c 7.812212
_cell_angle_alpha 90.000000
_cell_angle_beta 147.020377
_cell_angle_gamma 90.000000
_cell_volume 1312.645241
_symmetry_space_group_name_H-M "P 2/M"
_symmetry_group_IT_number 10
_symmetry_cell_setting 'monoclinic'
loop_
_space_group_symop_operation_xyz
x,y,z
-x,y,-z
-x,-y,-z
x,-y,z
loop_
_atom_site_type_symbol
_atom_site_label
_atom_site_fract_x
_atom_site_fract_y
_atom_site_fract_z
Si Si1 0.795820 0.237115 0.190359
Si Si2 0.335442 0.429363 0.843224
Si Si3 0.325410 0.640505 0.143384
Si Si4 0.312545 0.155024 0.666203
Si Si5 0.314419 0.851134 0.275437
Si Si6 0.996513 0.928387 0.694145
Si Si7 0.026513 0.431708 0.842756
O O1 0.722958 0.212305 0.261089
O O2 0.000000 0.228458 0.500000
O O3 0.740684 0.307262 0.086470
O O4 0.723835 0.203489 0.913108
O O5 0.332894 0.500000 0.789196
O O6 0.147581 0.402589 0.504223
O O7 0.500000 0.397316 0.000000
O O8 0.365349 0.419031 0.089401
O O9 0.500000 0.663066 0.500000
O O10 0.177467 0.618643 0.049514
O O11 0.314619 0.175612 0.469851
O O12 0.170294 0.102482 0.473849
O O13 0.500000 0.126921 0.000000
O O14 0.500000 0.879497 0.500000
O O15 0.172378 0.904648 0.048199
O O16 0.000000 0.911256 0.500000
O O17 0.982219 0.000000 0.705639
O O18 0.068520 0.500000 0.828542
O O19 0.000000 0.440338 0.000000
#
# Coordination Sequence:
#
# PCOD8066841 Si02
#       7
#     4   4   4   4   4   4   4
#     4  12  25  47  66  97 131 176 230 281 333 395
#     4  10  21  40  66  95 130 170 213 271 334 394
#     4  12  26  42  63  95 132 170 221 277 329 399
#     4  12  24  43  73  97 134 183 222 275 336 396
#     4  12  23  44  70  99 137 178 226 270 335 399
#     4  11  23  44  72 106 143 177 222 278 332 400
#     4  10  21  41  67  97 132 173 219 269 339 409
#
# _framework density 21.330971999999999
#
# number of rings (size 3 to 8) (size 9 to 14) (size 15 to 20)
#    0.000    0.714    4.286    3.429    0.000    5.714 
#    5.143    0.000    0.000    0.000    0.000    0.000 
#    0.000    0.000    0.000    0.000    0.000    0.000 
#
# Total GULP energy -347185.256150 kJ/mol
# GULP energy per Si atom -12399.473434 kJ/mol
# Density = 2.128242 g / cm^3
# Si number density = 21.330972 Si / 1000 Ang^3
#
#
#
# Elastic Constant Matrix: (Units=GPa)
#
#
# Indices 1 2 3 4 5 6 
#
# 1 143.8860 43.6905 63.6556 0.0000 -1.5940 0.0000
# 2 43.6905 78.5350 47.4021 0.0000 7.6553 0.0000
# 3 63.6556 47.4021 148.6370 0.0000 18.9307 0.0000
# 4 0.0000 0.0000 0.0000 25.6447 0.0000 -7.0403
# 5 -1.5940 7.6553 18.9307 0.0000 52.1857 0.0000
# 6 0.0000 0.0000 0.0000 -7.0403 0.0000 22.2886
#
#
#
# Elastic Compliance Matrix: (Units=1/GPa)
#
#
# Indices 1 2 3 4 5 6 
#
# 1 0.009446 -0.003534 -0.003167 0.000000 0.001956 0.000000
# 2 -0.003534 0.017104 -0.003783 0.000000 -0.001245 0.000000
# 3 -0.003167 -0.003783 0.009679 0.000000 -0.003053 0.000000
# 4 0.000000 0.000000 0.000000 0.042697 0.000000 0.013487
# 5 0.001956 -0.001245 -0.003053 0.000000 0.020512 0.000000
# 6 0.000000 0.000000 0.000000 0.013487 0.000000 0.049126
#
#
# Mechanical properties :
#
#
# Convention : Reuss Voigt Hill
#
# Bulk Modulus (GPa) = 65.52559 75.61716 70.57137
# Shear Modulus (GPa) = 28.63379 34.44446 31.53912
#
# Velocity S-wave (km/s) = 3.66779 4.02277 3.84938
# Velocity P-wave (km/s) = 6.98013 7.55667 7.27411
#
# Compressibility (1/GPa) = 0.01526121
#
# Stress axis : x y z
#
# Youngs Moduli (GPa) = 105.86559 58.46755 103.31126
#
# Poissons Ratio (x) = 0.20661 0.32724
# Poissons Ratio (y) = 0.37411 0.39078
# Poissons Ratio (z) = 0.33533 0.22116
#
# Static dielectric constant tensor:
#      x y z
#    x 3.967550 0.000000 0.123170 
#    y 0.000000 3.626340 0.000000 
#    z 0.123170 0.000000 4.388410 
# 
# 
# High freq. dielectric constant tensor:
#      x y z
#    x 1.849160 0.000000 0.004470 
#    y 0.000000 1.813230 0.000000 
#    z 0.004470 0.000000 1.858390 
# 
# From -- ./inp_files/30498.got.cif
#   From: 2010.06.25/outbox.cif.g09.slc.cpg/sg10_16_cif.got.tgz:30498.got - 2010.06.27 22:07:45.
