data_PCOD8066103
_publ_section_title
;
Structure prediction by ZEFSAII (Michael W. Deem and Ramdas Pophale) SiO2 
 PCOD8066103
Probable space group: P 2/M
;
_chemical_formula_sum "Si O2"
_cell_formula_units_Z 32
_cell_length_a 7.908940
_cell_length_b 14.649179
_cell_length_c 13.061943
_cell_angle_alpha 90.000000
_cell_angle_beta 81.505131
_cell_angle_gamma 90.000000
_cell_volume 1496.747078
_symmetry_space_group_name_H-M "P 2/M"
_symmetry_group_IT_number 10
_symmetry_cell_setting 'monoclinic'
loop_
_space_group_symop_operation_xyz
x,y,z
-x,y,-z
-x,-y,-z
x,-y,z
loop_
_atom_site_type_symbol
_atom_site_label
_atom_site_fract_x
_atom_site_fract_y
_atom_site_fract_z
Si Si1 0.305639 0.397541 0.049345
Si Si2 0.077627 0.098738 0.604597
Si Si3 0.111127 0.282978 0.685265
Si Si4 0.850903 0.259345 0.082698
Si Si5 0.722409 0.703900 0.734251
Si Si6 0.695616 0.902613 0.009196
Si Si7 0.241094 0.900809 0.222127
Si Si8 0.443183 0.394672 0.620021
O O1 0.237053 0.500000 0.074435
O O2 0.275453 0.338434 0.153043
O O3 0.500000 0.398844 0.000000
O O4 0.206768 0.354963 0.961651
O O5 0.184297 0.189853 0.624627
O O6 0.000000 0.113983 0.500000
O O7 0.936841 0.093548 0.704555
O O8 0.178007 0.000000 0.596559
O O9 0.092582 0.274368 0.807826
O O10 0.247857 0.361007 0.648225
O O11 0.914684 0.305851 0.667073
O O12 0.709664 0.179401 0.089424
O O13 0.000000 0.217715 0.000000
O O14 0.662755 0.810511 0.744062
O O15 0.578163 0.655360 0.680466
O O16 0.798458 0.885306 0.894204
O O17 0.754953 0.000000 0.052078
O O18 0.500000 0.908504 0.000000
O O19 0.337885 0.000000 0.229779
O O20 0.500000 0.378463 0.500000
O O21 0.445320 0.500000 0.651453
#
# Coordination Sequence:
#
# PCOD8066103 Si02
#       8
#     4   4   4   4   4   4   4   4
#     4  11  23  39  62  89 125 174 218 265 326 384
#     4   9  19  38  65  96 129 167 214 264 322 389
#     4  11  25  41  70 100 131 175 221 270 326 396
#     4  12  22  39  57  94 131 163 214 266 315 384
#     4  11  22  44  69  95 132 176 218 265 330 397
#     4  10  21  36  58  87 127 175 216 256 310 377
#     4   9  18  34  61  95 128 168 213 259 313 382
#     4  11  28  49  69  98 129 165 221 285 337 390
#
# _framework density 21.379698000000001
#
# number of rings (size 3 to 8) (size 9 to 14) (size 15 to 20)
#    0.000    1.500    2.500    2.250    5.250    3.500 
#    0.000    1.875    0.000    0.750    0.000    0.000 
#    0.000    0.000    0.000    0.000    0.000    0.000 
#
# Total GULP energy -396427.430050 kJ/mol
# GULP energy per Si atom -12388.357189 kJ/mol
# Density = 2.133104 g / cm^3
# Si number density = 21.379698 Si / 1000 Ang^3
#
#
#
# Elastic Constant Matrix: (Units=GPa)
#
#
# Indices 1 2 3 4 5 6 
#
# 1 73.2084 40.9725 18.6437 0.0000 -2.6709 0.0000
# 2 40.9725 168.7437 33.7454 0.0000 7.9493 0.0000
# 3 18.6437 33.7454 51.9854 0.0000 2.1952 0.0000
# 4 0.0000 0.0000 0.0000 19.3914 0.0000 -6.7404
# 5 -2.6709 7.9493 2.1952 0.0000 26.2691 0.0000
# 6 0.0000 0.0000 0.0000 -6.7404 0.0000 16.3801
#
#
#
# Elastic Compliance Matrix: (Units=1/GPa)
#
#
# Indices 1 2 3 4 5 6 
#
# 1 0.016673 -0.003414 -0.003892 0.000000 0.003054 0.000000
# 2 -0.003414 0.007585 -0.003601 0.000000 -0.002342 0.000000
# 3 -0.003892 -0.003601 0.023021 0.000000 -0.001230 0.000000
# 4 0.000000 0.000000 0.000000 0.060177 0.000000 0.024763
# 5 0.003054 -0.002342 -0.001230 0.000000 0.039189 0.000000
# 6 0.000000 0.000000 0.000000 0.024763 0.000000 0.071240
#
#
# Mechanical properties :
#
#
# Convention : Reuss Voigt Hill
#
# Bulk Modulus (GPa) = 39.26825 53.40673 46.33749
# Shear Modulus (GPa) = 20.14602 25.77985 22.96293
#
# Velocity S-wave (km/s) = 3.07302 3.47624 3.28083
# Velocity P-wave (km/s) = 5.56760 6.41457 6.00603
#
# Compressibility (1/GPa) = 0.02546587
#
# Stress axis : x y z
#
# Youngs Moduli (GPa) = 59.97763 131.83157 43.43776
#
# Poissons Ratio (x) = 0.45004 0.16908
# Poissons Ratio (y) = 0.20475 0.15641
# Poissons Ratio (z) = 0.23346 0.47470
#
# Static dielectric constant tensor:
#      x y z
#    x 3.671800 0.000000 -0.287050 
#    y 0.000000 4.747270 0.000000 
#    z -0.287050 0.000000 3.519260 
# 
# 
# High freq. dielectric constant tensor:
#      x y z
#    x 1.811220 0.000000 -0.012450 
#    y 0.000000 1.865240 0.000000 
#    z -0.012450 0.000000 1.836100 
# 
# From -- ./inp_files/42975.got.cif
#   From: 2010.06.25/outbox.cif.g09.slc.cpg/sg10_22_cif.got.tgz:42975.got - 2010.06.27 22:07:45.
