data_PCOD8066725
_publ_section_title
;
Structure prediction by ZEFSAII (Michael W. Deem and Ramdas Pophale) SiO2 
 PCOD8066725
Probable space group: P 2/M
;
_chemical_formula_sum "Si O2"
_cell_formula_units_Z 28
_cell_length_a 10.021584
_cell_length_b 8.525626
_cell_length_c 25.447228
_cell_angle_alpha 90.000000
_cell_angle_beta 39.832014
_cell_angle_gamma 90.000000
_cell_volume 1392.671293
_symmetry_space_group_name_H-M "P 2/M"
_symmetry_group_IT_number 10
_symmetry_cell_setting 'monoclinic'
loop_
_space_group_symop_operation_xyz
x,y,z
-x,y,-z
-x,-y,-z
x,-y,z
loop_
_atom_site_type_symbol
_atom_site_label
_atom_site_fract_x
_atom_site_fract_y
_atom_site_fract_z
Si Si1 0.968306 0.183432 0.761933
Si Si2 0.484151 0.185001 0.064616
Si Si3 0.766046 0.314281 0.066901
Si Si4 0.628604 0.183410 0.511944
Si Si5 0.029978 0.683646 0.351269
Si Si6 0.484687 0.685783 0.246271
Si Si7 0.368878 0.315930 0.684934
O O1 0.019689 0.219856 0.686184
O O2 0.125273 0.278624 0.751692
O O3 0.736273 0.241260 0.845400
O O4 0.997468 0.000000 0.764083
O O5 0.669446 0.264813 0.040652
O O6 0.510238 0.000000 0.061225
O O7 0.500000 0.242469 0.000000
O O8 0.769451 0.500000 0.069361
O O9 0.629071 0.243546 0.156236
O O10 0.000000 0.246421 0.000000
O O11 0.500000 0.240321 0.500000
O O12 0.847173 0.276975 0.447707
O O13 0.501931 0.221783 0.602345
O O14 0.675696 0.000000 0.495019
O O15 0.036267 0.500000 0.336155
O O16 0.247835 0.742054 0.309624
O O17 0.498453 0.500000 0.240744
O O18 0.564363 0.747611 0.278155
O O19 0.410990 0.500000 0.665721
#
# Coordination Sequence:
#
# PCOD8066725 Si02
#       7
#     4   4   4   4   4   4   4
#     4  11  22  38  59  87 121 157 200 248 294 344
#     4  10  23  41  60  87 124 161 200 245 294 352
#     4  10  21  39  63  90 122 157 198 247 297 349
#     4  11  23  39  59  87 125 156 193 247 297 347
#     4  11  21  38  65  88 115 157 200 242 297 357
#     4   9  21  40  59  88 123 154 194 247 297 349
#     4  11  23  39  62  89 119 156 200 244 297 357
#
# _framework density 20.105246000000001
#
# number of rings (size 3 to 8) (size 9 to 14) (size 15 to 20)
#    0.000    1.571    2.857    1.714    2.000    2.286 
#    0.000    7.143    0.000    0.000    0.000    0.000 
#    0.000    0.000    0.000    0.000    0.000    0.000 
#
# Total GULP energy -347351.201409 kJ/mol
# GULP energy per Si atom -12405.400050 kJ/mol
# Density = 2.005949 g / cm^3
# Si number density = 20.105246 Si / 1000 Ang^3
#
#
#
# Elastic Constant Matrix: (Units=GPa)
#
#
# Indices 1 2 3 4 5 6 
#
# 1 163.1175 20.3064 65.2352 0.0000 -8.4784 0.0000
# 2 20.3064 31.5246 17.5162 0.0000 -4.5124 0.0000
# 3 65.2352 17.5162 128.5533 0.0000 -15.4900 0.0000
# 4 0.0000 0.0000 0.0000 24.1580 0.0000 -1.8533
# 5 -8.4784 -4.5124 -15.4900 0.0000 40.8845 0.0000
# 6 0.0000 0.0000 0.0000 -1.8533 0.0000 13.7370
#
#
#
# Elastic Compliance Matrix: (Units=1/GPa)
#
#
# Indices 1 2 3 4 5 6 
#
# 1 0.007966 -0.003127 -0.003624 0.000000 -0.000066 0.000000
# 2 -0.003127 0.035722 -0.003022 0.000000 0.002149 0.000000
# 3 -0.003624 -0.003022 0.010373 0.000000 0.002845 0.000000
# 4 0.000000 0.000000 0.000000 0.041827 0.000000 0.005643
# 5 -0.000066 0.002149 0.002845 0.000000 0.025760 0.000000
# 6 0.000000 0.000000 0.000000 0.005643 0.000000 0.073558
#
#
# Mechanical properties :
#
#
# Convention : Reuss Voigt Hill
#
# Bulk Modulus (GPa) = 28.97301 58.81235 43.89268
# Shear Modulus (GPa) = 22.09890 30.43174 26.26532
#
# Velocity S-wave (km/s) = 3.31896 3.89475 3.61832
# Velocity P-wave (km/s) = 5.39715 7.03855 6.27178
#
# Compressibility (1/GPa) = 0.03451488
#
# Stress axis : x y z
#
# Youngs Moduli (GPa) = 125.53675 27.99395 96.40874
#
# Poissons Ratio (x) = 0.08753 0.34941
# Poissons Ratio (y) = 0.39254 0.29131
# Poissons Ratio (z) = 0.45497 0.08459
#
# Static dielectric constant tensor:
#      x y z
#    x 3.792950 0.000000 -0.089930 
#    y 0.000000 3.370890 0.000000 
#    z -0.089930 0.000000 3.858790 
# 
# 
# High freq. dielectric constant tensor:
#      x y z
#    x 1.788790 0.000000 -0.007010 
#    y 0.000000 1.768420 0.000000 
#    z -0.007010 0.000000 1.797550 
# 
# From -- ./inp_files/91955.got.cif
#   From: 2010.06.25/outbox.cif.g09.slc.cpg/sg10_46_cif.got.tgz:91955.got - 2010.06.27 22:07:45.
