data_PCOD8066719
_publ_section_title
;
Structure prediction by ZEFSAII (Michael W. Deem and Ramdas Pophale) SiO2 
 PCOD8066719
Probable space group: P 2/M
;
_chemical_formula_sum "Si O2"
_cell_formula_units_Z 28
_cell_length_a 13.961435
_cell_length_b 22.823012
_cell_length_c 8.676395
_cell_angle_alpha 90.000000
_cell_angle_beta 149.675611
_cell_angle_gamma 90.000000
_cell_volume 1395.865223
_symmetry_space_group_name_H-M "P 2/M"
_symmetry_group_IT_number 10
_symmetry_cell_setting 'monoclinic'
loop_
_space_group_symop_operation_xyz
x,y,z
-x,y,-z
-x,-y,-z
x,-y,z
loop_
_atom_site_type_symbol
_atom_site_label
_atom_site_fract_x
_atom_site_fract_y
_atom_site_fract_z
Si Si1 0.702171 0.435168 0.703958
Si Si2 0.815425 0.937901 0.334824
Si Si3 0.152900 0.139277 0.332681
Si Si4 0.138717 0.352799 0.825288
Si Si5 0.895795 0.276598 0.702145
Si Si6 0.456117 0.355777 0.769832
Si Si7 0.476264 0.067203 0.646352
O O1 0.500000 0.441112 0.500000
O O2 0.787887 0.500000 0.793297
O O3 0.670714 0.402923 0.497718
O O4 0.844237 0.400484 0.014683
O O5 0.864018 0.889003 0.524706
O O6 0.000000 0.952265 0.500000
O O7 0.749580 0.000000 0.322024
O O8 0.665344 0.917556 0.000474
O O9 0.128881 0.207543 0.328369
O O10 0.347608 0.119280 0.529380
O O11 0.000000 0.114973 0.000000
O O12 0.000000 0.378582 0.500000
O O13 0.029934 0.295903 0.744363
O O14 0.349080 0.337756 0.049776
O O15 0.680178 0.300053 0.394239
O O16 0.000000 0.299567 0.000000
O O17 0.500000 0.382184 0.000000
O O18 0.500000 0.077776 0.500000
O O19 0.406215 0.000000 0.578698
#
# Coordination Sequence:
#
# PCOD8066719 Si02
#       7
#     4   4   4   4   4   4   4
#     4   9  20  39  65  97 130 165 208 261 314 374
#     4  10  21  39  63  89 121 160 200 250 311 371
#     4  11  24  40  59  90 123 158 203 264 303 366
#     4  11  22  41  67  90 128 170 208 260 313 371
#     4  11  24  44  62  90 125 164 223 258 307 378
#     4  11  22  40  67  92 125 171 208 256 317 372
#     4  10  21  40  64  91 124 162 204 251 315 383
#
# _framework density 20.059242999999999
#
# number of rings (size 3 to 8) (size 9 to 14) (size 15 to 20)
#    0.000    1.571    2.857    1.714    0.000    5.714 
#    7.714    1.429    0.000    0.000    0.000    0.000 
#    0.000    0.000    0.000    0.000    0.000    0.000 
#
# Total GULP energy -346961.769839 kJ/mol
# GULP energy per Si atom -12391.491780 kJ/mol
# Density = 2.001359 g / cm^3
# Si number density = 20.059243 Si / 1000 Ang^3
#
#
#
# Elastic Constant Matrix: (Units=GPa)
#
#
# Indices 1 2 3 4 5 6 
#
# 1 114.3005 56.0689 57.2009 0.0000 -6.7497 0.0000
# 2 56.0689 102.4154 62.5401 0.0000 -9.1902 0.0000
# 3 57.2009 62.5401 161.5521 0.0000 -21.2675 0.0000
# 4 0.0000 0.0000 0.0000 24.9728 0.0000 -0.7752
# 5 -6.7497 -9.1902 -21.2675 0.0000 50.7091 0.0000
# 6 0.0000 0.0000 0.0000 -0.7752 0.0000 20.3427
#
#
#
# Elastic Compliance Matrix: (Units=1/GPa)
#
#
# Indices 1 2 3 4 5 6 
#
# 1 0.012610 -0.005474 -0.002387 0.000000 -0.000315 0.000000
# 2 -0.005474 0.015166 -0.003881 0.000000 0.000392 0.000000
# 3 -0.002387 -0.003881 0.008894 0.000000 0.002709 0.000000
# 4 0.000000 0.000000 0.000000 0.040091 0.000000 0.001528
# 5 -0.000315 0.000392 0.002709 0.000000 0.020886 0.000000
# 6 0.000000 0.000000 0.000000 0.001528 0.000000 0.049216
#
#
# Mechanical properties :
#
#
# Convention : Reuss Voigt Hill
#
# Bulk Modulus (GPa) = 75.84036 81.09865 78.46951
# Shear Modulus (GPa) = 28.61324 32.70213 30.65769
#
# Velocity S-wave (km/s) = 3.78092 4.04205 3.91366
# Velocity P-wave (km/s) = 7.54657 7.89313 7.72180
#
# Compressibility (1/GPa) = 0.01318559
#
# Stress axis : x y z
#
# Youngs Moduli (GPa) = 79.30065 65.93508 112.43046
#
# Poissons Ratio (x) = 0.36094 0.26839
# Poissons Ratio (y) = 0.43411 0.43638
# Poissons Ratio (z) = 0.18931 0.25592
#
# Static dielectric constant tensor:
#      x y z
#    x 3.683850 0.000000 -0.123280 
#    y 0.000000 3.566170 0.000000 
#    z -0.123280 0.000000 3.923320 
# 
# 
# High freq. dielectric constant tensor:
#      x y z
#    x 1.787740 0.000000 -0.008230 
#    y 0.000000 1.766020 0.000000 
#    z -0.008230 0.000000 1.804480 
# 
# From -- ./inp_files/30414.got.cif
#   From: 2010.06.25/outbox.cif.g09.slc.cpg/sg10_16_cif.got.tgz:30414.got - 2010.06.27 22:07:45.
