data_PCOD8066009
_publ_section_title
;
Structure prediction by ZEFSAII (Michael W. Deem and Ramdas Pophale) SiO2 
 PCOD8066009
Probable space group: P 2/M
;
_chemical_formula_sum "Si O2"
_cell_formula_units_Z 24
_cell_length_a 15.171196
_cell_length_b 9.137712
_cell_length_c 9.339747
_cell_angle_alpha 90.000000
_cell_angle_beta 89.402997
_cell_angle_gamma 90.000000
_cell_volume 1294.699025
_symmetry_space_group_name_H-M "P 2/M"
_symmetry_group_IT_number 10
_symmetry_cell_setting 'monoclinic'
loop_
_space_group_symop_operation_xyz
x,y,z
-x,y,-z
-x,-y,-z
x,-y,z
loop_
_atom_site_type_symbol
_atom_site_label
_atom_site_fract_x
_atom_site_fract_y
_atom_site_fract_z
Si Si1 0.588309 0.829332 0.414044
Si Si2 0.071843 0.667196 0.115089
Si Si3 0.260780 0.673124 0.418061
Si Si4 0.415988 0.827774 0.915630
Si Si5 0.728912 0.333576 0.909783
Si Si6 0.083423 0.170346 0.401853
O O1 0.500000 0.789594 0.500000
O O2 0.666760 0.734338 0.476188
O O3 0.574917 0.782845 0.249882
O O4 0.611833 0.000000 0.429173
O O5 0.059678 0.500000 0.169009
O O6 0.169235 0.685746 0.047059
O O7 0.057913 0.777481 0.244664
O O8 0.000000 0.710978 0.000000
O O9 0.253384 0.500000 0.435356
O O10 0.284805 0.716799 0.254548
O O11 0.167049 0.742195 0.462234
O O12 0.411344 0.000000 0.934278
O O13 0.500000 0.763966 0.000000
O O14 0.326803 0.765092 0.982742
O O15 0.697676 0.500000 0.928836
O O16 0.000000 0.205400 0.500000
O O17 0.107421 0.000000 0.398887
#
# Coordination Sequence:
#
# PCOD8066009 Si02
#       6
#     4   4   4   4   4   4
#     4  10  21  37  57  81 110 143 179 221 268 318
#     4   9  19  36  56  79 109 144 181 219 264 321
#     4  10  21  37  57  80 107 142 183 223 268 322
#     4  10  21  36  55  79 105 138 178 216 262 318
#     4   9  19  35  54  78 106 138 177 219 263 311
#     4  10  21  36  55  81 111 142 180 225 271 321
#
# _framework density 18.537126000000001
#
# number of rings (size 3 to 8) (size 9 to 14) (size 15 to 20)
#    0.000    2.333    0.000    3.000    0.000    9.000 
#    0.000    3.333    0.000    0.000    0.000    0.000 
#    0.000    0.000    0.000    0.000    0.000    0.000 
#
# Total GULP energy -297672.040957 kJ/mol
# GULP energy per Si atom -12403.001707 kJ/mol
# Density = 1.849493 g / cm^3
# Si number density = 18.537126 Si / 1000 Ang^3
#
#
#
# Elastic Constant Matrix: (Units=GPa)
#
#
# Indices 1 2 3 4 5 6 
#
# 1 137.2277 63.5734 88.0772 0.0000 7.6293 0.0000
# 2 63.5734 65.7924 54.8210 0.0000 -2.9114 0.0000
# 3 88.0772 54.8210 121.4153 0.0000 1.1445 0.0000
# 4 0.0000 0.0000 0.0000 33.8436 0.0000 3.7854
# 5 7.6293 -2.9114 1.1445 0.0000 37.5546 0.0000
# 6 0.0000 0.0000 0.0000 3.7854 0.0000 33.4041
#
#
#
# Elastic Compliance Matrix: (Units=1/GPa)
#
#
# Indices 1 2 3 4 5 6 
#
# 1 0.017405 -0.010439 -0.007874 0.000000 -0.004105 0.000000
# 2 -0.010439 0.030815 -0.006385 0.000000 0.004704 0.000000
# 3 -0.007874 -0.006385 0.016826 0.000000 0.000592 0.000000
# 4 0.000000 0.000000 0.000000 0.029927 0.000000 -0.003391
# 5 -0.004105 0.004704 0.000592 0.000000 0.027808 0.000000
# 6 0.000000 0.000000 0.000000 -0.003391 0.000000 0.030321
#
#
# Mechanical properties :
#
#
# Convention : Reuss Voigt Hill
#
# Bulk Modulus (GPa) = 63.90030 81.93096 72.91563
# Shear Modulus (GPa) = 24.07152 28.82473 26.44813
#
# Velocity S-wave (km/s) = 3.60746 3.94759 3.78135
# Velocity P-wave (km/s) = 7.20403 8.06674 7.64756
#
# Compressibility (1/GPa) = 0.01564938
#
# Stress axis : x y z
#
# Youngs Moduli (GPa) = 57.45390 32.45219 59.43302
#
# Poissons Ratio (x) = 0.33876 0.46798
# Poissons Ratio (y) = 0.59975 0.37948
# Poissons Ratio (z) = 0.45240 0.20721
#
# Static dielectric constant tensor:
#      x y z
#    x 5.000960 0.000000 0.117700 
#    y 0.000000 3.361500 0.000000 
#    z 0.117700 0.000000 3.399790 
# 
# 
# High freq. dielectric constant tensor:
#      x y z
#    x 1.730070 0.000000 0.003110 
#    y 0.000000 1.719040 0.000000 
#    z 0.003110 0.000000 1.716140 
# 
# From -- ./inp_files/27202.got.cif
#   From: 2010.06.25/outbox.cif.g09.slc.cpg/sg10_14_cif.got.tgz:27202.got - 2010.06.27 22:07:45.
