data_PCOD8066931
_publ_section_title
;
Structure prediction by ZEFSAII (Michael W. Deem and Ramdas Pophale) SiO2 
 PCOD8066931
Probable space group: P 2/M
;
_chemical_formula_sum "Si O2"
_cell_formula_units_Z 24
_cell_length_a 9.488561
_cell_length_b 13.635665
_cell_length_c 14.665234
_cell_angle_alpha 90.000000
_cell_angle_beta 139.381318
_cell_angle_gamma 90.000000
_cell_volume 1235.267951
_symmetry_space_group_name_H-M "P 2/M"
_symmetry_group_IT_number 10
_symmetry_cell_setting 'monoclinic'
loop_
_space_group_symop_operation_xyz
x,y,z
-x,y,-z
-x,-y,-z
x,-y,z
loop_
_atom_site_type_symbol
_atom_site_label
_atom_site_fract_x
_atom_site_fract_y
_atom_site_fract_z
Si Si1 0.054874 0.611705 0.630461
Si Si2 0.045180 0.113812 0.415651
Si Si3 0.269223 0.245308 0.844777
Si Si4 0.657201 0.390809 0.789780
Si Si5 0.889956 0.610228 0.086000
Si Si6 0.351803 0.278702 0.516643
O O1 0.106386 0.500000 0.675157
O O2 0.853375 0.647911 0.594157
O O3 0.000000 0.634526 0.500000
O O4 0.269967 0.674453 0.762506
O O5 0.264174 0.169349 0.493037
O O6 0.000000 0.135647 0.500000
O O7 0.848232 0.148625 0.252843
O O8 0.082774 0.000000 0.416206
O O9 0.131451 0.301290 0.854072
O O10 0.500000 0.215886 0.000000
O O11 0.554858 0.500000 0.728762
O O12 0.488198 0.311104 0.671606
O O13 0.872529 0.383781 0.836950
O O14 0.710764 0.370109 0.920816
O O15 0.852785 0.500000 0.109362
O O16 0.500000 0.282730 0.500000
#
# Coordination Sequence:
#
# PCOD8066931 Si02
#       6
#     4   4   4   4   4   4
#     4  10  22  37  52  80 125 166 200 233 268 324
#     4  10  24  46  65  82 109 143 185 242 304 362
#     4  11  22  34  58  84 110 146 188 241 281 336
#     4   9  18  32  52  79 119 161 191 219 263 327
#     4   9  19  33  49  80 123 160 187 219 267 325
#     4  11  21  34  60  88 111 148 194 243 286 333
#
# _framework density 19.428982999999999
#
# number of rings (size 3 to 8) (size 9 to 14) (size 15 to 20)
#    0.000    2.000    0.000    6.000    4.667    4.667 
#    0.000    0.000    0.000    0.000    0.000    3.500 
#    0.000    0.000    0.000    0.000    0.000    0.000 
#
# Total GULP energy -297392.159594 kJ/mol
# GULP energy per Si atom -12391.339983 kJ/mol
# Density = 1.938476 g / cm^3
# Si number density = 19.428983 Si / 1000 Ang^3
#
#
#
# Elastic Constant Matrix: (Units=GPa)
#
#
# Indices 1 2 3 4 5 6 
#
# 1 68.9781 18.9247 29.5363 0.0000 -6.3745 0.0000
# 2 18.9247 119.5660 56.3682 0.0000 0.4455 0.0000
# 3 29.5363 56.3682 141.8445 0.0000 -2.3111 0.0000
# 4 0.0000 0.0000 0.0000 28.7192 0.0000 -8.6600
# 5 -6.3745 0.4455 -2.3111 0.0000 28.9623 0.0000
# 6 0.0000 0.0000 0.0000 -8.6600 0.0000 23.0581
#
#
#
# Elastic Compliance Matrix: (Units=1/GPa)
#
#
# Indices 1 2 3 4 5 6 
#
# 1 0.016379 -0.001259 -0.002855 0.000000 0.003397 0.000000
# 2 -0.001259 0.010395 -0.003881 0.000000 -0.000747 0.000000
# 3 -0.002855 -0.003881 0.009189 0.000000 0.000165 0.000000
# 4 0.000000 0.000000 0.000000 0.039267 0.000000 0.014748
# 5 0.003397 -0.000747 0.000165 0.000000 0.035300 0.000000
# 6 0.000000 0.000000 0.000000 0.014748 0.000000 0.048908
#
#
# Mechanical properties :
#
#
# Convention : Reuss Voigt Hill
#
# Bulk Modulus (GPa) = 50.06584 60.00524 55.03554
# Shear Modulus (GPa) = 27.45950 31.18522 29.32236
#
# Velocity S-wave (km/s) = 3.76350 4.01070 3.88907
# Velocity P-wave (km/s) = 6.68654 7.23872 6.96810
#
# Compressibility (1/GPa) = 0.01997370
#
# Stress axis : x y z
#
# Youngs Moduli (GPa) = 61.05315 96.19702 108.82074
#
# Poissons Ratio (x) = 0.12113 0.31067
# Poissons Ratio (y) = 0.07688 0.42233
# Poissons Ratio (z) = 0.17430 0.37334
#
# Static dielectric constant tensor:
#      x y z
#    x 3.494180 0.000000 -0.151960 
#    y 0.000000 3.381920 0.000000 
#    z -0.151960 0.000000 4.003830 
# 
# 
# High freq. dielectric constant tensor:
#      x y z
#    x 1.755900 0.000000 -0.011470 
#    y 0.000000 1.727710 0.000000 
#    z -0.011470 0.000000 1.777640 
# 
# From -- ./inp_files/61944.got.cif
#   From: 2010.06.25/outbox.cif.g09.slc.cpg/sg10_31_cif.got.tgz:61944.got - 2010.06.27 22:07:45.
