data_PCOD8066228
_publ_section_title
;
Structure prediction by ZEFSAII (Michael W. Deem and Ramdas Pophale) SiO2 
 PCOD8066228
Probable space group: P 2/M
;
_chemical_formula_sum "Si O2"
_cell_formula_units_Z 28
_cell_length_a 9.143282
_cell_length_b 8.798142
_cell_length_c 29.034132
_cell_angle_alpha 90.000000
_cell_angle_beta 141.932677
_cell_angle_gamma 90.000000
_cell_volume 1440.112005
_symmetry_space_group_name_H-M "P 2/M"
_symmetry_group_IT_number 10
_symmetry_cell_setting 'monoclinic'
loop_
_space_group_symop_operation_xyz
x,y,z
-x,y,-z
-x,-y,-z
x,-y,z
loop_
_atom_site_type_symbol
_atom_site_label
_atom_site_fract_x
_atom_site_fract_y
_atom_site_fract_z
Si Si1 0.353697 0.676558 0.773361
Si Si2 0.736566 0.826322 0.926413
Si Si3 0.986892 0.323442 0.226639
Si Si4 0.824052 0.821931 0.362025
Si Si5 0.513927 0.178069 0.637975
Si Si6 0.395497 0.173678 0.926413
Si Si7 0.334135 0.679708 0.500000
O O1 0.355502 0.500000 0.760753
O O2 0.609558 0.723132 0.856655
O O3 0.149688 0.713914 0.759875
O O4 0.308815 0.775594 0.717292
O O5 0.604537 0.813114 0.941815
O O6 0.741847 0.000000 0.909854
O O7 0.000000 0.763030 0.000000
O O8 0.051738 0.500000 0.239247
O O9 0.826283 0.276868 0.143345
O O10 0.222355 0.224403 0.282708
O O11 0.662432 0.774147 0.364973
O O12 0.070150 0.735807 0.426604
O O13 0.874706 0.000000 0.374293
O O14 0.437141 0.264199 0.573399
O O15 0.503241 0.000000 0.625705
O O16 0.307424 0.000000 0.909854
O O17 0.500000 0.236970 0.000000
O O18 0.500000 0.741708 0.500000
O O19 0.332757 0.500000 0.499998
#
# Coordination Sequence:
#
# PCOD8066228 Si02
#       7
#     4   4   4   4   4   4   4
#     4  10  21  37  57  82 112 147 188 231 277 332
#     4   9  18  33  53  77 107 144 185 229 276 327
#     4  10  21  37  57  82 112 147 188 231 277 332
#     4  11  24  40  59  85 115 147 186 230 275 326
#     4  11  24  40  59  85 115 147 186 230 275 326
#     4   9  18  33  53  77 107 144 185 229 276 327
#     4  11  24  41  62  88 116 147 184 225 272 328
#
# _framework density 19.442934000000001
#
# number of rings (size 3 to 8) (size 9 to 14) (size 15 to 20)
#    0.000    1.857    0.000    3.429    0.000   12.000 
#    0.000    2.857    0.000    0.000    0.000    0.000 
#    0.000    0.000    0.000    0.000    0.000    0.000 
#
# Total GULP energy -347342.465685 kJ/mol
# GULP energy per Si atom -12405.088060 kJ/mol
# Density = 1.939868 g / cm^3
# Si number density = 19.442934 Si / 1000 Ang^3
#
#
#
# Elastic Constant Matrix: (Units=GPa)
#
#
# Indices 1 2 3 4 5 6 
#
# 1 104.9691 42.3730 68.8400 0.0000 2.4082 0.0000
# 2 42.3730 53.5377 29.8559 0.0000 -0.6513 0.0000
# 3 68.8400 29.8559 131.9863 0.0000 -0.9993 0.0000
# 4 0.0000 0.0000 0.0000 49.4997 0.0000 1.1821
# 5 2.4082 -0.6513 -0.9993 0.0000 40.9963 0.0000
# 6 0.0000 0.0000 0.0000 1.1821 0.0000 26.8190
#
#
#
# Elastic Compliance Matrix: (Units=1/GPa)
#
#
# Indices 1 2 3 4 5 6 
#
# 1 0.018704 -0.010728 -0.007340 0.000000 -0.001448 0.000000
# 2 -0.010728 0.027530 -0.000624 0.000000 0.001052 0.000000
# 3 -0.007340 -0.000624 0.011551 0.000000 0.000703 0.000000
# 4 0.000000 0.000000 0.000000 0.020223 0.000000 -0.000891
# 5 -0.001448 0.001052 0.000703 0.000000 0.024511 0.000000
# 6 0.000000 0.000000 0.000000 -0.000891 0.000000 0.037326
#
#
# Mechanical properties :
#
#
# Convention : Reuss Voigt Hill
#
# Bulk Modulus (GPa) = 49.01543 63.62565 56.32054
# Shear Modulus (GPa) = 27.16952 33.42461 30.29707
#
# Velocity S-wave (km/s) = 3.74223 4.15072 3.95176
# Velocity P-wave (km/s) = 6.62850 7.46771 7.06058
#
# Compressibility (1/GPa) = 0.02040174
#
# Stress axis : x y z
#
# Youngs Moduli (GPa) = 53.46513 36.32402 86.57159
#
# Poissons Ratio (x) = 0.38968 0.63540
# Poissons Ratio (y) = 0.57357 0.05403
# Poissons Ratio (z) = 0.39241 0.02267
#
# Static dielectric constant tensor:
#      x y z
#    x 3.662850 0.000000 0.006500 
#    y 0.000000 3.576440 0.000000 
#    z 0.006500 0.000000 3.787160 
# 
# 
# High freq. dielectric constant tensor:
#      x y z
#    x 1.758220 0.000000 0.000740 
#    y 0.000000 1.760500 0.000000 
#    z 0.000740 0.000000 1.772430 
# 
# From -- ./inp_files/36777.got.cif
#   From: 2010.06.25/outbox.cif.g09.slc.cpg/sg10_19_cif.got.tgz:36777.got - 2010.06.27 22:07:45.
