data_PCOD8066620
_publ_section_title
;
Structure prediction by ZEFSAII (Michael W. Deem and Ramdas Pophale) SiO2 
 PCOD8066620
Probable space group: P 2/M
;
_chemical_formula_sum "Si O2"
_cell_formula_units_Z 28
_cell_length_a 14.525457
_cell_length_b 20.332010
_cell_length_c 9.486556
_cell_angle_alpha 90.000000
_cell_angle_beta 150.010993
_cell_angle_gamma 90.000000
_cell_volume 1400.374980
_symmetry_space_group_name_H-M "P 2/M"
_symmetry_group_IT_number 10
_symmetry_cell_setting 'monoclinic'
loop_
_space_group_symop_operation_xyz
x,y,z
-x,y,-z
-x,-y,-z
x,-y,z
loop_
_atom_site_type_symbol
_atom_site_label
_atom_site_fract_x
_atom_site_fract_y
_atom_site_fract_z
Si Si1 0.490245 0.925090 0.649974
Si Si2 0.219013 0.634516 0.038593
Si Si3 0.964550 0.500000 0.290115
Si Si4 0.660459 0.163136 0.306890
Si Si5 0.364879 0.500000 0.691391
Si Si6 0.906968 0.724227 0.725431
Si Si7 0.601251 0.367080 0.424930
Si Si8 0.809287 0.073147 0.275172
O O1 0.500000 0.902771 0.500000
O O2 0.385994 0.868265 0.601334
O O3 0.406327 0.000000 0.552025
O O4 0.697263 0.925677 0.981503
O O5 0.151245 0.564657 0.895110
O O6 0.053511 0.687929 0.817026
O O7 0.284506 0.622270 0.282714
O O8 0.393155 0.660024 0.176516
O O9 0.151266 0.500000 0.448639
O O10 0.000000 0.500000 0.500000
O O11 0.840647 0.208396 0.565900
O O12 0.701458 0.102020 0.262405
O O13 0.500000 0.200069 0.000000
O O14 0.414914 0.436921 0.668143
O O15 0.500000 0.500000 0.000000
O O16 0.716568 0.683196 0.482573
O O17 0.000000 0.737622 0.000000
O O18 0.000000 0.111716 0.500000
O O19 0.854547 0.000000 0.385420
#
# Coordination Sequence:
#
# PCOD8066620 Si02
#       8
#     4   4   2   4   2   4   4   4
#     4   9  18  35  60  90 120 155 199 249 303 355
#     4  10  21  41  63  86 115 150 198 239 295 357
#     4  12  23  38  59  90 119 148 191 245 304 354
#     4  10  21  39  58  86 121 162 200 245 305 360
#     4  12  23  36  61  90 123 146 187 247 300 358
#     4  10  22  41  60  85 119 159 206 245 288 354
#     4  10  21  40  64  87 112 155 190 243 297 353
#     4   9  18  35  59  86 118 154 197 245 299 361
#
# _framework density 19.994644999999998
#
# number of rings (size 3 to 8) (size 9 to 14) (size 15 to 20)
#    0.000    2.000    1.429    2.143    0.000    5.143 
#   12.857    0.000    0.000    4.286    0.000    0.000 
#    0.000    0.000    0.000    0.000    0.000    0.000 
#
# Total GULP energy -346993.864854 kJ/mol
# GULP energy per Si atom -12392.638030 kJ/mol
# Density = 1.994914 g / cm^3
# Si number density = 19.994645 Si / 1000 Ang^3
#
#
#
# Elastic Constant Matrix: (Units=GPa)
#
#
# Indices 1 2 3 4 5 6 
#
# 1 112.2042 36.1907 55.5248 0.0000 6.7731 0.0000
# 2 36.1907 83.4192 55.5221 0.0000 -1.3892 0.0000
# 3 55.5248 55.5221 95.7688 0.0000 17.1842 0.0000
# 4 0.0000 0.0000 0.0000 606.6399 0.0000-1170.5283
# 5 6.7731 -1.3892 17.1842 0.0000 33.5059 0.0000
# 6 0.0000 0.0000 0.0000-1170.5283 0.0000 2412.3523
#
#
#
# Elastic Compliance Matrix: (Units=1/GPa)
#
#
# Indices 1 2 3 4 5 6 
#
# 1 0.012577 -0.000752 -0.007042 0.000000 0.001038 0.000000
# 2 -0.000752 0.021324 -0.013340 0.000000 0.007878 0.000000
# 3 -0.007042 -0.013340 0.024343 0.000000 -0.011614 0.000000
# 4 0.000000 0.000000 0.000000 0.025858 0.000000 0.012547
# 5 0.001038 0.007878 -0.011614 0.000000 0.035919 0.000000
# 6 0.000000 0.000000 0.000000 0.012547 0.000000 0.006503
#
#
# Mechanical properties :
#
#
# Convention : Reuss Voigt Hill
#
# Bulk Modulus (GPa) = 62.59794 65.09638 63.84716
# Shear Modulus (GPa) = 28.71630 620.10994 324.41312
#
# Velocity S-wave (km/s) = 3.79383 17.62984 12.75156
# Velocity P-wave (km/s) = 7.11099 21.14338 15.77354
#
# Compressibility (1/GPa) = 0.01597497
#
# Stress axis : x y z
#
# Youngs Moduli (GPa) = 79.50953 46.89538 41.07995
#
# Poissons Ratio (x) = 0.03527 0.28930
# Poissons Ratio (y) = 0.05979 0.54802
# Poissons Ratio (z) = 0.55993 0.62559
#
# Static dielectric constant tensor:
#      x y z
#    x 3.842400 0.000000 0.350000 
#    y 0.000000 3.511810 0.000000 
#    z 0.350000 0.000000 4.099640 
# 
# 
# High freq. dielectric constant tensor:
#      x y z
#    x 1.780690 0.000000 0.006330 
#    y 0.000000 1.769310 0.000000 
#    z 0.006330 0.000000 1.789040 
# 
# From -- ./inp_files/30521.got.cif
#   From: 2010.06.25/outbox.cif.g09.slc.cpg/sg10_16_cif.got.tgz:30521.got - 2010.06.27 22:07:45.
