data_PCOD8066560
_publ_section_title
;
Structure prediction by ZEFSAII (Michael W. Deem and Ramdas Pophale) SiO2 
 PCOD8066560
Probable space group: P 2/M
;
_chemical_formula_sum "Si O2"
_cell_formula_units_Z 24
_cell_length_a 20.630166
_cell_length_b 11.093897
_cell_length_c 20.835479
_cell_angle_alpha 90.000000
_cell_angle_beta 13.834072
_cell_angle_gamma 90.000000
_cell_volume 1140.222873
_symmetry_space_group_name_H-M "P 2/M"
_symmetry_group_IT_number 10
_symmetry_cell_setting 'monoclinic'
loop_
_space_group_symop_operation_xyz
x,y,z
-x,y,-z
-x,-y,-z
x,-y,z
loop_
_atom_site_type_symbol
_atom_site_label
_atom_site_fract_x
_atom_site_fract_y
_atom_site_fract_z
Si Si1 0.123267 0.764723 0.450362
Si Si2 0.637300 0.638982 0.987606
Si Si3 0.139483 0.000000 0.116383
Si Si4 0.486377 0.638772 0.746709
Si Si5 0.294150 0.000000 0.357189
Si Si6 0.030316 0.237699 0.789251
Si Si7 0.769587 0.862809 0.273843
O O1 0.000000 0.792564 0.500000
O O2 0.891315 0.718302 0.721290
O O3 0.264017 0.884274 0.341360
O O4 0.363394 0.666580 0.211056
O O5 0.716675 0.500000 0.902097
O O6 0.575666 0.672588 0.120244
O O7 0.109002 0.884906 0.100255
O O8 0.922437 0.000000 0.379725
O O9 0.422944 0.000000 0.879159
O O10 0.567888 0.500000 0.659732
O O11 0.740283 0.718719 0.480663
O O12 0.212991 0.665996 0.969624
O O13 0.164864 0.221552 0.729102
O O14 0.500000 0.811652 0.500000
O O15 0.725458 0.000000 0.340464
O O16 0.000000 0.855237 0.000000
#
# Coordination Sequence:
#
# PCOD8066560 Si02
#       7
#     4   4   2   4   2   4   4
#     4  12  25  42  64  89 122 167 207 250 310 381
#     4  11  24  43  65  92 122 157 208 267 319 359
#     4  12  24  38  65  97 120 156 196 266 318 354
#     4  11  24  41  65  91 126 168 205 256 313 370
#     4  12  25  42  60  87 130 160 200 244 312 380
#     4  12  22  40  65  97 127 158 214 253 307 372
#     4  10  21  38  61  92 132 167 202 250 307 361
#
# _framework density 21.048518000000001
#
# number of rings (size 3 to 8) (size 9 to 14) (size 15 to 20)
#    0.000    0.667    0.833    8.750    0.000    4.667 
#    0.000    2.500    0.000   10.000    0.000    0.000 
#    0.000    0.000    0.000    0.000    0.000    0.000 
#
# Total GULP energy -297771.347242 kJ/mol
# GULP energy per Si atom -12407.139468 kJ/mol
# Density = 2.100061 g / cm^3
# Si number density = 21.048518 Si / 1000 Ang^3
#
#
#
# Elastic Constant Matrix: (Units=GPa)
#
#
# Indices 1 2 3 4 5 6 
#
# 1 120.8040 56.1863 41.9840 0.0000 -26.3191 0.0000
# 2 56.1863 92.7929 47.5626 0.0000 -2.4572 0.0000
# 3 41.9840 47.5626 148.9341 0.0000 -21.7108 0.0000
# 4 0.0000 0.0000 0.0000 30.8570 0.0000 -5.9569
# 5 -26.3191 -2.4572 -21.7108 0.0000 40.1080 0.0000
# 6 0.0000 0.0000 0.0000 -5.9569 0.0000 16.6314
#
#
#
# Elastic Compliance Matrix: (Units=1/GPa)
#
#
# Indices 1 2 3 4 5 6 
#
# 1 0.014009 -0.008222 -0.000062 0.000000 0.008656 0.000000
# 2 -0.008222 0.017802 -0.004337 0.000000 -0.006652 0.000000
# 3 -0.000062 -0.004337 0.008764 0.000000 0.004438 0.000000
# 4 0.000000 0.000000 0.000000 0.034815 0.000000 0.012470
# 5 0.008656 -0.006652 0.004438 0.000000 0.032607 0.000000
# 6 0.000000 0.000000 0.000000 0.012470 0.000000 0.064593
#
#
# Mechanical properties :
#
#
# Convention : Reuss Voigt Hill
#
# Bulk Modulus (GPa) = 65.21618 72.66632 68.94125
# Shear Modulus (GPa) = 24.63754 31.97249 28.30502
#
# Velocity S-wave (km/s) = 3.42499 3.90165 3.67106
# Velocity P-wave (km/s) = 6.83313 7.40914 7.12696
#
# Compressibility (1/GPa) = 0.01533362
#
# Stress axis : x y z
#
# Youngs Moduli (GPa) = 71.38258 56.17389 114.10624
#
# Poissons Ratio (x) = 0.46184 0.00704
# Poissons Ratio (y) = 0.58688 0.49490
# Poissons Ratio (z) = 0.00440 0.24364
#
# Static dielectric constant tensor:
#      x y z
#    x 3.787950 0.000000 -0.158830 
#    y 0.000000 4.002860 0.000000 
#    z -0.158830 0.000000 3.913790 
# 
# 
# High freq. dielectric constant tensor:
#      x y z
#    x 1.825730 0.000000 -0.011020 
#    y 0.000000 1.822440 0.000000 
#    z -0.011020 0.000000 1.846360 
# 
# From -- ./inp_files/90815.got.cif
#   From: 2010.06.25/outbox.cif.g09.slc.cpg/sg10_46_cif.got.tgz:90815.got - 2010.06.27 22:07:45.
