data_PCOD8066964
_publ_section_title
;
Structure prediction by ZEFSAII (Michael W. Deem and Ramdas Pophale) SiO2 
 PCOD8066964
Probable space group: P 2/M
;
_chemical_formula_sum "Si O2"
_cell_formula_units_Z 30
_cell_length_a 34.406057
_cell_length_b 8.145693
_cell_length_c 5.253108
_cell_angle_alpha 90.000000
_cell_angle_beta 111.455347
_cell_angle_gamma 90.000000
_cell_volume 1370.220139
_symmetry_space_group_name_H-M "P 2/M"
_symmetry_group_IT_number 10
_symmetry_cell_setting 'monoclinic'
loop_
_space_group_symop_operation_xyz
x,y,z
-x,y,-z
-x,-y,-z
x,-y,z
loop_
_atom_site_type_symbol
_atom_site_label
_atom_site_fract_x
_atom_site_fract_y
_atom_site_fract_z
Si Si1 0.027891 0.500000 0.322396
Si Si2 0.126948 0.188462 0.077465
Si Si3 0.594039 0.195736 0.225451
Si Si4 0.951656 0.178556 0.817664
Si Si5 0.735178 0.804427 0.061502
Si Si6 0.452792 0.804256 0.386745
Si Si7 0.829602 0.803754 0.315825
Si Si8 0.688463 0.804232 0.449703
O O1 0.055532 0.332424 0.390318
O O2 0.000000 0.500000 0.500000
O O3 0.000000 0.500000 0.000000
O O4 0.076817 0.209241 0.999357
O O5 0.150544 0.267808 0.377146
O O6 0.140197 0.000000 0.095955
O O7 0.142665 0.268941 0.851939
O O8 0.570651 0.263343 0.419508
O O9 0.641250 0.262852 0.338486
O O10 0.593830 0.000000 0.224877
O O11 0.570600 0.263339 0.919375
O O12 0.938183 0.000000 0.663149
O O13 0.000000 0.167850 0.000000
O O14 0.712180 0.736253 0.755399
O O15 0.734603 0.000000 0.060447
O O16 0.782491 0.738545 0.175425
O O17 0.711564 0.736495 0.254072
O O18 0.500000 0.737084 0.500000
O O19 0.452598 0.000000 0.386326
O O20 0.830878 0.000000 0.322892
O O21 0.688680 0.000000 0.450795
#
# Coordination Sequence:
#
# PCOD8066964 Si02
#       8
#     2   4   4   4   4   4   4   4
#     4  10  22  38  56  80 108 138 174 214 256 304
#     4   9  17  28  43  63  86 113 145 180 219 263
#     4   9  15  21  27  35  47  62  87 123 163 217
#     4   9  19  36  57  80 107 139 174 213 257 304
#     4   9  15  22  32  45  63  86 111 141 181 230
#     4   9  15  21  27  33  42  59  84 119 166 218
#     4   9  16  26  39  57  80 105 135 170 207 254
#     4   9  15  21  29  41  56  77 103 134 177 228
#
# _framework density 21.894290000000002
#
# number of rings (size 3 to 8) (size 9 to 14) (size 15 to 20)
#    0.000    2.933    0.000    2.000    0.000   10.400 
#    0.000    4.000    0.000    0.000    0.000    0.000 
#    0.000    0.000    0.000    0.000    0.000    0.000 
#
# Total GULP energy -371766.259545 kJ/mol
# GULP energy per Si atom -12392.208652 kJ/mol
# Density = 2.184446 g / cm^3
# Si number density = 21.894290 Si / 1000 Ang^3
#
#
#
# Elastic Constant Matrix: (Units=GPa)
#
#
# Indices 1 2 3 4 5 6 
#
# 1 201.4948 1.6876 75.9208 0.0000 -12.3156 0.0000
# 2 1.6876 54.1339 -12.8018 0.0000 -12.3292 0.0000
# 3 75.9208 -12.8018 152.2783 0.0000 -14.8520 0.0000
# 4 0.0000 0.0000 0.0000 0.0598 0.0000 -3.1254
# 5 -12.3156 -12.3292 -14.8520 0.0000 52.5584 0.0000
# 6 0.0000 0.0000 0.0000 -3.1254 0.0000 -1.9480
#
#
#
# Elastic Compliance Matrix: (Units=1/GPa)
#
#
# Indices 1 2 3 4 5 6 
#
# 1 0.006163 -0.000843 -0.003108 0.000000 0.000368 0.000000
# 2 -0.000843 0.020338 0.002649 0.000000 0.005322 0.000000
# 3 -0.003108 0.002649 0.008565 0.000000 0.002313 0.000000
# 4 0.000000 0.000000 0.000000 0.197071 0.000000 -0.316182
# 5 0.000368 0.005322 0.002313 0.000000 0.021015 0.000000
# 6 0.000000 0.000000 0.000000 -0.316182 0.000000 -0.006054
#
#
# Mechanical properties :
#
#
# Convention : Reuss Voigt Hill
#
# Bulk Modulus (GPa) = 30.80527 59.72445 45.26486
# Shear Modulus (GPa) = 19.19227 33.00741 26.09984
#
# Velocity S-wave (km/s) = 2.96393 3.88697 3.45640
# Velocity P-wave (km/s) = 5.08072 6.89075 6.05377
#
# Compressibility (1/GPa) = 0.03246197
#
# Stress axis : x y z
#
# Youngs Moduli (GPa) = 162.24576 49.17012 116.75746
#
# Poissons Ratio (x) = 0.04146 0.36287
# Poissons Ratio (y) = 0.13681 -0.30932
# Poissons Ratio (z) = 0.50424 -0.13026
#
# Static dielectric constant tensor:
#      x y z
#    x 4.189750 0.000000 -0.089110 
#    y 0.000000 4.108560 0.000000 
#    z -0.089110 0.000000 4.019240 
# 
# 
# High freq. dielectric constant tensor:
#      x y z
#    x 1.878750 0.000000 -0.005120 
#    y 0.000000 1.782510 0.000000 
#    z -0.005120 0.000000 1.859470 
# 
# From -- ./inp_files/13665.got.cif
#   From: 2010.06.25/outbox.cif.g09.slc.cpg/sg10_7_cif.got.tgz:13665.got - 2010.06.27 22:07:45.
