data_PCOD8066529
_publ_section_title
;
Structure prediction by ZEFSAII (Michael W. Deem and Ramdas Pophale) SiO2 
 PCOD8066529
Probable space group: P 2/M
;
_chemical_formula_sum "Si O2"
_cell_formula_units_Z 24
_cell_length_a 24.536599
_cell_length_b 8.363811
_cell_length_c 12.016636
_cell_angle_alpha 90.000000
_cell_angle_beta 151.547487
_cell_angle_gamma 90.000000
_cell_volume 1174.899694
_symmetry_space_group_name_H-M "P 2/M"
_symmetry_group_IT_number 10
_symmetry_cell_setting 'monoclinic'
loop_
_space_group_symop_operation_xyz
x,y,z
-x,y,-z
-x,-y,-z
x,-y,z
loop_
_atom_site_type_symbol
_atom_site_label
_atom_site_fract_x
_atom_site_fract_y
_atom_site_fract_z
Si Si1 0.591029 0.186200 0.472603
Si Si2 0.749101 0.314741 0.942342
Si Si3 0.773056 0.312470 0.640859
Si Si4 0.069596 0.813939 0.893914
Si Si5 0.172593 0.315030 0.510021
Si Si6 0.667730 0.185354 0.021967
O O1 0.644056 0.283083 0.670488
O O2 0.663147 0.218984 0.490558
O O3 0.594494 0.000000 0.509461
O O4 0.462210 0.245924 0.223678
O O5 0.752837 0.500000 0.980604
O O6 0.868370 0.263926 0.100669
O O7 0.735447 0.213160 0.029487
O O8 0.749304 0.500000 0.608062
O O9 0.886386 0.268312 0.913796
O O10 0.790890 0.256754 0.546684
O O11 0.100035 0.000000 0.952136
O O12 0.934711 0.787623 0.640107
O O13 0.137370 0.500000 0.444681
O O14 0.277788 0.287411 0.781196
O O15 0.672772 0.000000 0.063318
#
# Coordination Sequence:
#
# PCOD8066529 Si02
#       6
#     4   4   4   4   4   4
#     4  10  21  38  61  87 116 150 191 238 284 335
#     4  11  22  38  62  88 115 149 191 237 285 339
#     4  10  21  38  61  87 116 150 191 238 284 335
#     4  11  22  38  62  88 115 149 191 237 285 339
#     4  11  24  40  58  84 118 154 192 235 285 340
#     4  11  24  40  58  84 118 154 192 235 285 340
#
# _framework density 20.427275999999999
#
# number of rings (size 3 to 8) (size 9 to 14) (size 15 to 20)
#    0.000    1.333    0.000    8.000    0.000   10.667 
#    0.000    6.667    0.000    0.000    0.000    0.000 
#    0.000    0.000    0.000    0.000    0.000    0.000 
#
# Total GULP energy -297786.599873 kJ/mol
# GULP energy per Si atom -12407.774995 kJ/mol
# Density = 2.038078 g / cm^3
# Si number density = 20.427276 Si / 1000 Ang^3
#
#
#
# Elastic Constant Matrix: (Units=GPa)
#
#
# Indices 1 2 3 4 5 6 
#
# 1 82.1207 15.0023 32.8584 0.0000 -2.7878 0.0000
# 2 15.0023 54.3454 7.8356 0.0000 7.7820 0.0000
# 3 32.8584 7.8356 53.0722 0.0000 -1.4952 0.0000
# 4 0.0000 0.0000 0.0000 30.5728 0.0000 -0.3158
# 5 -2.7878 7.7820 -1.4952 0.0000 17.8608 0.0000
# 6 0.0000 0.0000 0.0000 -0.3158 0.0000 21.2180
#
#
#
# Elastic Compliance Matrix: (Units=1/GPa)
#
#
# Indices 1 2 3 4 5 6 
#
# 1 0.016907 -0.003746 -0.009817 0.000000 0.003449 0.000000
# 2 -0.003746 0.020993 -0.001057 0.000000 -0.009820 0.000000
# 3 -0.009817 -0.001057 0.025105 0.000000 0.001030 0.000000
# 4 0.000000 0.000000 0.000000 0.032714 0.000000 0.000487
# 5 0.003449 -0.009820 0.001030 0.000000 0.060892 0.000000
# 6 0.000000 0.000000 0.000000 0.000487 0.000000 0.047137
#
#
# Mechanical properties :
#
#
# Convention : Reuss Voigt Hill
#
# Bulk Modulus (GPa) = 29.61587 33.43677 31.52632
# Shear Modulus (GPa) = 20.47140 22.85310 21.66225
#
# Velocity S-wave (km/s) = 3.16913 3.34841 3.26000
# Velocity P-wave (km/s) = 5.28401 5.59940 5.44399
#
# Compressibility (1/GPa) = 0.03376568
#
# Stress axis : x y z
#
# Youngs Moduli (GPa) = 59.14836 47.63399 39.83204
#
# Poissons Ratio (x) = 0.17842 0.39104
# Poissons Ratio (y) = 0.22155 0.04211
# Poissons Ratio (z) = 0.58067 0.05035
#
# Static dielectric constant tensor:
#      x y z
#    x 3.801860 0.000000 0.058390 
#    y 0.000000 3.663030 0.000000 
#    z 0.058390 0.000000 3.606370 
# 
# 
# High freq. dielectric constant tensor:
#      x y z
#    x 1.806070 0.000000 0.005690 
#    y 0.000000 1.808480 0.000000 
#    z 0.005690 0.000000 1.792970 
# 
# From -- ./inp_files/56677.got.cif
#   From: 2010.06.25/outbox.cif.g09.slc.cpg/sg10_29_cif.got.tgz:56677.got - 2010.06.27 22:07:45.
