data_PCOD8066670
_publ_section_title
;
Structure prediction by ZEFSAII (Michael W. Deem and Ramdas Pophale) SiO2 
 PCOD8066670
Probable space group: P 2/M
;
_chemical_formula_sum "Si O2"
_cell_formula_units_Z 32
_cell_length_a 7.754707
_cell_length_b 12.889567
_cell_length_c 26.443535
_cell_angle_alpha 90.000000
_cell_angle_beta 36.727864
_cell_angle_gamma 90.000000
_cell_volume 1580.648512
_symmetry_space_group_name_H-M "P 2/M"
_symmetry_group_IT_number 10
_symmetry_cell_setting 'monoclinic'
loop_
_space_group_symop_operation_xyz
x,y,z
-x,y,-z
-x,-y,-z
x,-y,z
loop_
_atom_site_type_symbol
_atom_site_label
_atom_site_fract_x
_atom_site_fract_y
_atom_site_fract_z
Si Si1 0.433934 0.619019 0.322441
Si Si2 0.718450 0.117954 0.532012
Si Si3 0.295983 0.286807 0.651664
Si Si4 0.741699 0.238085 0.840205
Si Si5 0.226117 0.618344 0.991626
Si Si6 0.904678 0.747171 0.150466
Si Si7 0.566974 0.121683 0.788316
Si Si8 0.036191 0.246140 0.613987
O O1 0.419068 0.500000 0.310384
O O2 0.500897 0.630219 0.366941
O O3 0.678784 0.673591 0.231836
O O4 0.126806 0.670472 0.382318
O O5 0.450487 0.174360 0.622744
O O6 0.000000 0.125578 0.500000
O O7 0.773219 0.171881 0.465538
O O8 0.625124 0.000000 0.544805
O O9 0.984135 0.292636 0.749748
O O10 0.249331 0.307660 0.602745
O O11 0.600984 0.145465 0.840314
O O12 0.886393 0.195793 0.857948
O O13 0.516011 0.327885 0.904951
O O14 0.296681 0.500000 0.989938
O O15 0.102980 0.676191 0.069118
O O16 0.000000 0.623384 0.000000
O O17 0.742887 0.835157 0.156501
O O18 0.820175 0.173752 0.696558
O O19 0.574817 0.000000 0.777025
#
# Coordination Sequence:
#
# PCOD8066670 Si02
#       8
#     4   4   4   4   4   4   4   4
#     4  10  21  39  61  88 125 164 202 250 309 367
#     4  11  22  39  66  95 124 159 204 259 313 359
#     4  10  22  39  59  89 126 159 201 249 303 368
#     4  10  22  39  59  89 126 159 201 249 303 368
#     4  11  22  39  66  95 124 159 204 259 313 359
#     4  10  21  39  62  92 123 159 205 257 305 362
#     4  10  21  39  61  88 125 164 202 250 309 367
#     4  10  21  39  62  92 123 159 205 257 305 362
#
# _framework density 20.244855000000001
#
# number of rings (size 3 to 8) (size 9 to 14) (size 15 to 20)
#    0.000    1.750    2.500    1.500    0.000    7.000 
#    0.000    2.500    0.000    3.000    0.000    0.000 
#    0.000    0.000    0.000    0.000    0.000    0.000 
#
# Total GULP energy -396726.533382 kJ/mol
# GULP energy per Si atom -12397.704168 kJ/mol
# Density = 2.019878 g / cm^3
# Si number density = 20.244855 Si / 1000 Ang^3
#
#
#
# Elastic Constant Matrix: (Units=GPa)
#
#
# Indices 1 2 3 4 5 6 
#
# 1 129.2071 42.8367 7.3765 0.0000 1.7141 0.0000
# 2 42.8367 104.5264 19.9864 0.0000 -3.3576 0.0000
# 3 7.3765 19.9864 61.5932 0.0000 1.6493 0.0000
# 4 0.0000 0.0000 0.0000 31.8657 0.0000 8.0194
# 5 1.7141 -3.3576 1.6493 0.0000 30.7100 0.0000
# 6 0.0000 0.0000 0.0000 8.0194 0.0000 18.8086
#
#
#
# Elastic Compliance Matrix: (Units=1/GPa)
#
#
# Indices 1 2 3 4 5 6 
#
# 1 0.008983 -0.003742 0.000163 0.000000 -0.000919 0.000000
# 2 -0.003742 0.011810 -0.003429 0.000000 0.001684 0.000000
# 3 0.000163 -0.003429 0.017364 0.000000 -0.001317 0.000000
# 4 0.000000 0.000000 0.000000 0.035154 0.000000 -0.014989
# 5 -0.000919 0.001684 -0.001317 0.000000 0.032869 0.000000
# 6 0.000000 0.000000 0.000000 -0.014989 0.000000 0.059558
#
#
# Mechanical properties :
#
#
# Convention : Reuss Voigt Hill
#
# Bulk Modulus (GPa) = 41.42364 48.41398 44.91881
# Shear Modulus (GPa) = 26.62386 31.28532 28.95459
#
# Velocity S-wave (km/s) = 3.63035 3.93535 3.78593
# Velocity P-wave (km/s) = 6.17077 6.67948 6.43016
#
# Compressibility (1/GPa) = 0.02414081
#
# Stress axis : x y z
#
# Youngs Moduli (GPa) = 111.32090 84.67146 57.59022
#
# Poissons Ratio (x) = 0.31685 -0.00939
# Poissons Ratio (y) = 0.41658 0.19749
# Poissons Ratio (z) = -0.01815 0.29036
#
# Static dielectric constant tensor:
#      x y z
#    x 4.292500 0.000000 0.002710 
#    y 0.000000 3.428150 0.000000 
#    z 0.002710 0.000000 3.656130 
# 
# 
# High freq. dielectric constant tensor:
#      x y z
#    x 1.820150 0.000000 -0.003800 
#    y 0.000000 1.760170 0.000000 
#    z -0.003800 0.000000 1.788940 
# 
# From -- ./inp_files/94644.got.cif
#   From: 2010.06.25/outbox.cif.g09.slc.cpg/sg10_48_cif.got.tgz:94644.got - 2010.06.27 22:07:45.
