data_PCOD8066809
_publ_section_title
;
Structure prediction by ZEFSAII (Michael W. Deem and Ramdas Pophale) SiO2 
 PCOD8066809
Probable space group: P 2/M
;
_chemical_formula_sum "Si O2"
_cell_formula_units_Z 24
_cell_length_a 14.945898
_cell_length_b 15.526187
_cell_length_c 9.092439
_cell_angle_alpha 90.000000
_cell_angle_beta 33.901881
_cell_angle_gamma 90.000000
_cell_volume 1176.858397
_symmetry_space_group_name_H-M "P 2/M"
_symmetry_group_IT_number 10
_symmetry_cell_setting 'monoclinic'
loop_
_space_group_symop_operation_xyz
x,y,z
-x,y,-z
-x,-y,-z
x,-y,z
loop_
_atom_site_type_symbol
_atom_site_label
_atom_site_fract_x
_atom_site_fract_y
_atom_site_fract_z
Si Si1 0.178945 0.500000 0.306439
Si Si2 0.162102 0.315306 0.466461
Si Si3 0.481695 0.500000 0.698338
Si Si4 0.334264 0.098745 0.807873
Si Si5 0.606414 0.197774 0.001017
Si Si6 0.114644 0.756237 0.985852
Si Si7 0.628183 0.321408 0.544438
O O1 0.199686 0.413656 0.372848
O O2 0.000000 0.500000 0.500000
O O3 0.298702 0.500000 0.004064
O O4 0.227359 0.246923 0.259443
O O5 0.259173 0.294568 0.478003
O O6 0.976820 0.293882 0.756448
O O7 0.500000 0.500000 0.500000
O O8 0.573550 0.418735 0.637088
O O9 0.500000 0.121729 0.500000
O O10 0.287585 0.000000 0.845592
O O11 0.353792 0.112775 0.958457
O O12 0.185416 0.153046 0.944567
O O13 0.500000 0.177497 0.000000
O O14 0.522448 0.258585 0.237330
O O15 0.267402 0.694113 0.744732
O O16 0.000000 0.771545 0.000000
#
# Coordination Sequence:
#
# PCOD8066809 Si02
#       7
#     2   4   2   4   4   4   4
#     4  12  27  39  54  90 130 167 210 262 314 365
#     4  10  23  40  63  88 126 171 206 258 318 366
#     4  12  27  37  58  90 124 167 217 265 303 360
#     4  11  24  42  70  98 126 166 210 263 322 389
#     4  10  21  40  67  96 126 167 214 259 316 376
#     4  10  23  42  67  96 129 168 210 261 321 380
#     4  10  21  40  63  89 120 170 217 255 304 373
#
# _framework density 20.393279
#
# number of rings (size 3 to 8) (size 9 to 14) (size 15 to 20)
#    0.000    1.500    3.333    0.500    7.000    1.333 
#    0.000    4.167    0.000    0.000    0.000    0.000 
#    0.000    0.000    0.000    0.000    0.000    0.000 
#
# Total GULP energy -297425.793712 kJ/mol
# GULP energy per Si atom -12392.741405 kJ/mol
# Density = 2.034686 g / cm^3
# Si number density = 20.393279 Si / 1000 Ang^3
#
#
#
# Elastic Constant Matrix: (Units=GPa)
#
#
# Indices 1 2 3 4 5 6 
#
# 1 55.5704 22.8738 29.8936 0.0000 4.5907 0.0000
# 2 22.8738 102.7254 54.1304 0.0000 2.6035 0.0000
# 3 29.8936 54.1304 185.0398 0.0000 -0.4468 0.0000
# 4 0.0000 0.0000 0.0000 31.3164 0.0000 -1.6559
# 5 4.5907 2.6035 -0.4468 0.0000 22.1171 0.0000
# 6 0.0000 0.0000 0.0000 -1.6559 0.0000 33.1137
#
#
#
# Elastic Compliance Matrix: (Units=1/GPa)
#
#
# Indices 1 2 3 4 5 6 
#
# 1 0.020993 -0.003287 -0.002440 0.000000 -0.004020 0.000000
# 2 -0.003287 0.012068 -0.003001 0.000000 -0.000799 0.000000
# 3 -0.002440 -0.003001 0.006679 0.000000 0.000995 0.000000
# 4 0.000000 0.000000 0.000000 0.032017 0.000000 0.001601
# 5 -0.004020 -0.000799 0.000995 0.000000 0.046162 0.000000
# 6 0.000000 0.000000 0.000000 0.001601 0.000000 0.030279
#
#
# Mechanical properties :
#
#
# Convention : Reuss Voigt Hill
#
# Bulk Modulus (GPa) = 44.87535 61.90345 53.38940
# Shear Modulus (GPa) = 28.88808 33.07195 30.98002
#
# Velocity S-wave (km/s) = 3.76779 4.03141 3.90183
# Velocity P-wave (km/s) = 6.40165 7.21737 6.82171
#
# Compressibility (1/GPa) = 0.02228395
#
# Stress axis : x y z
#
# Youngs Moduli (GPa) = 47.63589 82.86118 149.72890
#
# Poissons Ratio (x) = 0.27237 0.36527
# Poissons Ratio (y) = 0.15658 0.44938
# Poissons Ratio (z) = 0.11621 0.24869
#
# Static dielectric constant tensor:
#      x y z
#    x 3.444840 0.000000 -0.050380 
#    y 0.000000 3.575760 0.000000 
#    z -0.050380 0.000000 4.371130 
# 
# 
# High freq. dielectric constant tensor:
#      x y z
#    x 1.793990 0.000000 0.002180 
#    y 0.000000 1.782910 0.000000 
#    z 0.002180 0.000000 1.816690 
# 
# From -- ./inp_files/29354.got.cif
#   From: 2010.06.25/outbox.cif.g09.slc.cpg/sg10_15_cif.got.tgz:29354.got - 2010.06.27 22:07:45.
