data_PCOD8066194
_publ_section_title
;
Structure prediction by ZEFSAII (Michael W. Deem and Ramdas Pophale) SiO2 
 PCOD8066194
Probable space group: P 2/M
;
_chemical_formula_sum "Si O2"
_cell_formula_units_Z 32
_cell_length_a 11.713709
_cell_length_b 8.879987
_cell_length_c 28.709833
_cell_angle_alpha 90.000000
_cell_angle_beta 31.294358
_cell_angle_gamma 90.000000
_cell_volume 1551.202911
_symmetry_space_group_name_H-M "P 2/M"
_symmetry_group_IT_number 10
_symmetry_cell_setting 'monoclinic'
loop_
_space_group_symop_operation_xyz
x,y,z
-x,y,-z
-x,-y,-z
x,-y,z
loop_
_atom_site_type_symbol
_atom_site_label
_atom_site_fract_x
_atom_site_fract_y
_atom_site_fract_z
Si Si1 0.020570 0.176195 0.224106
Si Si2 0.600953 0.176170 0.839591
Si Si3 0.832252 0.172380 0.667912
Si Si4 0.222949 0.330004 0.484113
Si Si5 0.622725 0.328311 0.411579
Si Si6 0.428732 0.171129 0.333225
Si Si7 0.106940 0.821546 0.011822
Si Si8 0.884938 0.322508 0.177868
O O1 0.260529 0.210399 0.162187
O O2 0.836309 0.230675 0.324915
O O3 0.017748 0.261068 0.175985
O O4 0.985586 0.000000 0.227644
O O5 0.727539 0.244091 0.750880
O O6 0.355402 0.242954 0.928714
O O7 0.577426 0.000000 0.838413
O O8 0.646140 0.183582 0.693617
O O9 0.044112 0.270257 0.582492
O O10 0.908460 0.000000 0.648335
O O11 0.162572 0.500000 0.491156
O O12 0.461145 0.320770 0.424309
O O13 0.228742 0.227163 0.435777
O O14 0.500000 0.262250 0.500000
O O15 0.697552 0.500000 0.395281
O O16 0.631402 0.280425 0.271863
O O17 0.492778 0.000000 0.323721
O O18 0.097127 0.000000 0.022032
O O19 0.000000 0.773847 0.000000
O O20 0.970264 0.747762 0.100574
O O21 0.912179 0.500000 0.166995
#
# Coordination Sequence:
#
# PCOD8066194 Si02
#       8
#     4   4   4   4   4   4   4   4
#     4  11  22  38  62  89 119 159 207 255 301 356
#     4   9  20  39  63  92 121 152 199 254 301 353
#     4  10  21  38  60  87 120 157 201 252 303 360
#     4  11  22  35  54  84 122 162 202 248 302 362
#     4  10  21  37  56  81 119 165 208 252 303 359
#     4  11  22  38  61  87 117 159 207 253 303 362
#     4  10  21  42  71  97 123 158 201 249 304 366
#     4  12  25  41  62  90 126 162 201 254 311 370
#
# _framework density 20.629151
#
# number of rings (size 3 to 8) (size 9 to 14) (size 15 to 20)
#    0.000    1.500    1.250    4.125    0.000    6.000 
#    0.000    5.000    0.000    0.000    0.000    0.000 
#    0.000    0.000    0.000    0.000    0.000    0.000 
#
# Total GULP energy -396931.643999 kJ/mol
# GULP energy per Si atom -12404.113875 kJ/mol
# Density = 2.058220 g / cm^3
# Si number density = 20.629151 Si / 1000 Ang^3
#
#
#
# Elastic Constant Matrix: (Units=GPa)
#
#
# Indices 1 2 3 4 5 6 
#
# 1 95.4804 44.1551 44.7934 0.0000 6.5605 0.0000
# 2 44.1551 72.2622 36.4693 0.0000 4.6755 0.0000
# 3 44.7934 36.4693 112.3457 0.0000 6.6960 0.0000
# 4 0.0000 0.0000 0.0000 13.9165 0.0000 8.2103
# 5 6.5605 4.6755 6.6960 0.0000 42.9691 0.0000
# 6 0.0000 0.0000 0.0000 8.2103 0.0000 17.6566
#
#
#
# Elastic Compliance Matrix: (Units=1/GPa)
#
#
# Indices 1 2 3 4 5 6 
#
# 1 0.015888 -0.007746 -0.003761 0.000000 -0.000997 0.000000
# 2 -0.007746 0.020366 -0.003494 0.000000 -0.000489 0.000000
# 3 -0.003761 -0.003494 0.011586 0.000000 -0.000851 0.000000
# 4 0.000000 0.000000 0.000000 0.099022 0.000000 -0.046045
# 5 -0.000997 -0.000489 -0.000851 0.000000 0.023611 0.000000
# 6 0.000000 0.000000 0.000000 -0.046045 0.000000 0.078047
#
#
# Mechanical properties :
#
#
# Convention : Reuss Voigt Hill
#
# Bulk Modulus (GPa) = 56.05687 58.99154 57.52421
# Shear Modulus (GPa) = 17.57670 25.21982 21.39826
#
# Velocity S-wave (km/s) = 2.92213 3.50027 3.22418
# Velocity P-wave (km/s) = 6.21431 6.70776 6.46575
#
# Compressibility (1/GPa) = 0.01783903
#
# Stress axis : x y z
#
# Youngs Moduli (GPa) = 62.93918 49.10050 86.31467
#
# Poissons Ratio (x) = 0.38032 0.32463
# Poissons Ratio (y) = 0.48752 0.30157
# Poissons Ratio (z) = 0.23671 0.17155
#
# Static dielectric constant tensor:
#      x y z
#    x 3.803190 0.000000 0.040820 
#    y 0.000000 3.591770 0.000000 
#    z 0.040820 0.000000 3.787010 
# 
# 
# High freq. dielectric constant tensor:
#      x y z
#    x 1.820030 0.000000 0.004340 
#    y 0.000000 1.790290 0.000000 
#    z 0.004340 0.000000 1.810620 
# 
# From -- ./inp_files/94994.got.cif
#   From: 2010.06.25/outbox.cif.g09.slc.cpg/sg10_48_cif.got.tgz:94994.got - 2010.06.27 22:07:45.
