data_PCOD8066820
_publ_section_title
;
Structure prediction by ZEFSAII (Michael W. Deem and Ramdas Pophale) SiO2 
 PCOD8066820
Probable space group: P 2/M
;
_chemical_formula_sum "Si O2"
_cell_formula_units_Z 32
_cell_length_a 13.180618
_cell_length_b 22.120265
_cell_length_c 13.519373
_cell_angle_alpha 90.000000
_cell_angle_beta 21.730677
_cell_angle_gamma 90.000000
_cell_volume 1459.388382
_symmetry_space_group_name_H-M "P 2/M"
_symmetry_group_IT_number 10
_symmetry_cell_setting 'monoclinic'
loop_
_space_group_symop_operation_xyz
x,y,z
-x,y,-z
-x,-y,-z
x,-y,z
loop_
_atom_site_type_symbol
_atom_site_label
_atom_site_fract_x
_atom_site_fract_y
_atom_site_fract_z
Si Si1 0.206239 0.232734 0.225333
Si Si2 0.432497 0.625023 0.446174
Si Si3 0.209992 0.633711 0.219678
Si Si4 0.588084 0.759937 0.532833
Si Si5 0.090434 0.166562 0.030528
Si Si6 0.877489 0.569424 0.902517
Si Si7 0.626147 0.931807 0.102560
Si Si8 0.972727 0.112026 0.407308
O O1 0.226658 0.298527 0.155744
O O2 0.000000 0.244134 0.500000
O O3 0.077044 0.178915 0.275379
O O4 0.500000 0.210495 0.000000
O O5 0.500000 0.623385 0.500000
O O6 0.336085 0.692411 0.499875
O O7 0.692905 0.608503 0.143768
O O8 0.192439 0.577530 0.646673
O O9 0.000000 0.627017 0.500000
O O10 0.500000 0.614848 0.000000
O O11 0.144018 0.588044 0.191994
O O12 0.500000 0.756151 0.500000
O O13 0.836742 0.806792 0.322348
O O14 0.331053 0.784584 0.827069
O O15 0.192961 0.102377 0.978849
O O16 0.000000 0.155549 0.000000
O O17 0.792987 0.500000 0.990354
O O18 0.337226 0.898897 0.345790
O O19 0.568948 0.000000 0.190467
O O20 0.812983 0.934835 0.834553
O O21 0.000000 0.106740 0.500000
#
# Coordination Sequence:
#
# PCOD8066820 Si02
#       8
#     4   4   4   4   4   4   4   4
#     4   9  18  36  61  88 116 150 196 247 312 374
#     4  11  24  43  65  92 129 164 203 263 315 362
#     4  10  22  41  64  91 126 161 200 262 319 364
#     4   9  19  38  65  94 120 154 200 249 314 373
#     4  10  21  40  64  91 124 155 194 254 308 360
#     4  12  26  41  63  95 125 169 222 247 294 379
#     4  12  26  40  59  89 120 162 211 239 287 367
#     4  11  23  41  62  85 118 157 200 253 302 351
#
# _framework density 21.926994000000001
#
# number of rings (size 3 to 8) (size 9 to 14) (size 15 to 20)
#    0.000    1.500    0.000    5.250    0.000    8.750 
#    0.000    2.500    0.000    3.750    0.000    0.000 
#    0.000    0.000    0.000    0.000    0.000    0.000 
#
# Total GULP energy -396743.381454 kJ/mol
# GULP energy per Si atom -12398.230670 kJ/mol
# Density = 2.187709 g / cm^3
# Si number density = 21.926994 Si / 1000 Ang^3
#
#
#
# Elastic Constant Matrix: (Units=GPa)
#
#
# Indices 1 2 3 4 5 6 
#
# 1 93.0903 57.7596 47.4411 0.0000 -11.7287 0.0000
# 2 57.7596 124.6392 26.9347 0.0000 -11.8323 0.0000
# 3 47.4411 26.9347 142.4013 0.0000 -16.8508 0.0000
# 4 0.0000 0.0000 0.0000 26.4716 0.0000 -0.4573
# 5 -11.7287 -11.8323 -16.8508 0.0000 36.7177 0.0000
# 6 0.0000 0.0000 0.0000 -0.4573 0.0000 45.3824
#
#
#
# Elastic Compliance Matrix: (Units=1/GPa)
#
#
# Indices 1 2 3 4 5 6 
#
# 1 0.017489 -0.007041 -0.004338 0.000000 0.001327 0.000000
# 2 -0.007041 0.011353 0.000386 0.000000 0.001587 0.000000
# 3 -0.004338 0.000386 0.008719 0.000000 0.002740 0.000000
# 4 0.000000 0.000000 0.000000 0.037783 0.000000 0.000381
# 5 0.001327 0.001587 0.002740 0.000000 0.029427 0.000000
# 6 0.000000 0.000000 0.000000 0.000381 0.000000 0.022039
#
#
# Mechanical properties :
#
#
# Convention : Reuss Voigt Hill
#
# Bulk Modulus (GPa) = 64.20382 69.37796 66.79089
# Shear Modulus (GPa) = 32.47020 36.91404 34.69212
#
# Velocity S-wave (km/s) = 3.85233 4.10750 3.98196
# Velocity P-wave (km/s) = 7.00939 7.36237 7.18805
#
# Compressibility (1/GPa) = 0.01557540
#
# Stress axis : x y z
#
# Youngs Moduli (GPa) = 57.17926 88.07951 114.69598
#
# Poissons Ratio (x) = 0.62019 0.49751
# Poissons Ratio (y) = 0.40262 -0.04429
# Poissons Ratio (z) = 0.24802 -0.03401
#
# Static dielectric constant tensor:
#      x y z
#    x 3.753960 0.000000 -0.050230 
#    y 0.000000 4.117550 0.000000 
#    z -0.050230 0.000000 4.138450 
# 
# 
# High freq. dielectric constant tensor:
#      x y z
#    x 1.854050 0.000000 -0.005940 
#    y 0.000000 1.860140 0.000000 
#    z -0.005940 0.000000 1.882300 
# 
# From -- ./inp_files/67955.got.cif
#   From: 2010.06.25/outbox.cif.g09.slc.cpg/sg10_34_cif.got.tgz:67955.got - 2010.06.27 22:07:45.
