data_PCOD8066879
_publ_section_title
;
Structure prediction by ZEFSAII (Michael W. Deem and Ramdas Pophale) SiO2 
 PCOD8066879
Probable space group: P 2/M
;
_chemical_formula_sum "Si O2"
_cell_formula_units_Z 28
_cell_length_a 11.801308
_cell_length_b 8.675484
_cell_length_c 15.772398
_cell_angle_alpha 90.000000
_cell_angle_beta 123.396085
_cell_angle_gamma 90.000000
_cell_volume 1348.181898
_symmetry_space_group_name_H-M "P 2/M"
_symmetry_group_IT_number 10
_symmetry_cell_setting 'monoclinic'
loop_
_space_group_symop_operation_xyz
x,y,z
-x,y,-z
-x,-y,-z
x,-y,z
loop_
_atom_site_type_symbol
_atom_site_label
_atom_site_fract_x
_atom_site_fract_y
_atom_site_fract_z
Si Si1 0.684317 0.178950 0.742214
Si Si2 0.401588 0.179886 0.698708
Si Si3 0.407372 0.179108 0.887783
Si Si4 0.868347 0.176471 0.139110
Si Si5 0.131751 0.181129 0.499340
Si Si6 0.865273 0.320196 0.682944
Si Si7 0.153250 0.677771 0.040744
O O1 0.523397 0.211076 0.682991
O O2 0.737692 0.231205 0.672253
O O3 0.755294 0.280645 0.842322
O O4 0.717335 0.000000 0.770855
O O5 0.434472 0.252567 0.805483
O O6 0.263639 0.248169 0.602174
O O7 0.376585 0.000000 0.703183
O O8 0.248013 0.204008 0.839526
O O9 0.446572 0.000000 0.902056
O O10 0.500000 0.257832 0.000000
O O11 0.996842 0.284167 0.209675
O O12 0.917574 0.000000 0.160297
O O13 0.803630 0.218877 0.021644
O O14 0.117177 0.269410 0.405731
O O15 0.000000 0.219309 0.500000
O O16 0.144472 0.000000 0.485610
O O17 0.835686 0.500000 0.677113
O O18 0.173291 0.500000 0.025681
O O19 0.000000 0.718104 0.000000
#
# Coordination Sequence:
#
# PCOD8066879 Si02
#       7
#     4   4   4   4   4   4   4
#     4  11  22  38  62  89 118 156 203 246 291 353
#     4   9  19  36  60  91 122 151 192 251 302 342
#     4   9  17  32  57  91 123 148 185 241 299 348
#     4  11  21  35  61  90 116 154 203 248 293 353
#     4  10  21  41  68  92 116 151 199 249 296 351
#     4  12  25  40  58  85 122 157 195 246 301 355
#     4  11  22  36  55  83 123 163 196 241 296 349
#
# _framework density 20.768713000000002
#
# number of rings (size 3 to 8) (size 9 to 14) (size 15 to 20)
#    0.000    1.571    1.429    4.286    0.000    6.000 
#    0.000    4.286    0.000   11.143    0.000    0.000 
#    0.000    0.000    0.000    0.000    0.000    0.000 
#
# Total GULP energy -347268.464417 kJ/mol
# GULP energy per Si atom -12402.445158 kJ/mol
# Density = 2.072144 g / cm^3
# Si number density = 20.768713 Si / 1000 Ang^3
#
#
#
# Elastic Constant Matrix: (Units=GPa)
#
#
# Indices 1 2 3 4 5 6 
#
# 1 116.5061 36.4037 43.3564 0.0000 -3.1389 0.0000
# 2 36.4037 44.8456 12.2239 0.0000 -2.5029 0.0000
# 3 43.3564 12.2239 99.3912 0.0000 -1.2017 0.0000
# 4 0.0000 0.0000 0.0000 19.4946 0.0000 -6.6099
# 5 -3.1389 -2.5029 -1.2017 0.0000 38.3079 0.0000
# 6 0.0000 0.0000 0.0000 -6.6099 0.0000 5.0098
#
#
#
# Elastic Compliance Matrix: (Units=1/GPa)
#
#
# Indices 1 2 3 4 5 6 
#
# 1 0.013281 -0.009503 -0.004621 0.000000 0.000322 0.000000
# 2 -0.009503 0.029950 0.000477 0.000000 0.001193 0.000000
# 3 -0.004621 0.000477 0.012019 0.000000 0.000030 0.000000
# 4 0.000000 0.000000 0.000000 0.092820 0.000000 0.122467
# 5 0.000322 0.001193 0.000030 0.000000 0.026210 0.000000
# 6 0.000000 0.000000 0.000000 0.122467 0.000000 0.361193
#
#
# Mechanical properties :
#
#
# Convention : Reuss Voigt Hill
#
# Bulk Modulus (GPa) = 35.77263 49.41230 42.59246
# Shear Modulus (GPa) = 8.73995 23.81305 16.27650
#
# Velocity S-wave (km/s) = 2.05362 3.38980 2.80251
# Velocity P-wave (km/s) = 4.78381 6.25814 5.56997
#
# Compressibility (1/GPa) = 0.02795433
#
# Stress axis : x y z
#
# Youngs Moduli (GPa) = 75.29602 33.38908 83.20404
#
# Poissons Ratio (x) = 0.31731 0.38446
# Poissons Ratio (y) = 0.71557 -0.03965
# Poissons Ratio (z) = 0.34792 -0.01591
#
# Static dielectric constant tensor:
#      x y z
#    x 3.998060 0.000000 -0.016490 
#    y 0.000000 3.406460 0.000000 
#    z -0.016490 0.000000 3.938780 
# 
# 
# High freq. dielectric constant tensor:
#      x y z
#    x 1.827680 0.000000 -0.005770 
#    y 0.000000 1.778880 0.000000 
#    z -0.005770 0.000000 1.815090 
# 
# From -- ./inp_files/63907.got.cif
#   From: 2010.06.25/outbox.cif.g09.slc.cpg/sg10_32_cif.got.tgz:63907.got - 2010.06.27 22:07:45.
