data_PCOD8066911
_publ_section_title
;
Structure prediction by ZEFSAII (Michael W. Deem and Ramdas Pophale) SiO2 
 PCOD8066911
Probable space group: P 2/M
;
_chemical_formula_sum "Si O2"
_cell_formula_units_Z 24
_cell_length_a 24.891030
_cell_length_b 11.193628
_cell_length_c 9.252351
_cell_angle_alpha 90.000000
_cell_angle_beta 148.189017
_cell_angle_gamma 90.000000
_cell_volume 1358.858585
_symmetry_space_group_name_H-M "P 2/M"
_symmetry_group_IT_number 10
_symmetry_cell_setting 'monoclinic'
loop_
_space_group_symop_operation_xyz
x,y,z
-x,y,-z
-x,-y,-z
x,-y,z
loop_
_atom_site_type_symbol
_atom_site_label
_atom_site_fract_x
_atom_site_fract_y
_atom_site_fract_z
Si Si1 0.355016 0.500000 0.132584
Si Si2 0.704925 0.500000 0.688594
Si Si3 0.549866 0.253832 0.757694
Si Si4 0.910207 0.500000 0.048050
Si Si5 0.866124 0.500000 0.481259
Si Si6 0.304895 0.140571 0.689811
Si Si7 0.111917 0.699604 0.237022
Si Si8 0.588429 0.294344 0.296310
O O1 0.366350 0.500000 0.332312
O O2 0.409027 0.386315 0.185205
O O3 0.233254 0.500000 0.843816
O O4 0.828244 0.500000 0.993100
O O5 0.679666 0.385596 0.532301
O O6 0.500000 0.194884 0.500000
O O7 0.456276 0.251912 0.654194
O O8 0.643335 0.179153 0.039310
O O9 0.888253 0.618410 0.905545
O O10 0.028188 0.500000 0.370644
O O11 0.861482 0.617891 0.566183
O O12 0.192635 0.194291 0.415672
O O13 0.372147 0.182218 0.707080
O O14 0.294815 0.000000 0.663102
O O15 0.000000 0.757744 0.000000
O O16 0.500000 0.359050 0.000000
#
# Coordination Sequence:
#
# PCOD8066911 Si02
#       8
#     2   2   4   2   2   4   4   4
#     4  12  21  33  58  84 113 137 177 222 274 346
#     4  12  19  32  56  84 109 141 173 216 280 339
#     4  11  22  38  55  80 113 145 180 225 275 321
#     4   9  18  31  55  83 111 138 169 213 288 340
#     4   9  18  33  53  83 111 138 167 221 281 337
#     4  11  23  38  57  79 106 148 194 227 262 310
#     4   9  17  33  57  82 107 136 175 223 279 330
#     4  10  22  34  53  79 111 140 179 224 272 319
#
# _framework density 17.661881000000001
#
# number of rings (size 3 to 8) (size 9 to 14) (size 15 to 20)
#    0.000    1.667    5.000    2.000    0.000    6.000 
#    0.000    0.000    0.000    0.000    0.000    0.000 
#    0.000    8.000    0.000    0.000    0.000    0.000 
#
# Total GULP energy -297427.348036 kJ/mol
# GULP energy per Si atom -12392.806168 kJ/mol
# Density = 1.762168 g / cm^3
# Si number density = 17.661881 Si / 1000 Ang^3
#
#
#
# Elastic Constant Matrix: (Units=GPa)
#
#
# Indices 1 2 3 4 5 6 
#
# 1 103.1445 38.2207 45.6020 0.0000 9.1313 0.0000
# 2 38.2207 112.3869 43.3789 0.0000 7.0702 0.0000
# 3 45.6020 43.3789 113.4254 0.0000 14.2454 0.0000
# 4 0.0000 0.0000 0.0000 9.0470 0.0000 6.5821
# 5 9.1313 7.0702 14.2454 0.0000 33.9510 0.0000
# 6 0.0000 0.0000 0.0000 6.5821 0.0000 8.6230
#
#
#
# Elastic Compliance Matrix: (Units=1/GPa)
#
#
# Indices 1 2 3 4 5 6 
#
# 1 0.012498 -0.002691 -0.003847 0.000000 -0.001187 0.000000
# 2 -0.002691 0.011027 -0.003101 0.000000 -0.000271 0.000000
# 3 -0.003847 -0.003101 0.011969 0.000000 -0.003341 0.000000
# 4 0.000000 0.000000 0.000000 0.248585 0.000000 -0.189750
# 5 -0.001187 -0.000271 -0.003341 0.000000 0.031232 0.000000
# 6 0.000000 0.000000 0.000000 -0.189750 0.000000 0.260809
#
#
# Mechanical properties :
#
#
# Convention : Reuss Voigt Hill
#
# Bulk Modulus (GPa) = 61.66706 64.81778 63.24242
# Shear Modulus (GPa) = 8.32220 23.77454 16.04837
#
# Velocity S-wave (km/s) = 2.17306 3.67289 3.01764
# Velocity P-wave (km/s) = 6.42553 7.40039 6.93012
#
# Compressibility (1/GPa) = 0.01621611
#
# Stress axis : x y z
#
# Youngs Moduli (GPa) = 80.01289 90.68582 83.55222
#
# Poissons Ratio (x) = 0.24403 0.32138
# Poissons Ratio (y) = 0.21531 0.25912
# Poissons Ratio (z) = 0.30777 0.28124
#
# Static dielectric constant tensor:
#      x y z
#    x 3.297600 0.000000 0.112980 
#    y 0.000000 2.906420 0.000000 
#    z 0.112980 0.000000 3.538970 
# 
# 
# High freq. dielectric constant tensor:
#      x y z
#    x 1.685660 0.000000 0.013910 
#    y 0.000000 1.646120 0.000000 
#    z 0.013910 0.000000 1.695130 
# 
# From -- ./inp_files/28035.got.cif
#   From: 2010.06.25/outbox.cif.g09.slc.cpg/sg10_15_cif.got.tgz:28035.got - 2010.06.27 22:07:45.
