data_PCOD8066835
_publ_section_title
;
Structure prediction by ZEFSAII (Michael W. Deem and Ramdas Pophale) SiO2 
 PCOD8066835
Probable space group: P 2/M
;
_chemical_formula_sum "Si O2"
_cell_formula_units_Z 24
_cell_length_a 11.088901
_cell_length_b 11.314852
_cell_length_c 11.657780
_cell_angle_alpha 90.000000
_cell_angle_beta 131.811145
_cell_angle_gamma 90.000000
_cell_volume 1090.213006
_symmetry_space_group_name_H-M "P 2/M"
_symmetry_group_IT_number 10
_symmetry_cell_setting 'monoclinic'
loop_
_space_group_symop_operation_xyz
x,y,z
-x,y,-z
-x,-y,-z
x,-y,z
loop_
_atom_site_type_symbol
_atom_site_label
_atom_site_fract_x
_atom_site_fract_y
_atom_site_fract_z
Si Si1 0.182366 0.273438 0.651570
Si Si2 0.818561 0.500000 0.950547
Si Si3 0.873253 0.866943 0.779588
Si Si4 0.304148 0.500000 0.865603
Si Si5 0.685976 0.252029 0.837856
Si Si6 0.800608 0.137406 0.119156
Si Si7 0.635151 0.862152 0.425747
O O1 0.258410 0.387344 0.760030
O O2 0.207419 0.162709 0.752086
O O3 0.273310 0.229726 0.597378
O O4 0.000000 0.300995 0.500000
O O5 0.708737 0.391514 0.838486
O O6 0.804103 0.500000 0.083169
O O7 0.000000 0.500000 0.000000
O O8 0.847768 0.803422 0.884961
O O9 0.714932 0.856440 0.600477
O O10 0.025080 0.812313 0.809108
O O11 0.915854 0.000000 0.836156
O O12 0.500000 0.500000 0.000000
O O13 0.541038 0.195042 0.674230
O O14 0.670595 0.211898 0.961647
O O15 0.769880 0.000000 0.078411
O O16 0.631008 0.000000 0.380545
#
# Coordination Sequence:
#
# PCOD8066835 Si02
#       7
#     4   2   4   2   4   4   4
#     4  12  25  44  69  98 136 182 234 280 340 421
#     4  12  26  45  73  99 137 186 236 296 348 407
#     4  10  21  40  65  95 136 177 214 273 352 419
#     4  12  27  51  72 101 142 191 235 297 353 398
#     4  12  24  42  65  99 134 177 234 287 348 412
#     4  11  22  38  66  97 130 171 223 284 341 407
#     4  11  24  42  68 101 141 182 222 286 361 423
#
# _framework density 22.014044999999999
#
# number of rings (size 3 to 8) (size 9 to 14) (size 15 to 20)
#    0.000    0.667    3.333    5.250    0.000    3.333 
#    0.000    4.167    0.000    0.000    0.000    0.000 
#    0.000    0.000    0.000    0.000    0.000    0.000 
#
# Total GULP energy -297383.405809 kJ/mol
# GULP energy per Si atom -12390.975242 kJ/mol
# Density = 2.196394 g / cm^3
# Si number density = 22.014045 Si / 1000 Ang^3
#
#
#
# Elastic Constant Matrix: (Units=GPa)
#
#
# Indices 1 2 3 4 5 6 
#
# 1 84.2396 32.7558 7.4600 0.0000 -8.1044 0.0000
# 2 32.7558 103.3921 23.9509 0.0000 1.9440 0.0000
# 3 7.4600 23.9509 67.7101 0.0000 1.0019 0.0000
# 4 0.0000 0.0000 0.0000 30.4507 0.0000 -1.7611
# 5 -8.1044 1.9440 1.0019 0.0000 35.3324 0.0000
# 6 0.0000 0.0000 0.0000 -1.7611 0.0000 21.9996
#
#
#
# Elastic Compliance Matrix: (Units=1/GPa)
#
#
# Indices 1 2 3 4 5 6 
#
# 1 0.013945 -0.004482 -0.000002 0.000000 0.003445 0.000000
# 2 -0.004482 0.011984 -0.003722 0.000000 -0.001582 0.000000
# 3 -0.000002 -0.003722 0.016089 0.000000 -0.000252 0.000000
# 4 0.000000 0.000000 0.000000 0.032993 0.000000 0.002641
# 5 0.003445 -0.001582 -0.000252 0.000000 0.029187 0.000000
# 6 0.000000 0.000000 0.000000 0.002641 0.000000 0.045667
#
#
# Mechanical properties :
#
#
# Convention : Reuss Voigt Hill
#
# Bulk Modulus (GPa) = 39.05258 42.63058 40.84158
# Shear Modulus (GPa) = 28.60199 30.30154 29.45177
#
# Velocity S-wave (km/s) = 3.60844 3.71410 3.66165
# Velocity P-wave (km/s) = 5.92785 6.14816 6.03901
#
# Compressibility (1/GPa) = 0.02560650
#
# Stress axis : x y z
#
# Youngs Moduli (GPa) = 71.70778 83.44525 62.15318
#
# Poissons Ratio (x) = 0.37404 0.00012
# Poissons Ratio (y) = 0.32143 0.23132
# Poissons Ratio (z) = 0.00013 0.31056
#
# Static dielectric constant tensor:
#      x y z
#    x 4.279610 0.000000 0.046350 
#    y 0.000000 3.924350 0.000000 
#    z 0.046350 0.000000 4.044630 
# 
# 
# High freq. dielectric constant tensor:
#      x y z
#    x 1.874340 0.000000 -0.003080 
#    y 0.000000 1.865420 0.000000 
#    z -0.003080 0.000000 1.876440 
# 
# From -- ./inp_files/46819.got.cif
#   From: 2010.06.25/outbox.cif.g09.slc.cpg/sg10_24_cif.got.tgz:46819.got - 2010.06.27 22:07:45.
