data_PCOD8066533
_publ_section_title
;
Structure prediction by ZEFSAII (Michael W. Deem and Ramdas Pophale) SiO2 
 PCOD8066533
Probable space group: P 2/M
;
_chemical_formula_sum "Si O2"
_cell_formula_units_Z 28
_cell_length_a 31.354457
_cell_length_b 8.563402
_cell_length_c 31.351390
_cell_angle_alpha 90.000000
_cell_angle_beta 9.468395
_cell_angle_gamma 90.000000
_cell_volume 1384.770012
_symmetry_space_group_name_H-M "P 2/M"
_symmetry_group_IT_number 10
_symmetry_cell_setting 'monoclinic'
loop_
_space_group_symop_operation_xyz
x,y,z
-x,y,-z
-x,-y,-z
x,-y,z
loop_
_atom_site_type_symbol
_atom_site_label
_atom_site_fract_x
_atom_site_fract_y
_atom_site_fract_z
Si Si1 0.764902 0.819394 0.262676
Si Si2 0.475964 0.313739 0.975729
Si Si3 0.048477 0.686041 0.549092
Si Si4 0.096348 0.684909 0.598014
Si Si5 0.306306 0.818473 0.855110
Si Si6 0.618802 0.816715 0.120838
Si Si7 0.215712 0.680303 0.665164
O O1 0.500000 0.781463 0.500000
O O2 0.785599 0.711623 0.283367
O O3 0.779626 0.000000 0.262241
O O4 0.000000 0.774884 0.000000
O O5 0.476179 0.500000 0.975956
O O6 0.713483 0.248818 0.713505
O O7 0.500000 0.248611 0.000000
O O8 0.213884 0.248791 0.213120
O O9 0.048316 0.500000 0.549135
O O10 0.072458 0.749819 0.573483
O O11 0.097276 0.500000 0.597101
O O12 0.357705 0.744724 0.360769
O O13 0.857804 0.743995 0.860521
O O14 0.359538 0.771824 0.851174
O O15 0.562931 0.783417 0.575050
O O16 0.237521 0.000000 0.917968
O O17 0.064633 0.719751 0.077078
O O18 0.615784 0.000000 0.116650
O O19 0.276738 0.500000 0.596244
#
# Coordination Sequence:
#
# PCOD8066533 Si02
#       7
#     4   4   4   4   4   4   4
#     4  10  21  38  61  87 118 160 203 238 282 346
#     4   9  15  24  40  64 100 143 180 219 273 336
#     4   9  17  28  43  69 104 140 179 223 279 340
#     4  11  22  37  59  85 117 154 189 236 296 354
#     4  11  24  43  64  85 117 160 199 238 290 353
#     4  11  24  41  61  86 116 152 197 245 288 341
#     4  12  25  40  63  95 126 154 193 249 300 343
#
# _framework density 20.219964000000001
#
# number of rings (size 3 to 8) (size 9 to 14) (size 15 to 20)
#    0.000    1.571    0.000    5.571    0.000   11.429 
#    0.000    0.000    0.000    0.000    0.000    0.000 
#    0.000   40.000    0.000    0.000    0.000    0.000 
#
# Total GULP energy -347342.588663 kJ/mol
# GULP energy per Si atom -12405.092452 kJ/mol
# Density = 2.017394 g / cm^3
# Si number density = 20.219964 Si / 1000 Ang^3
#
#
#
# Elastic Constant Matrix: (Units=GPa)
#
#
# Indices 1 2 3 4 5 6 
#
# 1 181.0378 40.8385 88.9780 0.0000 5.9808 0.0000
# 2 40.8385 48.5569 21.6242 0.0000 -1.8370 0.0000
# 3 88.9780 21.6242 189.0607 0.0000 2.8537 0.0000
# 4 0.0000 0.0000 0.0000 27.5441 0.0000 -7.7350
# 5 5.9808 -1.8370 2.8537 0.0000 41.6152 0.0000
# 6 0.0000 0.0000 0.0000 -7.7350 0.0000 -41.7390
#
#
#
# Elastic Compliance Matrix: (Units=1/GPa)
#
#
# Indices 1 2 3 4 5 6 
#
# 1 0.008484 -0.005703 -0.003322 0.000000 -0.001243 0.000000
# 2 -0.005703 0.025587 -0.000272 0.000000 0.001968 0.000000
# 3 -0.003322 -0.000272 0.006884 0.000000 -0.000007 0.000000
# 4 0.000000 0.000000 0.000000 0.034509 0.000000 -0.006395
# 5 -0.001243 0.001968 -0.000007 0.000000 0.024296 0.000000
# 6 0.000000 0.000000 0.000000 -0.006395 0.000000 -0.022773
#
#
# Mechanical properties :
#
#
# Convention : Reuss Voigt Hill
#
# Bulk Modulus (GPa) = 44.72197 80.17075 62.44636
# Shear Modulus (GPa) = 48.52795 23.29839 35.91317
#
# Velocity S-wave (km/s) = 4.90430 3.39816 4.21898
# Velocity P-wave (km/s) = 7.36446 7.42509 7.39484
#
# Compressibility (1/GPa) = 0.02236037
#
# Stress axis : x y z
#
# Youngs Moduli (GPa) = 117.87094 39.08306 145.26778
#
# Poissons Ratio (x) = 0.22289 0.48254
# Poissons Ratio (y) = 0.67222 0.03954
# Poissons Ratio (z) = 0.39153 0.01064
#
# Static dielectric constant tensor:
#      x y z
#    x 3.932970 0.000000 0.002880 
#    y 0.000000 3.405300 0.000000 
#    z 0.002880 0.000000 3.812740 
# 
# 
# High freq. dielectric constant tensor:
#      x y z
#    x 1.810370 0.000000 -0.000360 
#    y 0.000000 1.761220 0.000000 
#    z -0.000360 0.000000 1.811860 
# 
# From -- ./inp_files/96001.got.cif
#   From: 2010.06.25/outbox.cif.g09.slc.cpg/sg10_49_cif.got.tgz:96001.got - 2010.06.27 22:07:45.
