data_PCOD8066195
_publ_section_title
;
Structure prediction by ZEFSAII (Michael W. Deem and Ramdas Pophale) SiO2 
 PCOD8066195
Probable space group: P 2/M
;
_chemical_formula_sum "Si O2"
_cell_formula_units_Z 32
_cell_length_a 21.856876
_cell_length_b 9.055094
_cell_length_c 28.112655
_cell_angle_alpha 90.000000
_cell_angle_beta 18.082790
_cell_angle_gamma 90.000000
_cell_volume 1726.998283
_symmetry_space_group_name_H-M "P 2/M"
_symmetry_group_IT_number 10
_symmetry_cell_setting 'monoclinic'
loop_
_space_group_symop_operation_xyz
x,y,z
-x,y,-z
-x,-y,-z
x,-y,z
loop_
_atom_site_type_symbol
_atom_site_label
_atom_site_fract_x
_atom_site_fract_y
_atom_site_fract_z
Si Si1 0.305721 0.674145 0.780354
Si Si2 0.034247 0.325701 0.898568
Si Si3 0.919435 0.825506 0.790507
Si Si4 0.477574 0.174383 0.963815
Si Si5 0.132486 0.825323 0.063566
Si Si6 0.706165 0.670128 0.526390
Si Si7 0.544750 0.329531 0.749582
Si Si8 0.228911 0.172055 0.334381
O O1 0.307840 0.500000 0.785695
O O2 0.523744 0.735863 0.630036
O O3 0.234416 0.714526 0.779636
O O4 0.150273 0.733405 0.934064
O O5 0.021305 0.500000 0.898366
O O6 0.033551 0.239155 0.849222
O O7 0.101534 0.761987 0.627275
O O8 0.924753 0.000000 0.781961
O O9 0.718362 0.761325 0.916338
O O10 0.928968 0.775927 0.838231
O O11 0.667879 0.216171 0.791628
O O12 0.456543 0.000000 0.983585
O O13 0.500000 0.243959 0.000000
O O14 0.342954 0.759054 0.894647
O O15 0.144620 0.000000 0.049825
O O16 0.743337 0.500000 0.485848
O O17 0.663709 0.690764 0.613159
O O18 0.494674 0.500000 0.796239
O O19 0.680026 0.268145 0.691267
O O20 0.000000 0.210546 0.500000
O O21 0.265089 0.000000 0.319277
#
# Coordination Sequence:
#
# PCOD8066195 Si02
#       8
#     4   4   4   4   4   4   4   4
#     4   8  15  31  54  80 111 143 180 230 275 326
#     4   9  16  31  57  82 107 144 185 226 280 329
#     4  10  22  38  56  79 111 148 184 226 277 328
#     4   9  18  35  56  79 108 143 183 223 265 324
#     4  11  21  36  56  82 114 146 186 232 275 330
#     4  10  21  37  56  82 112 144 186 231 275 325
#     4  11  22  37  59  83 113 148 186 232 279 326
#     4  10  21  37  59  86 113 143 182 229 279 328
#
# _framework density 18.529259
#
# number of rings (size 3 to 8) (size 9 to 14) (size 15 to 20)
#    0.000    2.250    2.500    1.500    1.750    2.250 
#    0.000    2.500    0.000    4.500    0.000    0.000 
#    0.000    0.000    0.000    0.000    0.000    0.000 
#
# Total GULP energy -396771.727290 kJ/mol
# GULP energy per Si atom -12399.116478 kJ/mol
# Density = 1.848709 g / cm^3
# Si number density = 18.529259 Si / 1000 Ang^3
#
#
#
# Elastic Constant Matrix: (Units=GPa)
#
#
# Indices 1 2 3 4 5 6 
#
# 1 157.3580 40.2609 49.3295 0.0000 -1.5464 0.0000
# 2 40.2609 37.6075 17.0614 0.0000 4.9852 0.0000
# 3 49.3295 17.0614 99.2614 0.0000 0.6367 0.0000
# 4 0.0000 0.0000 0.0000 19.1231 0.0000 4.5335
# 5 -1.5464 4.9852 0.6367 0.0000 22.9397 0.0000
# 6 0.0000 0.0000 0.0000 4.5335 0.0000 28.9975
#
#
#
# Elastic Compliance Matrix: (Units=1/GPa)
#
#
# Indices 1 2 3 4 5 6 
#
# 1 0.009813 -0.009386 -0.003281 0.000000 0.002792 0.000000
# 2 -0.009386 0.038707 -0.001931 0.000000 -0.008991 0.000000
# 3 -0.003281 -0.001931 0.012038 0.000000 -0.000136 0.000000
# 4 0.000000 0.000000 0.000000 0.054306 0.000000 -0.008490
# 5 0.002792 -0.008991 -0.000136 0.000000 0.045738 0.000000
# 6 0.000000 0.000000 0.000000 -0.008490 0.000000 0.035813
#
#
# Mechanical properties :
#
#
# Convention : Reuss Voigt Hill
#
# Bulk Modulus (GPa) = 31.88696 56.39227 44.13962
# Shear Modulus (GPa) = 21.18072 26.71708 23.94890
#
# Velocity S-wave (km/s) = 3.38464 3.80134 3.59902
# Velocity P-wave (km/s) = 5.70269 7.05458 6.41435
#
# Compressibility (1/GPa) = 0.03136078
#
# Stress axis : x y z
#
# Youngs Moduli (GPa) = 101.91081 25.83523 83.07256
#
# Poissons Ratio (x) = 0.24250 0.27256
# Poissons Ratio (y) = 0.95658 0.16038
# Poissons Ratio (z) = 0.33437 0.04988
#
# Static dielectric constant tensor:
#      x y z
#    x 3.800790 0.000000 -0.155270 
#    y 0.000000 3.131960 0.000000 
#    z -0.155270 0.000000 3.402750 
# 
# 
# High freq. dielectric constant tensor:
#      x y z
#    x 1.736560 0.000000 -0.006550 
#    y 0.000000 1.689290 0.000000 
#    z -0.006550 0.000000 1.709990 
# 
# From -- ./inp_files/93650.got.cif
#   From: 2010.06.25/outbox.cif.g09.slc.cpg/sg10_47_cif.got.tgz:93650.got - 2010.06.27 22:07:45.
