data_PCOD8066236
_publ_section_title
;
Structure prediction by ZEFSAII (Michael W. Deem and Ramdas Pophale) SiO2 
 PCOD8066236
Probable space group: P 2/M
;
_chemical_formula_sum "Si O2"
_cell_formula_units_Z 28
_cell_length_a 5.099234
_cell_length_b 31.405394
_cell_length_c 9.609605
_cell_angle_alpha 90.000000
_cell_angle_beta 63.682781
_cell_angle_gamma 90.000000
_cell_volume 1379.411730
_symmetry_space_group_name_H-M "P 2/M"
_symmetry_group_IT_number 10
_symmetry_cell_setting 'monoclinic'
loop_
_space_group_symop_operation_xyz
x,y,z
-x,y,-z
-x,-y,-z
x,-y,z
loop_
_atom_site_type_symbol
_atom_site_label
_atom_site_fract_x
_atom_site_fract_y
_atom_site_fract_z
Si Si1 0.849991 0.951992 0.685295
Si Si2 0.314371 0.193957 0.683527
Si Si3 0.649006 0.098195 0.314990
Si Si4 0.153189 0.326191 0.317607
Si Si5 0.353546 0.620999 0.680182
Si Si6 0.693613 0.236347 0.818908
Si Si7 0.340448 0.452791 0.898804
O O1 0.540674 0.928237 0.750427
O O2 0.000000 0.952876 0.500000
O O3 0.040975 0.925444 0.749838
O O4 0.805637 0.000000 0.750558
O O5 0.500000 0.195399 0.500000
O O6 0.316088 0.146450 0.747035
O O7 0.472995 0.227375 0.745422
O O8 0.974637 0.205703 0.743134
O O9 0.500000 0.098480 0.500000
O O10 0.475767 0.343237 0.273332
O O11 0.186240 0.284327 0.216776
O O12 0.000000 0.314804 0.500000
O O13 0.973189 0.361355 0.270721
O O14 0.500000 0.610536 0.500000
O O15 0.380586 0.577513 0.758054
O O16 0.500000 0.228652 0.000000
O O17 0.469560 0.500000 0.834883
O O18 0.500000 0.434669 0.000000
O O19 0.000000 0.456389 0.000000
#
# Coordination Sequence:
#
# PCOD8066236 Si02
#       7
#     4   4   4   4   4   4   4
#     4   9  15  24  40  67 106 142 171 217 279 332
#     4  11  22  39  61  82 113 156 195 234 285 347
#     4   9  17  28  45  71 101 140 185 220 267 338
#     4  10  21  38  59  84 114 149 189 232 287 348
#     4  10  21  37  59  85 112 146 190 236 279 334
#     4  12  25  40  59  87 117 147 192 244 292 342
#     4  10  21  37  57  83 116 153 190 230 281 338
#
# _framework density 20.298508999999999
#
# number of rings (size 3 to 8) (size 9 to 14) (size 15 to 20)
#    0.000    1.857    0.000    4.714    0.000    7.143 
#    0.000    0.000    0.000    5.143    0.000    0.000 
#    0.000   40.000    0.000    0.000    0.000    0.000 
#
# Total GULP energy -347179.147558 kJ/mol
# GULP energy per Si atom -12399.255270 kJ/mol
# Density = 2.025231 g / cm^3
# Si number density = 20.298509 Si / 1000 Ang^3
#
#
#
# Elastic Constant Matrix: (Units=GPa)
#
#
# Indices 1 2 3 4 5 6 
#
# 1 135.2415 37.2719 31.2117 0.0000 8.3599 0.0000
# 2 37.2719 127.7822 42.6700 0.0000 7.8653 0.0000
# 3 31.2117 42.6700 61.7086 0.0000 -1.5113 0.0000
# 4 0.0000 0.0000 0.0000 2.7455 0.0000 1.3696
# 5 8.3599 7.8653 -1.5113 0.0000 24.6080 0.0000
# 6 0.0000 0.0000 0.0000 1.3696 0.0000 35.4472
#
#
#
# Elastic Compliance Matrix: (Units=1/GPa)
#
#
# Indices 1 2 3 4 5 6 
#
# 1 0.008737 -0.001138 -0.003702 0.000000 -0.002832 0.000000
# 2 -0.001138 0.010670 -0.006886 0.000000 -0.003446 0.000000
# 3 -0.003702 -0.006886 0.022958 0.000000 0.004869 0.000000
# 4 0.000000 0.000000 0.000000 0.371391 0.000000 -0.014350
# 5 -0.002832 -0.003446 0.004869 0.000000 0.043000 0.000000
# 6 0.000000 0.000000 0.000000 -0.014350 0.000000 0.028765
#
#
# Mechanical properties :
#
#
# Convention : Reuss Voigt Hill
#
# Bulk Modulus (GPa) = 52.87407 60.78218 56.82812
# Shear Modulus (GPa) = 9.70350 26.79873 18.25111
#
# Velocity S-wave (km/s) = 2.18878 3.63744 3.00181
# Velocity P-wave (km/s) = 5.70022 6.90293 6.33020
#
# Compressibility (1/GPa) = 0.01891286
#
# Stress axis : x y z
#
# Youngs Moduli (GPa) = 114.45389 93.72504 43.55689
#
# Poissons Ratio (x) = 0.10667 0.16123
# Poissons Ratio (y) = 0.13026 0.29995
# Poissons Ratio (z) = 0.42366 0.64543
#
# Static dielectric constant tensor:
#      x y z
#    x 3.921350 0.000000 -0.001360 
#    y 0.000000 3.884780 0.000000 
#    z -0.001360 0.000000 3.222180 
# 
# 
# High freq. dielectric constant tensor:
#      x y z
#    x 1.814090 0.000000 0.003020 
#    y 0.000000 1.804180 0.000000 
#    z 0.003020 0.000000 1.751510 
# 
# From -- ./inp_files/15878.got.cif
#   From: 2010.06.25/outbox.cif.g09.slc.cpg/sg10_8_cif.got.tgz:15878.got - 2010.06.27 22:07:45.
