data_PCOD8066722
_publ_section_title
;
Structure prediction by ZEFSAII (Michael W. Deem and Ramdas Pophale) SiO2 
 PCOD8066722
Probable space group: P 2/M
;
_chemical_formula_sum "Si O2"
_cell_formula_units_Z 20
_cell_length_a 14.775870
_cell_length_b 7.387129
_cell_length_c 8.788985
_cell_angle_alpha 90.000000
_cell_angle_beta 90.000000
_cell_angle_gamma 90.000000
_cell_volume 959.328767
_symmetry_space_group_name_H-M "P 2/M"
_symmetry_group_IT_number 10
_symmetry_cell_setting 'monoclinic'
loop_
_space_group_symop_operation_xyz
x,y,z
-x,y,-z
-x,-y,-z
x,-y,z
loop_
_atom_site_type_symbol
_atom_site_label
_atom_site_fract_x
_atom_site_fract_y
_atom_site_fract_z
Si Si1 0.401493 0.000000 0.070074
Si Si2 0.089645 0.714813 0.420707
Si Si3 0.725371 0.711118 0.072521
Si Si4 0.401493 0.000000 0.429926
Si Si5 0.725371 0.711118 0.427479
Si Si6 0.910355 0.714814 0.920706
O O1 0.408533 0.000000 0.250000
O O2 0.500000 0.000000 0.000000
O O3 0.351227 0.819054 0.016419
O O4 0.083658 0.500000 0.417486
O O5 0.176745 0.778154 0.515492
O O6 0.096814 0.792519 0.250000
O O7 0.000000 0.795505 0.500000
O O8 0.710682 0.500000 0.037357
O O9 0.718094 0.754378 0.250000
O O10 0.823256 0.778153 0.015492
O O11 0.500000 0.000000 0.500000
O O12 0.351227 0.819054 0.483581
O O13 0.710682 0.500000 0.462644
O O14 0.916345 0.500000 0.917480
O O15 0.000000 0.795507 0.000000
#
# Coordination Sequence:
#
# PCOD8066722 Si02
#       6
#     2   4   4   2   4   4
#     4  12  26  44  65  88 117 152 194 246 300 354
#     4   9  16  28  50  82 119 158 198 238 284 341
#     4  10  21  39  63  90 121 157 197 242 293 350
#     4  12  26  44  65  88 117 152 194 246 300 354
#     4  10  21  39  63  90 121 157 197 242 293 350
#     4   9  16  28  50  82 119 158 198 238 284 341
#
# _framework density 20.847909000000001
#
# number of rings (size 3 to 8) (size 9 to 14) (size 15 to 20)
#    0.000    2.000    0.000    4.200    0.000    8.000 
#    0.000    1.000    0.000    0.000    0.000    0.000 
#    0.000    0.000    0.000    0.000    0.000    0.000 
#
# Total GULP energy -248056.485247 kJ/mol
# GULP energy per Si atom -12402.824262 kJ/mol
# Density = 2.080046 g / cm^3
# Si number density = 20.847909 Si / 1000 Ang^3
#
#
#
# Elastic Constant Matrix: (Units=GPa)
#
#
# Indices 1 2 3 4 5 6 
#
# 1 202.9114 58.4274 96.7620 0.0000 0.0001 0.0000
# 2 58.4274 75.0252 50.1936 0.0000 0.0000 0.0000
# 3 96.7620 50.1936 193.9846 0.0000 0.0001 0.0000
# 4 0.0000 0.0000 0.0000 24.2532 0.0000 0.0000
# 5 0.0001 0.0000 0.0001 0.0000 46.2875 0.0000
# 6 0.0000 0.0000 0.0000 0.0000 0.0000 36.5119
#
#
#
# Elastic Compliance Matrix: (Units=1/GPa)
#
#
# Indices 1 2 3 4 5 6 
#
# 1 0.007317 -0.003938 -0.002631 0.000000 0.000000 0.000000
# 2 -0.003938 0.018239 -0.002755 0.000000 0.000000 0.000000
# 3 -0.002631 -0.002755 0.007180 0.000000 0.000000 0.000000
# 4 0.000000 0.000000 0.000000 0.041232 0.000000 0.000000
# 5 0.000000 0.000000 0.000000 0.000000 0.021604 0.000000
# 6 0.000000 0.000000 0.000000 0.000000 0.000000 0.027388
#
#
# Mechanical properties :
#
#
# Convention : Reuss Voigt Hill
#
# Bulk Modulus (GPa) = 70.98110 98.07635 84.52872
# Shear Modulus (GPa) = 34.17561 39.17974 36.67767
#
# Velocity S-wave (km/s) = 4.05320 4.33981 4.19895
# Velocity P-wave (km/s) = 7.48502 8.50046 8.00885
#
# Compressibility (1/GPa) = 0.01408826
#
# Stress axis : x y z
#
# Youngs Moduli (GPa) = 136.67382 54.82812 139.27349
#
# Poissons Ratio (x) = 0.21592 0.36639
# Poissons Ratio (y) = 0.53823 0.38369
# Poissons Ratio (z) = 0.35955 0.15105
#
# Static dielectric constant tensor:
#      x y z
#    x 3.802600 0.000000 -0.000020 
#    y 0.000000 3.570380 0.000000 
#    z -0.000020 0.000000 4.155250 
# 
# 
# High freq. dielectric constant tensor:
#      x y z
#    x 1.819340 0.000000 0.000000 
#    y 0.000000 1.807200 0.000000 
#    z 0.000000 0.000000 1.833240 
# 
# From -- ./inp_files/26811.got.cif
#   From: 2010.06.25/outbox.cif.g09.slc.cpg/sg10_14_cif.got.tgz:26811.got - 2010.06.27 22:07:45.
