data_PCOD8066483
_publ_section_title
;
Structure prediction by ZEFSAII (Michael W. Deem and Ramdas Pophale) SiO2 
 PCOD8066483
Probable space group: P 2/M
;
_chemical_formula_sum "Si O2"
_cell_formula_units_Z 28
_cell_length_a 28.516906
_cell_length_b 9.040386
_cell_length_c 8.896430
_cell_angle_alpha 90.000000
_cell_angle_beta 141.096400
_cell_angle_gamma 90.000000
_cell_volume 1440.366643
_symmetry_space_group_name_H-M "P 2/M"
_symmetry_group_IT_number 10
_symmetry_cell_setting 'monoclinic'
loop_
_space_group_symop_operation_xyz
x,y,z
-x,y,-z
-x,-y,-z
x,-y,z
loop_
_atom_site_type_symbol
_atom_site_label
_atom_site_fract_x
_atom_site_fract_y
_atom_site_fract_z
Si Si1 0.004488 0.171561 0.838024
Si Si2 0.710390 0.672387 0.448262
Si Si3 0.852682 0.172502 0.289011
Si Si4 0.426027 0.174854 0.730687
Si Si5 0.278470 0.330050 0.870905
Si Si6 0.569838 0.329583 0.574389
Si Si7 0.861111 0.674131 0.991221
O O1 0.925997 0.209261 0.566808
O O2 0.025711 0.000000 0.872405
O O3 0.000000 0.218020 0.000000
O O4 0.066771 0.268375 0.914329
O O5 0.693903 0.500000 0.432265
O O6 0.645614 0.763425 0.364201
O O7 0.712604 0.714478 0.279595
O O8 0.788446 0.720132 0.716122
O O9 0.782050 0.223625 0.207760
O O10 0.845453 0.000000 0.236384
O O11 0.855919 0.257744 0.141914
O O12 0.427642 0.229160 0.564947
O O13 0.420966 0.000000 0.718362
O O14 0.500000 0.231435 0.000000
O O15 0.252424 0.500000 0.822774
O O16 0.356533 0.302091 0.145854
O O17 0.500000 0.279473 0.500000
O O18 0.562142 0.500000 0.505544
O O19 0.867775 0.500000 0.025213
#
# Coordination Sequence:
#
# PCOD8066483 Si02
#       7
#     4   4   4   4   4   4   4
#     4  10  22  40  60  83 113 150 191 233 281 339
#     4  10  22  40  61  85 114 150 190 232 281 337
#     4  11  23  38  58  84 115 152 190 230 282 340
#     4  11  24  39  57  85 118 151 189 233 280 332
#     4  10  21  38  60  86 114 145 188 238 283 332
#     4  10  21  38  61  86 112 148 191 233 282 338
#     4  11  23  38  59  87 116 148 189 235 281 332
#
# _framework density 19.439494
#
# number of rings (size 3 to 8) (size 9 to 14) (size 15 to 20)
#    0.000    1.571    0.000    4.286    0.000   11.429 
#    0.000    0.000    0.000    0.000    0.000    0.000 
#    0.000    0.000    0.000    0.000    0.000    0.000 
#
# Total GULP energy -347378.466331 kJ/mol
# GULP energy per Si atom -12406.373798 kJ/mol
# Density = 1.939525 g / cm^3
# Si number density = 19.439494 Si / 1000 Ang^3
#
#
#
# Elastic Constant Matrix: (Units=GPa)
#
#
# Indices 1 2 3 4 5 6 
#
# 1 145.8962 49.4818 66.6281 0.0000 5.3062 0.0000
# 2 49.4818 52.3945 38.9436 0.0000 9.3479 0.0000
# 3 66.6281 38.9436 118.2707 0.0000 -0.2865 0.0000
# 4 0.0000 0.0000 0.0000 31.8042 0.0000 1.7690
# 5 5.3062 9.3479 -0.2865 0.0000 42.1166 0.0000
# 6 0.0000 0.0000 0.0000 1.7690 0.0000 45.3165
#
#
#
# Elastic Compliance Matrix: (Units=1/GPa)
#
#
# Indices 1 2 3 4 5 6 
#
# 1 0.011216 -0.007881 -0.003723 0.000000 0.000311 0.000000
# 2 -0.007881 0.032236 -0.006190 0.000000 -0.006204 0.000000
# 3 -0.003723 -0.006190 0.012595 0.000000 0.001929 0.000000
# 4 0.000000 0.000000 0.000000 0.031511 0.000000 -0.001230
# 5 0.000311 -0.006204 0.001929 0.000000 0.025095 0.000000
# 6 0.000000 0.000000 0.000000 -0.001230 0.000000 0.022115
#
#
# Mechanical properties :
#
#
# Convention : Reuss Voigt Hill
#
# Bulk Modulus (GPa) = 48.87479 69.62983 59.25231
# Shear Modulus (GPa) = 28.22063 34.61463 31.41763
#
# Velocity S-wave (km/s) = 3.81427 4.22433 4.02453
# Velocity P-wave (km/s) = 6.67794 7.72592 7.22096
#
# Compressibility (1/GPa) = 0.02046045
#
# Stress axis : x y z
#
# Youngs Moduli (GPa) = 89.15987 31.02083 79.39449
#
# Poissons Ratio (x) = 0.24447 0.29557
# Poissons Ratio (y) = 0.70264 0.49146
# Poissons Ratio (z) = 0.33192 0.19202
#
# Static dielectric constant tensor:
#      x y z
#    x 3.938990 0.000000 -0.039320 
#    y 0.000000 3.544020 0.000000 
#    z -0.039320 0.000000 3.838560 
# 
# 
# High freq. dielectric constant tensor:
#      x y z
#    x 1.774440 0.000000 -0.001630 
#    y 0.000000 1.756820 0.000000 
#    z -0.001630 0.000000 1.779090 
# 
# From -- ./inp_files/34296.got.cif
#   From: 2010.06.25/outbox.cif.g09.slc.cpg/sg10_18_cif.got.tgz:34296.got - 2010.06.27 22:07:45.
