data_PCOD8066325
_publ_section_title
;
Structure prediction by ZEFSAII (Michael W. Deem and Ramdas Pophale) SiO2 
 PCOD8066325
Probable space group: P 2/M
;
_chemical_formula_sum "Si O2"
_cell_formula_units_Z 24
_cell_length_a 15.065987
_cell_length_b 15.122466
_cell_length_c 9.459678
_cell_angle_alpha 90.000000
_cell_angle_beta 143.848762
_cell_angle_gamma 90.000000
_cell_volume 1271.419038
_symmetry_space_group_name_H-M "P 2/M"
_symmetry_group_IT_number 10
_symmetry_cell_setting 'monoclinic'
loop_
_space_group_symop_operation_xyz
x,y,z
-x,y,-z
-x,-y,-z
x,-y,z
loop_
_atom_site_type_symbol
_atom_site_label
_atom_site_fract_x
_atom_site_fract_y
_atom_site_fract_z
Si Si1 0.167886 0.000000 0.100531
Si Si2 0.138433 0.000000 0.399990
Si Si3 0.348432 0.645141 0.397057
Si Si4 0.353962 0.161368 0.398924
Si Si5 0.880235 0.500000 0.967196
Si Si6 0.643813 0.151628 0.277879
Si Si7 0.892241 0.500000 0.495450
Si Si8 0.346997 0.642922 0.722717
O O1 0.259773 0.910506 0.191738
O O2 0.131344 0.000000 0.219917
O O3 0.041844 0.000000 0.813542
O O4 0.214357 0.086664 0.568096
O O5 0.500000 0.635295 0.500000
O O6 0.274060 0.743020 0.300352
O O7 0.223062 0.585688 0.165897
O O8 0.374620 0.616955 0.594330
O O9 0.500000 0.179469 0.500000
O O10 0.399877 0.132691 0.615881
O O11 0.000000 0.500000 0.000000
O O12 0.974286 0.500000 0.225917
O O13 0.691164 0.252765 0.308633
O O14 0.500000 0.123631 0.000000
O O15 0.788210 0.587236 0.380533
O O16 0.000000 0.500000 0.500000
O O17 0.500000 0.619033 0.000000
#
# Coordination Sequence:
#
# PCOD8066325 Si02
#       8
#     2   2   4   4   2   4   2   4
#     4   9  17  30  49  81 112 145 170 226 267 318
#     4   9  17  30  51  81 110 139 186 214 270 321
#     4  10  21  37  60  85 110 147 189 231 274 327
#     4   9  18  33  54  82 107 139 184 222 267 315
#     4  12  23  40  56  82 115 144 180 230 284 332
#     4   9  18  33  57  79 105 143 183 225 261 318
#     4  12  27  40  56  84 113 148 184 227 286 338
#     4  10  21  39  59  82 112 149 189 228 275 331
#
# _framework density 18.876546000000001
#
# number of rings (size 3 to 8) (size 9 to 14) (size 15 to 20)
#    0.000    2.167    1.667    1.000    2.333    1.333 
#    3.000    0.000    0.000    1.000    0.000    0.000 
#    0.000    0.000    0.000    0.000    0.000    0.000 
#
# Total GULP energy -297334.800392 kJ/mol
# GULP energy per Si atom -12388.950016 kJ/mol
# Density = 1.883358 g / cm^3
# Si number density = 18.876546 Si / 1000 Ang^3
#
#
#
# Elastic Constant Matrix: (Units=GPa)
#
#
# Indices 1 2 3 4 5 6 
#
# 1 95.7064 40.1734 40.6118 0.0000 1.5906 0.0000
# 2 40.1734 133.0830 83.6647 0.0000 14.6611 0.0000
# 3 40.6118 83.6647 167.0741 0.0000 12.1756 0.0000
# 4 0.0000 0.0000 0.0000 16.8310 0.0000 4.4649
# 5 1.5906 14.6611 12.1756 0.0000 22.1296 0.0000
# 6 0.0000 0.0000 0.0000 4.4649 0.0000 23.1306
#
#
#
# Elastic Compliance Matrix: (Units=1/GPa)
#
#
# Indices 1 2 3 4 5 6 
#
# 1 0.012344 -0.002869 -0.001706 0.000000 0.001952 0.000000
# 2 -0.002869 0.012065 -0.004976 0.000000 -0.005049 0.000000
# 3 -0.001706 -0.004976 0.009004 0.000000 -0.001534 0.000000
# 4 0.000000 0.000000 0.000000 0.062621 0.000000 -0.012088
# 5 0.001952 -0.005049 -0.001534 0.000000 0.049237 0.000000
# 6 0.000000 0.000000 0.000000 -0.012088 0.000000 0.045566
#
#
# Mechanical properties :
#
#
# Convention : Reuss Voigt Hill
#
# Bulk Modulus (GPa) = 69.87973 80.52924 75.20449
# Shear Modulus (GPa) = 23.28721 27.84581 25.56651
#
# Velocity S-wave (km/s) = 3.51616 3.84494 3.68422
# Velocity P-wave (km/s) = 7.32012 7.90348 7.61739
#
# Compressibility (1/GPa) = 0.01431030
#
# Stress axis : x y z
#
# Youngs Moduli (GPa) = 81.00835 82.88624 111.06259
#
# Poissons Ratio (x) = 0.23778 0.18951
# Poissons Ratio (y) = 0.23239 0.55268
# Poissons Ratio (z) = 0.13823 0.41247
#
# Static dielectric constant tensor:
#      x y z
#    x 3.333790 0.000000 0.051250 
#    y 0.000000 3.799670 0.000000 
#    z 0.051250 0.000000 3.568130 
# 
# 
# High freq. dielectric constant tensor:
#      x y z
#    x 1.711140 0.000000 -0.001090 
#    y 0.000000 1.751630 0.000000 
#    z -0.001090 0.000000 1.735730 
# 
# From -- ./inp_files/29753.got.cif
#   From: 2010.06.25/outbox.cif.g09.slc.cpg/sg10_15_cif.got.tgz:29753.got - 2010.06.27 22:07:45.
