data_PCOD8066978
_publ_section_title
;
Structure prediction by ZEFSAII (Michael W. Deem and Ramdas Pophale) SiO2 
 PCOD8066978
Probable space group: P 2/M
;
_chemical_formula_sum "Si O2"
_cell_formula_units_Z 28
_cell_length_a 29.203008
_cell_length_b 8.771120
_cell_length_c 9.229106
_cell_angle_alpha 90.000000
_cell_angle_beta 142.253657
_cell_angle_gamma 90.000000
_cell_volume 1447.145022
_symmetry_space_group_name_H-M "P 2/M"
_symmetry_group_IT_number 10
_symmetry_cell_setting 'monoclinic'
loop_
_space_group_symop_operation_xyz
x,y,z
-x,y,-z
-x,-y,-z
x,-y,z
loop_
_atom_site_type_symbol
_atom_site_label
_atom_site_fract_x
_atom_site_fract_y
_atom_site_fract_z
Si Si1 0.356680 0.678386 0.807755
Si Si2 0.227906 0.820933 0.659881
Si Si3 0.626691 0.677210 0.483886
Si Si4 0.231473 0.678855 0.973642
Si Si5 0.492337 0.822269 0.312956
Si Si6 0.068618 0.672723 0.589101
Si Si7 0.928501 0.326422 0.738946
O O1 0.341656 0.500000 0.785514
O O2 0.282632 0.766225 0.670296
O O3 0.374676 0.722772 0.687451
O O4 0.425794 0.723822 0.080701
O O5 0.255604 0.753258 0.882315
O O6 0.144608 0.771138 0.407839
O O7 0.231710 0.000000 0.682406
O O8 0.605561 0.500000 0.453280
O O9 0.568524 0.782353 0.421904
O O10 0.708492 0.713397 0.752441
O O11 0.222463 0.500000 0.918438
O O12 0.150818 0.746178 0.824168
O O13 0.500000 0.778472 0.500000
O O14 0.474249 0.000000 0.247485
O O15 0.071757 0.500000 0.655178
O O16 0.050668 0.681518 0.376066
O O17 0.000000 0.758390 0.500000
O O18 0.913277 0.500000 0.750889
O O19 0.000000 0.256557 0.000000
#
# Coordination Sequence:
#
# PCOD8066978 Si02
#       7
#     4   4   4   4   4   4   4
#     4  11  23  39  59  84 113 143 182 229 275 324
#     4  11  22  36  55  80 112 149 187 225 272 329
#     4  10  22  38  58  84 111 142 182 230 278 323
#     4   9  18  35  57  80 108 143 184 228 274 325
#     4  11  24  40  59  84 113 146 183 221 268 328
#     4   8  14  26  48  77 104 132 171 220 269 315
#     4   9  18  33  54  78 105 141 185 230 274 321
#
# _framework density 19.348441999999999
#
# number of rings (size 3 to 8) (size 9 to 14) (size 15 to 20)
#    0.000    2.143    0.000    4.286    0.000    8.286 
#    0.000    4.286    0.000    6.857    0.000    0.000 
#    0.000    0.000    0.000    0.000    0.000    0.000 
#
# Total GULP energy -347222.218431 kJ/mol
# GULP energy per Si atom -12400.793515 kJ/mol
# Density = 1.930440 g / cm^3
# Si number density = 19.348442 Si / 1000 Ang^3
#
#
#
# Elastic Constant Matrix: (Units=GPa)
#
#
# Indices 1 2 3 4 5 6 
#
# 1 124.6449 35.0578 50.1313 0.0000 11.1729 0.0000
# 2 35.0578 63.5114 33.3829 0.0000 0.2004 0.0000
# 3 50.1313 33.3829 127.3178 0.0000 -0.9545 0.0000
# 4 0.0000 0.0000 0.0000 12.0175 0.0000 -2.1338
# 5 11.1729 0.2004 -0.9545 0.0000 26.0488 0.0000
# 6 0.0000 0.0000 0.0000 -2.1338 0.0000 14.1878
#
#
#
# Elastic Compliance Matrix: (Units=1/GPa)
#
#
# Indices 1 2 3 4 5 6 
#
# 1 0.010968 -0.004350 -0.003214 0.000000 -0.004789 0.000000
# 2 -0.004350 0.019990 -0.003517 0.000000 0.001583 0.000000
# 3 -0.003214 -0.003517 0.010055 0.000000 0.001774 0.000000
# 4 0.000000 0.000000 0.000000 0.085495 0.000000 0.012858
# 5 -0.004789 0.001583 0.001774 0.000000 0.040496 0.000000
# 6 0.000000 0.000000 0.000000 0.012858 0.000000 0.072417
#
#
# Mechanical properties :
#
#
# Convention : Reuss Voigt Hill
#
# Bulk Modulus (GPa) = 53.04497 61.40200 57.22348
# Shear Modulus (GPa) = 18.66598 23.57762 21.12180
#
# Velocity S-wave (km/s) = 3.10938 3.49460 3.30760
# Velocity P-wave (km/s) = 6.35343 6.93446 6.65030
#
# Compressibility (1/GPa) = 0.01885193
#
# Stress axis : x y z
#
# Youngs Moduli (GPa) = 91.17282 50.02559 99.45009
#
# Poissons Ratio (x) = 0.21760 0.31964
# Poissons Ratio (y) = 0.39659 0.34974
# Poissons Ratio (z) = 0.29304 0.17593
#
# Static dielectric constant tensor:
#      x y z
#    x 3.678410 0.000000 0.138620 
#    y 0.000000 3.324790 0.000000 
#    z 0.138620 0.000000 3.685870 
# 
# 
# High freq. dielectric constant tensor:
#      x y z
#    x 1.759770 0.000000 0.009120 
#    y 0.000000 1.729460 0.000000 
#    z 0.009120 0.000000 1.764020 
# 
# From -- ./inp_files/37036.got.cif
#   From: 2010.06.25/outbox.cif.g09.slc.cpg/sg10_19_cif.got.tgz:37036.got - 2010.06.27 22:07:45.
