data_PCOD8066046
_publ_section_title
;
Structure prediction by ZEFSAII (Michael W. Deem and Ramdas Pophale) SiO2 
 PCOD8066046
Probable space group: P 2/M
;
_chemical_formula_sum "Si O2"
_cell_formula_units_Z 32
_cell_length_a 9.403614
_cell_length_b 13.893934
_cell_length_c 21.952215
_cell_angle_alpha 90.000000
_cell_angle_beta 138.665402
_cell_angle_gamma 90.000000
_cell_volume 1894.269363
_symmetry_space_group_name_H-M "P 2/M"
_symmetry_group_IT_number 10
_symmetry_cell_setting 'monoclinic'
loop_
_space_group_symop_operation_xyz
x,y,z
-x,y,-z
-x,-y,-z
x,-y,z
loop_
_atom_site_type_symbol
_atom_site_label
_atom_site_fract_x
_atom_site_fract_y
_atom_site_fract_z
Si Si1 0.535159 0.298609 0.750025
Si Si2 0.305634 0.107977 0.148230
Si Si3 0.271902 0.297434 0.950678
Si Si4 0.752569 0.604373 0.933306
Si Si5 0.186896 0.107411 0.975965
Si Si6 0.260555 0.612973 0.416125
Si Si7 0.851656 0.613788 0.757149
Si Si8 0.920346 0.389657 0.405907
O O1 0.551989 0.184659 0.768799
O O2 0.634334 0.359339 0.836052
O O3 0.661142 0.328548 0.729272
O O4 0.285543 0.322036 0.664963
O O5 0.060074 0.125316 0.087221
O O6 0.380130 0.000000 0.190367
O O7 0.328722 0.122053 0.082816
O O8 0.250017 0.181331 0.942141
O O9 0.085091 0.351630 0.854316
O O10 0.500000 0.333174 0.000000
O O11 0.271764 0.319521 0.021663
O O12 0.655906 0.500000 0.920647
O O13 0.000000 0.591867 0.000000
O O14 0.222459 0.000000 0.961546
O O15 0.500000 0.658985 0.500000
O O16 0.281895 0.500000 0.432575
O O17 0.163549 0.638268 0.319042
O O18 0.100982 0.651889 0.417521
O O19 0.825776 0.500000 0.761667
O O20 0.860723 0.500000 0.370084
O O21 0.000000 0.383027 0.500000
#
# Coordination Sequence:
#
# PCOD8066046 Si02
#       8
#     4   4   4   4   4   4   4   4
#     4  12  20  33  56  78 105 134 179 221 264 312
#     4   9  17  31  56  79  98 131 178 227 270 310
#     4  12  24  34  47  73 110 146 181 217 263 313
#     4  11  21  34  50  71 105 149 184 212 247 308
#     4   9  17  34  53  72  99 136 183 230 270 306
#     4   9  19  36  54  73 104 139 173 213 258 306
#     4  11  22  34  49  73 105 145 177 210 260 315
#     4  10  21  36  56  82 107 136 177 221 260 305
#
# _framework density 16.893056999999999
#
# number of rings (size 3 to 8) (size 9 to 14) (size 15 to 20)
#    0.000    1.625    3.750    3.000    1.750    3.250 
#    0.000    0.000    0.000    0.375    0.000    0.000 
#    0.000    3.500    0.000    0.000    0.000    0.000 
#
# Total GULP energy -396735.234092 kJ/mol
# GULP energy per Si atom -12397.976065 kJ/mol
# Density = 1.685461 g / cm^3
# Si number density = 16.893057 Si / 1000 Ang^3
#
#
#
# Elastic Constant Matrix: (Units=GPa)
#
#
# Indices 1 2 3 4 5 6 
#
# 1 100.0448 27.3489 49.9207 0.0000 8.4281 0.0000
# 2 27.3489 99.1138 33.9737 0.0000 3.2671 0.0000
# 3 49.9207 33.9737 72.6773 0.0000 4.4841 0.0000
# 4 0.0000 0.0000 0.0000 17.4099 0.0000 1.2549
# 5 8.4281 3.2671 4.4841 0.0000 27.4579 0.0000
# 6 0.0000 0.0000 0.0000 1.2549 0.0000 31.2138
#
#
#
# Elastic Compliance Matrix: (Units=1/GPa)
#
#
# Indices 1 2 3 4 5 6 
#
# 1 0.015496 -0.000705 -0.010129 0.000000 -0.003019 0.000000
# 2 -0.000705 0.012054 -0.005127 0.000000 -0.000381 0.000000
# 3 -0.010129 -0.005127 0.023117 0.000000 -0.000056 0.000000
# 4 0.000000 0.000000 0.000000 0.057606 0.000000 -0.002316
# 5 -0.003019 -0.000381 -0.000056 0.000000 0.037400 0.000000
# 6 0.000000 0.000000 0.000000 -0.002316 0.000000 0.032130
#
#
# Mechanical properties :
#
#
# Convention : Reuss Voigt Hill
#
# Bulk Modulus (GPa) = 53.34399 54.92472 54.13436
# Shear Modulus (GPa) = 23.15104 25.92248 24.53676
#
# Velocity S-wave (km/s) = 3.70597 3.92153 3.81527
# Velocity P-wave (km/s) = 7.06812 7.28617 7.17797
#
# Compressibility (1/GPa) = 0.01874625
#
# Stress axis : x y z
#
# Youngs Moduli (GPa) = 64.53091 82.96083 43.25859
#
# Poissons Ratio (x) = 0.05846 0.43815
# Poissons Ratio (y) = 0.04547 0.22180
# Poissons Ratio (z) = 0.65361 0.42536
#
# Static dielectric constant tensor:
#      x y z
#    x 3.188680 0.000000 -0.035100 
#    y 0.000000 3.230520 0.000000 
#    z -0.035100 0.000000 2.990530 
# 
# 
# High freq. dielectric constant tensor:
#      x y z
#    x 1.649790 0.000000 -0.002400 
#    y 0.000000 1.636790 0.000000 
#    z -0.002400 0.000000 1.637500 
# 
# From -- ./inp_files/29134.got.cif
#   From: 2010.06.25/outbox.cif.g09.slc.cpg/sg10_15_cif.got.tgz:29134.got - 2010.06.27 22:07:45.
