data_PCOD8066772
_publ_section_title
;
Structure prediction by ZEFSAII (Michael W. Deem and Ramdas Pophale) SiO2 
 PCOD8066772
Probable space group: P 2/M
;
_chemical_formula_sum "Si O2"
_cell_formula_units_Z 18
_cell_length_a 17.912114
_cell_length_b 8.468921
_cell_length_c 18.433331
_cell_angle_alpha 90.000000
_cell_angle_beta 16.110832
_cell_angle_gamma 90.000000
_cell_volume 775.953909
_symmetry_space_group_name_H-M "P 2/M"
_symmetry_group_IT_number 10
_symmetry_cell_setting 'monoclinic'
loop_
_space_group_symop_operation_xyz
x,y,z
-x,y,-z
-x,-y,-z
x,-y,z
loop_
_atom_site_type_symbol
_atom_site_label
_atom_site_fract_x
_atom_site_fract_y
_atom_site_fract_z
Si Si1 0.655101 0.825529 0.930423
Si Si2 0.999037 0.317309 0.793577
Si Si3 0.794828 0.183974 0.252523
Si Si4 0.565868 0.177541 0.710571
Si Si5 0.797185 0.500000 0.754355
O O1 0.839740 0.665217 0.760033
O O2 0.805423 0.000000 0.798705
O O3 0.500000 0.829486 0.000000
O O4 0.441991 0.807774 0.194804
O O5 0.978238 0.500000 0.801785
O O6 0.159936 0.277940 0.716001
O O7 0.157001 0.251884 0.576140
O O8 0.697475 0.253041 0.079553
O O9 0.500000 0.224044 0.500000
O O10 0.836178 0.000000 0.230303
O O11 0.000000 0.244387 0.000000
O O12 0.565259 0.000000 0.683481
O O13 0.000000 0.500000 0.500000
O O14 0.500000 0.500000 0.000000
#
# Coordination Sequence:
#
# PCOD8066772 Si02
#       5
#     4   4   4   4   2
#     4   9  21  42  67  95 128 172 226 278 333 398
#     4  12  26  42  66 100 137 172 215 275 332 393
#     4  10  21  39  65  94 127 170 216 262 317 391
#     4  11  24  44  68  93 131 180 223 273 331 399
#     4  10  22  38  60  90 122 160 202 266 330 380
#
# _framework density 23.197254999999998
#
# number of rings (size 3 to 8) (size 9 to 14) (size 15 to 20)
#    0.000    1.556    0.000    4.000    3.111    6.667 
#    0.000    6.667    0.000    0.000    0.000    0.000 
#    0.000    0.000    0.000    0.000    0.000    0.000 
#
# Total GULP energy -223135.059725 kJ/mol
# GULP energy per Si atom -12396.392207 kJ/mol
# Density = 2.314446 g / cm^3
# Si number density = 23.197255 Si / 1000 Ang^3
#
#
#
# Elastic Constant Matrix: (Units=GPa)
#
#
# Indices 1 2 3 4 5 6 
#
# 1 83.1591 19.5933 6.4563 0.0000 12.3310 0.0000
# 2 19.5933 206.3420 33.1382 0.0000 17.7746 0.0000
# 3 6.4563 33.1382 114.8629 0.0000 11.8731 0.0000
# 4 0.0000 0.0000 0.0000 47.2476 0.0000 -25.7485
# 5 12.3310 17.7746 11.8731 0.0000 39.7623 0.0000
# 6 0.0000 0.0000 0.0000 -25.7485 0.0000 97.1169
#
#
#
# Elastic Compliance Matrix: (Units=1/GPa)
#
#
# Indices 1 2 3 4 5 6 
#
# 1 0.012767 -0.000893 -0.000095 0.000000 -0.003532 0.000000
# 2 -0.000893 0.005286 -0.001299 0.000000 -0.001698 0.000000
# 3 -0.000095 -0.001299 0.009311 0.000000 -0.002170 0.000000
# 4 0.000000 0.000000 0.000000 0.024740 0.000000 0.006559
# 5 -0.003532 -0.001698 -0.002170 0.000000 0.027652 0.000000
# 6 0.000000 0.000000 0.000000 0.006559 0.000000 0.012036
#
#
# Mechanical properties :
#
#
# Convention : Reuss Voigt Hill
#
# Bulk Modulus (GPa) = 43.88086 58.08221 50.98153
# Shear Modulus (GPa) = 48.09502 59.83710 53.96606
#
# Velocity S-wave (km/s) = 4.55830 5.08438 4.82851
# Velocity P-wave (km/s) = 6.83093 7.71755 7.28774
#
# Compressibility (1/GPa) = 0.02278898
#
# Stress axis : x y z
#
# Youngs Moduli (GPa) = 78.32973 189.17729 107.40533
#
# Poissons Ratio (x) = 0.16889 0.01020
# Poissons Ratio (y) = 0.06993 0.13955
# Poissons Ratio (z) = 0.00744 0.24580
#
# Static dielectric constant tensor:
#      x y z
#    x 4.041610 0.000000 0.211730 
#    y 0.000000 5.291130 0.000000 
#    z 0.211730 0.000000 4.014740 
# 
# 
# High freq. dielectric constant tensor:
#      x y z
#    x 1.921290 0.000000 0.012530 
#    y 0.000000 1.935130 0.000000 
#    z 0.012530 0.000000 1.910970 
# 
# From -- ./inp_files/10623.got.cif
#   From: 2010.06.25/outbox.cif.g09.slc.cpg/sg10_6_cif.got.tgz:10623.got - 2010.06.27 22:07:45.
