data_PCOD8066677
_publ_section_title
;
Structure prediction by ZEFSAII (Michael W. Deem and Ramdas Pophale) SiO2 
 PCOD8066677
Probable space group: P 2/M
;
_chemical_formula_sum "Si O2"
_cell_formula_units_Z 26
_cell_length_a 15.616632
_cell_length_b 15.749833
_cell_length_c 9.047995
_cell_angle_alpha 90.000000
_cell_angle_beta 145.167685
_cell_angle_gamma 90.000000
_cell_volume 1271.118660
_symmetry_space_group_name_H-M "P 2/M"
_symmetry_group_IT_number 10
_symmetry_cell_setting 'monoclinic'
loop_
_space_group_symop_operation_xyz
x,y,z
-x,y,-z
-x,-y,-z
x,-y,z
loop_
_atom_site_type_symbol
_atom_site_label
_atom_site_fract_x
_atom_site_fract_y
_atom_site_fract_z
Si Si1 0.178074 0.849870 0.758804
Si Si2 0.359393 0.293442 0.891088
Si Si3 0.180263 0.000000 0.264061
Si Si4 0.786561 0.597467 0.550817
Si Si5 0.000000 0.283217 0.000000
Si Si6 0.323023 0.000000 0.786557
Si Si7 0.441074 0.674829 0.562960
Si Si8 0.754724 0.827811 0.802827
O O1 0.217920 0.767957 0.715518
O O2 0.276955 0.921430 0.822200
O O3 0.000000 0.868373 0.500000
O O4 0.234915 0.839943 0.006683
O O5 0.303533 0.375876 0.723047
O O6 0.500000 0.250958 0.000000
O O7 0.416093 0.322275 0.129553
O O8 0.226197 0.000000 0.499987
O O9 0.252968 0.918920 0.286723
O O10 0.000000 0.000000 0.000000
O O11 0.834670 0.500000 0.607332
O O12 0.929842 0.657077 0.773972
O O13 0.686815 0.614399 0.554251
O O14 0.102351 0.221862 0.051322
O O15 0.500000 0.000000 0.000000
O O16 0.500000 0.628993 0.500000
O O17 0.387291 0.771092 0.448063
#
# Coordination Sequence:
#
# PCOD8066677 Si02
#       8
#     4   4   2   4   2   2   4   4
#     4  12  24  42  66  95 131 173 226 276 330 395
#     4  10  22  39  66  91 131 171 219 263 335 394
#     4  12  25  42  66  96 133 175 222 277 328 395
#     4  10  22  39  66  95 128 169 216 269 334 406
#     4  10  21  41  68  96 126 174 214 269 331 408
#     4  12  30  44  66  99 138 179 224 283 338 388
#     4  10  21  39  61  94 124 168 219 270 322 388
#     4  11  23  40  68  92 131 171 223 266 330 386
#
# _framework density 20.454423999999999
#
# number of rings (size 3 to 8) (size 9 to 14) (size 15 to 20)
#    0.000    1.231    2.308    3.231    8.615    3.077 
#    0.000    1.154    0.000    1.385    0.000    0.000 
#    0.000    0.000    0.000    0.000    0.000    0.000 
#
# Total GULP energy -322304.716843 kJ/mol
# GULP energy per Si atom -12396.335263 kJ/mol
# Density = 2.040787 g / cm^3
# Si number density = 20.454424 Si / 1000 Ang^3
#
#
#
# Elastic Constant Matrix: (Units=GPa)
#
#
# Indices 1 2 3 4 5 6 
#
# 1 117.4063 49.5530 46.6429 0.0000 -15.4778 0.0000
# 2 49.5530 120.3216 31.8007 0.0000 -9.2922 0.0000
# 3 46.6429 31.8007 118.3579 0.0000 -17.0866 0.0000
# 4 0.0000 0.0000 0.0000 9.6609 0.0000 -4.8508
# 5 -15.4778 -9.2922 -17.0866 0.0000 45.5217 0.0000
# 6 0.0000 0.0000 0.0000 -4.8508 0.0000 6.6640
#
#
#
# Elastic Compliance Matrix: (Units=1/GPa)
#
#
# Indices 1 2 3 4 5 6 
#
# 1 0.011688 -0.003789 -0.003305 0.000000 0.001960 0.000000
# 2 -0.003789 0.010216 -0.001202 0.000000 0.000346 0.000000
# 3 -0.003305 -0.001202 0.010443 0.000000 0.002551 0.000000
# 4 0.000000 0.000000 0.000000 0.163134 0.000000 0.118747
# 5 0.001960 0.000346 0.002551 0.000000 0.023662 0.000000
# 6 0.000000 0.000000 0.000000 0.118747 0.000000 0.236497
#
#
# Mechanical properties :
#
#
# Convention : Reuss Voigt Hill
#
# Bulk Modulus (GPa) = 63.47149 68.00880 65.74014
# Shear Modulus (GPa) = 10.47159 27.57526 19.02343
#
# Velocity S-wave (km/s) = 2.26508 3.67567 3.05296
# Velocity P-wave (km/s) = 6.15945 7.16486 6.68110
#
# Compressibility (1/GPa) = 0.01575511
#
# Stress axis : x y z
#
# Youngs Moduli (GPa) = 85.55845 97.88835 95.76210
#
# Poissons Ratio (x) = 0.37086 0.31650
# Poissons Ratio (y) = 0.32415 0.11509
# Poissons Ratio (z) = 0.28278 0.11764
#
# Static dielectric constant tensor:
#      x y z
#    x 4.130060 0.000000 -0.082900 
#    y 0.000000 3.607090 0.000000 
#    z -0.082900 0.000000 3.849200 
# 
# 
# High freq. dielectric constant tensor:
#      x y z
#    x 1.812870 0.000000 -0.005710 
#    y 0.000000 1.787620 0.000000 
#    z -0.005710 0.000000 1.809620 
# 
# From -- ./inp_files/29856.got.cif
#   From: 2010.06.25/outbox.cif.g09.slc.cpg/sg10_15_cif.got.tgz:29856.got - 2010.06.27 22:07:45.
