data_PCOD8066069
_publ_section_title
;
Structure prediction by ZEFSAII (Michael W. Deem and Ramdas Pophale) SiO2 
 PCOD8066069
Probable space group: P 2/M
;
_chemical_formula_sum "Si O2"
_cell_formula_units_Z 30
_cell_length_a 23.953972
_cell_length_b 13.591820
_cell_length_c 25.586282
_cell_angle_alpha 90.000000
_cell_angle_beta 11.265072
_cell_angle_gamma 90.000000
_cell_volume 1627.316424
_symmetry_space_group_name_H-M "P 2/M"
_symmetry_group_IT_number 10
_symmetry_cell_setting 'monoclinic'
loop_
_space_group_symop_operation_xyz
x,y,z
-x,y,-z
-x,-y,-z
x,-y,z
loop_
_atom_site_type_symbol
_atom_site_label
_atom_site_fract_x
_atom_site_fract_y
_atom_site_fract_z
Si Si1 0.123897 0.108993 0.304640
Si Si2 0.257447 0.383062 0.873717
Si Si3 0.210479 0.308556 0.108606
Si Si4 0.587793 0.613676 0.672409
Si Si5 0.622766 0.382550 0.441876
Si Si6 0.476304 0.386843 0.084218
Si Si7 0.000000 0.256695 0.500000
Si Si8 0.527379 0.109762 0.117265
O O1 0.193882 0.187717 0.285147
O O2 0.377794 0.116866 0.030058
O O3 0.121940 0.000000 0.331356
O O4 0.810865 0.130290 0.566958
O O5 0.250976 0.500000 0.878551
O O6 0.398542 0.346874 0.797991
O O7 0.431091 0.341679 0.664945
O O8 0.938926 0.340594 0.161330
O O9 0.295719 0.195651 0.015982
O O10 0.874876 0.321990 0.408265
O O11 0.402311 0.377214 0.895308
O O12 0.269122 0.338530 0.115556
O O13 0.675645 0.500000 0.584563
O O14 0.500000 0.341650 0.500000
O O15 0.623561 0.500000 0.440282
O O16 0.440440 0.500000 0.133179
O O17 0.192745 0.326390 0.360133
O O18 0.500000 0.375038 0.000000
O O19 0.601819 0.000000 0.071044
#
# Coordination Sequence:
#
# PCOD8066069 Si02
#       8
#     4   4   4   4   4   4   2   4
#     4  10  21  36  57  79 101 121 149 192 254 326
#     4   9  17  29  43  65  98 132 173 218 247 279
#     4  12  23  40  58  76  97 132 173 216 263 320
#     4  11  23  37  55  76 102 139 182 220 252 291
#     4   9  15  24  42  67  97 134 174 213 251 285
#     4  11  25  39  53  72  98 130 165 213 267 319
#     4  12  22  36  54  74  98 126 156 194 262 318
#     4  10  21  39  57  79 100 123 155 205 260 317
#
# _framework density 18.43526
#
# number of rings (size 3 to 8) (size 9 to 14) (size 15 to 20)
#    0.000    1.600    1.333    4.400    1.867    3.733 
#    0.000    2.000    0.000    0.000    0.000    0.000 
#    0.000    0.000    0.000    0.000    0.000   46.667 
#
# Total GULP energy -371933.352725 kJ/mol
# GULP energy per Si atom -12397.778424 kJ/mol
# Density = 1.839330 g / cm^3
# Si number density = 18.435260 Si / 1000 Ang^3
#
#
#
# Elastic Constant Matrix: (Units=GPa)
#
#
# Indices 1 2 3 4 5 6 
#
# 1 84.2611 10.9427 35.1310 0.0000 -10.7884 0.0000
# 2 10.9427 70.1888 10.4100 0.0000 -14.1871 0.0000
# 3 35.1310 10.4100 110.9882 0.0000 -13.2078 0.0000
# 4 0.0000 0.0000 0.0000 15.1668 0.0000 1.9434
# 5 -10.7884 -14.1871 -13.2078 0.0000 34.6953 0.0000
# 6 0.0000 0.0000 0.0000 1.9434 0.0000 5.0291
#
#
#
# Elastic Compliance Matrix: (Units=1/GPa)
#
#
# Indices 1 2 3 4 5 6 
#
# 1 0.014001 -0.001105 -0.004047 0.000000 0.002361 0.000000
# 2 -0.001105 0.015676 -0.000417 0.000000 0.005907 0.000000
# 3 -0.004047 -0.000417 0.010642 0.000000 0.002622 0.000000
# 4 0.000000 0.000000 0.000000 0.069368 0.000000 -0.026806
# 5 0.002361 0.005907 0.002622 0.000000 0.032970 0.000000
# 6 0.000000 0.000000 0.000000 -0.026806 0.000000 0.209203
#
#
# Mechanical properties :
#
#
# Convention : Reuss Voigt Hill
#
# Bulk Modulus (GPa) = 34.27119 42.04504 38.15811
# Shear Modulus (GPa) = 13.41468 24.90852 19.16160
#
# Velocity S-wave (km/s) = 2.70045 3.67977 3.22747
# Velocity P-wave (km/s) = 5.32481 6.39614 5.88491
#
# Compressibility (1/GPa) = 0.02917903
#
# Stress axis : x y z
#
# Youngs Moduli (GPa) = 71.42313 63.79368 93.96562
#
# Poissons Ratio (x) = 0.07052 0.38029
# Poissons Ratio (y) = 0.07895 0.03922
# Poissons Ratio (z) = 0.28906 0.02663
#
# Static dielectric constant tensor:
#      x y z
#    x 3.308540 0.000000 0.046270 
#    y 0.000000 3.378780 0.000000 
#    z 0.046270 0.000000 3.522480 
# 
# 
# High freq. dielectric constant tensor:
#      x y z
#    x 1.688620 0.000000 0.012990 
#    y 0.000000 1.681610 0.000000 
#    z 0.012990 0.000000 1.731480 
# 
# From -- ./inp_files/93926.got.cif
#   From: 2010.06.25/outbox.cif.g09.slc.cpg/sg10_47_cif.got.tgz:93926.got - 2010.06.27 22:07:45.
