data_PCOD8066865
_publ_section_title
;
Structure prediction by ZEFSAII (Michael W. Deem and Ramdas Pophale) SiO2 
 PCOD8066865
Probable space group: P 2/M
;
_chemical_formula_sum "Si O2"
_cell_formula_units_Z 24
_cell_length_a 8.832508
_cell_length_b 12.078283
_cell_length_c 11.091078
_cell_angle_alpha 90.000000
_cell_angle_beta 88.608196
_cell_angle_gamma 90.000000
_cell_volume 1182.864106
_symmetry_space_group_name_H-M "P 2/M"
_symmetry_group_IT_number 10
_symmetry_cell_setting 'monoclinic'
loop_
_space_group_symop_operation_xyz
x,y,z
-x,y,-z
-x,-y,-z
x,-y,z
loop_
_atom_site_type_symbol
_atom_site_label
_atom_site_fract_x
_atom_site_fract_y
_atom_site_fract_z
Si Si1 0.283432 0.000000 0.910013
Si Si2 0.821732 0.626838 0.520665
Si Si3 0.426323 0.626576 0.124724
Si Si4 0.777649 0.783450 0.743110
Si Si5 0.623927 0.000000 0.817867
Si Si6 0.076066 0.794037 0.870344
Si Si7 0.279813 0.373701 0.737307
O O1 0.444488 0.000000 0.840737
O O2 0.191919 0.105467 0.868133
O O3 0.293131 0.000000 0.054491
O O4 0.775953 0.500000 0.557717
O O5 0.766925 0.714869 0.619975
O O6 0.739555 0.665556 0.399779
O O7 0.000000 0.634007 0.500000
O O8 0.372843 0.500000 0.112875
O O9 0.281357 0.702794 0.149705
O O10 0.545293 0.642961 0.230930
O O11 0.500000 0.669284 0.000000
O O12 0.948480 0.818034 0.771861
O O13 0.672877 0.892623 0.739817
O O14 0.169157 0.686278 0.832162
O O15 0.000000 0.774578 0.000000
O O16 0.229094 0.500000 0.749290
#
# Coordination Sequence:
#
# PCOD8066865 Si02
#       7
#     2   4   4   4   2   4   4
#     4  11  24  43  63  87 125 169 205 263 322 395
#     4  10  21  41  65  93 129 170 214 259 311 371
#     4  10  22  39  60  94 134 167 205 259 322 380
#     4  12  23  38  65  94 122 166 213 267 308 373
#     4  11  25  42  65  89 124 165 216 260 329 378
#     4  12  22  37  62  94 125 162 213 262 315 377
#     4  10  22  40  63  92 131 174 208 253 316 378
#
# _framework density 20.289736000000001
#
# number of rings (size 3 to 8) (size 9 to 14) (size 15 to 20)
#    0.000    1.167    3.333    3.250    2.333    1.667 
#    0.000    3.750    0.000    2.000    0.000    0.000 
#    0.000    0.000    0.000    0.000    0.000    0.000 
#
# Total GULP energy -297694.665084 kJ/mol
# GULP energy per Si atom -12403.944379 kJ/mol
# Density = 2.024356 g / cm^3
# Si number density = 20.289736 Si / 1000 Ang^3
#
#
#
# Elastic Constant Matrix: (Units=GPa)
#
#
# Indices 1 2 3 4 5 6 
#
# 1 86.7356 49.0965 29.1458 0.0000 1.8048 0.0000
# 2 49.0965 123.0916 61.5677 0.0000 -16.7440 0.0000
# 3 29.1458 61.5677 95.7437 0.0000 6.2372 0.0000
# 4 0.0000 0.0000 0.0000 37.7767 0.0000 -8.1854
# 5 1.8048 -16.7440 6.2372 0.0000 33.9782 0.0000
# 6 0.0000 0.0000 0.0000 -8.1854 0.0000 29.0462
#
#
#
# Elastic Compliance Matrix: (Units=1/GPa)
#
#
# Indices 1 2 3 4 5 6 
#
# 1 0.015414 -0.006608 -0.000180 0.000000 -0.004042 0.000000
# 2 -0.006608 0.016983 -0.009592 0.000000 0.010481 0.000000
# 3 -0.000180 -0.009592 0.017180 0.000000 -0.007871 0.000000
# 4 0.000000 0.000000 0.000000 0.028193 0.000000 0.007945
# 5 -0.004042 0.010481 -0.007871 0.000000 0.036255 0.000000
# 6 0.000000 0.000000 0.000000 0.007945 0.000000 0.036667
#
#
# Mechanical properties :
#
#
# Convention : Reuss Voigt Hill
#
# Bulk Modulus (GPa) = 59.46089 65.02121 62.24105
# Shear Modulus (GPa) = 26.44683 31.21094 28.82889
#
# Velocity S-wave (km/s) = 3.61426 3.92632 3.77352
# Velocity P-wave (km/s) = 6.84008 7.25745 7.05185
#
# Compressibility (1/GPa) = 0.01681778
#
# Stress axis : x y z
#
# Youngs Moduli (GPa) = 64.87478 58.88141 58.20645
#
# Poissons Ratio (x) = 0.38910 0.01046
# Poissons Ratio (y) = 0.42870 0.55833
# Poissons Ratio (z) = 0.01166 0.56480
#
# Static dielectric constant tensor:
#      x y z
#    x 3.789370 0.000000 0.143620 
#    y 0.000000 3.755610 0.000000 
#    z 0.143620 0.000000 3.712890 
# 
# 
# High freq. dielectric constant tensor:
#      x y z
#    x 1.802270 0.000000 0.003520 
#    y 0.000000 1.794660 0.000000 
#    z 0.003520 0.000000 1.783790 
# 
# From -- ./inp_files/42043.got.cif
#   From: 2010.06.25/outbox.cif.g09.slc.cpg/sg10_22_cif.got.tgz:42043.got - 2010.06.27 22:07:45.
