data_PCOD8066037
_publ_section_title
;
Structure prediction by ZEFSAII (Michael W. Deem and Ramdas Pophale) SiO2 
 PCOD8066037
Probable space group: P 2/M
;
_chemical_formula_sum "Si O2"
_cell_formula_units_Z 32
_cell_length_a 13.024165
_cell_length_b 8.470948
_cell_length_c 30.402071
_cell_angle_alpha 90.000000
_cell_angle_beta 152.016048
_cell_angle_gamma 90.000000
_cell_volume 1573.857881
_symmetry_space_group_name_H-M "P 2/M"
_symmetry_group_IT_number 10
_symmetry_cell_setting 'monoclinic'
loop_
_space_group_symop_operation_xyz
x,y,z
-x,y,-z
-x,-y,-z
x,-y,z
loop_
_atom_site_type_symbol
_atom_site_label
_atom_site_fract_x
_atom_site_fract_y
_atom_site_fract_z
Si Si1 0.550253 0.317740 0.905953
Si Si2 0.557738 0.812238 0.387451
Si Si3 0.574938 0.811726 0.294020
Si Si4 0.762264 0.816169 0.902984
Si Si5 0.129614 0.313408 0.270964
Si Si6 0.087498 0.186061 0.729622
Si Si7 0.006097 0.812761 0.599943
Si Si8 0.718296 0.314860 0.061510
O O1 0.565175 0.500000 0.897907
O O2 0.611767 0.208922 0.888386
O O3 0.304903 0.276073 0.828162
O O4 0.716637 0.279540 0.008753
O O5 0.558316 0.750539 0.337472
O O6 0.360921 0.733622 0.338885
O O7 0.780101 0.750814 0.493960
O O8 0.535452 0.000000 0.381168
O O9 0.363144 0.746989 0.187122
O O10 0.793605 0.744554 0.353340
O O11 0.582973 0.000000 0.295686
O O12 0.796767 0.000000 0.908439
O O13 0.000000 0.733955 0.000000
O O14 0.115747 0.500000 0.270982
O O15 0.104814 0.233070 0.309441
O O16 0.938880 0.245491 0.166597
O O17 0.023933 0.246374 0.656896
O O18 0.128086 0.000000 0.745251
O O19 0.010763 0.000000 0.600036
O O20 0.711964 0.500000 0.068438
O O21 0.500000 0.237168 0.000000
#
# Coordination Sequence:
#
# PCOD8066037 Si02
#       8
#     4   4   4   4   4   4   4   4
#     4  11  21  36  58  83 112 151 194 232 278 341
#     4  10  21  37  60  87 112 146 196 241 284 337
#     4   9  17  34  59  86 114 147 189 234 282 339
#     4  10  21  36  55  84 121 151 181 233 293 335
#     4  11  23  40  58  81 118 155 189 232 288 343
#     4  11  21  37  61  87 116 148 191 240 287 337
#     4   9  18  35  61  87 111 145 189 242 291 336
#     4   9  18  35  56  76 106 148 185 219 268 332
#
# _framework density 20.332204999999998
#
# number of rings (size 3 to 8) (size 9 to 14) (size 15 to 20)
#    0.000    2.000    2.500    1.500    1.750    2.250 
#    0.000    6.875    0.000    0.750    0.000    0.000 
#    0.000    0.000    0.000    0.000    0.000    0.000 
#
# Total GULP energy -396809.957457 kJ/mol
# GULP energy per Si atom -12400.311171 kJ/mol
# Density = 2.028593 g / cm^3
# Si number density = 20.332205 Si / 1000 Ang^3
#
#
#
# Elastic Constant Matrix: (Units=GPa)
#
#
# Indices 1 2 3 4 5 6 
#
# 1 147.3017 11.6967 71.5152 0.0000 -4.8885 0.0000
# 2 11.6967 20.5029 18.2793 0.0000 -6.3768 0.0000
# 3 71.5152 18.2793 154.2273 0.0000 1.8976 0.0000
# 4 0.0000 0.0000 0.0000 19.3020 0.0000 2.2366
# 5 -4.8885 -6.3768 1.8976 0.0000 32.3137 0.0000
# 6 0.0000 0.0000 0.0000 2.2366 0.0000 17.5868
#
#
#
# Elastic Compliance Matrix: (Units=1/GPa)
#
#
# Indices 1 2 3 4 5 6 
#
# 1 0.008860 -0.001065 -0.003999 0.000000 0.001365 0.000000
# 2 -0.001065 0.058997 -0.006645 0.000000 0.011872 0.000000
# 3 -0.003999 -0.006645 0.009156 0.000000 -0.002454 0.000000
# 4 0.000000 0.000000 0.000000 0.052583 0.000000 -0.006687
# 5 0.001365 0.011872 -0.002454 0.000000 0.033640 0.000000
# 6 0.000000 0.000000 0.000000 -0.006687 0.000000 0.057711
#
#
# Mechanical properties :
#
#
# Convention : Reuss Voigt Hill
#
# Bulk Modulus (GPa) = 18.65795 58.33493 38.49644
# Shear Modulus (GPa) = 19.06718 28.54321 23.80520
#
# Velocity S-wave (km/s) = 3.06565 3.75085 3.42543
# Velocity P-wave (km/s) = 4.66126 6.89287 5.88384
#
# Compressibility (1/GPa) = 0.05359646
#
# Stress axis : x y z
#
# Youngs Moduli (GPa) = 112.86425 16.94988 109.21723
#
# Poissons Ratio (x) = 0.01805 0.43677
# Poissons Ratio (y) = 0.12017 0.72573
# Poissons Ratio (z) = 0.45135 0.11263
#
# Static dielectric constant tensor:
#      x y z
#    x 3.700530 0.000000 -0.109330 
#    y 0.000000 3.169450 0.000000 
#    z -0.109330 0.000000 4.039760 
# 
# 
# High freq. dielectric constant tensor:
#      x y z
#    x 1.803260 0.000000 -0.006370 
#    y 0.000000 1.750630 0.000000 
#    z -0.006370 0.000000 1.804580 
# 
# From -- ./inp_files/49978.got.cif
#   From: 2010.06.25/outbox.cif.g09.slc.cpg/sg10_25_cif.got.tgz:49978.got - 2010.06.27 22:07:45.
