data_PCOD8066601
_publ_section_title
;
Structure prediction by ZEFSAII (Michael W. Deem and Ramdas Pophale) SiO2 
 PCOD8066601
Probable space group: P 2/M
;
_chemical_formula_sum "Si O2"
_cell_formula_units_Z 32
_cell_length_a 13.794369
_cell_length_b 27.410732
_cell_length_c 9.787975
_cell_angle_alpha 90.000000
_cell_angle_beta 26.531428
_cell_angle_gamma 90.000000
_cell_volume 1653.180330
_symmetry_space_group_name_H-M "P 2/M"
_symmetry_group_IT_number 10
_symmetry_cell_setting 'monoclinic'
loop_
_space_group_symop_operation_xyz
x,y,z
-x,y,-z
-x,-y,-z
x,-y,z
loop_
_atom_site_type_symbol
_atom_site_label
_atom_site_fract_x
_atom_site_fract_y
_atom_site_fract_z
Si Si1 0.829227 0.118632 0.827411
Si Si2 0.446593 0.443270 0.724740
Si Si3 0.518276 0.294049 0.321857
Si Si4 0.191627 0.623475 0.655779
Si Si5 0.878856 0.867676 0.280965
Si Si6 0.490054 0.799692 0.854637
Si Si7 0.900237 0.633990 0.774463
Si Si8 0.450672 0.057005 0.404953
O O1 0.000000 0.100806 0.500000
O O2 0.944142 0.122643 0.827416
O O3 0.725960 0.170245 0.911726
O O4 0.645716 0.077286 0.066236
O O5 0.500000 0.431580 0.500000
O O6 0.417566 0.500000 0.790879
O O7 0.646922 0.422651 0.560313
O O8 0.224986 0.417148 0.049426
O O9 0.500000 0.275065 0.500000
O O10 0.316790 0.329767 0.554269
O O11 0.502274 0.248821 0.242339
O O12 0.743535 0.321182 0.007682
O O13 0.105507 0.635375 0.614909
O O14 0.000000 0.609224 0.000000
O O15 0.700876 0.831100 0.559540
O O16 0.772420 0.918222 0.362902
O O17 0.000000 0.842874 0.000000
O O18 0.500000 0.784872 0.000000
O O19 0.000000 0.639949 0.500000
O O20 0.500000 0.069784 0.500000
O O21 0.425952 0.000000 0.410643
#
# Coordination Sequence:
#
# PCOD8066601 Si02
#       8
#     4   4   4   4   4   4   4   4
#     4  11  23  43  63  87 128 164 198 250 307 361
#     4  10  21  38  63  93 121 157 209 254 295 361
#     4  11  25  41  62  92 122 155 205 252 295 366
#     4  11  20  41  64  86 122 163 201 244 303 361
#     4  11  23  41  64  90 122 166 203 244 305 363
#     4  11  26  42  62  92 124 157 203 256 305 361
#     4  11  24  41  61  90 126 161 198 252 307 358
#     4  10  22  39  63  96 126 157 207 257 297 357
#
# _framework density 19.356631
#
# number of rings (size 3 to 8) (size 9 to 14) (size 15 to 20)
#    0.000    1.250    5.000    0.750    3.500    5.500 
#    0.000    1.250    0.000    0.000    0.000    0.000 
#    0.000    0.000    0.000    0.000    0.000    0.000 
#
# Total GULP energy -396939.003810 kJ/mol
# GULP energy per Si atom -12404.343869 kJ/mol
# Density = 1.931257 g / cm^3
# Si number density = 19.356631 Si / 1000 Ang^3
#
#
#
# Elastic Constant Matrix: (Units=GPa)
#
#
# Indices 1 2 3 4 5 6 
#
# 1 134.9832 28.3357 30.2384 0.0000 4.7134 0.0000
# 2 28.3357 101.6760 19.3373 0.0000 2.0380 0.0000
# 3 30.2384 19.3373 90.3948 0.0000 13.1048 0.0000
# 4 0.0000 0.0000 0.0000 13.8601 0.0000 -5.2480
# 5 4.7134 2.0380 13.1048 0.0000 43.3807 0.0000
# 6 0.0000 0.0000 0.0000 -5.2480 0.0000 215.5217
#
#
#
# Elastic Compliance Matrix: (Units=1/GPa)
#
#
# Indices 1 2 3 4 5 6 
#
# 1 0.008336 -0.001870 -0.002374 0.000000 -0.000101 0.000000
# 2 -0.001870 0.010673 -0.001688 0.000000 0.000212 0.000000
# 3 -0.002374 -0.001688 0.012726 0.000000 -0.003507 0.000000
# 4 0.000000 0.000000 0.000000 0.072821 0.000000 0.001773
# 5 -0.000101 0.000212 -0.003507 0.000000 0.024112 0.000000
# 6 0.000000 0.000000 0.000000 0.001773 0.000000 0.004683
#
#
# Mechanical properties :
#
#
# Convention : Reuss Voigt Hill
#
# Bulk Modulus (GPa) = 50.32370 53.65298 51.98834
# Shear Modulus (GPa) = 32.92944 71.16199 52.04572
#
# Velocity S-wave (km/s) = 4.12903 6.06988 5.19097
# Velocity P-wave (km/s) = 6.98473 8.76943 7.92746
#
# Compressibility (1/GPa) = 0.01987135
#
# Stress axis : x y z
#
# Youngs Moduli (GPa) = 119.95967 93.69362 78.57699
#
# Poissons Ratio (x) = 0.17517 0.18654
# Poissons Ratio (y) = 0.22428 0.13268
# Poissons Ratio (z) = 0.28478 0.15820
#
# Static dielectric constant tensor:
#      x y z
#    x 3.316830 0.000000 -0.161380 
#    y 0.000000 3.446730 0.000000 
#    z -0.161380 0.000000 3.730390 
# 
# 
# High freq. dielectric constant tensor:
#      x y z
#    x 1.765490 0.000000 -0.004920 
#    y 0.000000 1.745650 0.000000 
#    z -0.004920 0.000000 1.767460 
# 
# From -- ./inp_files/26214.got.cif
#   From: 2010.06.25/outbox.cif.g09.slc.cpg/sg10_14_cif.got.tgz:26214.got - 2010.06.27 22:07:45.
