data_PCOD8066840
_publ_section_title
;
Structure prediction by ZEFSAII (Michael W. Deem and Ramdas Pophale) SiO2 
 PCOD8066840
Probable space group: P 2/M
;
_chemical_formula_sum "Si O2"
_cell_formula_units_Z 28
_cell_length_a 13.745479
_cell_length_b 22.084074
_cell_length_c 8.524920
_cell_angle_alpha 90.000000
_cell_angle_beta 149.518187
_cell_angle_gamma 90.000000
_cell_volume 1312.695942
_symmetry_space_group_name_H-M "P 2/M"
_symmetry_group_IT_number 10
_symmetry_cell_setting 'monoclinic'
loop_
_space_group_symop_operation_xyz
x,y,z
-x,y,-z
-x,-y,-z
x,-y,z
loop_
_atom_site_type_symbol
_atom_site_label
_atom_site_fract_x
_atom_site_fract_y
_atom_site_fract_z
Si Si1 0.638346 0.350150 0.326654
Si Si2 0.212115 0.932630 0.239708
Si Si3 0.952083 0.655684 0.261613
Si Si4 0.172710 0.069824 0.836753
Si Si5 0.600407 0.260496 0.804264
Si Si6 0.506061 0.139852 0.830712
Si Si7 0.798368 0.566994 0.803039
O O1 0.530016 0.292047 0.244397
O O2 0.651640 0.400464 0.480959
O O3 0.850218 0.330545 0.558008
O O4 0.500000 0.377652 0.000000
O O5 0.303488 0.882343 0.481358
O O6 0.312795 0.000000 0.382954
O O7 0.211324 0.903773 0.064249
O O8 0.000000 0.942334 0.000000
O O9 0.000000 0.629695 0.500000
O O10 0.819950 0.715476 0.098779
O O11 0.822484 0.605454 0.995205
O O12 0.000000 0.101560 0.500000
O O13 0.123168 0.000000 0.789708
O O14 0.360415 0.080550 0.993144
O O15 0.500000 0.270558 0.500000
O O16 0.604865 0.190623 0.859398
O O17 0.500000 0.163319 0.000000
O O18 0.718885 0.500000 0.734153
O O19 0.000000 0.560752 0.000000
#
# Coordination Sequence:
#
# PCOD8066840 Si02
#       7
#     4   4   4   4   4   4   4
#     4  11  22  42  67  96 133 172 218 263 326 391
#     4  10  21  41  67  96 130 169 212 262 330 395
#     4  11  23  41  70  94 130 177 214 269 327 384
#     4  10  21  40  66  94 127 166 208 262 323 384
#     4  12  25  45  66  93 127 172 226 271 324 386
#     4  12  26  42  61  94 129 166 214 271 319 385
#     4   9  20  40  66 100 136 171 216 270 324 388
#
# _framework density 21.330148999999999
#
# number of rings (size 3 to 8) (size 9 to 14) (size 15 to 20)
#    0.000    1.286    2.857    3.000    0.000    4.571 
#    5.143    1.429    0.000    0.000    0.000    0.000 
#    0.000    0.000    0.000    0.000    0.000    0.000 
#
# Total GULP energy -347105.274208 kJ/mol
# GULP energy per Si atom -12396.616936 kJ/mol
# Density = 2.128160 g / cm^3
# Si number density = 21.330149 Si / 1000 Ang^3
#
#
#
# Elastic Constant Matrix: (Units=GPa)
#
#
# Indices 1 2 3 4 5 6 
#
# 1 94.0146 33.5058 51.2926 0.0000 -4.8043 0.0000
# 2 33.5058 90.1561 53.0926 0.0000 -8.6389 0.0000
# 3 51.2926 53.0926 149.9675 0.0000 -25.0202 0.0000
# 4 0.0000 0.0000 0.0000 28.9406 0.0000 -5.4493
# 5 -4.8043 -8.6389 -25.0202 0.0000 49.2179 0.0000
# 6 0.0000 0.0000 0.0000 -5.4493 0.0000 24.7714
#
#
#
# Elastic Compliance Matrix: (Units=1/GPa)
#
#
# Indices 1 2 3 4 5 6 
#
# 1 0.013724 -0.002948 -0.003839 0.000000 -0.001129 0.000000
# 2 -0.002948 0.014647 -0.004148 0.000000 0.000174 0.000000
# 3 -0.003839 -0.004148 0.010124 0.000000 0.004044 0.000000
# 4 0.000000 0.000000 0.000000 0.036047 0.000000 0.007930
# 5 -0.001129 0.000174 0.004044 0.000000 0.022294 0.000000
# 6 0.000000 0.000000 0.000000 0.007930 0.000000 0.042114
#
#
# Mechanical properties :
#
#
# Convention : Reuss Voigt Hill
#
# Bulk Modulus (GPa) = 60.14784 67.76891 63.95837
# Shear Modulus (GPa) = 30.05524 33.66912 31.86218
#
# Velocity S-wave (km/s) = 3.75780 3.97731 3.86912
# Velocity P-wave (km/s) = 6.86206 7.27547 7.07178
#
# Compressibility (1/GPa) = 0.01662570
#
# Stress axis : x y z
#
# Youngs Moduli (GPa) = 72.86585 68.27361 98.77325
#
# Poissons Ratio (x) = 0.20127 0.37915
# Poissons Ratio (y) = 0.21481 0.40971
# Poissons Ratio (z) = 0.27970 0.28320
#
# Static dielectric constant tensor:
#      x y z
#    x 4.119270 0.000000 -0.311940 
#    y 0.000000 3.793360 0.000000 
#    z -0.311940 0.000000 4.148900 
# 
# 
# High freq. dielectric constant tensor:
#      x y z
#    x 1.843000 0.000000 -0.009720 
#    y 0.000000 1.814790 0.000000 
#    z -0.009720 0.000000 1.851730 
# 
# From -- ./inp_files/30405.got.cif
#   From: 2010.06.25/outbox.cif.g09.slc.cpg/sg10_16_cif.got.tgz:30405.got - 2010.06.27 22:07:45.
