data_PCOD8066354
_publ_section_title
;
Structure prediction by ZEFSAII (Michael W. Deem and Ramdas Pophale) SiO2 
 PCOD8066354
Probable space group: P 2/M
;
_chemical_formula_sum "Si O2"
_cell_formula_units_Z 32
_cell_length_a 25.321964
_cell_length_b 8.917878
_cell_length_c 14.718375
_cell_angle_alpha 90.000000
_cell_angle_beta 30.315475
_cell_angle_gamma 90.000000
_cell_volume 1677.661728
_symmetry_space_group_name_H-M "P 2/M"
_symmetry_group_IT_number 10
_symmetry_cell_setting 'monoclinic'
loop_
_space_group_symop_operation_xyz
x,y,z
-x,y,-z
-x,-y,-z
x,-y,z
loop_
_atom_site_type_symbol
_atom_site_label
_atom_site_fract_x
_atom_site_fract_y
_atom_site_fract_z
Si Si1 0.647538 0.827058 0.533851
Si Si2 0.569685 0.676268 0.135515
Si Si3 0.777846 0.173974 0.165265
Si Si4 0.719818 0.172191 0.774121
Si Si5 0.805924 0.824569 0.456130
Si Si6 0.286823 0.177521 0.937698
Si Si7 0.010728 0.677426 0.087422
Si Si8 0.113072 0.827730 0.327896
O O1 0.550249 0.721386 0.698776
O O2 0.690361 0.793533 0.370146
O O3 0.739361 0.783897 0.466592
O O4 0.613891 0.000000 0.595417
O O5 0.580151 0.500000 0.127655
O O6 0.611680 0.748611 0.166863
O O7 0.631641 0.729889 0.954056
O O8 0.723824 0.223261 0.151212
O O9 0.810629 0.000000 0.114972
O O10 0.881493 0.268450 0.028820
O O11 0.738381 0.227519 0.643788
O O12 0.831011 0.191082 0.658614
O O13 0.681836 0.000000 0.833935
O O14 0.915572 0.738576 0.289201
O O15 0.831411 0.000000 0.425241
O O16 0.298615 0.000000 0.933909
O O17 0.184983 0.241814 0.141674
O O18 0.008180 0.500000 0.093310
O O19 0.000000 0.737919 0.000000
O O20 0.000000 0.745851 0.500000
O O21 0.094984 0.000000 0.328717
#
# Coordination Sequence:
#
# PCOD8066354 Si02
#       8
#     4   4   4   4   4   4   4   4
#     4  10  21  38  59  84 112 144 193 247 290 334
#     4  11  23  39  59  81 113 153 188 233 291 352
#     4  10  21  37  61  88 113 149 196 243 284 331
#     4   9  19  36  58  83 113 147 188 239 286 333
#     4  10  21  37  61  88 113 149 196 243 284 331
#     4   9  19  36  58  83 113 147 188 239 286 333
#     4  11  23  37  55  82 123 164 189 227 284 342
#     4   8  14  26  48  79 108 137 176 222 275 329
#
# _framework density 19.074166999999999
#
# number of rings (size 3 to 8) (size 9 to 14) (size 15 to 20)
#    0.000    2.250    1.250    2.250    1.750    3.500 
#    0.000    5.000    0.000    1.500    0.000    0.000 
#    0.000    0.000    0.000    0.000    0.000    0.000 
#
# Total GULP energy -396842.193063 kJ/mol
# GULP energy per Si atom -12401.318533 kJ/mol
# Density = 1.903075 g / cm^3
# Si number density = 19.074167 Si / 1000 Ang^3
#
#
#
# Elastic Constant Matrix: (Units=GPa)
#
#
# Indices 1 2 3 4 5 6 
#
# 1 66.6315 26.5498 29.3423 0.0000 23.5363 0.0000
# 2 26.5498 66.5995 37.7124 0.0000 -0.5229 0.0000
# 3 29.3423 37.7124 92.2984 0.0000 -0.3059 0.0000
# 4 0.0000 0.0000 0.0000 15.0822 0.0000 0.5583
# 5 23.5363 -0.5229 -0.3059 0.0000 32.8701 0.0000
# 6 0.0000 0.0000 0.0000 0.5583 0.0000 18.0267
#
#
#
# Elastic Compliance Matrix: (Units=1/GPa)
#
#
# Indices 1 2 3 4 5 6 
#
# 1 0.027775 -0.008056 -0.005605 0.000000 -0.020068 0.000000
# 2 -0.008056 0.021874 -0.006356 0.000000 0.006057 0.000000
# 3 -0.005605 -0.006356 0.015227 0.000000 0.004054 0.000000
# 4 0.000000 0.000000 0.000000 0.066379 0.000000 -0.002056
# 5 -0.020068 0.006057 0.004054 0.000000 0.044927 0.000000
# 6 0.000000 0.000000 0.000000 -0.002056 0.000000 0.055537
#
#
# Mechanical properties :
#
#
# Convention : Reuss Voigt Hill
#
# Bulk Modulus (GPa) = 40.25611 45.85984 43.05798
# Shear Modulus (GPa) = 17.85509 21.99078 19.92294
#
# Velocity S-wave (km/s) = 3.06287 3.39914 3.23538
# Velocity P-wave (km/s) = 5.80165 6.28495 6.04813
#
# Compressibility (1/GPa) = 0.02484095
#
# Stress axis : x y z
#
# Youngs Moduli (GPa) = 36.00386 45.71735 65.67440
#
# Poissons Ratio (x) = 0.36832 0.36808
# Poissons Ratio (y) = 0.29006 0.41743
# Poissons Ratio (z) = 0.20179 0.29058
#
# Static dielectric constant tensor:
#      x y z
#    x 3.591860 0.000000 0.102240 
#    y 0.000000 3.207720 0.000000 
#    z 0.102240 0.000000 3.542060 
# 
# 
# High freq. dielectric constant tensor:
#      x y z
#    x 1.746630 0.000000 0.003610 
#    y 0.000000 1.712950 0.000000 
#    z 0.003610 0.000000 1.747830 
# 
# From -- ./inp_files/71532.got.cif
#   From: 2010.06.25/outbox.cif.g09.slc.cpg/sg10_36_cif.got.tgz:71532.got - 2010.06.27 22:07:45.
