data_PCOD8066326
_publ_section_title
;
Structure prediction by ZEFSAII (Michael W. Deem and Ramdas Pophale) SiO2 
 PCOD8066326
Probable space group: P 2/M
;
_chemical_formula_sum "Si O2"
_cell_formula_units_Z 32
_cell_length_a 21.090736
_cell_length_b 8.993564
_cell_length_c 26.978670
_cell_angle_alpha 90.000000
_cell_angle_beta 19.436311
_cell_angle_gamma 90.000000
_cell_volume 1702.839393
_symmetry_space_group_name_H-M "P 2/M"
_symmetry_group_IT_number 10
_symmetry_cell_setting 'monoclinic'
loop_
_space_group_symop_operation_xyz
x,y,z
-x,y,-z
-x,-y,-z
x,-y,z
loop_
_atom_site_type_symbol
_atom_site_label
_atom_site_fract_x
_atom_site_fract_y
_atom_site_fract_z
Si Si1 0.907844 0.823406 0.301796
Si Si2 0.485746 0.176762 0.454965
Si Si3 0.864911 0.325421 0.436676
Si Si4 0.275669 0.672966 0.996568
Si Si5 0.195914 0.828656 0.236211
Si Si6 0.433493 0.672012 0.772557
Si Si7 0.784451 0.176478 0.154234
Si Si8 0.534367 0.171841 0.054591
O O1 0.709870 0.765247 0.424845
O O2 0.934179 0.759601 0.336918
O O3 0.079136 0.763875 0.141915
O O4 0.916346 0.000000 0.297608
O O5 0.500000 0.242763 0.500000
O O6 0.661977 0.234687 0.291646
O O7 0.486996 0.000000 0.456049
O O8 0.882648 0.500000 0.415243
O O9 0.651607 0.276673 0.606983
O O10 0.006476 0.273136 0.376280
O O11 0.231227 0.500000 0.036873
O O12 0.372073 0.706857 0.873320
O O13 0.422551 0.725493 0.930299
O O14 0.320272 0.793838 0.193511
O O15 0.133811 0.000000 0.281600
O O16 0.319285 0.790250 0.096908
O O17 0.409588 0.500000 0.776380
O O18 0.303198 0.765635 0.831921
O O19 0.780309 0.000000 0.155381
O O20 0.000000 0.236488 0.000000
O O21 0.554854 0.000000 0.055067
#
# Coordination Sequence:
#
# PCOD8066326 Si02
#       8
#     4   4   4   4   4   4   4   4
#     4  11  21  35  59  85 113 147 185 236 289 332
#     4   9  19  35  55  84 116 142 176 231 287 330
#     4  11  21  36  58  83 111 150 193 232 275 333
#     4  11  23  38  56  82 115 152 192 234 276 331
#     4   9  18  33  56  84 115 146 182 231 285 335
#     4  10  24  42  57  78 118 158 189 229 280 335
#     4  10  21  37  60  86 111 145 192 235 276 334
#     4   9  18  34  55  83 116 147 182 231 284 334
#
# _framework density 18.792141000000001
#
# number of rings (size 3 to 8) (size 9 to 14) (size 15 to 20)
#    0.000    2.000    2.500    1.875    1.750    2.250 
#    0.000    1.875    0.000    5.625    0.000    0.000 
#    0.000    0.000    0.000    0.000    0.000    0.000 
#
# Total GULP energy -396862.831908 kJ/mol
# GULP energy per Si atom -12401.963497 kJ/mol
# Density = 1.874937 g / cm^3
# Si number density = 18.792141 Si / 1000 Ang^3
#
#
#
# Elastic Constant Matrix: (Units=GPa)
#
#
# Indices 1 2 3 4 5 6 
#
# 1 112.0047 34.4048 54.4520 0.0000 -14.0505 0.0000
# 2 34.4048 55.1740 36.0661 0.0000 -6.5309 0.0000
# 3 54.4520 36.0661 99.3222 0.0000 -22.6371 0.0000
# 4 0.0000 0.0000 0.0000 20.6762 0.0000 0.0315
# 5 -14.0505 -6.5309 -22.6371 0.0000 35.2522 0.0000
# 6 0.0000 0.0000 0.0000 0.0315 0.0000 20.9572
#
#
#
# Elastic Compliance Matrix: (Units=1/GPa)
#
#
# Indices 1 2 3 4 5 6 
#
# 1 0.013004 -0.004561 -0.005253 0.000000 0.000965 0.000000
# 2 -0.004561 0.025419 -0.007112 0.000000 -0.001675 0.000000
# 3 -0.005253 -0.007112 0.017283 0.000000 0.007687 0.000000
# 4 0.000000 0.000000 0.000000 0.048365 0.000000 -0.000073
# 5 0.000965 -0.001675 0.007687 0.000000 0.033377 0.000000
# 6 0.000000 0.000000 0.000000 -0.000073 0.000000 0.047716
#
#
# Mechanical properties :
#
#
# Convention : Reuss Voigt Hill
#
# Bulk Modulus (GPa) = 45.75792 57.37186 51.56489
# Shear Modulus (GPa) = 22.09455 24.81565 23.45510
#
# Velocity S-wave (km/s) = 3.43262 3.63786 3.53673
# Velocity P-wave (km/s) = 6.33347 6.94560 6.64658
#
# Compressibility (1/GPa) = 0.02185414
#
# Stress axis : x y z
#
# Youngs Moduli (GPa) = 76.89870 39.34087 57.86168
#
# Poissons Ratio (x) = 0.17943 0.30397
# Poissons Ratio (y) = 0.35072 0.41149
# Poissons Ratio (z) = 0.40398 0.27978
#
# Static dielectric constant tensor:
#      x y z
#    x 3.524380 0.000000 -0.158630 
#    y 0.000000 3.274550 0.000000 
#    z -0.158630 0.000000 3.590580 
# 
# 
# High freq. dielectric constant tensor:
#      x y z
#    x 1.732260 0.000000 -0.015150 
#    y 0.000000 1.715330 0.000000 
#    z -0.015150 0.000000 1.733220 
# 
# From -- ./inp_files/93562.got.cif
#   From: 2010.06.25/outbox.cif.g09.slc.cpg/sg10_47_cif.got.tgz:93562.got - 2010.06.27 22:07:45.
