data_PCOD8066335
_publ_section_title
;
Structure prediction by ZEFSAII (Michael W. Deem and Ramdas Pophale) SiO2 
 PCOD8066335
Probable space group: P 2/M
;
_chemical_formula_sum "Si O2"
_cell_formula_units_Z 28
_cell_length_a 11.980956
_cell_length_b 14.532677
_cell_length_c 9.773662
_cell_angle_alpha 90.000000
_cell_angle_beta 53.720281
_cell_angle_gamma 90.000000
_cell_volume 1371.840717
_symmetry_space_group_name_H-M "P 2/M"
_symmetry_group_IT_number 10
_symmetry_cell_setting 'monoclinic'
loop_
_space_group_symop_operation_xyz
x,y,z
-x,y,-z
-x,-y,-z
x,-y,z
loop_
_atom_site_type_symbol
_atom_site_label
_atom_site_fract_x
_atom_site_fract_y
_atom_site_fract_z
Si Si1 0.141150 0.105936 0.730930
Si Si2 0.170209 0.893762 0.028854
Si Si3 0.577767 0.768498 0.083974
Si Si4 0.003592 0.392625 0.343684
Si Si5 0.604745 0.783311 0.532929
Si Si6 0.246066 0.393822 0.972063
Si Si7 0.740219 0.395073 0.352627
O O1 0.245653 0.168682 0.569669
O O2 0.983406 0.131362 0.803816
O O3 0.169989 0.000000 0.675679
O O4 0.170149 0.126165 0.868161
O O5 0.203861 0.000000 0.034992
O O6 0.285826 0.832045 0.017330
O O7 0.463163 0.801782 0.272901
O O8 0.617165 0.663833 0.092464
O O9 0.500000 0.773489 0.000000
O O10 0.031199 0.500000 0.338712
O O11 0.000000 0.348523 0.500000
O O12 0.861826 0.372442 0.369756
O O13 0.125921 0.353800 0.158192
O O14 0.500000 0.829700 0.500000
O O15 0.619253 0.675574 0.480460
O O16 0.278963 0.500000 0.978058
O O17 0.205299 0.379350 0.842141
O O18 0.686255 0.500000 0.409529
#
# Coordination Sequence:
#
# PCOD8066335 Si02
#       7
#     4   4   4   4   4   4   4
#     4   9  19  38  69  98 120 152 203 259 304 360
#     4   9  19  40  67  95 123 158 200 249 311 369
#     4  12  27  42  58  90 131 168 204 250 313 372
#     4   9  19  35  57  87 118 157 207 257 308 359
#     4  12  23  40  60  94 124 158 208 254 307 366
#     4  10  21  39  60  85 120 164 214 257 303 360
#     4  10  21  37  60  87 121 162 208 260 306 357
#
# _framework density 20.410533000000001
#
# number of rings (size 3 to 8) (size 9 to 14) (size 15 to 20)
#    0.000    1.857    2.857    1.286    4.000    4.000 
#    0.000    0.714    0.000    1.714    0.000    0.000 
#    0.000    0.000    0.000    0.000    0.000    0.000 
#
# Total GULP energy -347139.392939 kJ/mol
# GULP energy per Si atom -12397.835462 kJ/mol
# Density = 2.036408 g / cm^3
# Si number density = 20.410533 Si / 1000 Ang^3
#
#
#
# Elastic Constant Matrix: (Units=GPa)
#
#
# Indices 1 2 3 4 5 6 
#
# 1 135.0553 55.5125 66.8662 0.0000 9.9607 0.0000
# 2 55.5125 83.6936 26.3571 0.0000 -8.1173 0.0000
# 3 66.8662 26.3571 108.3130 0.0000 7.9775 0.0000
# 4 0.0000 0.0000 0.0000 23.3240 0.0000 -6.9257
# 5 9.9607 -8.1173 7.9775 0.0000 37.2127 0.0000
# 6 0.0000 0.0000 0.0000 -6.9257 0.0000 26.2019
#
#
#
# Elastic Compliance Matrix: (Units=1/GPa)
#
#
# Indices 1 2 3 4 5 6 
#
# 1 0.014097 -0.007685 -0.006534 0.000000 -0.004049 0.000000
# 2 -0.007685 0.017609 0.000025 0.000000 0.005893 0.000000
# 3 -0.006534 0.000025 0.013342 0.000000 -0.001106 0.000000
# 4 0.000000 0.000000 0.000000 0.046526 0.000000 0.012298
# 5 -0.004049 0.005893 -0.001106 0.000000 0.029479 0.000000
# 6 0.000000 0.000000 0.000000 0.012298 0.000000 0.041416
#
#
# Mechanical properties :
#
#
# Convention : Reuss Voigt Hill
#
# Bulk Modulus (GPa) = 60.02556 69.39264 64.70910
# Shear Modulus (GPa) = 25.45690 29.23612 27.34651
#
# Velocity S-wave (km/s) = 3.53546 3.78882 3.66433
# Velocity P-wave (km/s) = 6.79257 7.29469 7.04810
#
# Compressibility (1/GPa) = 0.01665957
#
# Stress axis : x y z
#
# Youngs Moduli (GPa) = 70.93672 56.78789 74.95285
#
# Poissons Ratio (x) = 0.43643 0.48977
# Poissons Ratio (y) = 0.54516 -0.00189
# Poissons Ratio (z) = 0.46353 -0.00144
#
# Static dielectric constant tensor:
#      x y z
#    x 3.592190 0.000000 -0.087500 
#    y 0.000000 3.674340 0.000000 
#    z -0.087500 0.000000 3.719540 
# 
# 
# High freq. dielectric constant tensor:
#      x y z
#    x 1.790820 0.000000 -0.012320 
#    y 0.000000 1.791110 0.000000 
#    z -0.012320 0.000000 1.791650 
# 
# From -- ./inp_files/25174.got.cif
#   From: 2010.06.25/outbox.cif.g09.slc.cpg/sg10_13_cif.got.tgz:25174.got - 2010.06.27 22:07:45.
