data_PCOD8066850
_publ_section_title
;
Structure prediction by ZEFSAII (Michael W. Deem and Ramdas Pophale) SiO2 
 PCOD8066850
Probable space group: P 2/M
;
_chemical_formula_sum "Si O2"
_cell_formula_units_Z 30
_cell_length_a 11.516544
_cell_length_b 17.299067
_cell_length_c 14.514116
_cell_angle_alpha 90.000000
_cell_angle_beta 29.770756
_cell_angle_gamma 90.000000
_cell_volume 1435.759825
_symmetry_space_group_name_H-M "P 2/M"
_symmetry_group_IT_number 10
_symmetry_cell_setting 'monoclinic'
loop_
_space_group_symop_operation_xyz
x,y,z
-x,y,-z
-x,-y,-z
x,-y,z
loop_
_atom_site_type_symbol
_atom_site_label
_atom_site_fract_x
_atom_site_fract_y
_atom_site_fract_z
Si Si1 0.155521 0.658852 0.110664
Si Si2 0.884305 0.176402 0.484571
Si Si3 0.586035 0.910163 0.181037
Si Si4 0.735523 0.301343 0.283082
Si Si5 0.419414 0.413220 0.770652
Si Si6 0.000000 0.829899 0.000000
Si Si7 0.702145 0.820490 0.931584
Si Si8 0.084493 0.643752 0.540940
O O1 0.258432 0.745439 0.031656
O O2 0.901467 0.652651 0.238654
O O3 0.124147 0.635193 0.239910
O O4 0.332215 0.602946 0.935031
O O5 0.642802 0.134822 0.626203
O O6 0.833434 0.267556 0.523855
O O7 0.000000 0.147110 0.500000
O O8 0.059826 0.155311 0.282028
O O9 0.541449 0.000000 0.226347
O O10 0.620221 0.892179 0.049576
O O11 0.816687 0.884897 0.075869
O O12 0.500000 0.282082 0.500000
O O13 0.699533 0.353418 0.217412
O O14 0.857709 0.221600 0.170806
O O15 0.349584 0.500000 0.789688
O O16 0.698356 0.407114 0.575870
O O17 0.500000 0.798106 0.000000
O O18 0.000000 0.613107 0.500000
#
# Coordination Sequence:
#
# PCOD8066850 Si02
#       8
#     4   4   4   4   4   2   4   4
#     4  11  23  41  69  98 125 171 222 273 324 385
#     4  10  21  40  68  97 123 166 221 275 316 375
#     4  12  26  42  63  97 140 176 210 262 341 402
#     4  12  23  43  71  98 122 164 228 286 321 380
#     4  12  26  42  64  98 137 172 211 271 343 396
#     4  12  25  46  69  92 132 174 230 272 317 396
#     4  11  22  41  69  98 128 168 222 275 320 381
#     4  10  23  42  68  95 130 172 223 268 316 390
#
# _framework density 20.894860000000001
#
# number of rings (size 3 to 8) (size 9 to 14) (size 15 to 20)
#    0.000    0.800    5.333    1.800    5.600    3.200 
#    0.000    0.667    0.000    2.400    0.000    0.000 
#    0.000    0.000    0.000    0.000    0.000    0.000 
#
# Total GULP energy -372148.798515 kJ/mol
# GULP energy per Si atom -12404.959951 kJ/mol
# Density = 2.084730 g / cm^3
# Si number density = 20.894860 Si / 1000 Ang^3
#
#
#
# Elastic Constant Matrix: (Units=GPa)
#
#
# Indices 1 2 3 4 5 6 
#
# 1 100.0187 26.5085 23.8981 0.0000 -4.5661 0.0000
# 2 26.5085 77.5806 35.1120 0.0000 -3.6024 0.0000
# 3 23.8981 35.1120 126.7593 0.0000 2.8812 0.0000
# 4 0.0000 0.0000 0.0000 19.4503 0.0000 -4.9361
# 5 -4.5661 -3.6024 2.8812 0.0000 38.6121 0.0000
# 6 0.0000 0.0000 0.0000 -4.9361 0.0000 7.7575
#
#
#
# Elastic Compliance Matrix: (Units=1/GPa)
#
#
# Indices 1 2 3 4 5 6 
#
# 1 0.011198 -0.003210 -0.001247 0.000000 0.001118 0.000000
# 2 -0.003210 0.015767 -0.003794 0.000000 0.001375 0.000000
# 3 -0.001247 -0.003794 0.009202 0.000000 -0.001188 0.000000
# 4 0.000000 0.000000 0.000000 0.061314 0.000000 0.039013
# 5 0.001118 0.001375 -0.001188 0.000000 0.026248 0.000000
# 6 0.000000 0.000000 0.000000 0.039013 0.000000 0.153731
#
#
# Mechanical properties :
#
#
# Convention : Reuss Voigt Hill
#
# Bulk Modulus (GPa) = 50.85025 52.82175 51.83600
# Shear Modulus (GPa) = 16.63802 27.75332 22.19567
#
# Velocity S-wave (km/s) = 2.82489 3.64845 3.26276
# Velocity P-wave (km/s) = 5.91854 6.56376 6.24948
#
# Compressibility (1/GPa) = 0.01966559
#
# Stress axis : x y z
#
# Youngs Moduli (GPa) = 89.30223 63.42231 108.67216
#
# Poissons Ratio (x) = 0.20357 0.13557
# Poissons Ratio (y) = 0.28664 0.41226
# Poissons Ratio (z) = 0.11140 0.24060
#
# Static dielectric constant tensor:
#      x y z
#    x 3.966340 0.000000 0.053730 
#    y 0.000000 3.472300 0.000000 
#    z 0.053730 0.000000 3.941040 
# 
# 
# High freq. dielectric constant tensor:
#      x y z
#    x 1.827220 0.000000 -0.001460 
#    y 0.000000 1.786930 0.000000 
#    z -0.001460 0.000000 1.835390 
# 
# From -- ./inp_files/65335.got.cif
#   From: 2010.06.25/outbox.cif.g09.slc.cpg/sg10_33_cif.got.tgz:65335.got - 2010.06.27 22:07:45.
