data_PCOD8066740
_publ_section_title
;
Structure prediction by ZEFSAII (Michael W. Deem and Ramdas Pophale) SiO2 
 PCOD8066740
Probable space group: P 2/M
;
_chemical_formula_sum "Si O2"
_cell_formula_units_Z 20
_cell_length_a 9.362569
_cell_length_b 15.912788
_cell_length_c 9.462894
_cell_angle_alpha 90.000000
_cell_angle_beta 44.326252
_cell_angle_gamma 90.000000
_cell_volume 985.105707
_symmetry_space_group_name_H-M "P 2/M"
_symmetry_group_IT_number 10
_symmetry_cell_setting 'monoclinic'
loop_
_space_group_symop_operation_xyz
x,y,z
-x,y,-z
-x,-y,-z
x,-y,z
loop_
_atom_site_type_symbol
_atom_site_label
_atom_site_fract_x
_atom_site_fract_y
_atom_site_fract_z
Si Si1 0.917323 0.000000 0.402514
Si Si2 0.439891 0.127247 0.379140
Si Si3 0.486780 0.287894 0.850389
Si Si4 0.644515 0.000000 0.037163
Si Si5 0.819599 0.410432 0.522516
Si Si6 0.903656 0.597268 0.916385
O O1 0.783157 0.084136 0.474824
O O2 0.000000 0.000000 0.500000
O O3 0.114196 0.000000 0.162820
O O4 0.500000 0.123865 0.500000
O O5 0.449503 0.221451 0.314632
O O6 0.601328 0.080285 0.164754
O O7 0.659547 0.356791 0.720508
O O8 0.275355 0.334279 0.967378
O O9 0.500000 0.248950 0.000000
O O10 0.500000 0.000000 0.000000
O O11 0.716053 0.500000 0.555504
O O12 0.000000 0.427922 0.500000
O O13 0.914662 0.369885 0.313964
O O14 0.836992 0.500000 0.926645
O O15 0.000000 0.600958 0.000000
#
# Coordination Sequence:
#
# PCOD8066740 Si02
#       6
#     2   4   4   2   4   4
#     4  11  23  45  78  95 124 171 209 256 315 383
#     4  11  27  44  64 103 137 163 214 264 320 390
#     4  12  25  41  65  94 131 175 216 269 323 383
#     4  11  21  47  76 101 126 165 211 258 315 387
#     4  10  21  39  63  93 125 168 226 275 320 378
#     4  10  23  42  64  93 130 173 222 273 329 384
#
# _framework density 20.302388000000001
#
# number of rings (size 3 to 8) (size 9 to 14) (size 15 to 20)
#    0.000    1.200    4.000    2.400    2.800    4.800 
#    0.000    3.000    0.000    0.000    0.000    0.000 
#    0.000    0.000    0.000    0.000    0.000    0.000 
#
# Total GULP energy -247843.557071 kJ/mol
# GULP energy per Si atom -12392.177854 kJ/mol
# Density = 2.025618 g / cm^3
# Si number density = 20.302388 Si / 1000 Ang^3
#
#
#
# Elastic Constant Matrix: (Units=GPa)
#
#
# Indices 1 2 3 4 5 6 
#
# 1 112.9003 41.0634 56.6282 0.0000 17.1061 0.0000
# 2 41.0634 86.0524 39.0674 0.0000 -4.1845 0.0000
# 3 56.6282 39.0674 148.9223 0.0000 4.4071 0.0000
# 4 0.0000 0.0000 0.0000 32.8176 0.0000 9.8445
# 5 17.1061 -4.1845 4.4071 0.0000 45.3696 0.0000
# 6 0.0000 0.0000 0.0000 9.8445 0.0000 23.1198
#
#
#
# Elastic Compliance Matrix: (Units=1/GPa)
#
#
# Indices 1 2 3 4 5 6 
#
# 1 0.013218 -0.004929 -0.003583 0.000000 -0.005090 0.000000
# 2 -0.004929 0.015140 -0.002200 0.000000 0.003468 0.000000
# 3 -0.003583 -0.002200 0.008645 0.000000 0.000308 0.000000
# 4 0.000000 0.000000 0.000000 0.034934 0.000000 -0.014875
# 5 -0.005090 0.003468 0.000308 0.000000 0.024250 0.000000
# 6 0.000000 0.000000 0.000000 -0.014875 0.000000 0.049587
#
#
# Mechanical properties :
#
#
# Convention : Reuss Voigt Hill
#
# Bulk Modulus (GPa) = 64.18239 69.04367 66.61303
# Shear Modulus (GPa) = 29.00376 34.33580 31.66978
#
# Velocity S-wave (km/s) = 3.78377 4.11691 3.95385
# Velocity P-wave (km/s) = 7.12538 7.52861 7.32977
#
# Compressibility (1/GPa) = 0.01558060
#
# Stress axis : x y z
#
# Youngs Moduli (GPa) = 75.65304 66.04878 115.66913
#
# Poissons Ratio (x) = 0.32553 0.41441
# Poissons Ratio (y) = 0.37287 0.25451
# Poissons Ratio (z) = 0.27104 0.14533
#
# Static dielectric constant tensor:
#      x y z
#    x 3.379610 0.000000 0.449210 
#    y 0.000000 3.840590 0.000000 
#    z 0.449210 0.000000 3.356780 
# 
# 
# High freq. dielectric constant tensor:
#      x y z
#    x 1.789150 0.000000 0.012390 
#    y 0.000000 1.789200 0.000000 
#    z 0.012390 0.000000 1.816150 
# 
# From -- ./inp_files/19565.got.cif
#   From: 2010.06.25/outbox.cif.g09.slc.cpg/sg10_10_cif.got.tgz:19565.got - 2010.06.27 22:07:45.
