data_PCOD8066961
_publ_section_title
;
Structure prediction by ZEFSAII (Michael W. Deem and Ramdas Pophale) SiO2 
 PCOD8066961
Probable space group: P 2/M
;
_chemical_formula_sum "Si O2"
_cell_formula_units_Z 32
_cell_length_a 9.755680
_cell_length_b 13.888264
_cell_length_c 15.304005
_cell_angle_alpha 90.000000
_cell_angle_beta 59.741399
_cell_angle_gamma 90.000000
_cell_volume 1791.033183
_symmetry_space_group_name_H-M "P 2/M"
_symmetry_group_IT_number 10
_symmetry_cell_setting 'monoclinic'
loop_
_space_group_symop_operation_xyz
x,y,z
-x,y,-z
-x,-y,-z
x,-y,z
loop_
_atom_site_type_symbol
_atom_site_label
_atom_site_fract_x
_atom_site_fract_y
_atom_site_fract_z
Si Si1 0.017140 0.392538 0.248936
Si Si2 0.947527 0.732568 0.919273
Si Si3 0.353014 0.609646 0.223750
Si Si4 0.550634 0.887989 0.230008
Si Si5 0.140217 0.887618 0.761744
Si Si6 0.413996 0.248979 0.941054
Si Si7 0.248147 0.774994 0.376223
Si Si8 0.079815 0.223037 0.608704
O O1 0.949340 0.500000 0.277008
O O2 0.980054 0.351183 0.164800
O O3 0.205037 0.388842 0.205621
O O4 0.924270 0.329895 0.350099
O O5 0.008057 0.835207 0.863624
O O6 0.760487 0.724196 0.973388
O O7 0.000000 0.713345 0.000000
O O8 0.394961 0.500000 0.237686
O O9 0.501639 0.656509 0.125936
O O10 0.311994 0.670762 0.324074
O O11 0.685196 0.862954 0.257922
O O12 0.591321 0.836651 0.126483
O O13 0.381119 0.855596 0.320902
O O14 0.544434 0.000000 0.211735
O O15 0.132325 0.854673 0.663698
O O16 0.102030 0.000000 0.779539
O O17 0.500000 0.210719 0.000000
O O18 0.208846 0.771834 0.490968
O O19 0.093905 0.806552 0.370546
#
# Coordination Sequence:
#
# PCOD8066961 Si02
#       8
#     4   4   4   4   4   4   4   4
#     4   9  18  33  54  81 109 139 178 218 258 312
#     4  11  21  36  55  78 108 144 178 218 266 311
#     4   9  18  33  55  81 108 140 178 217 259 313
#     4  10  22  38  55  79 107 139 181 222 261 317
#     4  10  22  38  56  78 105 141 182 219 264 320
#     4  11  21  36  55  80 110 142 178 218 265 314
#     4   9  19  36  57  82 109 137 175 221 268 314
#     4   9  19  36  57  81 110 140 171 219 272 315
#
# _framework density 17.866783000000002
#
# number of rings (size 3 to 8) (size 9 to 14) (size 15 to 20)
#    0.000    2.250    2.500    0.000    1.750    4.000 
#    0.000    5.000    0.000    0.000    0.000    3.500 
#    0.000    0.000    0.000    0.000    0.000    0.000 
#
# Total GULP energy -396829.505493 kJ/mol
# GULP energy per Si atom -12400.922047 kJ/mol
# Density = 1.782612 g / cm^3
# Si number density = 17.866783 Si / 1000 Ang^3
#
#
#
# Elastic Constant Matrix: (Units=GPa)
#
#
# Indices 1 2 3 4 5 6 
#
# 1 68.1835 26.1254 25.7203 0.0000 15.4771 0.0000
# 2 26.1254 86.3309 14.9469 0.0000 3.4316 0.0000
# 3 25.7203 14.9469 78.9538 0.0000 11.8157 0.0000
# 4 0.0000 0.0000 0.0000 13.7752 0.0000 0.8926
# 5 15.4771 3.4316 11.8157 0.0000 29.7591 0.0000
# 6 0.0000 0.0000 0.0000 0.8926 0.0000 21.6527
#
#
#
# Elastic Compliance Matrix: (Units=1/GPa)
#
#
# Indices 1 2 3 4 5 6 
#
# 1 0.020076 -0.004994 -0.004378 0.000000 -0.008127 0.000000
# 2 -0.004994 0.013226 -0.001103 0.000000 0.001510 0.000000
# 3 -0.004378 -0.001103 0.014822 0.000000 -0.003481 0.000000
# 4 0.000000 0.000000 0.000000 0.072789 0.000000 -0.003000
# 5 -0.008127 0.001510 -0.003481 0.000000 0.039038 0.000000
# 6 0.000000 0.000000 0.000000 -0.003000 0.000000 0.046307
#
#
# Mechanical properties :
#
#
# Convention : Reuss Voigt Hill
#
# Bulk Modulus (GPa) = 36.80205 40.78370 38.79288
# Shear Modulus (GPa) = 21.16257 24.14909 22.65583
#
# Velocity S-wave (km/s) = 3.44534 3.68043 3.56482
# Velocity P-wave (km/s) = 6.03903 6.39819 6.22120
#
# Compressibility (1/GPa) = 0.02717240
#
# Stress axis : x y z
#
# Youngs Moduli (GPa) = 49.80974 75.61068 67.46905
#
# Poissons Ratio (x) = 0.37763 0.29541
# Poissons Ratio (y) = 0.24877 0.07440
# Poissons Ratio (z) = 0.21809 0.08338
#
# Static dielectric constant tensor:
#      x y z
#    x 3.307650 0.000000 0.056640 
#    y 0.000000 3.289510 0.000000 
#    z 0.056640 0.000000 3.319880 
# 
# 
# High freq. dielectric constant tensor:
#      x y z
#    x 1.688880 0.000000 0.004180 
#    y 0.000000 1.687440 0.000000 
#    z 0.004180 0.000000 1.697580 
# 
# From -- ./inp_files/29158.got.cif
#   From: 2010.06.25/outbox.cif.g09.slc.cpg/sg10_15_cif.got.tgz:29158.got - 2010.06.27 22:07:45.
