data_PCOD8066878
_publ_section_title
;
Structure prediction by ZEFSAII (Michael W. Deem and Ramdas Pophale) SiO2 
 PCOD8066878
Probable space group: P 2/M
;
_chemical_formula_sum "Si O2"
_cell_formula_units_Z 32
_cell_length_a 14.569017
_cell_length_b 17.231007
_cell_length_c 12.037216
_cell_angle_alpha 90.000000
_cell_angle_beta 149.981716
_cell_angle_gamma 90.000000
_cell_volume 1511.739372
_symmetry_space_group_name_H-M "P 2/M"
_symmetry_group_IT_number 10
_symmetry_cell_setting 'monoclinic'
loop_
_space_group_symop_operation_xyz
x,y,z
-x,y,-z
-x,-y,-z
x,-y,z
loop_
_atom_site_type_symbol
_atom_site_label
_atom_site_fract_x
_atom_site_fract_y
_atom_site_fract_z
Si Si1 0.478833 0.088807 0.322355
Si Si2 0.204929 0.845945 0.204255
Si Si3 0.634412 0.087876 0.040010
Si Si4 0.287220 0.673791 0.281695
Si Si5 0.134932 0.635736 0.888025
Si Si6 0.162211 0.238971 0.753766
Si Si7 0.561470 0.364371 0.950436
Si Si8 0.256120 0.587950 0.475024
O O1 0.670917 0.123228 0.564974
O O2 0.302728 0.132483 0.190319
O O3 0.464025 0.000000 0.344225
O O4 0.481892 0.098875 0.193852
O O5 0.181129 0.753655 0.189793
O O6 0.000000 0.882154 0.000000
O O7 0.807172 0.146352 0.216510
O O8 0.712018 0.000000 0.130654
O O9 0.500000 0.107348 0.000000
O O10 0.500000 0.693667 0.500000
O O11 0.242695 0.615702 0.334627
O O12 0.221409 0.632292 0.100699
O O13 0.107770 0.726043 0.818672
O O14 0.945612 0.590073 0.683953
O O15 0.274623 0.593306 0.947115
O O16 0.000000 0.261577 0.500000
O O17 0.356807 0.280312 0.925214
O O18 0.388943 0.356826 0.686378
O O19 0.500000 0.408407 0.000000
O O20 0.330514 0.500000 0.557419
#
# Coordination Sequence:
#
# PCOD8066878 Si02
#       8
#     4   4   4   4   4   4   4   4
#     4  10  22  40  63  94 135 176 221 278 333 389
#     4  11  22  38  66  95 128 171 223 276 332 389
#     4  10  22  41  63  95 136 180 221 271 335 388
#     4  12  22  45  66  96 133 174 219 273 338 404
#     4  10  24  42  67 101 134 168 226 275 328 400
#     4  10  21  41  67  98 129 172 223 275 323 389
#     4  10  23  43  70  99 131 173 225 272 331 393
#     4  12  27  45  71 100 134 177 218 277 344 408
#
# _framework density 21.167670999999999
#
# number of rings (size 3 to 8) (size 9 to 14) (size 15 to 20)
#    0.750    0.625    2.500    3.750    1.750    3.250 
#    4.500    0.625    0.000    0.000    0.000    0.000 
#    0.000    0.000    0.000    0.000    0.000    0.000 
#
# Total GULP energy -396617.340906 kJ/mol
# GULP energy per Si atom -12394.291903 kJ/mol
# Density = 2.111949 g / cm^3
# Si number density = 21.167671 Si / 1000 Ang^3
#
#
#
# Elastic Constant Matrix: (Units=GPa)
#
#
# Indices 1 2 3 4 5 6 
#
# 1 138.6599 32.7359 79.3585 0.0000 -11.0802 0.0000
# 2 32.7359 94.1090 34.1929 0.0000 -2.6802 0.0000
# 3 79.3585 34.1929 131.0610 0.0000 7.0675 0.0000
# 4 0.0000 0.0000 0.0000 49.5510 0.0000 15.5008
# 5 -11.0802 -2.6802 7.0675 0.0000 42.7312 0.0000
# 6 0.0000 0.0000 0.0000 15.5008 0.0000 18.2076
#
#
#
# Elastic Compliance Matrix: (Units=1/GPa)
#
#
# Indices 1 2 3 4 5 6 
#
# 1 0.011939 -0.001465 -0.007072 0.000000 0.004173 0.000000
# 2 -0.001465 0.011985 -0.002280 0.000000 0.000749 0.000000
# 3 -0.007072 -0.002280 0.012727 0.000000 -0.004082 0.000000
# 4 0.000000 0.000000 0.000000 0.027507 0.000000 -0.023418
# 5 0.004173 0.000749 -0.004082 0.000000 0.025206 0.000000
# 6 0.000000 0.000000 0.000000 -0.023418 0.000000 0.074858
#
#
# Mechanical properties :
#
#
# Convention : Reuss Voigt Hill
#
# Bulk Modulus (GPa) = 66.58999 72.93384 69.76191
# Shear Modulus (GPa) = 26.19696 36.60082 31.39889
#
# Velocity S-wave (km/s) = 3.52176 4.16274 3.85560
# Velocity P-wave (km/s) = 6.93280 7.59175 7.26975
#
# Compressibility (1/GPa) = 0.01501727
#
# Stress axis : x y z
#
# Youngs Moduli (GPa) = 83.76239 83.43531 78.57207
#
# Poissons Ratio (x) = 0.12219 0.55565
# Poissons Ratio (y) = 0.12267 0.17918
# Poissons Ratio (z) = 0.59235 0.19027
#
# Static dielectric constant tensor:
#      x y z
#    x 3.853130 0.000000 -0.024660 
#    y 0.000000 3.601090 0.000000 
#    z -0.024660 0.000000 3.806870 
# 
# 
# High freq. dielectric constant tensor:
#      x y z
#    x 1.834550 0.000000 -0.004920 
#    y 0.000000 1.811010 0.000000 
#    z -0.004920 0.000000 1.834310 
# 
# From -- ./inp_files/52001.got.cif
#   From: 2010.06.25/outbox.cif.g09.slc.cpg/sg10_27_cif.got.tgz:52001.got - 2010.06.27 22:07:45.
