data_PCOD8066985
_publ_section_title
;
Structure prediction by ZEFSAII (Michael W. Deem and Ramdas Pophale) SiO2 
 PCOD8066985
Probable space group: P 2/M
;
_chemical_formula_sum "Si O2"
_cell_formula_units_Z 24
_cell_length_a 11.673149
_cell_length_b 16.996341
_cell_length_c 18.135614
_cell_angle_alpha 90.000000
_cell_angle_beta 20.656468
_cell_angle_gamma 90.000000
_cell_volume 1269.287500
_symmetry_space_group_name_H-M "P 2/M"
_symmetry_group_IT_number 10
_symmetry_cell_setting 'monoclinic'
loop_
_space_group_symop_operation_xyz
x,y,z
-x,y,-z
-x,-y,-z
x,-y,z
loop_
_atom_site_type_symbol
_atom_site_label
_atom_site_fract_x
_atom_site_fract_y
_atom_site_fract_z
Si Si1 0.376766 0.735066 0.784514
Si Si2 0.845965 0.913581 0.756157
Si Si3 0.385009 0.588463 0.278570
Si Si4 0.692992 0.198035 0.725961
Si Si5 0.352110 0.674323 0.015744
Si Si6 0.753106 0.221140 0.411976
O O1 0.512129 0.648494 0.720201
O O2 0.421450 0.799332 0.824643
O O3 0.556365 0.760453 0.603460
O O4 0.000000 0.728897 0.000000
O O5 0.800833 0.884060 0.698025
O O6 0.047562 0.857361 0.689036
O O7 0.013307 0.000000 0.650899
O O8 0.500000 0.923124 0.000000
O O9 0.480551 0.500000 0.244053
O O10 0.000000 0.594676 0.500000
O O11 0.603206 0.610466 0.075370
O O12 0.000000 0.237673 0.500000
O O13 0.584779 0.251119 0.859681
O O14 0.983199 0.705860 0.247966
O O15 0.500000 0.635080 0.000000
O O16 0.500000 0.202053 0.500000
#
# Coordination Sequence:
#
# PCOD8066985 Si02
#       6
#     4   4   4   4   4   4
#     4  11  23  38  62  88 114 156 198 242 295 344
#     4  11  23  39  61  88 118 156 192 241 303 346
#     4  10  22  38  59  88 122 155 190 240 295 344
#     4  11  18  36  60  85 113 148 196 245 280 342
#     4  11  18  34  60  86 114 152 199 239 282 343
#     4  12  22  38  61  86 118 155 201 243 285 348
#
# _framework density 18.908246999999999
#
# number of rings (size 3 to 8) (size 9 to 14) (size 15 to 20)
#    0.000    1.000    5.000    5.000    0.000    1.333 
#    0.000    0.833    0.000    3.000    0.000    0.000 
#    0.000    0.000    0.000    0.000    0.000    0.000 
#
# Total GULP energy -297389.531256 kJ/mol
# GULP energy per Si atom -12391.230469 kJ/mol
# Density = 1.886521 g / cm^3
# Si number density = 18.908247 Si / 1000 Ang^3
#
#
#
# Elastic Constant Matrix: (Units=GPa)
#
#
# Indices 1 2 3 4 5 6 
#
# 1 118.3667 45.9423 13.4454 0.0000 -8.7777 0.0000
# 2 45.9423 94.0969 13.3523 0.0000 -10.4685 0.0000
# 3 13.4454 13.3523 70.9931 0.0000 -7.8631 0.0000
# 4 0.0000 0.0000 0.0000 -328.1713 0.0000 -354.4658
# 5 -8.7777 -10.4685 -7.8631 0.0000 37.3324 0.0000
# 6 0.0000 0.0000 0.0000 -354.4658 0.0000 -350.0693
#
#
#
# Elastic Compliance Matrix: (Units=1/GPa)
#
#
# Indices 1 2 3 4 5 6 
#
# 1 0.010528 -0.004903 -0.000973 0.000000 0.000896 0.000000
# 2 -0.004903 0.013473 -0.001346 0.000000 0.002342 0.000000
# 3 -0.000973 -0.001346 0.014801 0.000000 0.002511 0.000000
# 4 0.000000 0.000000 0.000000 0.032524 0.000000 -0.032933
# 5 0.000896 0.002342 0.002511 0.000000 0.028183 0.000000
# 6 0.000000 0.000000 0.000000 -0.032933 0.000000 0.030490
#
#
# Mechanical properties :
#
#
# Convention : Reuss Voigt Hill
#
# Bulk Modulus (GPa) = 41.05175 47.65963 44.35569
# Shear Modulus (GPa) = 32.77379 -114.13384 -40.68003
#
# Velocity S-wave (km/s) = 4.16782 -7.77772 -4.64340
# Velocity P-wave (km/s) = 6.70217 7.44291 2.28886
#
# Compressibility (1/GPa) = 0.02435950
#
# Stress axis : x y z
#
# Youngs Moduli (GPa) = 94.98381 74.22511 67.56115
#
# Poissons Ratio (x) = 0.36390 0.06571
# Poissons Ratio (y) = 0.46567 0.09094
# Poissons Ratio (z) = 0.09238 0.09991
#
# Static dielectric constant tensor:
#      x y z
#    x 3.655970 0.000000 0.105390 
#    y 0.000000 3.587540 0.000000 
#    z 0.105390 0.000000 3.613450 
# 
# 
# High freq. dielectric constant tensor:
#      x y z
#    x 1.739020 0.000000 0.012520 
#    y 0.000000 1.711100 0.000000 
#    z 0.012520 0.000000 1.747710 
# 
# From -- ./inp_files/19294.got.cif
#   From: 2010.06.25/outbox.cif.g09.slc.cpg/sg10_10_cif.got.tgz:19294.got - 2010.06.27 22:07:45.
