data_PCOD8066716
_publ_section_title
;
Structure prediction by ZEFSAII (Michael W. Deem and Ramdas Pophale) SiO2 
 PCOD8066716
Probable space group: P 2/M
;
_chemical_formula_sum "Si O2"
_cell_formula_units_Z 20
_cell_length_a 25.607195
_cell_length_b 8.856517
_cell_length_c 8.880188
_cell_angle_alpha 90.000000
_cell_angle_beta 29.995887
_cell_angle_gamma 90.000000
_cell_volume 1006.846190
_symmetry_space_group_name_H-M "P 2/M"
_symmetry_group_IT_number 10
_symmetry_cell_setting 'monoclinic'
loop_
_space_group_symop_operation_xyz
x,y,z
-x,y,-z
-x,-y,-z
x,-y,z
loop_
_atom_site_type_symbol
_atom_site_label
_atom_site_fract_x
_atom_site_fract_y
_atom_site_fract_z
Si Si1 0.103644 0.321897 0.823060
Si Si2 0.496252 0.675299 0.834073
Si Si3 0.311378 0.173846 0.797426
Si Si4 0.098213 0.174100 0.156646
Si Si5 0.300001 0.176579 0.173323
O O1 0.108512 0.500000 0.801191
O O2 0.204358 0.258994 0.489191
O O3 0.103604 0.274727 0.995870
O O4 0.000000 0.258838 0.000000
O O5 0.472391 0.500000 0.864681
O O6 0.606785 0.717369 0.486750
O O7 0.500000 0.713929 0.000000
O O8 0.407504 0.775305 0.980605
O O9 0.347220 0.000000 0.691023
O O10 0.200095 0.202227 0.000965
O O11 0.303480 0.221335 0.990371
O O12 0.000000 0.227410 0.500000
O O13 0.086736 0.000000 0.136983
O O14 0.283907 0.000000 0.236786
#
# Coordination Sequence:
#
# PCOD8066716 Si02
#       5
#     4   4   4   4   4
#     4  11  24  40  59  87 122 157 194 238 290 347
#     4  11  24  40  59  86 120 156 194 238 291 350
#     4  10  22  39  60  88 118 151 195 244 292 343
#     4  10  21  39  63  89 118 154 197 243 290 343
#     4  11  23  40  63  88 116 152 196 244 291 344
#
# _framework density 19.864007999999998
#
# number of rings (size 3 to 8) (size 9 to 14) (size 15 to 20)
#    0.000    1.400    0.000    4.800    0.000   13.200 
#    0.000    0.000    0.000    0.000    0.000    0.000 
#    0.000    0.000    0.000    0.000    0.000    0.000 
#
# Total GULP energy -248141.412347 kJ/mol
# GULP energy per Si atom -12407.070617 kJ/mol
# Density = 1.981880 g / cm^3
# Si number density = 19.864008 Si / 1000 Ang^3
#
#
#
# Elastic Constant Matrix: (Units=GPa)
#
#
# Indices 1 2 3 4 5 6 
#
# 1 140.6741 41.6654 59.1341 0.0000 10.4719 0.0000
# 2 41.6654 50.1289 32.7190 0.0000 11.5727 0.0000
# 3 59.1341 32.7190 137.0972 0.0000 9.9749 0.0000
# 4 0.0000 0.0000 0.0000-1517.0887 0.0000 -940.0102
# 5 10.4719 11.5727 9.9749 0.0000 36.6087 0.0000
# 6 0.0000 0.0000 0.0000 -940.0102 0.0000 -536.2316
#
#
#
# Elastic Compliance Matrix: (Units=1/GPa)
#
#
# Indices 1 2 3 4 5 6 
#
# 1 0.010285 -0.006684 -0.002837 0.000000 -0.000056 0.000000
# 2 -0.006684 0.029365 -0.003661 0.000000 -0.006373 0.000000
# 3 -0.002837 -0.003661 0.009435 0.000000 -0.000602 0.000000
# 4 0.000000 0.000000 0.000000 0.007649 0.000000 -0.013408
# 5 -0.000056 -0.006373 -0.000602 0.000000 0.029511 0.000000
# 6 0.000000 0.000000 0.000000 -0.013408 0.000000 0.021639
#
#
# Mechanical properties :
#
#
# Convention : Reuss Voigt Hill
#
# Bulk Modulus (GPa) = 44.01246 66.10414 55.05830
# Shear Modulus (GPa) = 35.25531 -390.38353 -177.56411
#
# Velocity S-wave (km/s) = 4.21745 -14.03406 -9.46488
# Velocity P-wave (km/s) = 6.77649 15.14119 9.57431
#
# Compressibility (1/GPa) = 0.02272084
#
# Stress axis : x y z
#
# Youngs Moduli (GPa) = 97.22852 34.05389 105.98370
#
# Poissons Ratio (x) = 0.22761 0.30068
# Poissons Ratio (y) = 0.64987 0.38806
# Poissons Ratio (z) = 0.27584 0.12469
#
# Static dielectric constant tensor:
#      x y z
#    x 3.813340 0.000000 -0.031450 
#    y 0.000000 3.616550 0.000000 
#    z -0.031450 0.000000 3.755660 
# 
# 
# High freq. dielectric constant tensor:
#      x y z
#    x 1.794370 0.000000 -0.001260 
#    y 0.000000 1.776450 0.000000 
#    z -0.001260 0.000000 1.793920 
# 
# From -- ./inp_files/22094.got.cif
#   From: 2010.06.25/outbox.cif.g09.slc.cpg/sg10_12_cif.got.tgz:22094.got - 2010.06.27 22:07:45.
