data_PCOD8066367
_publ_section_title
;
Structure prediction by ZEFSAII (Michael W. Deem and Ramdas Pophale) SiO2 
 PCOD8066367
Probable space group: P 2/M
;
_chemical_formula_sum "Si O2"
_cell_formula_units_Z 32
_cell_length_a 11.359510
_cell_length_b 13.478981
_cell_length_c 10.054168
_cell_angle_alpha 90.000000
_cell_angle_beta 90.216868
_cell_angle_gamma 90.000000
_cell_volume 1539.429080
_symmetry_space_group_name_H-M "P 2/M"
_symmetry_group_IT_number 10
_symmetry_cell_setting 'monoclinic'
loop_
_space_group_symop_operation_xyz
x,y,z
-x,y,-z
-x,-y,-z
x,-y,z
loop_
_atom_site_type_symbol
_atom_site_label
_atom_site_fract_x
_atom_site_fract_y
_atom_site_fract_z
Si Si1 0.989085 0.275188 0.144825
Si Si2 0.629433 0.885294 0.002168
Si Si3 0.080139 0.384518 0.383424
Si Si4 0.418586 0.612571 0.693045
Si Si5 0.862666 0.114283 0.492225
Si Si6 0.820107 0.884825 0.793461
Si Si7 0.254620 0.787796 0.761174
Si Si8 0.336437 0.389359 0.393081
O O1 0.856666 0.243257 0.156743
O O2 0.018106 0.364304 0.244526
O O3 0.065788 0.176859 0.165137
O O4 0.000000 0.322117 0.000000
O O5 0.683953 0.872129 0.149680
O O6 0.614379 0.000000 0.972693
O O7 0.500000 0.834183 0.000000
O O8 0.709972 0.843858 0.880269
O O9 0.093569 0.500000 0.412843
O O10 0.210243 0.332435 0.379672
O O11 0.000000 0.336473 0.500000
O O12 0.410152 0.500000 0.753945
O O13 0.339407 0.692000 0.767586
O O14 0.554364 0.653606 0.692941
O O15 0.371849 0.607116 0.544766
O O16 0.799438 0.128066 0.634798
O O17 0.783300 0.175146 0.385830
O O18 0.000000 0.150726 0.500000
O O19 0.862001 0.000000 0.446469
O O20 0.846489 0.000000 0.826675
O O21 0.315842 0.500000 0.338472
#
# Coordination Sequence:
#
# PCOD8066367 Si02
#       8
#     4   4   4   4   4   4   4   4
#     4  12  25  38  57  92 124 159 203 250 302 373
#     4  10  23  45  66  85 119 167 211 251 302 373
#     4  10  22  39  64  91 121 162 202 249 312 369
#     4   9  19  35  57  87 122 159 201 245 294 351
#     4  10  21  37  61  95 127 154 196 258 319 365
#     4  10  22  41  64  87 121 162 200 252 309 367
#     4  12  23  37  62  94 123 161 202 257 303 366
#     4   8  16  35  58  84 115 156 203 243 292 359
#
# _framework density 20.786926000000001
#
# number of rings (size 3 to 8) (size 9 to 14) (size 15 to 20)
#    0.000    1.875    2.500    1.875    3.500    3.500 
#    2.250    0.000    0.000    3.750    0.000    0.000 
#    0.000    0.000    0.000    0.000    0.000    0.000 
#
# Total GULP energy -396519.755227 kJ/mol
# GULP energy per Si atom -12391.242351 kJ/mol
# Density = 2.073961 g / cm^3
# Si number density = 20.786926 Si / 1000 Ang^3
#
#
#
# Elastic Constant Matrix: (Units=GPa)
#
#
# Indices 1 2 3 4 5 6 
#
# 1 164.9276 28.2214 55.9520 0.0000 -14.5674 0.0000
# 2 28.2214 44.8541 18.3585 0.0000 -11.9700 0.0000
# 3 55.9520 18.3585 128.0557 0.0000 -6.9295 0.0000
# 4 0.0000 0.0000 0.0000 2.0388 0.0000 7.3693
# 5 -14.5674 -11.9700 -6.9295 0.0000 33.9751 0.0000
# 6 0.0000 0.0000 0.0000 7.3693 0.0000 17.8298
#
#
#
# Elastic Compliance Matrix: (Units=1/GPa)
#
#
# Indices 1 2 3 4 5 6 
#
# 1 0.007720 -0.003283 -0.002817 0.000000 0.001579 0.000000
# 2 -0.003283 0.027279 -0.002055 0.000000 0.007784 0.000000
# 3 -0.002817 -0.002055 0.009333 0.000000 -0.000028 0.000000
# 4 0.000000 0.000000 0.000000 -0.993025 0.000000 0.410433
# 5 0.001579 0.007784 -0.000028 0.000000 0.032847 0.000000
# 6 0.000000 0.000000 0.000000 0.410433 0.000000 -0.113553
#
#
# Mechanical properties :
#
#
# Convention : Reuss Voigt Hill
#
# Bulk Modulus (GPa) = 35.68704 60.32235 48.00469
# Shear Modulus (GPa) = -4.98133 26.45579 10.73723
#
# Velocity S-wave (km/s) = -1.54970 3.57138 2.27521
# Velocity P-wave (km/s) = 3.74208 6.78887 5.48142
#
# Compressibility (1/GPa) = 0.02802138
#
# Stress axis : x y z
#
# Youngs Moduli (GPa) = 129.53014 36.65890 107.14572
#
# Poissons Ratio (x) = 0.12035 0.30184
# Poissons Ratio (y) = 0.42525 0.22019
# Poissons Ratio (z) = 0.36490 0.07534
#
# Static dielectric constant tensor:
#      x y z
#    x 4.356150 0.000000 -0.318750 
#    y 0.000000 3.769150 0.000000 
#    z -0.318750 0.000000 3.523050 
# 
# 
# High freq. dielectric constant tensor:
#      x y z
#    x 1.826290 0.000000 -0.010450 
#    y 0.000000 1.803260 0.000000 
#    z -0.010450 0.000000 1.797640 
# 
# From -- ./inp_files/25327.got.cif
#   From: 2010.06.25/outbox.cif.g09.slc.cpg/sg10_13_cif.got.tgz:25327.got - 2010.06.27 22:07:45.
