data_PCOD8066410
_publ_section_title
;
Structure prediction by ZEFSAII (Michael W. Deem and Ramdas Pophale) SiO2 
 PCOD8066410
Probable space group: P 2/M
;
_chemical_formula_sum "Si O2"
_cell_formula_units_Z 28
_cell_length_a 12.405524
_cell_length_b 8.907881
_cell_length_c 14.854167
_cell_angle_alpha 90.000000
_cell_angle_beta 105.511891
_cell_angle_gamma 90.000000
_cell_volume 1581.697152
_symmetry_space_group_name_H-M "P 2/M"
_symmetry_group_IT_number 10
_symmetry_cell_setting 'monoclinic'
loop_
_space_group_symop_operation_xyz
x,y,z
-x,y,-z
-x,-y,-z
x,-y,z
loop_
_atom_site_type_symbol
_atom_site_label
_atom_site_fract_x
_atom_site_fract_y
_atom_site_fract_z
Si Si1 0.474333 0.672395 0.095429
Si Si2 0.868034 0.823960 0.111793
Si Si3 0.898883 0.676822 0.790774
Si Si4 0.748021 0.175695 0.900416
Si Si5 0.715015 0.672019 0.223482
Si Si6 0.085142 0.826893 0.389567
Si Si7 0.163122 0.827228 0.600437
O O1 0.432907 0.500000 0.085290
O O2 0.380186 0.777932 0.115893
O O3 0.583325 0.693425 0.181039
O O4 0.500000 0.726053 0.000000
O O5 0.781813 0.772886 0.168188
O O6 0.986626 0.745359 0.147162
O O7 0.887409 0.000000 0.126919
O O8 0.818402 0.780547 0.004228
O O9 0.906940 0.500000 0.798981
O O10 0.796219 0.734483 0.827008
O O11 0.874099 0.723839 0.682712
O O12 0.754879 0.000000 0.881864
O O13 0.750849 0.500000 0.217124
O O14 0.743857 0.724459 0.331156
O O15 0.152124 0.777860 0.494029
O O16 0.953551 0.802762 0.374425
O O17 0.109411 0.000000 0.372092
O O18 0.199778 0.000000 0.614542
#
# Coordination Sequence:
#
# PCOD8066410 Si02
#       7
#     4   4   4   4   4   4   4
#     4  10  21  38  57  79 112 147 182 228 276 321
#     4  11  22  36  54  79 112 147 185 226 268 321
#     4  12  24  36  55  82 113 148 182 223 278 332
#     4  11  24  39  57  79 107 148 193 230 267 321
#     4  11  21  33  55  84 114 146 180 224 276 323
#     4   9  18  34  55  80 111 145 181 221 272 326
#     4   9  18  33  55  81 111 146 179 223 274 323
#
# _framework density 17.702504999999999
#
# number of rings (size 3 to 8) (size 9 to 14) (size 15 to 20)
#    0.000    1.571    2.857    3.857    0.000    5.429 
#    0.000    1.429    0.000    0.857    0.000    6.000 
#    0.000    0.000    0.000    0.000    0.000    0.000 
#
# Total GULP energy -347329.952827 kJ/mol
# GULP energy per Si atom -12404.641172 kJ/mol
# Density = 1.766221 g / cm^3
# Si number density = 17.702505 Si / 1000 Ang^3
#
#
#
# Elastic Constant Matrix: (Units=GPa)
#
#
# Indices 1 2 3 4 5 6 
#
# 1 86.0123 48.5522 50.3621 0.0000 -7.7639 0.0000
# 2 48.5522 76.4486 58.8417 0.0000 8.6991 0.0000
# 3 50.3621 58.8417 125.7857 0.0000 1.9708 0.0000
# 4 0.0000 0.0000 0.0000 26.6472 0.0000 1.1132
# 5 -7.7639 8.6991 1.9708 0.0000 16.9307 0.0000
# 6 0.0000 0.0000 0.0000 1.1132 0.0000 28.3161
#
#
#
# Elastic Compliance Matrix: (Units=1/GPa)
#
#
# Indices 1 2 3 4 5 6 
#
# 1 0.023222 -0.014815 -0.002658 0.000000 0.018570 0.000000
# 2 -0.014815 0.031506 -0.008462 0.000000 -0.021997 0.000000
# 3 -0.002658 -0.008462 0.012947 0.000000 0.001622 0.000000
# 4 0.000000 0.000000 0.000000 0.037589 0.000000 -0.001478
# 5 0.018570 -0.021997 0.001622 0.000000 0.078693 0.000000
# 6 0.000000 0.000000 0.000000 -0.001478 0.000000 0.035374
#
#
# Mechanical properties :
#
#
# Convention : Reuss Voigt Hill
#
# Bulk Modulus (GPa) = 63.27297 67.08428 65.17863
# Shear Modulus (GPa) = 18.08522 23.07819 20.58171
#
# Velocity S-wave (km/s) = 3.19975 3.61455 3.41346
# Velocity P-wave (km/s) = 7.03357 7.44296 7.24116
#
# Compressibility (1/GPa) = 0.01580454
#
# Stress axis : x y z
#
# Youngs Moduli (GPa) = 43.06312 31.74026 77.23687
#
# Poissons Ratio (x) = 0.47024 0.20529
# Poissons Ratio (y) = 0.63799 0.65356
# Poissons Ratio (z) = 0.11446 0.26858
#
# Static dielectric constant tensor:
#      x y z
#    x 3.087990 0.000000 0.038240 
#    y 0.000000 3.315060 0.000000 
#    z 0.038240 0.000000 3.456570 
# 
# 
# High freq. dielectric constant tensor:
#      x y z
#    x 1.662750 0.000000 0.002000 
#    y 0.000000 1.691120 0.000000 
#    z 0.002000 0.000000 1.692010 
# 
# From -- ./inp_files/49566.got.cif
#   From: 2010.06.25/outbox.cif.g09.slc.cpg/sg10_25_cif.got.tgz:49566.got - 2010.06.27 22:07:45.
