data_PCOD8066955
_publ_section_title
;
Structure prediction by ZEFSAII (Michael W. Deem and Ramdas Pophale) SiO2 
 PCOD8066955
Probable space group: P 2/M
;
_chemical_formula_sum "Si O2"
_cell_formula_units_Z 24
_cell_length_a 13.920408
_cell_length_b 13.737654
_cell_length_c 15.374430
_cell_angle_alpha 90.000000
_cell_angle_beta 27.420190
_cell_angle_gamma 90.000000
_cell_volume 1353.957665
_symmetry_space_group_name_H-M "P 2/M"
_symmetry_group_IT_number 10
_symmetry_cell_setting 'monoclinic'
loop_
_space_group_symop_operation_xyz
x,y,z
-x,y,-z
-x,-y,-z
x,-y,z
loop_
_atom_site_type_symbol
_atom_site_label
_atom_site_fract_x
_atom_site_fract_y
_atom_site_fract_z
Si Si1 0.793712 0.389579 0.775167
Si Si2 0.637465 0.197717 0.968186
Si Si3 0.864712 0.886926 0.025003
Si Si4 0.466110 0.790906 0.287711
Si Si5 0.947733 0.112511 0.310449
Si Si6 0.272068 0.390555 0.371723
O O1 0.717447 0.500000 0.855244
O O2 0.669773 0.315512 0.937494
O O3 0.738490 0.358712 0.720744
O O4 0.038785 0.381587 0.596908
O O5 0.863546 0.147966 0.780350
O O6 0.500000 0.157185 0.000000
O O7 0.519668 0.164238 0.150178
O O8 0.662758 0.816189 0.191117
O O9 0.792541 0.000000 0.082926
O O10 0.000000 0.861461 0.000000
O O11 0.004101 0.863242 0.828752
O O12 0.261743 0.835090 0.493565
O O13 0.427075 0.675917 0.304397
O O14 0.911372 0.000000 0.355120
O O15 0.355007 0.500000 0.314523
#
# Coordination Sequence:
#
# PCOD8066955 Si02
#       6
#     4   4   4   4   4   4
#     4   9  17  31  50  75 107 144 185 225 260 294
#     4  11  21  32  51  75 109 148 183 218 252 304
#     4   9  20  39  61  85 105 125 167 224 277 329
#     4  11  20  33  56  79 108 140 178 216 268 314
#     4  10  22  38  54  76 107 139 175 218 264 317
#     4   9  17  30  52  77 106 143 183 222 259 304
#
# _framework density 17.725812000000001
#
# number of rings (size 3 to 8) (size 9 to 14) (size 15 to 20)
#    0.000    2.167    3.333    1.500    0.000    3.333 
#    0.000    3.333    0.000    0.500    0.000    1.167 
#    0.000    0.000    0.000    0.000    0.000    0.000 
#
# Total GULP energy -297538.577053 kJ/mol
# GULP energy per Si atom -12397.440711 kJ/mol
# Density = 1.768547 g / cm^3
# Si number density = 17.725812 Si / 1000 Ang^3
#
#
#
# Elastic Constant Matrix: (Units=GPa)
#
#
# Indices 1 2 3 4 5 6 
#
# 1 107.0828 44.6286 49.4626 0.0000 -21.8774 0.0000
# 2 44.6286 79.7802 39.7189 0.0000 -10.2349 0.0000
# 3 49.4626 39.7189 107.4626 0.0000 -10.2453 0.0000
# 4 0.0000 0.0000 0.0000 15.9379 0.0000 -7.9649
# 5 -21.8774 -10.2349 -10.2453 0.0000 22.8451 0.0000
# 6 0.0000 0.0000 0.0000 -7.9649 0.0000 24.5953
#
#
#
# Elastic Compliance Matrix: (Units=1/GPa)
#
#
# Indices 1 2 3 4 5 6 
#
# 1 0.015704 -0.005289 -0.004247 0.000000 0.010764 0.000000
# 2 -0.005289 0.017605 -0.003973 0.000000 0.001040 0.000000
# 3 -0.004247 -0.003973 0.012715 0.000000 -0.000145 0.000000
# 4 0.000000 0.000000 0.000000 0.074858 0.000000 0.024242
# 5 0.010764 0.001040 -0.000145 0.000000 0.054483 0.000000
# 6 0.000000 0.000000 0.000000 0.024242 0.000000 0.048509
#
#
# Mechanical properties :
#
#
# Convention : Reuss Voigt Hill
#
# Bulk Modulus (GPa) = 52.61807 62.43844 57.52826
# Shear Modulus (GPa) = 19.43807 23.37667 21.40737
#
# Velocity S-wave (km/s) = 3.31508 3.63546 3.47896
# Velocity P-wave (km/s) = 6.66348 7.27483 6.97585
#
# Compressibility (1/GPa) = 0.01900488
#
# Stress axis : x y z
#
# Youngs Moduli (GPa) = 63.67837 56.80290 78.64729
#
# Poissons Ratio (x) = 0.30045 0.33401
# Poissons Ratio (y) = 0.33682 0.31247
# Poissons Ratio (z) = 0.27044 0.22568
#
# Static dielectric constant tensor:
#      x y z
#    x 3.076900 0.000000 -0.067500 
#    y 0.000000 3.335480 0.000000 
#    z -0.067500 0.000000 3.410180 
# 
# 
# High freq. dielectric constant tensor:
#      x y z
#    x 1.649130 0.000000 -0.004740 
#    y 0.000000 1.679210 0.000000 
#    z -0.004740 0.000000 1.705830 
# 
# From -- ./inp_files/51521.got.cif
#   From: 2010.06.25/outbox.cif.g09.slc.cpg/sg10_26_cif.got.tgz:51521.got - 2010.06.27 22:07:45.
