data_PCOD8066950
_publ_section_title
;
Structure prediction by ZEFSAII (Michael W. Deem and Ramdas Pophale) SiO2 
 PCOD8066950
Probable space group: P 2/M
;
_chemical_formula_sum "Si O2"
_cell_formula_units_Z 32
_cell_length_a 28.885354
_cell_length_b 9.007537
_cell_length_c 12.204333
_cell_angle_alpha 90.000000
_cell_angle_beta 145.837838
_cell_angle_gamma 90.000000
_cell_volume 1783.102122
_symmetry_space_group_name_H-M "P 2/M"
_symmetry_group_IT_number 10
_symmetry_cell_setting 'monoclinic'
loop_
_space_group_symop_operation_xyz
x,y,z
-x,y,-z
-x,-y,-z
x,-y,z
loop_
_atom_site_type_symbol
_atom_site_label
_atom_site_fract_x
_atom_site_fract_y
_atom_site_fract_z
Si Si1 0.956478 0.327583 0.800103
Si Si2 0.133524 0.827887 0.749180
Si Si3 0.987358 0.171997 0.297584
Si Si4 0.374705 0.174539 0.768839
Si Si5 0.485929 0.824388 0.796839
Si Si6 0.785546 0.175833 0.427891
Si Si7 0.538642 0.674775 0.688556
Si Si8 0.726531 0.324787 0.090409
O O1 0.938006 0.500000 0.745521
O O2 0.871775 0.238542 0.636065
O O3 0.014992 0.269921 0.816753
O O4 0.000000 0.296457 0.000000
O O5 0.089123 0.781254 0.775332
O O6 0.214899 0.727864 0.894704
O O7 0.072624 0.798613 0.528028
O O8 0.158546 0.000000 0.802084
O O9 0.980482 0.000000 0.251685
O O10 0.404706 0.226166 0.707043
O O11 0.280836 0.221783 0.608634
O O12 0.385989 0.000000 0.796360
O O13 0.434281 0.236874 0.980970
O O14 0.483380 0.746532 0.674994
O O15 0.488728 0.000000 0.784163
O O16 0.756993 0.243045 0.258010
O O17 0.792415 0.000000 0.426635
O O18 0.500000 0.732759 0.500000
O O19 0.530680 0.500000 0.683814
O O20 0.633724 0.725253 0.881597
O O21 0.734111 0.500000 0.121160
#
# Coordination Sequence:
#
# PCOD8066950 Si02
#       8
#     4   4   4   4   4   4   4   4
#     4  11  24  39  54  78 113 147 180 219 263 316
#     4   9  18  33  55  83 110 135 173 225 272 314
#     4   9  18  34  56  81 108 140 177 219 267 320
#     4   8  16  30  53  82 108 133 167 223 274 310
#     4   9  16  32  55  79 106 136 176 219 265 316
#     4  11  20  34  57  82 108 139 178 223 271 318
#     4  10  22  38  52  73 111 151 181 215 263 318
#     4  11  21  33  53  81 109 140 182 225 266 316
#
# _framework density 17.946251
#
# number of rings (size 3 to 8) (size 9 to 14) (size 15 to 20)
#    0.000    2.250    2.500    2.625    0.000    2.250 
#    0.000    5.000    0.000    6.000    0.000    0.000 
#    0.000    0.000    0.000    0.000    0.000    0.000 
#
# Total GULP energy -396760.408689 kJ/mol
# GULP energy per Si atom -12398.762772 kJ/mol
# Density = 1.790540 g / cm^3
# Si number density = 17.946251 Si / 1000 Ang^3
#
#
#
# Elastic Constant Matrix: (Units=GPa)
#
#
# Indices 1 2 3 4 5 6 
#
# 1 159.9132 52.6925 64.3836 0.0000 0.2436 0.0000
# 2 52.6925 57.8491 38.9132 0.0000 2.3922 0.0000
# 3 64.3836 38.9132 86.1524 0.0000 2.0077 0.0000
# 4 0.0000 0.0000 0.0000 7.1949 0.0000 -14.4722
# 5 0.2436 2.3922 2.0077 0.0000 28.2635 0.0000
# 6 0.0000 0.0000 0.0000 -14.4722 0.0000 7.0376
#
#
#
# Elastic Compliance Matrix: (Units=1/GPa)
#
#
# Indices 1 2 3 4 5 6 
#
# 1 0.010226 -0.006024 -0.004939 0.000000 0.000773 0.000000
# 2 -0.006024 0.028427 -0.008297 0.000000 -0.001765 0.000000
# 3 -0.004939 -0.008297 0.019060 0.000000 -0.000609 0.000000
# 4 0.000000 0.000000 0.000000 -0.044315 0.000000 -0.091129
# 5 0.000773 -0.001765 -0.000609 0.000000 0.035567 0.000000
# 6 0.000000 0.000000 0.000000 -0.091129 0.000000 -0.045305
#
#
# Mechanical properties :
#
#
# Convention : Reuss Voigt Hill
#
# Bulk Modulus (GPa) = 52.10167 68.43257 60.26712
# Shear Modulus (GPa) = 102.92679 18.36089 60.64384
#
# Velocity S-wave (km/s) = 7.58138 3.20207 5.81939
# Velocity P-wave (km/s) = 10.28258 7.20318 8.87742
#
# Compressibility (1/GPa) = 0.01919324
#
# Stress axis : x y z
#
# Youngs Moduli (GPa) = 97.79374 35.17731 52.46510
#
# Poissons Ratio (x) = 0.21190 0.25913
# Poissons Ratio (y) = 0.58908 0.43532
# Poissons Ratio (z) = 0.48301 0.29188
#
# Static dielectric constant tensor:
#      x y z
#    x 3.774960 0.000000 0.219090 
#    y 0.000000 3.168250 0.000000 
#    z 0.219090 0.000000 3.202310 
# 
# 
# High freq. dielectric constant tensor:
#      x y z
#    x 1.714200 0.000000 0.009140 
#    y 0.000000 1.683800 0.000000 
#    z 0.009140 0.000000 1.666490 
# 
# From -- ./inp_files/58353.got.cif
#   From: 2010.06.25/outbox.cif.g09.slc.cpg/sg10_30_cif.got.tgz:58353.got - 2010.06.27 22:07:45.
