data_PCOD8066671
_publ_section_title
;
Structure prediction by ZEFSAII (Michael W. Deem and Ramdas Pophale) SiO2 
 PCOD8066671
Probable space group: P 2/M
;
_chemical_formula_sum "Si O2"
_cell_formula_units_Z 28
_cell_length_a 26.754536
_cell_length_b 8.290628
_cell_length_c 4.854769
_cell_angle_alpha 90.000000
_cell_angle_beta 79.545681
_cell_angle_gamma 90.000000
_cell_volume 1058.969805
_symmetry_space_group_name_H-M "P 2/M"
_symmetry_group_IT_number 10
_symmetry_cell_setting 'monoclinic'
loop_
_space_group_symop_operation_xyz
x,y,z
-x,y,-z
-x,-y,-z
x,-y,z
loop_
_atom_site_type_symbol
_atom_site_label
_atom_site_fract_x
_atom_site_fract_y
_atom_site_fract_z
Si Si1 0.440110 0.176075 0.084478
Si Si2 0.037886 0.000000 0.716067
Si Si3 0.940110 0.323925 0.535302
Si Si4 0.805677 0.819375 0.587399
Si Si5 0.694322 0.319373 0.698760
Si Si6 0.371978 0.313563 0.712942
Si Si7 0.871979 0.813564 0.043100
Si Si8 0.462114 0.500000 0.291838
O O1 0.416725 0.206978 0.804762
O O2 0.427568 0.331670 0.302396
O O3 0.421618 0.000000 0.213902
O O4 0.500000 0.171286 0.000000
O O5 0.072433 0.168330 0.657530
O O6 0.000000 0.000000 0.500000
O O7 0.000000 0.000000 0.000000
O O8 0.921617 0.500000 0.442867
O O9 0.916724 0.293022 0.861788
O O10 0.000000 0.328713 0.500000
O O11 0.750001 0.749994 0.622352
O O12 0.824692 0.813721 0.879448
O O13 0.802911 0.000000 0.472627
O O14 0.847119 0.732076 0.344337
O O15 0.697084 0.500000 0.578466
O O16 0.675310 0.313707 0.028838
O O17 0.652881 0.232074 0.538579
O O18 0.393763 0.500000 0.654839
O O19 0.893765 0.000000 0.057653
O O20 0.500000 0.500000 0.500000
O O21 0.500000 0.500000 0.000000
#
# Coordination Sequence:
#
# PCOD8066671 Si02
#       8
#     4   2   4   4   4   4   4   2
#     4  10  22  41  65  96 130 170 219 264 315 382
#     4  10  22  40  62  86 124 168 204 258 314 360
#     4  10  22  41  65  96 130 170 219 264 315 382
#     4  10  22  39  62  89 122 160 207 259 316 381
#     4  10  22  39  62  89 122 160 207 259 316 381
#     4  10  21  39  61  89 123 165 208 255 316 380
#     4  10  21  39  61  89 123 165 208 255 316 380
#     4  10  22  40  62  86 124 168 204 258 314 360
#
# _framework density 26.440788999999999
#
# number of rings (size 3 to 8) (size 9 to 14) (size 15 to 20)
#    0.000    2.000    1.429    0.857    0.000    7.429 
#    0.000    5.714    0.000    0.000    0.000    0.000 
#    0.000    0.000    0.000    0.000    0.000    0.000 
#
# Total GULP energy -347146.006716 kJ/mol
# GULP energy per Si atom -12398.071668 kJ/mol
# Density = 2.638061 g / cm^3
# Si number density = 26.440789 Si / 1000 Ang^3
#
#
#
# Elastic Constant Matrix: (Units=GPa)
#
#
# Indices 1 2 3 4 5 6 
#
# 1 143.9737 52.3009 20.7845 0.0000 -11.8517 0.0000
# 2 52.3009 202.5860 55.3169 0.0000 0.9425 0.0000
# 3 20.7845 55.3169 117.2492 0.0000 3.5176 0.0000
# 4 0.0000 0.0000 0.0000 49.3400 0.0000 0.7909
# 5 -11.8517 0.9425 3.5176 0.0000 47.3992 0.0000
# 6 0.0000 0.0000 0.0000 0.7909 0.0000 46.8184
#
#
#
# Elastic Compliance Matrix: (Units=1/GPa)
#
#
# Indices 1 2 3 4 5 6 
#
# 1 0.007883 -0.001890 -0.000567 0.000000 0.002051 0.000000
# 2 -0.001890 0.006119 -0.002540 0.000000 -0.000406 0.000000
# 3 -0.000567 -0.002540 0.009852 0.000000 -0.000823 0.000000
# 4 0.000000 0.000000 0.000000 0.020273 0.000000 -0.000342
# 5 0.002051 -0.000406 -0.000823 0.000000 0.021679 0.000000
# 6 0.000000 0.000000 0.000000 -0.000342 0.000000 0.021365
#
#
# Mechanical properties :
#
#
# Convention : Reuss Voigt Hill
#
# Bulk Modulus (GPa) = 72.14624 80.06818 76.10721
# Shear Modulus (GPa) = 49.12254 51.07197 50.09726
#
# Velocity S-wave (km/s) = 4.31493 4.39972 4.35753
# Velocity P-wave (km/s) = 7.22288 7.49385 7.35962
#
# Compressibility (1/GPa) = 0.01386074
#
# Stress axis : x y z
#
# Youngs Moduli (GPa) = 126.85673 163.41291 101.49801
#
# Poissons Ratio (x) = 0.30881 0.05759
# Poissons Ratio (y) = 0.23972 0.25780
# Poissons Ratio (z) = 0.07197 0.41506
#
# Static dielectric constant tensor:
#      x y z
#    x 4.994510 0.000000 0.028350 
#    y 0.000000 -3.225410 0.000000 
#    z 0.028350 0.000000 5.085400 
# 
# 
# High freq. dielectric constant tensor:
#      x y z
#    x 2.097360 0.000000 -0.003500 
#    y 0.000000 2.046280 0.000000 
#    z -0.003500 0.000000 2.086150 
# 
# From -- ./inp_files/13556.got.cif
#   From: 2010.06.25/outbox.cif.g09.slc.cpg/sg10_7_cif.got.tgz:13556.got - 2010.06.27 22:07:45.
