data_PCOD8066364
_publ_section_title
;
Structure prediction by ZEFSAII (Michael W. Deem and Ramdas Pophale) SiO2 
 PCOD8066364
Probable space group: P 2/M
;
_chemical_formula_sum "Si O2"
_cell_formula_units_Z 32
_cell_length_a 14.048960
_cell_length_b 8.607962
_cell_length_c 24.169340
_cell_angle_alpha 90.000000
_cell_angle_beta 30.427454
_cell_angle_gamma 90.000000
_cell_volume 1480.278062
_symmetry_space_group_name_H-M "P 2/M"
_symmetry_group_IT_number 10
_symmetry_cell_setting 'monoclinic'
loop_
_space_group_symop_operation_xyz
x,y,z
-x,y,-z
-x,-y,-z
x,-y,z
loop_
_atom_site_type_symbol
_atom_site_label
_atom_site_fract_x
_atom_site_fract_y
_atom_site_fract_z
Si Si1 0.909202 0.317476 0.603710
Si Si2 0.216131 0.679828 0.878184
Si Si3 0.499725 0.817477 0.822442
Si Si4 0.718232 0.677796 0.379861
Si Si5 0.020745 0.181037 0.658598
Si Si6 0.160437 0.820578 0.794875
Si Si7 0.700400 0.324481 0.882583
Si Si8 0.784602 0.325332 0.961869
O O1 0.913797 0.500000 0.612039
O O2 0.697030 0.258931 0.709437
O O3 0.000000 0.271164 0.500000
O O4 0.035500 0.236328 0.587892
O O5 0.262083 0.500000 0.864673
O O6 0.350042 0.781368 0.849723
O O7 0.266119 0.724184 0.789727
O O8 0.000000 0.719738 0.000000
O O9 0.420320 0.743134 0.919571
O O10 0.527979 0.000000 0.815693
O O11 0.500000 0.700627 0.500000
O O12 0.770927 0.500000 0.341166
O O13 0.829727 0.730475 0.378521
O O14 0.767141 0.778222 0.301962
O O15 0.806950 0.218336 0.784923
O O16 0.061302 0.000000 0.642804
O O17 0.196520 0.000000 0.787728
O O18 0.939762 0.783815 0.911626
O O19 0.674219 0.500000 0.872036
O O20 0.500000 0.252067 0.000000
O O21 0.822521 0.327769 0.877388
O O22 0.804259 0.500000 0.976174
#
# Coordination Sequence:
#
# PCOD8066364 Si02
#       8
#     4   4   4   4   4   4   4   4
#     4  11  26  49  74  96 127 175 227 274 325 394
#     4  11  23  40  65  93 130 180 227 270 326 402
#     4  12  25  41  66 100 137 172 218 280 337 392
#     4  11  25  46  71  97 131 178 228 272 322 396
#     4  12  25  42  69 101 135 170 213 275 335 390
#     4  12  24  39  63  95 132 169 214 275 335 386
#     4  10  21  37  61  92 129 173 219 263 317 389
#     4  11  21  36  61  91 131 176 217 262 320 394
#
# _framework density 21.617560000000001
#
# number of rings (size 3 to 8) (size 9 to 14) (size 15 to 20)
#    0.000    0.750    2.500    5.625    0.000    5.250 
#    0.000    1.250    0.000    0.000    0.000    0.000 
#    0.000    0.000    0.000    0.000    0.000    0.000 
#
# Total GULP energy -396943.696909 kJ/mol
# GULP energy per Si atom -12404.490528 kJ/mol
# Density = 2.156836 g / cm^3
# Si number density = 21.617560 Si / 1000 Ang^3
#
#
#
# Elastic Constant Matrix: (Units=GPa)
#
#
# Indices 1 2 3 4 5 6 
#
# 1 75.7363 7.2073 26.0414 0.0000 15.8991 0.0000
# 2 7.2073 73.2471 33.2250 0.0000 4.8505 0.0000
# 3 26.0414 33.2250 96.5144 0.0000 10.4142 0.0000
# 4 0.0000 0.0000 0.0000 23.5061 0.0000 3.8935
# 5 15.8991 4.8505 10.4142 0.0000 34.0914 0.0000
# 6 0.0000 0.0000 0.0000 3.8935 0.0000 32.9094
#
#
#
# Elastic Compliance Matrix: (Units=1/GPa)
#
#
# Indices 1 2 3 4 5 6 
#
# 1 0.015765 0.000577 -0.003775 0.000000 -0.006281 0.000000
# 2 0.000577 0.016213 -0.005645 0.000000 -0.000851 0.000000
# 3 -0.003775 -0.005645 0.013491 0.000000 -0.001558 0.000000
# 4 0.000000 0.000000 0.000000 0.043392 0.000000 -0.005134
# 5 -0.006281 -0.000851 -0.001558 0.000000 0.032859 0.000000
# 6 0.000000 0.000000 0.000000 -0.005134 0.000000 0.030994
#
#
# Mechanical properties :
#
#
# Convention : Reuss Voigt Hill
#
# Bulk Modulus (GPa) = 35.99260 42.04946 39.02103
# Shear Modulus (GPa) = 27.83019 30.03632 28.93326
#
# Velocity S-wave (km/s) = 3.59191 3.73156 3.66240
# Velocity P-wave (km/s) = 5.82137 6.16927 5.99784
#
# Compressibility (1/GPa) = 0.02778349
#
# Stress axis : x y z
#
# Youngs Moduli (GPa) = 63.43040 61.68041 74.12374
#
# Poissons Ratio (x) = -0.03558 0.27979
# Poissons Ratio (y) = -0.03659 0.41843
# Poissons Ratio (z) = 0.23942 0.34818
#
# Static dielectric constant tensor:
#      x y z
#    x 4.057250 0.000000 0.122030 
#    y 0.000000 3.829590 0.000000 
#    z 0.122030 0.000000 3.900130 
# 
# 
# High freq. dielectric constant tensor:
#      x y z
#    x 1.865520 0.000000 0.007640 
#    y 0.000000 1.850170 0.000000 
#    z 0.007640 0.000000 1.843820 
# 
# From -- ./inp_files/89483.got.cif
#   From: 2010.06.25/outbox.cif.g09.slc.cpg/sg10_45_cif.got.tgz:89483.got - 2010.06.27 22:07:45.
