data_PCOD8066042
_publ_section_title
;
Structure prediction by ZEFSAII (Michael W. Deem and Ramdas Pophale) SiO2 
 PCOD8066042
Probable space group: P 2/M
;
_chemical_formula_sum "Si O2"
_cell_formula_units_Z 22
_cell_length_a 20.065974
_cell_length_b 9.946519
_cell_length_c 5.511039
_cell_angle_alpha 90.000000
_cell_angle_beta 94.710112
_cell_angle_gamma 90.000000
_cell_volume 1096.214930
_symmetry_space_group_name_H-M "P 2/M"
_symmetry_group_IT_number 10
_symmetry_cell_setting 'monoclinic'
loop_
_space_group_symop_operation_xyz
x,y,z
-x,y,-z
-x,-y,-z
x,-y,z
loop_
_atom_site_type_symbol
_atom_site_label
_atom_site_fract_x
_atom_site_fract_y
_atom_site_fract_z
Si Si1 0.641012 0.657504 0.545298
Si Si2 0.788692 0.648691 0.464024
Si Si3 0.423270 0.340447 0.974845
Si Si4 0.000000 0.757080 0.500000
Si Si5 0.913096 0.645163 0.853216
Si Si6 0.125527 0.848186 0.773438
O O1 0.625999 0.500000 0.543030
O O2 0.719739 0.691055 0.571001
O O3 0.609466 0.717490 0.285065
O O4 0.610622 0.718692 0.787315
O O5 0.780280 0.500000 0.337732
O O6 0.846898 0.641895 0.674019
O O7 0.808573 0.762199 0.274437
O O8 0.415201 0.500000 0.973216
O O9 0.500000 0.295215 0.000000
O O10 0.981863 0.659772 0.720209
O O11 0.933610 0.848365 0.444858
O O12 0.916890 0.500000 0.991416
O O13 0.909223 0.777352 0.012106
O O14 0.147928 0.000000 0.838395
#
# Coordination Sequence:
#
# PCOD8066042 Si02
#       6
#     4   4   4   2   4   4
#     4   9  17  28  47  72 106 148 186 223 273 331
#     4   9  20  36  54  76 104 143 184 225 271 328
#     4   9  16  26  43  72 110 148 182 220 272 333
#     4  10  22  38  56  76 102 136 178 222 272 336
#     4  10  21  36  56  79 105 136 178 225 274 330
#     4  11  23  37  55  77 105 139 177 225 279 332
#
# _framework density 20.069056
#
# number of rings (size 3 to 8) (size 9 to 14) (size 15 to 20)
#    0.000    2.364    0.000    2.182    2.545    9.455 
#    0.000    0.000    0.000    0.000    0.000    0.000 
#    0.000    4.364    0.000    0.000    0.000    0.000 
#
# Total GULP energy -272567.126324 kJ/mol
# GULP energy per Si atom -12389.414833 kJ/mol
# Density = 2.002338 g / cm^3
# Si number density = 20.069056 Si / 1000 Ang^3
#
#
#
# Elastic Constant Matrix: (Units=GPa)
#
#
# Indices 1 2 3 4 5 6 
#
# 1 117.5291 25.7882 40.2001 0.0000 -33.6438 0.0000
# 2 25.7882 113.0833 36.2077 0.0000 -17.0045 0.0000
# 3 40.2001 36.2077 120.0489 0.0000 -30.8628 0.0000
# 4 0.0000 0.0000 0.0000 9.2986 0.0000 5.3972
# 5 -33.6438 -17.0045 -30.8628 0.0000 31.3891 0.0000
# 6 0.0000 0.0000 0.0000 5.3972 0.0000 0.2923
#
#
#
# Elastic Compliance Matrix: (Units=1/GPa)
#
#
# Indices 1 2 3 4 5 6 
#
# 1 0.012416 -0.000750 -0.000823 0.000000 0.012093 0.000000
# 2 -0.000750 0.010082 -0.002131 0.000000 0.002563 0.000000
# 3 -0.000823 -0.002131 0.011676 0.000000 0.009444 0.000000
# 4 0.000000 0.000000 0.000000 -0.011067 0.000000 0.204346
# 5 0.012093 0.002563 0.009444 0.000000 0.055494 0.000000
# 6 0.000000 0.000000 0.000000 0.204346 0.000000 -0.352058
#
#
# Mechanical properties :
#
#
# Convention : Reuss Voigt Hill
#
# Bulk Modulus (GPa) = 37.35838 61.67258 49.51548
# Shear Modulus (GPa) = -19.44559 24.76035 2.65738
#
# Velocity S-wave (km/s) = -3.11615 3.51630 1.15195
# Velocity P-wave (km/s) = 2.38918 6.87624 5.14737
#
# Compressibility (1/GPa) = 0.02676776
#
# Stress axis : x y z
#
# Youngs Moduli (GPa) = 80.54016 99.19026 85.64535
#
# Poissons Ratio (x) = 0.07435 0.07046
# Poissons Ratio (y) = 0.06037 0.18249
# Poissons Ratio (z) = 0.06626 0.21135
#
# Static dielectric constant tensor:
#      x y z
#    x 3.717870 0.000000 -0.035030 
#    y 0.000000 3.198440 0.000000 
#    z -0.035030 0.000000 3.833020 
# 
# 
# High freq. dielectric constant tensor:
#      x y z
#    x 1.789770 0.000000 -0.004990 
#    y 0.000000 1.719590 0.000000 
#    z -0.004990 0.000000 1.785850 
# 
# From -- ./inp_files/12031.got.cif
#   From: 2010.06.25/outbox.cif.g09.slc.cpg/sg10_7_cif.got.tgz:12031.got - 2010.06.27 22:07:45.
