data_PCOD8066813
_publ_section_title
;
Structure prediction by ZEFSAII (Michael W. Deem and Ramdas Pophale) SiO2 
 PCOD8066813
Probable space group: P 2/M
;
_chemical_formula_sum "Si O2"
_cell_formula_units_Z 28
_cell_length_a 9.654463
_cell_length_b 9.172081
_cell_length_c 28.881249
_cell_angle_alpha 90.000000
_cell_angle_beta 33.387055
_cell_angle_gamma 90.000000
_cell_volume 1407.360177
_symmetry_space_group_name_H-M "P 2/M"
_symmetry_group_IT_number 10
_symmetry_cell_setting 'monoclinic'
loop_
_space_group_symop_operation_xyz
x,y,z
-x,y,-z
-x,-y,-z
x,-y,z
loop_
_atom_site_type_symbol
_atom_site_label
_atom_site_fract_x
_atom_site_fract_y
_atom_site_fract_z
Si Si1 0.973994 0.167183 0.616029
Si Si2 0.975178 0.830409 0.862656
Si Si3 0.946391 0.333436 0.316076
Si Si4 0.481612 0.833096 0.323061
Si Si5 0.179508 0.169562 0.991562
Si Si6 0.681210 0.669012 0.870371
Si Si7 0.388259 0.329622 0.441350
O O1 0.942481 0.226260 0.676601
O O2 0.178743 0.260498 0.532018
O O3 0.702002 0.183431 0.669070
O O4 0.063108 0.000000 0.592033
O O5 0.753177 0.743384 0.898948
O O6 0.245873 0.776204 0.769028
O O7 0.934012 0.000000 0.863615
O O8 0.961679 0.797876 0.920911
O O9 0.981928 0.500000 0.322521
O O10 0.655210 0.296060 0.389976
O O11 0.088536 0.304085 0.228614
O O12 0.372203 0.737027 0.394860
O O13 0.495341 0.000000 0.336203
O O14 0.434490 0.260604 0.917104
O O15 0.248461 0.000000 0.967284
O O16 0.000000 0.221092 0.000000
O O17 0.630194 0.500000 0.893793
O O18 0.336067 0.500000 0.451518
#
# Coordination Sequence:
#
# PCOD8066813 Si02
#       7
#     4   4   4   4   4   4   4
#     4  11  24  38  59  90 122 156 201 253 304 352
#     4  10  21  40  64  89 119 159 202 244 295 354
#     4  10  23  41  59  85 120 159 202 247 297 357
#     4  10  22  39  60  88 121 155 200 253 298 351
#     4  10  23  41  65  94 125 158 197 243 296 358
#     4  11  23  41  63  90 123 159 201 247 296 353
#     4  11  22  40  62  85 119 161 204 246 299 360
#
# _framework density 19.895405
#
# number of rings (size 3 to 8) (size 9 to 14) (size 15 to 20)
#    0.000    1.571    1.429    2.571    2.000    9.429 
#    0.000    0.000    0.000    0.000    0.000    0.000 
#    0.000    0.000    0.000    0.000    0.000    0.000 
#
# Total GULP energy -347392.527790 kJ/mol
# GULP energy per Si atom -12406.875992 kJ/mol
# Density = 1.985012 g / cm^3
# Si number density = 19.895405 Si / 1000 Ang^3
#
#
#
# Elastic Constant Matrix: (Units=GPa)
#
#
# Indices 1 2 3 4 5 6 
#
# 1 136.9523 63.8755 35.4646 0.0000 3.8242 0.0000
# 2 63.8755 90.2314 33.4684 0.0000 -0.8951 0.0000
# 3 35.4646 33.4684 70.4494 0.0000 -6.7115 0.0000
# 4 0.0000 0.0000 0.0000 32.4946 0.0000 -0.1860
# 5 3.8242 -0.8951 -6.7115 0.0000 32.0139 0.0000
# 6 0.0000 0.0000 0.0000 -0.1860 0.0000 18.1586
#
#
#
# Elastic Compliance Matrix: (Units=1/GPa)
#
#
# Indices 1 2 3 4 5 6 
#
# 1 0.011326 -0.007102 -0.002526 0.000000 -0.002081 0.000000
# 2 -0.007102 0.017936 -0.004916 0.000000 0.000319 0.000000
# 3 -0.002526 -0.004916 0.018180 0.000000 0.003976 0.000000
# 4 0.000000 0.000000 0.000000 0.030776 0.000000 0.000315
# 5 -0.002081 0.000319 0.003976 0.000000 0.032327 0.000000
# 6 0.000000 0.000000 0.000000 0.000315 0.000000 0.055074
#
#
# Mechanical properties :
#
#
# Convention : Reuss Voigt Hill
#
# Bulk Modulus (GPa) = 54.47788 62.58336 58.53062
# Shear Modulus (GPa) = 24.89719 27.52173 26.20946
#
# Velocity S-wave (km/s) = 3.54136 3.72334 3.63349
# Velocity P-wave (km/s) = 6.64554 7.07169 6.86192
#
# Compressibility (1/GPa) = 0.01835607
#
# Stress axis : x y z
#
# Youngs Moduli (GPa) = 88.28958 55.75261 55.00457
#
# Poissons Ratio (x) = 0.39594 0.13895
# Poissons Ratio (y) = 0.62700 0.27038
# Poissons Ratio (z) = 0.22304 0.27406
#
# Static dielectric constant tensor:
#      x y z
#    x 3.673330 0.000000 -0.031180 
#    y 0.000000 3.677220 0.000000 
#    z -0.031180 0.000000 3.660230 
# 
# 
# High freq. dielectric constant tensor:
#      x y z
#    x 1.784840 0.000000 -0.000220 
#    y 0.000000 1.776480 0.000000 
#    z -0.000220 0.000000 1.784530 
# 
# From -- ./inp_files/37258.got.cif
#   From: 2010.06.25/outbox.cif.g09.slc.cpg/sg10_19_cif.got.tgz:37258.got - 2010.06.27 22:07:45.
