data_PCOD8066942
_publ_section_title
;
Structure prediction by ZEFSAII (Michael W. Deem and Ramdas Pophale) SiO2 
 PCOD8066942
Probable space group: P 2/M
;
_chemical_formula_sum "Si O2"
_cell_formula_units_Z 20
_cell_length_a 12.529989
_cell_length_b 13.762120
_cell_length_c 11.626193
_cell_angle_alpha 90.000000
_cell_angle_beta 24.278744
_cell_angle_gamma 90.000000
_cell_volume 824.330823
_symmetry_space_group_name_H-M "P 2/M"
_symmetry_group_IT_number 10
_symmetry_cell_setting 'monoclinic'
loop_
_space_group_symop_operation_xyz
x,y,z
-x,y,-z
-x,-y,-z
x,-y,z
loop_
_atom_site_type_symbol
_atom_site_label
_atom_site_fract_x
_atom_site_fract_y
_atom_site_fract_z
Si Si1 0.922995 0.392194 0.921608
Si Si2 0.179979 0.392092 0.424851
Si Si3 0.235344 0.109732 0.190134
Si Si4 0.235270 0.771175 0.699353
Si Si5 0.468475 0.253768 0.796510
O O1 0.852652 0.500000 0.036819
O O2 0.009427 0.399095 0.705634
O O3 0.151554 0.344108 0.775556
O O4 0.676151 0.318548 0.160892
O O5 0.284540 0.500000 0.289762
O O6 0.424803 0.320877 0.204271
O O7 0.000000 0.349881 0.500000
O O8 0.000000 0.149223 0.500000
O O9 0.173445 0.000000 0.210290
O O10 0.500000 0.113898 0.000000
O O11 0.266470 0.176276 0.046417
O O12 0.500000 0.796336 0.500000
O O13 0.291285 0.798962 0.508943
O O14 0.000000 0.826532 0.000000
#
# Coordination Sequence:
#
# PCOD8066942 Si02
#       5
#     4   4   4   4   4
#     4  10  22  37  57  92 128 172 225 269 314 382
#     4   9  20  36  55  89 134 178 220 264 316 386
#     4  10  25  45  69 101 133 166 211 263 326 402
#     4  11  23  43  62  92 125 174 223 274 325 375
#     4  11  23  38  68  92 130 173 220 271 327 384
#
# _framework density 24.262103
#
# number of rings (size 3 to 8) (size 9 to 14) (size 15 to 20)
#    0.000    1.800    2.000    0.600    8.400    1.600 
#    0.000    3.000    0.000    3.000    0.000    0.000 
#    0.000    0.000    0.000    0.000    0.000    0.000 
#
# Total GULP energy -247803.440585 kJ/mol
# GULP energy per Si atom -12390.172029 kJ/mol
# Density = 2.420688 g / cm^3
# Si number density = 24.262103 Si / 1000 Ang^3
#
#
#
# Elastic Constant Matrix: (Units=GPa)
#
#
# Indices 1 2 3 4 5 6 
#
# 1 70.5073 17.0629 33.7817 0.0000 -19.3563 0.0000
# 2 17.0629 76.4778 46.4378 0.0000 9.5083 0.0000
# 3 33.7817 46.4378 176.8189 0.0000 13.4084 0.0000
# 4 0.0000 0.0000 0.0000 27.5345 0.0000 -0.3926
# 5 -19.3563 9.5083 13.4084 0.0000 49.3525 0.0000
# 6 0.0000 0.0000 0.0000 -0.3926 0.0000 15.3873
#
#
#
# Elastic Compliance Matrix: (Units=1/GPa)
#
#
# Indices 1 2 3 4 5 6 
#
# 1 0.019141 -0.003285 -0.003483 0.000000 0.009087 0.000000
# 2 -0.003285 0.016302 -0.003388 0.000000 -0.003509 0.000000
# 3 -0.003483 -0.003388 0.007418 0.000000 -0.002729 0.000000
# 4 0.000000 0.000000 0.000000 0.036331 0.000000 0.000927
# 5 0.009087 -0.003509 -0.002729 0.000000 0.025244 0.000000
# 6 0.000000 0.000000 0.000000 0.000927 0.000000 0.065012
#
#
# Mechanical properties :
#
#
# Convention : Reuss Voigt Hill
#
# Bulk Modulus (GPa) = 44.34866 57.59654 50.97260
# Shear Modulus (GPa) = 25.34512 33.55631 29.45071
#
# Velocity S-wave (km/s) = 3.23559 3.72301 3.48782
# Velocity P-wave (km/s) = 5.68132 6.50168 6.10530
#
# Compressibility (1/GPa) = 0.02254860
#
# Stress axis : x y z
#
# Youngs Moduli (GPa) = 52.24273 61.34255 134.81457
#
# Poissons Ratio (x) = 0.20153 0.46959
# Poissons Ratio (y) = 0.17163 0.45670
# Poissons Ratio (z) = 0.18197 0.20780
#
# Static dielectric constant tensor:
#      x y z
#    x 4.437240 0.000000 0.343320 
#    y 0.000000 4.165640 0.000000 
#    z 0.343320 0.000000 4.749400 
# 
# 
# High freq. dielectric constant tensor:
#      x y z
#    x 1.971960 0.000000 0.016070 
#    y 0.000000 1.908080 0.000000 
#    z 0.016070 0.000000 1.983670 
# 
# From -- ./inp_files/47578.got.cif
#   From: 2010.06.25/outbox.cif.g09.slc.cpg/sg10_24_cif.got.tgz:47578.got - 2010.06.27 22:07:45.
