data_PCOD8066933
_publ_section_title
;
Structure prediction by ZEFSAII (Michael W. Deem and Ramdas Pophale) SiO2 
 PCOD8066933
Probable space group: P 2/M
;
_chemical_formula_sum "Si O2"
_cell_formula_units_Z 32
_cell_length_a 11.280287
_cell_length_b 18.288364
_cell_length_c 13.894772
_cell_angle_alpha 90.000000
_cell_angle_beta 34.664467
_cell_angle_gamma 90.000000
_cell_volume 1630.357202
_symmetry_space_group_name_H-M "P 2/M"
_symmetry_group_IT_number 10
_symmetry_cell_setting 'monoclinic'
loop_
_space_group_symop_operation_xyz
x,y,z
-x,y,-z
-x,-y,-z
x,-y,z
loop_
_atom_site_type_symbol
_atom_site_label
_atom_site_fract_x
_atom_site_fract_y
_atom_site_fract_z
Si Si1 0.650980 0.815995 0.815229
Si Si2 0.720643 0.583251 0.905698
Si Si3 0.466447 0.080673 0.788593
Si Si4 0.180595 0.211377 0.957287
Si Si5 0.992091 0.203557 0.283487
Si Si6 0.681417 0.919875 0.445777
Si Si7 0.510017 0.319271 0.192503
Si Si8 0.086310 0.336171 0.546317
O O1 0.625350 0.877256 0.751750
O O2 0.600920 0.734214 0.811703
O O3 0.877866 0.821719 0.710406
O O4 0.500000 0.839301 0.000000
O O5 0.772492 0.500000 0.897488
O O6 0.917462 0.610542 0.709695
O O7 0.500000 0.590057 0.000000
O O8 0.684287 0.628342 0.027970
O O9 0.598558 0.069466 0.606413
O O10 0.402355 0.000000 0.871381
O O11 0.258927 0.127588 0.904702
O O12 0.124364 0.233169 0.104983
O O13 0.368513 0.268516 0.809799
O O14 0.000000 0.221770 0.000000
O O15 0.866674 0.137418 0.320376
O O16 0.859610 0.269581 0.417050
O O17 0.500000 0.887330 0.500000
O O18 0.755122 0.000000 0.357430
O O19 0.322781 0.366800 0.368346
O O20 0.000000 0.310993 0.500000
#
# Coordination Sequence:
#
# PCOD8066933 Si02
#       8
#     4   4   4   4   4   4   4   4
#     4  11  19  35  56  85 116 152 194 248 310 365
#     4  11  22  37  60  95 137 168 198 238 294 373
#     4  10  22  37  54  80 118 156 197 255 315 374
#     4  11  23  39  62  86 114 156 213 264 309 363
#     4  12  21  35  61  88 113 155 209 255 307 373
#     4  10  23  41  55  76 117 161 206 263 315 361
#     4  11  21  40  61  88 129 162 201 254 309 356
#     4  12  22  34  62  93 128 165 199 241 304 368
#
# _framework density 19.627600000000001
#
# number of rings (size 3 to 8) (size 9 to 14) (size 15 to 20)
#    0.000    1.000    6.250    2.625    0.000    2.250 
#    0.000    1.250    0.000    0.375    0.000    0.875 
#    0.000    0.000    0.000    0.000    0.000    0.000 
#
# Total GULP energy -396440.078105 kJ/mol
# GULP energy per Si atom -12388.752441 kJ/mol
# Density = 1.958293 g / cm^3
# Si number density = 19.627600 Si / 1000 Ang^3
#
#
#
# Elastic Constant Matrix: (Units=GPa)
#
#
# Indices 1 2 3 4 5 6 
#
# 1 92.6460 32.8804 22.0752 0.0000 -25.9423 0.0000
# 2 32.8804 115.9747 46.1043 0.0000 -9.8568 0.0000
# 3 22.0752 46.1043 105.7123 0.0000 -5.7702 0.0000
# 4 0.0000 0.0000 0.0000 23.9384 0.0000 -4.5032
# 5 -25.9423 -9.8568 -5.7702 0.0000 26.7370 0.0000
# 6 0.0000 0.0000 0.0000 -4.5032 0.0000 16.4864
#
#
#
# Elastic Compliance Matrix: (Units=1/GPa)
#
#
# Indices 1 2 3 4 5 6 
#
# 1 0.016125 -0.002815 -0.001358 0.000000 0.014315 0.000000
# 2 -0.002815 0.011149 -0.004249 0.000000 0.000462 0.000000
# 3 -0.001358 -0.004249 0.011575 0.000000 -0.000386 0.000000
# 4 0.000000 0.000000 0.000000 0.044037 0.000000 0.012028
# 5 0.014315 0.000462 -0.000386 0.000000 0.051377 0.000000
# 6 0.000000 0.000000 0.000000 0.012028 0.000000 0.063942
#
#
# Mechanical properties :
#
#
# Convention : Reuss Voigt Hill
#
# Bulk Modulus (GPa) = 45.44596 57.38364 51.41480
# Shear Modulus (GPa) = 22.48351 27.65056 25.06703
#
# Velocity S-wave (km/s) = 3.38820 3.75742 3.57758
# Velocity P-wave (km/s) = 6.20572 6.93714 6.58160
#
# Compressibility (1/GPa) = 0.02200416
#
# Stress axis : x y z
#
# Youngs Moduli (GPa) = 62.01640 89.69212 86.38941
#
# Poissons Ratio (x) = 0.25249 0.11733
# Poissons Ratio (y) = 0.17458 0.36711
# Poissons Ratio (z) = 0.08423 0.38114
#
# Static dielectric constant tensor:
#      x y z
#    x 3.282710 0.000000 0.093920 
#    y 0.000000 3.661890 0.000000 
#    z 0.093920 0.000000 4.219690 
# 
# 
# High freq. dielectric constant tensor:
#      x y z
#    x 1.744480 0.000000 0.002410 
#    y 0.000000 1.746800 0.000000 
#    z 0.002410 0.000000 1.776900 
# 
# From -- ./inp_files/65385.got.cif
#   From: 2010.06.25/outbox.cif.g09.slc.cpg/sg10_33_cif.got.tgz:65385.got - 2010.06.27 22:07:45.
