data_PCOD8066313
_publ_section_title
;
Structure prediction by ZEFSAII (Michael W. Deem and Ramdas Pophale) SiO2 
 PCOD8066313
Probable space group: P 2/M
;
_chemical_formula_sum "Si O2"
_cell_formula_units_Z 28
_cell_length_a 22.319677
_cell_length_b 9.001780
_cell_length_c 8.833128
_cell_angle_alpha 90.000000
_cell_angle_beta 53.499828
_cell_angle_gamma 90.000000
_cell_volume 1426.620899
_symmetry_space_group_name_H-M "P 2/M"
_symmetry_group_IT_number 10
_symmetry_cell_setting 'monoclinic'
loop_
_space_group_symop_operation_xyz
x,y,z
-x,y,-z
-x,-y,-z
x,-y,z
loop_
_atom_site_type_symbol
_atom_site_label
_atom_site_fract_x
_atom_site_fract_y
_atom_site_fract_z
Si Si1 0.427051 0.324883 0.021445
Si Si2 0.573667 0.175039 0.301356
Si Si3 0.131504 0.169716 0.126926
Si Si4 0.141621 0.172568 0.463985
Si Si5 0.996352 0.669319 0.183727
Si Si6 0.282759 0.828034 0.728416
Si Si7 0.278306 0.324779 0.415907
O O1 0.429383 0.500000 0.993468
O O2 0.356521 0.274764 0.226640
O O3 0.500000 0.268005 0.000000
O O4 0.422874 0.250848 0.865348
O O5 0.500000 0.227243 0.500000
O O6 0.643873 0.227556 0.294841
O O7 0.574832 0.000000 0.273015
O O8 0.130323 0.204520 0.305286
O O9 0.075050 0.280384 0.131618
O O10 0.107352 0.000000 0.130971
O O11 0.213732 0.201386 0.942262
O O12 0.068538 0.225344 0.660241
O O13 0.213266 0.260574 0.410936
O O14 0.154210 0.000000 0.479771
O O15 0.980783 0.500000 0.256807
O O16 0.000000 0.684865 0.000000
O O17 0.271812 0.733821 0.594870
O O18 0.289740 0.000000 0.672353
O O19 0.269715 0.500000 0.432977
#
# Coordination Sequence:
#
# PCOD8066313 Si02
#       7
#     4   4   4   4   4   4   4
#     4  10  22  39  58  83 117 156 195 236 286 344
#     4  10  21  37  59  88 118 150 194 244 289 337
#     4  10  22  39  59  84 113 149 192 234 282 342
#     4  11  23  40  62  86 115 151 190 234 286 342
#     4  11  24  40  59  86 118 150 188 235 284 336
#     4  10  21  38  59  84 116 152 190 235 288 343
#     4  11  23  38  58  86 117 150 193 239 283 337
#
# _framework density 19.626798000000001
#
# number of rings (size 3 to 8) (size 9 to 14) (size 15 to 20)
#    0.000    1.571    0.000    4.286    0.000   10.286 
#    0.000    0.000    0.000    0.000    0.000    0.000 
#    0.000    0.000    0.000    0.000    0.000    0.000 
#
# Total GULP energy -347380.547996 kJ/mol
# GULP energy per Si atom -12406.448143 kJ/mol
# Density = 1.958213 g / cm^3
# Si number density = 19.626798 Si / 1000 Ang^3
#
#
#
# Elastic Constant Matrix: (Units=GPa)
#
#
# Indices 1 2 3 4 5 6 
#
# 1 105.2617 38.9627 25.8354 0.0000 -12.6748 0.0000
# 2 38.9627 47.1182 46.2044 0.0000 5.5283 0.0000
# 3 25.8354 46.2044 90.4377 0.0000 -6.1186 0.0000
# 4 0.0000 0.0000 0.0000 52.8648 0.0000 32.5521
# 5 -12.6748 5.5283 -6.1186 0.0000 37.5414 0.0000
# 6 0.0000 0.0000 0.0000 32.5521 0.0000 81.4306
#
#
#
# Elastic Compliance Matrix: (Units=1/GPa)
#
#
# Indices 1 2 3 4 5 6 
#
# 1 0.017428 -0.022954 0.007457 0.000000 0.010480 0.000000
# 2 -0.022954 0.076753 -0.034323 0.000000 -0.024646 0.000000
# 3 0.007457 -0.034323 0.027276 0.000000 0.012018 0.000000
# 4 0.000000 0.000000 0.000000 0.025093 0.000000 -0.010031
# 5 0.010480 -0.024646 0.012018 0.000000 0.035763 0.000000
# 6 0.000000 0.000000 0.000000 -0.010031 0.000000 0.016290
#
#
# Mechanical properties :
#
#
# Convention : Reuss Voigt Hill
#
# Bulk Modulus (GPa) = 45.83445 51.64694 48.74070
# Shear Modulus (GPa) = 16.36578 43.15502 29.76040
#
# Velocity S-wave (km/s) = 2.89078 4.69420 3.89821
# Velocity P-wave (km/s) = 5.87757 7.46675 6.71931
#
# Compressibility (1/GPa) = 0.02181765
#
# Stress axis : x y z
#
# Youngs Moduli (GPa) = 57.37889 13.02876 36.66259
#
# Poissons Ratio (x) = 0.29906 -0.27340
# Poissons Ratio (y) = 1.31706 1.25838
# Poissons Ratio (z) = -0.42789 0.44719
#
# Static dielectric constant tensor:
#      x y z
#    x 3.787770 0.000000 -0.116420 
#    y 0.000000 3.606060 0.000000 
#    z -0.116420 0.000000 3.728490 
# 
# 
# High freq. dielectric constant tensor:
#      x y z
#    x 1.782760 0.000000 -0.002380 
#    y 0.000000 1.764670 0.000000 
#    z -0.002380 0.000000 1.782990 
# 
# From -- ./inp_files/34181.got.cif
#   From: 2010.06.25/outbox.cif.g09.slc.cpg/sg10_18_cif.got.tgz:34181.got - 2010.06.27 22:07:45.
