data_PCOD8066334
_publ_section_title
;
Structure prediction by ZEFSAII (Michael W. Deem and Ramdas Pophale) SiO2 
 PCOD8066334
Probable space group: P 2/M
;
_chemical_formula_sum "Si O2"
_cell_formula_units_Z 20
_cell_length_a 12.044481
_cell_length_b 8.875082
_cell_length_c 9.594306
_cell_angle_alpha 90.000000
_cell_angle_beta 102.801365
_cell_angle_gamma 90.000000
_cell_volume 1000.098596
_symmetry_space_group_name_H-M "P 2/M"
_symmetry_group_IT_number 10
_symmetry_cell_setting 'monoclinic'
loop_
_space_group_symop_operation_xyz
x,y,z
-x,y,-z
-x,-y,-z
x,-y,z
loop_
_atom_site_type_symbol
_atom_site_label
_atom_site_fract_x
_atom_site_fract_y
_atom_site_fract_z
Si Si1 0.013680 0.325830 0.344759
Si Si2 0.784296 0.674246 0.794560
Si Si3 0.595854 0.174878 0.123481
Si Si4 0.452452 0.824836 0.343087
Si Si5 0.836192 0.821099 0.091971
O O1 0.977038 0.500000 0.325732
O O2 0.143217 0.302631 0.327305
O O3 0.000000 0.267067 0.500000
O O4 0.935751 0.230231 0.220746
O O5 0.773752 0.500000 0.830062
O O6 0.658806 0.739276 0.738985
O O7 0.849367 0.755307 0.940225
O O8 0.559378 0.201347 0.271616
O O9 0.719277 0.244146 0.126525
O O10 0.603149 0.000000 0.085911
O O11 0.500000 0.252492 0.000000
O O12 0.500000 0.758617 0.500000
O O13 0.419205 0.000000 0.345313
O O14 0.839091 0.000000 0.082007
#
# Coordination Sequence:
#
# PCOD8066334 Si02
#       5
#     4   4   4   4   4
#     4  10  24  44  61  82 118 158 194 241 299 349
#     4  11  23  40  61  85 118 158 198 239 290 350
#     4   9  17  34  57  85 119 149 182 233 292 341
#     4  10  21  37  60  87 119 155 191 238 293 343
#     4  11  22  38  64  91 117 151 197 245 288 345
#
# _framework density 19.998028999999999
#
# number of rings (size 3 to 8) (size 9 to 14) (size 15 to 20)
#    0.000    1.800    2.000    1.800    2.800    4.800 
#    0.000    3.000    0.000    0.000    0.000    0.000 
#    0.000    0.000    0.000    0.000    0.000    0.000 
#
# Total GULP energy -247996.292201 kJ/mol
# GULP energy per Si atom -12399.814610 kJ/mol
# Density = 1.995251 g / cm^3
# Si number density = 19.998029 Si / 1000 Ang^3
#
#
#
# Elastic Constant Matrix: (Units=GPa)
#
#
# Indices 1 2 3 4 5 6 
#
# 1 81.9316 27.6858 23.2853 0.0000 -8.9032 0.0000
# 2 27.6858 69.7008 37.2617 0.0000 -0.1468 0.0000
# 3 23.2853 37.2617 130.7527 0.0000 -3.4491 0.0000
# 4 0.0000 0.0000 0.0000 27.5757 0.0000 3.1197
# 5 -8.9032 -0.1468 -3.4491 0.0000 34.4459 0.0000
# 6 0.0000 0.0000 0.0000 3.1197 0.0000 11.7726
#
#
#
# Elastic Compliance Matrix: (Units=1/GPa)
#
#
# Indices 1 2 3 4 5 6 
#
# 1 0.014676 -0.005281 -0.001012 0.000000 0.003670 0.000000
# 2 -0.005281 0.018832 -0.004472 0.000000 -0.001732 0.000000
# 3 -0.001012 -0.004472 0.009119 0.000000 0.000633 0.000000
# 4 0.000000 0.000000 0.000000 0.037385 0.000000 -0.009907
# 5 0.003670 -0.001732 0.000633 0.000000 0.030035 0.000000
# 6 0.000000 0.000000 0.000000 -0.009907 0.000000 0.087568
#
#
# Mechanical properties :
#
#
# Convention : Reuss Voigt Hill
#
# Bulk Modulus (GPa) = 47.39812 50.98340 49.19076
# Shear Modulus (GPa) = 22.10655 27.70232 24.90444
#
# Velocity S-wave (km/s) = 3.32842 3.72594 3.53277
# Velocity P-wave (km/s) = 6.20677 6.63775 6.42587
#
# Compressibility (1/GPa) = 0.02109788
#
# Stress axis : x y z
#
# Youngs Moduli (GPa) = 68.13797 53.10222 109.65757
#
# Poissons Ratio (x) = 0.28042 0.11096
# Poissons Ratio (y) = 0.35982 0.49037
# Poissons Ratio (z) = 0.06895 0.23747
#
# Static dielectric constant tensor:
#      x y z
#    x 3.834200 0.000000 -0.177610 
#    y 0.000000 3.409770 0.000000 
#    z -0.177610 0.000000 3.792600 
# 
# 
# High freq. dielectric constant tensor:
#      x y z
#    x 1.792820 0.000000 -0.009290 
#    y 0.000000 1.756490 0.000000 
#    z -0.009290 0.000000 1.788450 
# 
# From -- ./inp_files/22122.got.cif
#   From: 2010.06.25/outbox.cif.g09.slc.cpg/sg10_12_cif.got.tgz:22122.got - 2010.06.27 22:07:45.
