data_PCOD8066846
_publ_section_title
;
Structure prediction by ZEFSAII (Michael W. Deem and Ramdas Pophale) SiO2 
 PCOD8066846
Probable space group: P 2/M
;
_chemical_formula_sum "Si O2"
_cell_formula_units_Z 28
_cell_length_a 11.059313
_cell_length_b 13.617559
_cell_length_c 9.559216
_cell_angle_alpha 90.000000
_cell_angle_beta 66.686221
_cell_angle_gamma 90.000000
_cell_volume 1322.082335
_symmetry_space_group_name_H-M "P 2/M"
_symmetry_group_IT_number 10
_symmetry_cell_setting 'monoclinic'
loop_
_space_group_symop_operation_xyz
x,y,z
-x,y,-z
-x,-y,-z
x,-y,z
loop_
_atom_site_type_symbol
_atom_site_label
_atom_site_fract_x
_atom_site_fract_y
_atom_site_fract_z
Si Si1 0.762475 0.701595 0.291260
Si Si2 0.629480 0.384921 0.109282
Si Si3 0.617606 0.615345 0.595602
Si Si4 0.658101 0.890822 0.921913
Si Si5 0.738577 0.302260 0.793325
Si Si6 0.845656 0.112794 0.104603
Si Si7 0.998018 0.614435 0.659714
O O1 0.753584 0.652852 0.142139
O O2 0.631129 0.679799 0.446712
O O3 0.799259 0.816479 0.254023
O O4 0.868486 0.639658 0.325827
O O5 0.630430 0.500000 0.088795
O O6 0.505179 0.348082 0.255871
O O7 0.628862 0.338017 0.955478
O O8 0.611196 0.500000 0.558425
O O9 0.737055 0.638139 0.647474
O O10 0.714440 0.814147 0.782020
O O11 0.692844 0.000000 0.853954
O O12 0.500000 0.878852 0.000000
O O13 0.739334 0.869147 0.028387
O O14 0.881862 0.325658 0.791392
O O15 0.834720 0.000000 0.160399
O O16 0.000000 0.136015 0.000000
O O17 0.968551 0.500000 0.686293
O O18 0.000000 0.650988 0.500000
#
# Coordination Sequence:
#
# PCOD8066846 Si02
#       7
#     4   4   4   4   4   4   4
#     4  12  23  39  64  90 125 170 214 254 326 395
#     4  11  23  37  59  92 124 160 216 268 312 378
#     4  11  23  40  60  86 130 176 207 253 323 391
#     4  10  21  40  67  97 127 164 216 274 332 386
#     4  12  22  39  64  92 124 165 217 269 319 379
#     4  10  22  43  69  98 132 171 218 276 340 390
#     4  11  23  40  61  88 129 175 211 254 319 390
#
# _framework density 21.178712999999998
#
# number of rings (size 3 to 8) (size 9 to 14) (size 15 to 20)
#    0.000    1.000    2.857    5.143    0.000    2.286 
#    0.000    2.143    0.000    3.429    0.000    0.000 
#    0.000    0.000    0.000    0.000    0.000    0.000 
#
# Total GULP energy -346998.427321 kJ/mol
# GULP energy per Si atom -12392.800976 kJ/mol
# Density = 2.113051 g / cm^3
# Si number density = 21.178713 Si / 1000 Ang^3
#
#
#
# Elastic Constant Matrix: (Units=GPa)
#
#
# Indices 1 2 3 4 5 6 
#
# 1 79.8356 13.2478 7.8878 0.0000 -0.9896 0.0000
# 2 13.2478 114.4570 46.5740 0.0000 -11.0866 0.0000
# 3 7.8878 46.5740 92.2041 0.0000 0.5590 0.0000
# 4 0.0000 0.0000 0.0000 30.4119 0.0000 -6.3777
# 5 -0.9896 -11.0866 0.5590 0.0000 30.0381 0.0000
# 6 0.0000 0.0000 0.0000 -6.3777 0.0000 23.8743
#
#
#
# Elastic Compliance Matrix: (Units=1/GPa)
#
#
# Indices 1 2 3 4 5 6 
#
# 1 0.012785 -0.001309 -0.000432 0.000000 -0.000054 0.000000
# 2 -0.001309 0.011678 -0.005813 0.000000 0.004375 0.000000
# 3 -0.000432 -0.005813 0.013833 0.000000 -0.002417 0.000000
# 4 0.000000 0.000000 0.000000 0.034833 0.000000 0.009305
# 5 -0.000054 0.004375 -0.002417 0.000000 0.034949 0.000000
# 6 0.000000 0.000000 0.000000 0.009305 0.000000 0.044372
#
#
# Mechanical properties :
#
#
# Convention : Reuss Voigt Hill
#
# Bulk Modulus (GPa) = 43.12709 46.87951 45.00330
# Shear Modulus (GPa) = 28.52446 31.45067 29.98757
#
# Velocity S-wave (km/s) = 3.67392 3.85777 3.76697
# Velocity P-wave (km/s) = 6.19714 6.48278 6.34157
#
# Compressibility (1/GPa) = 0.02318728
#
# Stress axis : x y z
#
# Youngs Moduli (GPa) = 78.21661 85.63367 72.28866
#
# Poissons Ratio (x) = 0.11211 0.03123
# Poissons Ratio (y) = 0.10240 0.42022
# Poissons Ratio (z) = 0.03380 0.49780
#
# Static dielectric constant tensor:
#      x y z
#    x 4.243110 0.000000 0.041930 
#    y 0.000000 3.845120 0.000000 
#    z 0.041930 0.000000 3.855880 
# 
# 
# High freq. dielectric constant tensor:
#      x y z
#    x 1.859540 0.000000 0.001750 
#    y 0.000000 1.823150 0.000000 
#    z 0.001750 0.000000 1.810020 
# 
# From -- ./inp_files/24921.got.cif
#   From: 2010.06.25/outbox.cif.g09.slc.cpg/sg10_13_cif.got.tgz:24921.got - 2010.06.27 22:07:45.
