data_PCOD8066492
_publ_section_title
;
Structure prediction by ZEFSAII (Michael W. Deem and Ramdas Pophale) SiO2 
 PCOD8066492
Probable space group: P 2/M
;
_chemical_formula_sum "Si O2"
_cell_formula_units_Z 28
_cell_length_a 12.559907
_cell_length_b 9.034464
_cell_length_c 14.579769
_cell_angle_alpha 90.000000
_cell_angle_beta 59.285653
_cell_angle_gamma 90.000000
_cell_volume 1422.324572
_symmetry_space_group_name_H-M "P 2/M"
_symmetry_group_IT_number 10
_symmetry_cell_setting 'monoclinic'
loop_
_space_group_symop_operation_xyz
x,y,z
-x,y,-z
-x,-y,-z
x,-y,z
loop_
_atom_site_type_symbol
_atom_site_label
_atom_site_fract_x
_atom_site_fract_y
_atom_site_fract_z
Si Si1 0.486700 0.325797 0.111133
Si Si2 0.459519 0.824200 0.420633
Si Si3 0.099768 0.328464 0.878681
Si Si4 0.812133 0.824667 0.509497
Si Si5 0.018931 0.669527 0.711314
Si Si6 0.217570 0.670483 0.293342
Si Si7 0.352398 0.824553 0.815424
O O1 0.500420 0.500000 0.120003
O O2 0.353493 0.268559 0.206791
O O3 0.600150 0.244645 0.110827
O O4 0.500000 0.281936 0.000000
O O5 0.500000 0.756234 0.500000
O O6 0.323733 0.765411 0.456787
O O7 0.555200 0.765647 0.303447
O O8 0.460354 0.000000 0.424151
O O9 0.138797 0.500000 0.862671
O O10 0.043415 0.281942 0.805116
O O11 0.216700 0.228310 0.849303
O O12 0.000000 0.293599 0.000000
O O13 0.905038 0.771664 0.390869
O O14 0.843494 0.759753 0.595602
O O15 0.819483 0.000000 0.512336
O O16 0.059366 0.500000 0.677722
O O17 0.872895 0.689954 0.754412
O O18 0.226304 0.500000 0.318960
O O19 0.352646 0.000000 0.823777
#
# Coordination Sequence:
#
# PCOD8066492 Si02
#       7
#     4   4   4   4   4   4   4
#     4  10  22  39  64  91 118 157 204 248 295 353
#     4   9  18  33  54  80 114 155 191 230 284 346
#     4  10  23  42  65  88 117 157 203 250 294 349
#     4  11  21  36  58  86 120 157 197 239 295 359
#     4  10  22  39  59  86 119 157 200 246 296 347
#     4  10  21  38  60  87 120 156 196 246 297 349
#     4  11  22  39  62  89 124 157 193 244 301 356
#
# _framework density 19.686083
#
# number of rings (size 3 to 8) (size 9 to 14) (size 15 to 20)
#    0.000    1.857    1.429    2.143    2.000    4.571 
#    0.000    0.000    0.000    3.429    0.000    0.000 
#    0.000    0.000    0.000    0.000    0.000    0.000 
#
# Total GULP energy -347292.883653 kJ/mol
# GULP energy per Si atom -12403.317273 kJ/mol
# Density = 1.964128 g / cm^3
# Si number density = 19.686083 Si / 1000 Ang^3
#
#
#
# Elastic Constant Matrix: (Units=GPa)
#
#
# Indices 1 2 3 4 5 6 
#
# 1 138.3836 39.0836 47.8644 0.0000 20.5993 0.0000
# 2 39.0836 52.0279 34.9464 0.0000 9.8641 0.0000
# 3 47.8644 34.9464 112.8279 0.0000 19.4567 0.0000
# 4 0.0000 0.0000 0.0000 19.6067 0.0000 -3.8888
# 5 20.5993 9.8641 19.4567 0.0000 35.6421 0.0000
# 6 0.0000 0.0000 0.0000 -3.8888 0.0000 28.6855
#
#
#
# Elastic Compliance Matrix: (Units=1/GPa)
#
#
# Indices 1 2 3 4 5 6 
#
# 1 0.009939 -0.005559 -0.001953 0.000000 -0.003140 0.000000
# 2 -0.005559 0.027651 -0.006006 0.000000 -0.001161 0.000000
# 3 -0.001953 -0.006006 0.012221 0.000000 -0.003880 0.000000
# 4 0.000000 0.000000 0.000000 0.052412 0.000000 0.007105
# 5 -0.003140 -0.001161 -0.003880 0.000000 0.032311 0.000000
# 6 0.000000 0.000000 0.000000 0.007105 0.000000 0.035824
#
#
# Mechanical properties :
#
#
# Convention : Reuss Voigt Hill
#
# Bulk Modulus (GPa) = 43.90860 60.78090 52.34475
# Shear Modulus (GPa) = 24.39192 28.87653 26.63423
#
# Velocity S-wave (km/s) = 3.52382 3.83410 3.68223
# Velocity P-wave (km/s) = 6.23773 7.10933 6.68774
#
# Compressibility (1/GPa) = 0.02277458
#
# Stress axis : x y z
#
# Youngs Moduli (GPa) = 100.61046 36.16553 81.82661
#
# Poissons Ratio (x) = 0.20105 0.15982
# Poissons Ratio (y) = 0.55932 0.49143
# Poissons Ratio (z) = 0.19651 0.21720
#
# Static dielectric constant tensor:
#      x y z
#    x 3.786240 0.000000 0.049960 
#    y 0.000000 3.332660 0.000000 
#    z 0.049960 0.000000 3.644790 
# 
# 
# High freq. dielectric constant tensor:
#      x y z
#    x 1.784620 0.000000 0.003840 
#    y 0.000000 1.748320 0.000000 
#    z 0.003840 0.000000 1.772140 
# 
# From -- ./inp_files/49548.got.cif
#   From: 2010.06.25/outbox.cif.g09.slc.cpg/sg10_25_cif.got.tgz:49548.got - 2010.06.27 22:07:45.
