data_PCOD8066837
_publ_section_title
;
Structure prediction by ZEFSAII (Michael W. Deem and Ramdas Pophale) SiO2 
 PCOD8066837
Probable space group: P 2/M
;
_chemical_formula_sum "Si O2"
_cell_formula_units_Z 32
_cell_length_a 22.244097
_cell_length_b 8.870542
_cell_length_c 14.873320
_cell_angle_alpha 90.000000
_cell_angle_beta 148.235362
_cell_angle_gamma 90.000000
_cell_volume 1544.950050
_symmetry_space_group_name_H-M "P 2/M"
_symmetry_group_IT_number 10
_symmetry_cell_setting 'monoclinic'
loop_
_space_group_symop_operation_xyz
x,y,z
-x,y,-z
-x,-y,-z
x,-y,z
loop_
_atom_site_type_symbol
_atom_site_label
_atom_site_fract_x
_atom_site_fract_y
_atom_site_fract_z
Si Si1 0.507150 0.826104 0.247824
Si Si2 0.867343 0.324245 0.831123
Si Si3 0.568779 0.673259 0.677898
Si Si4 0.844013 0.677220 0.452707
Si Si5 0.921923 0.826805 0.258558
Si Si6 0.239571 0.174083 0.476159
Si Si7 0.276231 0.176885 0.859340
Si Si8 0.204982 0.173110 0.081177
O O1 0.511630 0.722874 0.342147
O O2 0.624492 0.800920 0.343276
O O3 0.493104 0.000000 0.259389
O O4 0.402414 0.775366 0.051560
O O5 0.846102 0.500000 0.786064
O O6 0.804002 0.227980 0.675630
O O7 0.815756 0.282298 0.861818
O O8 0.000000 0.282411 0.000000
O O9 0.500000 0.699893 0.500000
O O10 0.606066 0.500000 0.736198
O O11 0.678215 0.780834 0.818787
O O12 0.839695 0.500000 0.446302
O O13 0.823393 0.732986 0.527203
O O14 0.746468 0.740422 0.263332
O O15 0.967621 0.730507 0.575031
O O16 0.815259 0.770266 0.182307
O O17 0.949186 0.000000 0.315459
O O18 0.895067 0.805816 0.118925
O O19 0.206850 0.000000 0.446521
O O20 0.268710 0.000000 0.832370
O O21 0.211927 0.000000 0.122216
#
# Coordination Sequence:
#
# PCOD8066837 Si02
#       8
#     4   4   4   4   4   4   4   4
#     4  10  22  42  66  92 121 159 209 261 309 364
#     4  11  24  41  61  90 128 167 207 257 314 370
#     4  11  23  37  57  88 125 163 200 245 306 368
#     4  12  26  41  61  92 128 164 206 258 315 376
#     4  10  21  40  66  93 124 162 207 260 312 368
#     4  11  24  43  67  92 122 165 214 261 308 368
#     4  10  21  42  67  92 123 160 206 259 315 371
#     4  11  22  38  62  91 121 160 208 253 301 364
#
# _framework density 20.712643
#
# number of rings (size 3 to 8) (size 9 to 14) (size 15 to 20)
#    0.000    1.250    1.250    4.500    0.000   11.000 
#    0.000    2.500    0.000    0.000    0.000    0.000 
#    0.000    0.000    0.000    0.000    0.000    0.000 
#
# Total GULP energy -397043.295425 kJ/mol
# GULP energy per Si atom -12407.602982 kJ/mol
# Density = 2.066550 g / cm^3
# Si number density = 20.712643 Si / 1000 Ang^3
#
#
#
# Elastic Constant Matrix: (Units=GPa)
#
#
# Indices 1 2 3 4 5 6 
#
# 1 62.6469 16.3917 17.3134 0.0000 1.0378 0.0000
# 2 16.3917 74.5371 42.4730 0.0000 3.1521 0.0000
# 3 17.3134 42.4730 102.0796 0.0000 4.3304 0.0000
# 4 0.0000 0.0000 0.0000 18.4202 0.0000 3.1731
# 5 1.0378 3.1521 4.3304 0.0000 36.2158 0.0000
# 6 0.0000 0.0000 0.0000 3.1731 0.0000 24.6630
#
#
#
# Elastic Compliance Matrix: (Units=1/GPa)
#
#
# Indices 1 2 3 4 5 6 
#
# 1 0.017175 -0.002774 -0.001757 0.000000 -0.000041 0.000000
# 2 -0.002774 0.018049 -0.007012 0.000000 -0.000653 0.000000
# 3 -0.001757 -0.007012 0.013050 0.000000 -0.000900 0.000000
# 4 0.000000 0.000000 0.000000 0.055519 0.000000 -0.007143
# 5 -0.000041 -0.000653 -0.000900 0.000000 0.027778 0.000000
# 6 0.000000 0.000000 0.000000 -0.007143 0.000000 0.041466
#
#
# Mechanical properties :
#
#
# Convention : Reuss Voigt Hill
#
# Bulk Modulus (GPa) = 39.70107 43.51331 41.60719
# Shear Modulus (GPa) = 24.44784 26.73217 25.59000
#
# Velocity S-wave (km/s) = 3.43933 3.59642 3.51875
# Velocity P-wave (km/s) = 5.91448 6.18865 6.05312
#
# Compressibility (1/GPa) = 0.02518824
#
# Stress axis : x y z
#
# Youngs Moduli (GPa) = 58.22570 55.40404 76.62930
#
# Poissons Ratio (x) = 0.15369 0.13464
# Poissons Ratio (y) = 0.16152 0.53730
# Poissons Ratio (z) = 0.10230 0.38847
#
# Static dielectric constant tensor:
#      x y z
#    x 3.710260 0.000000 0.057090 
#    y 0.000000 3.664350 0.000000 
#    z 0.057090 0.000000 3.853490 
# 
# 
# High freq. dielectric constant tensor:
#      x y z
#    x 1.812930 0.000000 0.000300 
#    y 0.000000 1.807970 0.000000 
#    z 0.000300 0.000000 1.822210 
# 
# From -- ./inp_files/71687.got.cif
#   From: 2010.06.25/outbox.cif.g09.slc.cpg/sg10_36_cif.got.tgz:71687.got - 2010.06.27 22:07:45.
