data_PCOD8066418
_publ_section_title
;
Structure prediction by ZEFSAII (Michael W. Deem and Ramdas Pophale) SiO2 
 PCOD8066418
Probable space group: P 2/M
;
_chemical_formula_sum "Si O2"
_cell_formula_units_Z 20
_cell_length_a 16.976069
_cell_length_b 9.028189
_cell_length_c 16.924593
_cell_angle_alpha 90.000000
_cell_angle_beta 24.822895
_cell_angle_gamma 90.000000
_cell_volume 1088.964552
_symmetry_space_group_name_H-M "P 2/M"
_symmetry_group_IT_number 10
_symmetry_cell_setting 'monoclinic'
loop_
_space_group_symop_operation_xyz
x,y,z
-x,y,-z
-x,-y,-z
x,-y,z
loop_
_atom_site_type_symbol
_atom_site_label
_atom_site_fract_x
_atom_site_fract_y
_atom_site_fract_z
Si Si1 0.061749 0.175254 0.567340
Si Si2 0.881415 0.330280 0.033023
Si Si3 0.164781 0.329522 0.634402
Si Si4 0.509218 0.174942 0.401543
Si Si5 0.294804 0.824986 0.205643
O O1 0.095965 0.265077 0.614952
O O2 0.222943 0.221919 0.357917
O O3 0.857922 0.225191 0.720275
O O4 0.067687 0.000000 0.578336
O O5 0.819245 0.500000 0.103191
O O6 0.701516 0.227305 0.187182
O O7 0.000000 0.273694 0.000000
O O8 0.997486 0.309799 0.848114
O O9 0.221522 0.500000 0.572641
O O10 0.343368 0.241145 0.501439
O O11 0.500000 0.233219 0.500000
O O12 0.494650 0.000000 0.411007
O O13 0.309489 0.000000 0.189340
O O14 0.500000 0.754188 0.000000
#
# Coordination Sequence:
#
# PCOD8066418 Si02
#       5
#     4   4   4   4   4
#     4   9  18  33  54  82 111 140 182 230 273 324
#     4  10  21  38  58  78 106 150 193 228 276 336
#     4  11  23  38  57  81 115 153 190 232 279 337
#     4  11  23  37  57  83 109 141 187 242 289 329
#     4   8  15  31  56  81 108 143 179 219 273 332
#
# _framework density 18.366071000000002
#
# number of rings (size 3 to 8) (size 9 to 14) (size 15 to 20)
#    0.000    2.200    2.000    2.400    0.000    4.400 
#    0.000    4.000    0.000    1.200    0.000    0.000 
#    0.000    0.000    0.000    0.000    0.000    0.000 
#
# Total GULP energy -248020.610631 kJ/mol
# GULP energy per Si atom -12401.030532 kJ/mol
# Density = 1.832427 g / cm^3
# Si number density = 18.366071 Si / 1000 Ang^3
#
#
#
# Elastic Constant Matrix: (Units=GPa)
#
#
# Indices 1 2 3 4 5 6 
#
# 1 135.6490 43.6789 62.1491 0.0000 2.8802 0.0000
# 2 43.6789 61.9650 43.2587 0.0000 -1.5075 0.0000
# 3 62.1491 43.2587 131.9153 0.0000 -11.1033 0.0000
# 4 0.0000 0.0000 0.0000 30.1753 0.0000 2.4570
# 5 2.8802 -1.5075 -11.1033 0.0000 25.6572 0.0000
# 6 0.0000 0.0000 0.0000 2.4570 0.0000 28.5043
#
#
#
# Elastic Compliance Matrix: (Units=1/GPa)
#
#
# Indices 1 2 3 4 5 6 
#
# 1 0.010755 -0.005107 -0.003652 0.000000 -0.003088 0.000000
# 2 -0.005107 0.023435 -0.005308 0.000000 -0.000347 0.000000
# 3 -0.003652 -0.005308 0.011468 0.000000 0.005061 0.000000
# 4 0.000000 0.000000 0.000000 0.033374 0.000000 -0.002877
# 5 -0.003088 -0.000347 0.005061 0.000000 0.041492 0.000000
# 6 0.000000 0.000000 0.000000 -0.002877 0.000000 0.035330
#
#
# Mechanical properties :
#
#
# Convention : Reuss Voigt Hill
#
# Bulk Modulus (GPa) = 57.06553 69.74475 63.40514
# Shear Modulus (GPa) = 26.33920 28.89684 27.61802
#
# Velocity S-wave (km/s) = 3.79109 3.97089 3.88203
# Velocity P-wave (km/s) = 7.09237 7.68643 7.39537
#
# Compressibility (1/GPa) = 0.01752371
#
# Stress axis : x y z
#
# Youngs Moduli (GPa) = 92.97758 42.67078 87.19817
#
# Poissons Ratio (x) = 0.21791 0.31848
# Poissons Ratio (y) = 0.47481 0.46288
# Poissons Ratio (z) = 0.33959 0.22651
#
# Static dielectric constant tensor:
#      x y z
#    x 3.365980 0.000000 -0.049590 
#    y 0.000000 3.191700 0.000000 
#    z -0.049590 0.000000 3.744350 
# 
# 
# High freq. dielectric constant tensor:
#      x y z
#    x 1.715960 0.000000 -0.001940 
#    y 0.000000 1.693290 0.000000 
#    z -0.001940 0.000000 1.722200 
# 
# From -- ./inp_files/78710.got.cif
#   From: 2010.06.25/outbox.cif.g09.slc.cpg/sg10_40_cif.got.tgz:78710.got - 2010.06.27 22:07:45.
