data_PCOD8066044
_publ_section_title
;
Structure prediction by ZEFSAII (Michael W. Deem and Ramdas Pophale) SiO2 
 PCOD8066044
Probable space group: P 2/M
;
_chemical_formula_sum "Si O2"
_cell_formula_units_Z 26
_cell_length_a 12.661846
_cell_length_b 20.413211
_cell_length_c 8.409305
_cell_angle_alpha 90.000000
_cell_angle_beta 143.414562
_cell_angle_gamma 90.000000
_cell_volume 1295.477527
_symmetry_space_group_name_H-M "P 2/M"
_symmetry_group_IT_number 10
_symmetry_cell_setting 'monoclinic'
loop_
_space_group_symop_operation_xyz
x,y,z
-x,y,-z
-x,-y,-z
x,-y,z
loop_
_atom_site_type_symbol
_atom_site_label
_atom_site_fract_x
_atom_site_fract_y
_atom_site_fract_z
Si Si1 0.058368 0.573349 0.753076
Si Si2 0.000000 0.885001 0.000000
Si Si3 0.256638 0.803609 0.903038
Si Si4 0.877094 0.790668 0.590120
Si Si5 0.637948 0.663895 0.952537
Si Si6 0.742968 0.347089 0.444742
Si Si7 0.677172 0.072589 0.811678
O O1 0.110418 0.500000 0.868930
O O2 0.890714 0.597419 0.655671
O O3 0.000000 0.574385 0.500000
O O4 0.225384 0.621572 0.988459
O O5 0.880487 0.842444 0.735919
O O6 0.855491 0.927244 0.920338
O O7 0.258816 0.812578 0.714061
O O8 0.375611 0.741735 0.103655
O O9 0.066203 0.783180 0.737459
O O10 0.320775 0.872422 0.050443
O O11 0.818512 0.722136 0.596782
O O12 0.705602 0.658563 0.213239
O O13 0.440480 0.634635 0.688151
O O14 0.500000 0.085997 0.500000
O O15 0.669138 0.000000 0.879974
#
# Coordination Sequence:
#
# PCOD8066044 Si02
#       7
#     4   2   4   4   4   4   4
#     4   9  16  26  40  64 104 141 169 209 262 312
#     4  10  21  36  56  80 107 136 174 220 271 312
#     4   9  17  33  55  76 104 141 178 220 264 316
#     4   9  17  32  53  79 104 135 177 224 266 310
#     4   9  16  26  44  69  96 130 175 217 257 301
#     4   9  16  26  43  68  97 131 171 216 259 304
#     4  10  22  39  56  78 111 142 172 215 269 319
#
# _framework density 20.069818000000001
#
# number of rings (size 3 to 8) (size 9 to 14) (size 15 to 20)
#    0.000    2.769    1.538    0.231    2.154    0.615 
#    0.000   10.000    0.000    1.846    0.000    0.538 
#    0.000    1.846    0.000    0.154    0.000    0.000 
#
# Total GULP energy -322203.096409 kJ/mol
# GULP energy per Si atom -12392.426785 kJ/mol
# Density = 2.002414 g / cm^3
# Si number density = 20.069818 Si / 1000 Ang^3
#
#
#
# Elastic Constant Matrix: (Units=GPa)
#
#
# Indices 1 2 3 4 5 6 
#
# 1 44.1993 42.7326 30.7281 0.0000 14.8932 0.0000
# 2 42.7326 158.3491 62.3864 0.0000 13.3074 0.0000
# 3 30.7281 62.3864 70.3957 0.0000 21.0128 0.0000
# 4 0.0000 0.0000 0.0000 -1.2685 0.0000 21.4127
# 5 14.8932 13.3074 21.0128 0.0000 30.8145 0.0000
# 6 0.0000 0.0000 0.0000 21.4127 0.0000 0.3957
#
#
#
# Elastic Compliance Matrix: (Units=1/GPa)
#
#
# Indices 1 2 3 4 5 6 
#
# 1 0.037449 -0.006151 -0.007892 0.000000 -0.010062 0.000000
# 2 -0.006151 0.010823 -0.008034 0.000000 0.003778 0.000000
# 3 -0.007892 -0.008034 0.028371 0.000000 -0.012063 0.000000
# 4 0.000000 0.000000 0.000000 -0.000862 0.000000 0.046650
# 5 -0.010062 0.003778 -0.012063 0.000000 0.043909 0.000000
# 6 0.000000 0.000000 0.000000 0.046650 0.000000 0.002764
#
#
# Mechanical properties :
#
#
# Convention : Reuss Voigt Hill
#
# Bulk Modulus (GPa) = 30.78041 60.51534 45.64787
# Shear Modulus (GPa) = 28.17894 15.12814 21.65354
#
# Velocity S-wave (km/s) = 3.75112 2.74848 3.28824
# Velocity P-wave (km/s) = 5.84219 6.34744 6.10005
#
# Compressibility (1/GPa) = 0.03248820
#
# Stress axis : x y z
#
# Youngs Moduli (GPa) = 26.70317 92.39597 35.24736
#
# Poissons Ratio (x) = 0.56835 0.27817
# Poissons Ratio (y) = 0.16426 0.28318
# Poissons Ratio (z) = 0.21074 0.74232
#
# Static dielectric constant tensor:
#      x y z
#    x 3.534600 0.000000 0.262290 
#    y 0.000000 3.661310 0.000000 
#    z 0.262290 0.000000 3.538390 
# 
# 
# High freq. dielectric constant tensor:
#      x y z
#    x 1.758830 0.000000 0.031630 
#    y 0.000000 1.779260 0.000000 
#    z 0.031630 0.000000 1.764460 
# 
# From -- ./inp_files/26122.got.cif
#   From: 2010.06.25/outbox.cif.g09.slc.cpg/sg10_14_cif.got.tgz:26122.got - 2010.06.27 22:07:45.
