data_PCOD8066075
_publ_section_title
;
Structure prediction by ZEFSAII (Michael W. Deem and Ramdas Pophale) SiO2 
 PCOD8066075
Probable space group: P 2/M
;
_chemical_formula_sum "Si O2"
_cell_formula_units_Z 22
_cell_length_a 5.020105
_cell_length_b 13.582066
_cell_length_c 14.230402
_cell_angle_alpha 90.000000
_cell_angle_beta 90.551332
_cell_angle_gamma 90.000000
_cell_volume 970.232235
_symmetry_space_group_name_H-M "P 2/M"
_symmetry_group_IT_number 10
_symmetry_cell_setting 'monoclinic'
loop_
_space_group_symop_operation_xyz
x,y,z
-x,y,-z
-x,-y,-z
x,-y,z
loop_
_atom_site_type_symbol
_atom_site_label
_atom_site_fract_x
_atom_site_fract_y
_atom_site_fract_z
Si Si1 0.500000 0.244202 0.000000
Si Si2 0.143243 0.886770 0.899799
Si Si3 0.069172 0.192727 0.703134
Si Si4 0.783165 0.390849 0.883742
Si Si5 0.565054 0.112682 0.605532
Si Si6 0.722326 0.609868 0.238134
O O1 0.583478 0.174312 0.087608
O O2 0.257186 0.312732 0.033435
O O3 0.992631 0.837393 0.810627
O O4 0.205944 0.000000 0.877674
O O5 0.000000 0.875431 0.000000
O O6 0.302164 0.121216 0.668178
O O7 0.803227 0.182029 0.641649
O O8 0.178537 0.304769 0.690977
O O9 0.727316 0.500000 0.923624
O O10 0.086824 0.382650 0.851910
O O11 0.579467 0.369860 0.796447
O O12 0.500000 0.146606 0.500000
O O13 0.663806 0.000000 0.608824
O O14 0.746526 0.500000 0.284064
#
# Coordination Sequence:
#
# PCOD8066075 Si02
#       6
#     2   4   4   4   4   4
#     4  12  22  36  54  80 124 168 218 268 304 368
#     4  11  25  39  56  87 130 177 219 258 305 381
#     4  12  23  43  70  95 129 175 212 262 328 383
#     4  10  21  36  57  83 120 165 218 270 314 357
#     4  11  25  45  71 101 128 159 213 275 329 383
#     4  10  21  39  60  91 124 162 211 263 314 380
#
# _framework density 22.674983999999998
#
# number of rings (size 3 to 8) (size 9 to 14) (size 15 to 20)
#    0.000    1.091    1.818    4.909    2.545    1.455 
#    0.000    2.727    0.000    3.273    0.000    0.000 
#    0.000    0.000    0.000    0.000    0.000    0.000 
#
# Total GULP energy -272781.451633 kJ/mol
# GULP energy per Si atom -12399.156892 kJ/mol
# Density = 2.262337 g / cm^3
# Si number density = 22.674984 Si / 1000 Ang^3
#
#
#
# Elastic Constant Matrix: (Units=GPa)
#
#
# Indices 1 2 3 4 5 6 
#
# 1 64.0543 -7.3067 20.5429 0.0000 9.4970 0.0000
# 2 -7.3067 118.9789 44.2136 0.0000 8.9393 0.0000
# 3 20.5429 44.2136 117.3398 0.0000 19.0103 0.0000
# 4 0.0000 0.0000 0.0000 20.3230 0.0000 2.3390
# 5 9.4970 8.9393 19.0103 0.0000 31.0672 0.0000
# 6 0.0000 0.0000 0.0000 2.3390 0.0000 21.0748
#
#
#
# Elastic Compliance Matrix: (Units=1/GPa)
#
#
# Indices 1 2 3 4 5 6 
#
# 1 0.017616 0.002661 -0.003430 0.000000 -0.004052 0.000000
# 2 0.002661 0.010186 -0.004104 0.000000 -0.001233 0.000000
# 3 -0.003430 -0.004104 0.011442 0.000000 -0.004772 0.000000
# 4 0.000000 0.000000 0.000000 0.049842 0.000000 -0.005532
# 5 -0.004052 -0.001233 -0.004772 0.000000 0.036702 0.000000
# 6 0.000000 0.000000 0.000000 -0.005532 0.000000 0.048064
#
#
# Mechanical properties :
#
#
# Convention : Reuss Voigt Hill
#
# Bulk Modulus (GPa) = 33.90110 46.14140 40.02125
# Shear Modulus (GPa) = 25.84886 30.68787 28.26836
#
# Velocity S-wave (km/s) = 3.38001 3.68282 3.53466
# Velocity P-wave (km/s) = 5.49691 6.20302 5.86061
#
# Compressibility (1/GPa) = 0.02949756
#
# Stress axis : x y z
#
# Youngs Moduli (GPa) = 56.76598 98.17330 87.39411
#
# Poissons Ratio (x) = -0.26124 0.29979
# Poissons Ratio (y) = -0.15105 0.35868
# Poissons Ratio (z) = 0.19473 0.40292
#
# Static dielectric constant tensor:
#      x y z
#    x 3.997590 0.000000 0.103640 
#    y 0.000000 4.499230 0.000000 
#    z 0.103640 0.000000 3.791260 
# 
# 
# High freq. dielectric constant tensor:
#      x y z
#    x 1.895050 0.000000 0.020180 
#    y 0.000000 1.917150 0.000000 
#    z 0.020180 0.000000 1.855910 
# 
# From -- ./inp_files/59114.got.cif
#   From: 2010.06.25/outbox.cif.g09.slc.cpg/sg10_30_cif.got.tgz:59114.got - 2010.06.27 22:07:45.
