data_PCOD8066304
_publ_section_title
;
Structure prediction by ZEFSAII (Michael W. Deem and Ramdas Pophale) SiO2 
 PCOD8066304
Probable space group: P 2/M
;
_chemical_formula_sum "Si O2"
_cell_formula_units_Z 24
_cell_length_a 18.523324
_cell_length_b 8.738403
_cell_length_c 25.453313
_cell_angle_alpha 90.000000
_cell_angle_beta 163.172223
_cell_angle_gamma 90.000000
_cell_volume 1192.717759
_symmetry_space_group_name_H-M "P 2/M"
_symmetry_group_IT_number 10
_symmetry_cell_setting 'monoclinic'
loop_
_space_group_symop_operation_xyz
x,y,z
-x,y,-z
-x,-y,-z
x,-y,z
loop_
_atom_site_type_symbol
_atom_site_label
_atom_site_fract_x
_atom_site_fract_y
_atom_site_fract_z
Si Si1 0.070039 0.171401 0.608760
Si Si2 0.951238 0.821639 0.710204
Si Si3 0.898163 0.181751 0.985113
Si Si4 0.337586 0.818691 0.593560
Si Si5 0.783934 0.679620 0.699929
Si Si6 0.554630 0.671992 0.977363
O O1 0.304592 0.282467 0.773367
O O2 0.000000 0.162416 0.500000
O O3 0.844845 0.241036 0.487256
O O4 0.135637 0.000000 0.675208
O O5 0.763792 0.764825 0.533894
O O6 0.910358 0.723127 0.733451
O O7 0.914137 0.000000 0.696961
O O8 0.232163 0.792853 0.887596
O O9 0.616605 0.246576 0.796546
O O10 0.899626 0.000000 0.988456
O O11 0.000000 0.240033 0.000000
O O12 0.075380 0.241217 0.154202
O O13 0.346888 0.000000 0.601835
O O14 0.500000 0.738508 0.500000
O O15 0.798854 0.500000 0.719244
O O16 0.632840 0.500000 0.015320
O O17 0.500000 0.683197 0.000000
#
# Coordination Sequence:
#
# PCOD8066304 Si02
#       6
#     4   4   4   4   4   4
#     4  10  21  37  59  86 119 159 207 253 298 353
#     4  11  22  39  66  91 118 158 207 255 302 356
#     4  10  21  39  64  92 122 155 200 251 299 357
#     4   9  19  36  58  88 119 152 198 253 304 350
#     4  11  25  43  62  90 127 161 198 246 304 368
#     4  11  23  39  59  88 126 164 204 248 302 361
#
# _framework density 20.122111
#
# number of rings (size 3 to 8) (size 9 to 14) (size 15 to 20)
#    0.000    1.667    1.667    2.500    2.333    4.000 
#    0.000    2.500    0.000    0.000    0.000    0.000 
#    0.000    0.000    0.000    0.000    0.000    0.000 
#
# Total GULP energy -297653.292971 kJ/mol
# GULP energy per Si atom -12402.220540 kJ/mol
# Density = 2.007631 g / cm^3
# Si number density = 20.122111 Si / 1000 Ang^3
#
#
#
# Elastic Constant Matrix: (Units=GPa)
#
#
# Indices 1 2 3 4 5 6 
#
# 1 97.4929 13.1376 56.4972 0.0000 -8.2632 0.0000
# 2 13.1376 19.5215 16.6407 0.0000 1.1339 0.0000
# 3 56.4972 16.6407 157.6940 0.0000 2.9962 0.0000
# 4 0.0000 0.0000 0.0000 25.6484 0.0000 11.2722
# 5 -8.2632 1.1339 2.9962 0.0000 34.0557 0.0000
# 6 0.0000 0.0000 0.0000 11.2722 0.0000 -2.7935
#
#
#
# Elastic Compliance Matrix: (Units=1/GPa)
#
#
# Indices 1 2 3 4 5 6 
#
# 1 0.013966 -0.005824 -0.004465 0.000000 0.003975 0.000000
# 2 -0.005824 0.058780 -0.004059 0.000000 -0.003013 0.000000
# 3 -0.004465 -0.004059 0.008401 0.000000 -0.001687 0.000000
# 4 0.000000 0.000000 0.000000 0.014058 0.000000 0.056727
# 5 0.003975 -0.003013 -0.001687 0.000000 0.030577 0.000000
# 6 0.000000 0.000000 0.000000 0.056727 0.000000 -0.129074
#
#
# Mechanical properties :
#
#
# Convention : Reuss Voigt Hill
#
# Bulk Modulus (GPa) = 19.06499 49.69550 34.38024
# Shear Modulus (GPa) = 116.58181 23.94432 70.26307
#
# Velocity S-wave (km/s) = 7.61990 3.45331 5.91558
# Velocity P-wave (km/s) = 9.32269 6.37582 7.98635
#
# Compressibility (1/GPa) = 0.05245217
#
# Stress axis : x y z
#
# Youngs Moduli (GPa) = 71.60156 17.01259 119.02901
#
# Poissons Ratio (x) = 0.09908 0.53142
# Poissons Ratio (y) = 0.41702 0.48313
# Poissons Ratio (z) = 0.31967 0.06905
#
# Static dielectric constant tensor:
#      x y z
#    x 4.223420 0.000000 -0.053250 
#    y 0.000000 3.514630 0.000000 
#    z -0.053250 0.000000 3.884470 
# 
# 
# High freq. dielectric constant tensor:
#      x y z
#    x 1.797480 0.000000 0.002250 
#    y 0.000000 1.764400 0.000000 
#    z 0.002250 0.000000 1.798100 
# 
# From -- ./inp_files/90055.got.cif
#   From: 2010.06.25/outbox.cif.g09.slc.cpg/sg10_46_cif.got.tgz:90055.got - 2010.06.27 22:07:45.
