data_PCOD8066262
_publ_section_title
;
Structure prediction by ZEFSAII (Michael W. Deem and Ramdas Pophale) SiO2 
 PCOD8066262
Probable space group: P 2/M
;
_chemical_formula_sum "Si O2"
_cell_formula_units_Z 14
_cell_length_a 7.594010
_cell_length_b 9.545701
_cell_length_c 13.011868
_cell_angle_alpha 90.000000
_cell_angle_beta 50.580209
_cell_angle_gamma 90.000000
_cell_volume 728.660381
_symmetry_space_group_name_H-M "P 2/M"
_symmetry_group_IT_number 10
_symmetry_cell_setting 'monoclinic'
loop_
_space_group_symop_operation_xyz
x,y,z
-x,y,-z
-x,-y,-z
x,-y,z
loop_
_atom_site_type_symbol
_atom_site_label
_atom_site_fract_x
_atom_site_fract_y
_atom_site_fract_z
Si Si1 0.000000 0.249213 0.500000
Si Si2 0.126290 0.662510 0.847142
Si Si3 0.173176 0.343231 0.233234
Si Si4 0.453352 0.157884 0.258566
O O1 0.996653 0.343537 0.604832
O O2 0.229921 0.154609 0.415300
O O3 0.197649 0.500000 0.809298
O O4 0.959705 0.710080 0.817506
O O5 0.348702 0.758491 0.756748
O O6 0.000000 0.692074 0.000000
O O7 0.267953 0.500000 0.180240
O O8 0.387359 0.239855 0.176796
O O9 0.531953 0.000000 0.204424
#
# Coordination Sequence:
#
# PCOD8066262 Si02
#       4
#     2   4   4   4
#     4   8  20  36  58  84 110 144 182 226 278 326
#     4  10  22  39  58  82 111 146 188 228 272 325
#     4   9  19  36  59  83 109 145 183 229 275 321
#     4  10  21  37  58  83 114 148 180 226 278 330
#
# _framework density 19.213341
#
# number of rings (size 3 to 8) (size 9 to 14) (size 15 to 20)
#    1.714    0.857    0.000    1.714    0.000    4.000 
#    0.000   10.000    0.000    0.000    0.000    0.000 
#    0.000    0.000    0.000    0.000    0.000    0.000 
#
# Total GULP energy -173463.976322 kJ/mol
# GULP energy per Si atom -12390.284023 kJ/mol
# Density = 1.916961 g / cm^3
# Si number density = 19.213341 Si / 1000 Ang^3
#
#
#
# Elastic Constant Matrix: (Units=GPa)
#
#
# Indices 1 2 3 4 5 6 
#
# 1 98.9259 46.2347 7.8501 0.0000 21.5373 0.0000
# 2 46.2347 105.8996 -1.5383 0.0000 -3.9604 0.0000
# 3 7.8501 -1.5383 42.9249 0.0000 14.0159 0.0000
# 4 0.0000 0.0000 0.0000 3.3243 0.0000 -3.4763
# 5 21.5373 -3.9604 14.0159 0.0000 37.5995 0.0000
# 6 0.0000 0.0000 0.0000 -3.4763 0.0000 12.8812
#
#
#
# Elastic Compliance Matrix: (Units=1/GPa)
#
#
# Indices 1 2 3 4 5 6 
#
# 1 0.015556 -0.007153 0.000062 0.000000 -0.009687 0.000000
# 2 -0.007153 0.012769 -0.000013 0.000000 0.005447 0.000000
# 3 0.000062 -0.000013 0.026525 0.000000 -0.009925 0.000000
# 4 0.000000 0.000000 0.000000 0.419094 0.000000 0.113102
# 5 -0.009687 0.005447 -0.009925 0.000000 0.036418 0.000000
# 6 0.000000 0.000000 0.000000 0.113102 0.000000 0.108156
#
#
# Mechanical properties :
#
#
# Convention : Reuss Voigt Hill
#
# Bulk Modulus (GPa) = 24.60475 39.20482 31.90478
# Shear Modulus (GPa) = 7.73667 23.77457 15.75562
#
# Velocity S-wave (km/s) = 2.00885 3.52148 2.86673
# Velocity P-wave (km/s) = 4.26784 6.08143 5.25349
#
# Compressibility (1/GPa) = 0.04064256
#
# Stress axis : x y z
#
# Youngs Moduli (GPa) = 64.28568 78.31316 37.69981
#
# Poissons Ratio (x) = 0.56016 -0.00233
# Poissons Ratio (y) = 0.45982 0.00048
# Poissons Ratio (z) = -0.00397 0.00101
#
# Static dielectric constant tensor:
#      x y z
#    x 3.419600 0.000000 0.059800 
#    y 0.000000 3.271990 0.000000 
#    z 0.059800 0.000000 3.206890 
# 
# 
# High freq. dielectric constant tensor:
#      x y z
#    x 1.747400 0.000000 0.002160 
#    y 0.000000 1.737350 0.000000 
#    z 0.002160 0.000000 1.724690 
# 
# From -- ./inp_files/8718.got.cif
#   From: 2010.06.25/outbox.cif.g09.slc.cpg/sg10_5_cif.got.tgz:8718.got - 2010.06.27 22:07:45.
