data_PCOD8066353
_publ_section_title
;
Structure prediction by ZEFSAII (Michael W. Deem and Ramdas Pophale) SiO2 
 PCOD8066353
Probable space group: P 2/M
;
_chemical_formula_sum "Si O2"
_cell_formula_units_Z 24
_cell_length_a 13.581440
_cell_length_b 19.805447
_cell_length_c 11.786332
_cell_angle_alpha 90.000000
_cell_angle_beta 21.197305
_cell_angle_gamma 90.000000
_cell_volume 1146.342514
_symmetry_space_group_name_H-M "P 2/M"
_symmetry_group_IT_number 10
_symmetry_cell_setting 'monoclinic'
loop_
_space_group_symop_operation_xyz
x,y,z
-x,y,-z
-x,-y,-z
x,-y,z
loop_
_atom_site_type_symbol
_atom_site_label
_atom_site_fract_x
_atom_site_fract_y
_atom_site_fract_z
Si Si1 0.307370 0.573934 0.459679
Si Si2 0.853772 0.403796 0.764500
Si Si3 0.210703 0.251754 0.184298
Si Si4 0.772370 0.797508 0.508240
Si Si5 0.211942 0.923862 0.368686
Si Si6 0.284815 0.704310 0.635377
O O1 0.243185 0.500000 0.585803
O O2 0.365921 0.634865 0.484028
O O3 0.053495 0.596606 0.656965
O O4 0.574537 0.559998 0.097107
O O5 0.765100 0.330257 0.818186
O O6 0.000000 0.440162 0.500000
O O7 0.000000 0.216839 0.500000
O O8 0.060074 0.238957 0.226297
O O9 0.517202 0.223776 0.862514
O O10 0.808892 0.877536 0.494499
O O11 0.708879 0.772034 0.449533
O O12 0.000000 0.901016 0.500000
O O13 0.151933 0.000000 0.475107
O O14 0.500000 0.918040 0.000000
O O15 0.500000 0.719960 0.500000
O O16 0.000000 0.692046 0.000000
#
# Coordination Sequence:
#
# PCOD8066353 Si02
#       6
#     4   4   4   4   4   4
#     4  12  25  43  63  86 118 159 201 251 319 381
#     4  11  22  39  60  90 126 156 189 239 301 380
#     4  11  20  33  59  91 121 152 194 238 289 364
#     4  12  21  38  62  88 121 163 200 244 301 349
#     4  10  21  37  60  97 139 168 191 226 282 362
#     4  12  26  44  63  84 114 151 213 276 315 344
#
# _framework density 20.936150000000001
#
# number of rings (size 3 to 8) (size 9 to 14) (size 15 to 20)
#    0.000    0.667    3.333    6.000    0.000    5.333 
#    0.000    0.000    0.000    1.000    0.000    0.000 
#    0.000    0.000    0.000    0.000    0.000    0.000 
#
# Total GULP energy -297411.373350 kJ/mol
# GULP energy per Si atom -12392.140556 kJ/mol
# Density = 2.088850 g / cm^3
# Si number density = 20.936150 Si / 1000 Ang^3
#
#
#
# Elastic Constant Matrix: (Units=GPa)
#
#
# Indices 1 2 3 4 5 6 
#
# 1 79.7128 51.4313 1.2704 0.0000 -0.8627 0.0000
# 2 51.4313 152.4381 18.2319 0.0000 12.4963 0.0000
# 3 1.2704 18.2319 88.4769 0.0000 -6.4606 0.0000
# 4 0.0000 0.0000 0.0000 20.8209 0.0000 -11.2573
# 5 -0.8627 12.4963 -6.4606 0.0000 39.4386 0.0000
# 6 0.0000 0.0000 0.0000 -11.2573 0.0000 -1.1272
#
#
#
# Elastic Compliance Matrix: (Units=1/GPa)
#
#
# Indices 1 2 3 4 5 6 
#
# 1 0.016320 -0.005839 0.001144 0.000000 0.002395 0.000000
# 2 -0.005839 0.009045 -0.002023 0.000000 -0.003325 0.000000
# 3 0.001144 -0.002023 0.011894 0.000000 0.002614 0.000000
# 4 0.000000 0.000000 0.000000 0.007505 0.000000 -0.074951
# 5 0.002395 -0.003325 0.002614 0.000000 0.026890 0.000000
# 6 0.000000 0.000000 0.000000 -0.074951 0.000000 -0.138626
#
#
# Mechanical properties :
#
#
# Convention : Reuss Voigt Hill
#
# Bulk Modulus (GPa) = 41.97795 51.38833 46.68314
# Shear Modulus (GPa) = -109.66096 28.47275 -40.59410
#
# Velocity S-wave (km/s) = -7.24517 3.69179 -4.40813
# Velocity P-wave (km/s) = 7.06371 6.53995 1.88746
#
# Compressibility (1/GPa) = 0.02382203
#
# Stress axis : x y z
#
# Youngs Moduli (GPa) = 61.27302 110.56168 84.07833
#
# Poissons Ratio (x) = 0.64562 -0.09617
# Poissons Ratio (y) = 0.35780 0.17007
# Poissons Ratio (z) = -0.07009 0.22364
#
# Static dielectric constant tensor:
#      x y z
#    x 3.754470 0.000000 -0.143290 
#    y 0.000000 3.897620 0.000000 
#    z -0.143290 0.000000 3.949250 
# 
# 
# High freq. dielectric constant tensor:
#      x y z
#    x 1.806230 0.000000 -0.033290 
#    y 0.000000 1.821600 0.000000 
#    z -0.033290 0.000000 1.822300 
# 
# From -- ./inp_files/52054.got.cif
#   From: 2010.06.25/outbox.cif.g09.slc.cpg/sg10_27_cif.got.tgz:52054.got - 2010.06.27 22:07:45.
