data_PCOD8066398
_publ_section_title
;
Structure prediction by ZEFSAII (Michael W. Deem and Ramdas Pophale) SiO2 
 PCOD8066398
Probable space group: P 2/M
;
_chemical_formula_sum "Si O2"
_cell_formula_units_Z 30
_cell_length_a 33.254824
_cell_length_b 11.166913
_cell_length_c 30.338959
_cell_angle_alpha 90.000000
_cell_angle_beta 7.838861
_cell_angle_gamma 90.000000
_cell_volume 1536.607994
_symmetry_space_group_name_H-M "P 2/M"
_symmetry_group_IT_number 10
_symmetry_cell_setting 'monoclinic'
loop_
_space_group_symop_operation_xyz
x,y,z
-x,y,-z
-x,-y,-z
x,-y,z
loop_
_atom_site_type_symbol
_atom_site_label
_atom_site_fract_x
_atom_site_fract_y
_atom_site_fract_z
Si Si1 0.672100 0.359954 0.354873
Si Si2 0.275977 0.136971 0.379209
Si Si3 0.349372 0.000000 0.616247
Si Si4 0.412662 0.793430 0.703621
Si Si5 0.377570 0.142346 0.914831
Si Si6 0.260432 0.857941 0.563358
Si Si7 0.261477 0.868134 0.297421
Si Si8 0.149225 0.369731 0.384825
O O1 0.500000 0.302745 0.500000
O O2 0.696032 0.500000 0.322640
O O3 0.497159 0.333914 0.590414
O O4 0.000000 0.302745 0.000000
O O5 0.484560 0.197181 0.189592
O O6 0.411819 0.149062 0.182258
O O7 0.240581 0.000000 0.431779
O O8 0.950641 0.196934 0.733265
O O9 0.500000 0.000000 0.500000
O O10 0.452914 0.885857 0.476888
O O11 0.000000 0.000000 0.000000
O O12 0.558139 0.804868 0.593211
O O13 0.063724 0.803840 0.086793
O O14 0.575076 0.183672 0.659424
O O15 0.357456 0.000000 0.939252
O O16 0.241571 0.000000 0.588460
O O17 0.051651 0.751146 0.517604
O O18 0.093356 0.000000 0.480109
O O19 0.500000 0.874128 0.000000
O O20 0.060630 0.500000 0.502612
O O21 0.000000 0.359648 0.500000
O O22 0.500000 0.364934 0.000000
#
# Coordination Sequence:
#
# PCOD8066398 Si02
#       8
#     4   4   2   4   4   4   4   4
#     4  10  21  38  56  74 100 137 178 215 249 293
#     4   9  17  30  45  69  97 132 168 202 251 313
#     4  12  22  32  46  70 110 140 154 180 237 306
#     4  12  21  34  52  77 104 133 171 207 251 301
#     4   9  18  31  49  67  97 133 167 208 256 301
#     4  11  20  34  50  76 105 134 169 214 257 307
#     4   9  18  31  50  77 109 138 169 215 266 312
#     4   9  18  32  48  68  97 134 172 205 241 293
#
# _framework density 19.523520999999999
#
# number of rings (size 3 to 8) (size 9 to 14) (size 15 to 20)
#    0.000    2.000    1.333    3.200    0.000    4.533 
#    0.000    4.000    0.000    0.000    0.000    5.600 
#    0.000    0.000    0.000    0.000    0.000    0.000 
#
# Total GULP energy -371706.785624 kJ/mol
# GULP energy per Si atom -12390.226187 kJ/mol
# Density = 1.947909 g / cm^3
# Si number density = 19.523521 Si / 1000 Ang^3
#
#
#
# Elastic Constant Matrix: (Units=GPa)
#
#
# Indices 1 2 3 4 5 6 
#
# 1 162.3960 22.2690 58.2577 0.0000 -11.9002 0.0000
# 2 22.2690 79.3151 -10.9071 0.0000 -6.1524 0.0000
# 3 58.2577 -10.9071 103.8052 0.0000 -10.6594 0.0000
# 4 0.0000 0.0000 0.0000 9.8734 0.0000 -2.5458
# 5 -11.9002 -6.1524 -10.6594 0.0000 43.3637 0.0000
# 6 0.0000 0.0000 0.0000 -2.5458 0.0000 20.2377
#
#
#
# Elastic Compliance Matrix: (Units=1/GPa)
#
#
# Indices 1 2 3 4 5 6 
#
# 1 0.008394 -0.002987 -0.004957 0.000000 0.000661 0.000000
# 2 -0.002987 0.014064 0.003360 0.000000 0.002001 0.000000
# 3 -0.004957 0.003360 0.013006 0.000000 0.002313 0.000000
# 4 0.000000 0.000000 0.000000 0.104678 0.000000 0.013168
# 5 0.000661 0.002001 0.002313 0.000000 0.024095 0.000000
# 6 0.000000 0.000000 0.000000 0.013168 0.000000 0.051069
#
#
# Mechanical properties :
#
#
# Convention : Reuss Voigt Hill
#
# Bulk Modulus (GPa) = 38.02970 53.86170 45.94570
# Shear Modulus (GPa) = 21.43721 33.08808 27.26264
#
# Velocity S-wave (km/s) = 3.31723 4.12124 3.74090
# Velocity P-wave (km/s) = 5.84750 7.09183 6.49951
#
# Compressibility (1/GPa) = 0.02629524
#
# Stress axis : x y z
#
# Youngs Moduli (GPa) = 119.13130 71.10408 76.88802
#
# Poissons Ratio (x) = 0.21240 0.38113
# Poissons Ratio (y) = 0.35586 -0.25832
# Poissons Ratio (z) = 0.59052 -0.23889
#
# Static dielectric constant tensor:
#      x y z
#    x 3.782650 0.000000 -0.119960 
#    y 0.000000 7.370740 0.000000 
#    z -0.119960 0.000000 3.565980 
# 
# 
# High freq. dielectric constant tensor:
#      x y z
#    x 1.774070 0.000000 -0.012790 
#    y 0.000000 1.723270 0.000000 
#    z -0.012790 0.000000 1.756590 
# 
# From -- ./inp_files/13469.got.cif
#   From: 2010.06.25/outbox.cif.g09.slc.cpg/sg10_7_cif.got.tgz:13469.got - 2010.06.27 22:07:45.
