data_PCOD8066804
_publ_section_title
;
Structure prediction by ZEFSAII (Michael W. Deem and Ramdas Pophale) SiO2 
 PCOD8066804
Probable space group: P 2/M
;
_chemical_formula_sum "Si O2"
_cell_formula_units_Z 20
_cell_length_a 7.358315
_cell_length_b 13.083244
_cell_length_c 16.180140
_cell_angle_alpha 90.000000
_cell_angle_beta 38.784798
_cell_angle_gamma 90.000000
_cell_volume 975.721261
_symmetry_space_group_name_H-M "P 2/M"
_symmetry_group_IT_number 10
_symmetry_cell_setting 'monoclinic'
loop_
_space_group_symop_operation_xyz
x,y,z
-x,y,-z
-x,-y,-z
x,-y,z
loop_
_atom_site_type_symbol
_atom_site_label
_atom_site_fract_x
_atom_site_fract_y
_atom_site_fract_z
Si Si1 0.219673 0.711603 0.788062
Si Si2 0.072943 0.500000 0.097198
Si Si3 0.830949 0.686498 0.639800
Si Si4 0.189950 0.188830 0.634375
Si Si5 0.828287 0.113262 0.899213
Si Si6 0.678528 0.500000 0.807914
O O1 0.525010 0.735813 0.722505
O O2 0.248983 0.716424 0.677488
O O3 0.120078 0.599667 0.851175
O O4 0.987844 0.800088 0.898786
O O5 0.188230 0.500000 0.148789
O O6 0.330610 0.500000 0.939028
O O7 0.787227 0.598649 0.721712
O O8 0.000000 0.642547 0.500000
O O9 0.023352 0.775483 0.611681
O O10 0.500000 0.140075 0.500000
O O11 0.992269 0.105997 0.752300
O O12 0.836650 0.000000 0.937293
O O13 0.500000 0.149925 0.000000
#
# Coordination Sequence:
#
# PCOD8066804 Si02
#       6
#     4   2   4   4   4   2
#     4  10  23  38  63  90 125 160 204 260 306 364
#     4  11  23  42  59  89 125 169 209 250 314 366
#     4  12  22  39  59  91 125 163 209 254 312 371
#     4  10  21  40  62  91 121 165 204 254 310 366
#     4   9  20  41  67  92 122 164 207 254 314 365
#     4  11  24  36  60  86 121 171 213 251 304 370
#
# _framework density 20.497657
#
# number of rings (size 3 to 8) (size 9 to 14) (size 15 to 20)
#    1.200    0.400    4.000    0.900    5.600    2.000 
#    0.000    3.000    0.000    4.800    0.000    0.000 
#    0.000    0.000    0.000    0.000    0.000    0.000 
#
# Total GULP energy -247871.560374 kJ/mol
# GULP energy per Si atom -12393.578019 kJ/mol
# Density = 2.045100 g / cm^3
# Si number density = 20.497657 Si / 1000 Ang^3
#
#
#
# Elastic Constant Matrix: (Units=GPa)
#
#
# Indices 1 2 3 4 5 6 
#
# 1 107.5578 32.3380 28.3728 0.0000 -28.0634 0.0000
# 2 32.3380 95.6410 21.7366 0.0000 -19.3410 0.0000
# 3 28.3728 21.7366 106.7036 0.0000 -26.9154 0.0000
# 4 0.0000 0.0000 0.0000 -33.4393 0.0000 24.9124
# 5 -28.0634 -19.3410 -26.9154 0.0000 44.5935 0.0000
# 6 0.0000 0.0000 0.0000 24.9124 0.0000 -14.5938
#
#
#
# Elastic Compliance Matrix: (Units=1/GPa)
#
#
# Indices 1 2 3 4 5 6 
#
# 1 0.011861 -0.002602 -0.001210 0.000000 0.005606 0.000000
# 2 -0.002602 0.012181 -0.001026 0.000000 0.003026 0.000000
# 3 -0.001210 -0.001026 0.011322 0.000000 0.005627 0.000000
# 4 0.000000 0.000000 0.000000 0.110042 0.000000 0.187848
# 5 0.005606 0.003026 0.005627 0.000000 0.030662 0.000000
# 6 0.000000 0.000000 0.000000 0.187848 0.000000 0.252145
#
#
# Mechanical properties :
#
#
# Convention : Reuss Voigt Hill
#
# Bulk Modulus (GPa) = 38.92852 52.75523 45.84188
# Shear Modulus (GPa) = 11.19942 14.47576 12.83759
#
# Velocity S-wave (km/s) = 2.34000 2.66035 2.50530
# Velocity P-wave (km/s) = 5.13164 5.93546 5.54813
#
# Compressibility (1/GPa) = 0.02568811
#
# Stress axis : x y z
#
# Youngs Moduli (GPa) = 84.30698 82.09700 88.32424
#
# Poissons Ratio (x) = 0.21361 0.10686
# Poissons Ratio (y) = 0.21936 0.09063
# Poissons Ratio (z) = 0.10200 0.08424
#
# Static dielectric constant tensor:
#      x y z
#    x 3.597250 0.000000 -0.111400 
#    y 0.000000 3.299640 0.000000 
#    z -0.111400 0.000000 3.814070 
# 
# 
# High freq. dielectric constant tensor:
#      x y z
#    x 1.800840 0.000000 -0.013310 
#    y 0.000000 1.772730 0.000000 
#    z -0.013310 0.000000 1.811080 
# 
# From -- ./inp_files/42550.got.cif
#   From: 2010.06.25/outbox.cif.g09.slc.cpg/sg10_22_cif.got.tgz:42550.got - 2010.06.27 22:07:45.
