data_PCOD8066792
_publ_section_title
;
Structure prediction by ZEFSAII (Michael W. Deem and Ramdas Pophale) SiO2 
 PCOD8066792
Probable space group: P 2/M
;
_chemical_formula_sum "Si O2"
_cell_formula_units_Z 32
_cell_length_a 26.232895
_cell_length_b 9.050909
_cell_length_c 15.536269
_cell_angle_alpha 90.000000
_cell_angle_beta 153.127491
_cell_angle_gamma 90.000000
_cell_volume 1667.362718
_symmetry_space_group_name_H-M "P 2/M"
_symmetry_group_IT_number 10
_symmetry_cell_setting 'monoclinic'
loop_
_space_group_symop_operation_xyz
x,y,z
-x,y,-z
-x,-y,-z
x,-y,z
loop_
_atom_site_type_symbol
_atom_site_label
_atom_site_fract_x
_atom_site_fract_y
_atom_site_fract_z
Si Si1 0.721327 0.326918 0.918375
Si Si2 0.034794 0.672469 0.647370
Si Si3 0.085990 0.825474 0.379687
Si Si4 0.683945 0.331565 0.285903
Si Si5 0.510749 0.668258 0.875693
Si Si6 0.518790 0.826505 0.711010
Si Si7 0.713616 0.171733 0.726788
Si Si8 0.950070 0.172565 0.012162
O O1 0.698617 0.500000 0.880709
O O2 0.617201 0.251437 0.807661
O O3 0.733935 0.267545 0.841499
O O4 0.834284 0.288612 0.141119
O O5 0.011516 0.500000 0.625258
O O6 0.000000 0.724984 0.500000
O O7 0.955879 0.757598 0.594572
O O8 0.214503 0.782415 0.556088
O O9 0.011378 0.760737 0.188656
O O10 0.074891 0.000000 0.370045
O O11 0.728268 0.500000 0.354249
O O12 0.605006 0.300779 0.248761
O O13 0.615996 0.302517 0.096182
O O14 0.513647 0.500000 0.845907
O O15 0.520622 0.780741 0.812614
O O16 0.400393 0.777844 0.491268
O O17 0.537003 0.000000 0.731505
O O18 0.709891 0.000000 0.748002
O O19 0.816402 0.203180 0.815977
O O20 0.977369 0.000000 0.051394
O O21 0.000000 0.245954 0.000000
#
# Coordination Sequence:
#
# PCOD8066792 Si02
#       8
#     4   4   4   4   4   4   4   4
#     4  11  23  40  62  85 114 152 197 245 291 347
#     4  10  23  42  62  84 115 159 201 239 292 357
#     4  11  22  36  62  94 120 152 194 246 296 346
#     4   9  20  39  61  82 116 159 195 234 286 349
#     4   9  20  40  61  83 114 158 199 235 285 342
#     4  11  24  37  59  89 118 150 191 244 297 349
#     4  10  21  40  61  83 116 156 193 236 295 350
#     4   9  19  36  59  85 118 158 194 231 286 354
#
# _framework density 19.191987000000001
#
# number of rings (size 3 to 8) (size 9 to 14) (size 15 to 20)
#    0.000    2.000    1.250    2.250    3.500    4.250 
#    0.000    1.250    0.000    1.875    0.000    0.000 
#    0.000    0.000    0.000    0.000    0.000    0.000 
#
# Total GULP energy -396905.234959 kJ/mol
# GULP energy per Si atom -12403.288592 kJ/mol
# Density = 1.914830 g / cm^3
# Si number density = 19.191987 Si / 1000 Ang^3
#
#
#
# Elastic Constant Matrix: (Units=GPa)
#
#
# Indices 1 2 3 4 5 6 
#
# 1 117.7655 27.1311 36.1989 0.0000 1.2381 0.0000
# 2 27.1311 37.7860 15.4561 0.0000 6.4036 0.0000
# 3 36.1989 15.4561 74.3868 0.0000 18.1459 0.0000
# 4 0.0000 0.0000 0.0000 26.2902 0.0000 3.0690
# 5 1.2381 6.4036 18.1459 0.0000 31.2257 0.0000
# 6 0.0000 0.0000 0.0000 3.0690 0.0000 36.2258
#
#
#
# Elastic Compliance Matrix: (Units=1/GPa)
#
#
# Indices 1 2 3 4 5 6 
#
# 1 0.011638 -0.006904 -0.005199 0.000000 0.003975 0.000000
# 2 -0.006904 0.033236 -0.002273 0.000000 -0.005221 0.000000
# 3 -0.005199 -0.002273 0.018971 0.000000 -0.010352 0.000000
# 4 0.000000 0.000000 0.000000 0.038417 0.000000 -0.003255
# 5 0.003975 -0.005221 -0.010352 0.000000 0.038954 0.000000
# 6 0.000000 0.000000 0.000000 -0.003255 0.000000 0.027880
#
#
# Mechanical properties :
#
#
# Convention : Reuss Voigt Hill
#
# Bulk Modulus (GPa) = 28.49413 43.05674 35.77544
# Shear Modulus (GPa) = 23.86130 28.82516 26.34323
#
# Velocity S-wave (km/s) = 3.52986 3.87969 3.70890
# Velocity P-wave (km/s) = 5.61181 6.52325 6.08462
#
# Compressibility (1/GPa) = 0.03509494
#
# Stress axis : x y z
#
# Youngs Moduli (GPa) = 85.92432 30.08769 52.71310
#
# Poissons Ratio (x) = 0.20771 0.27405
# Poissons Ratio (y) = 0.59319 0.11979
# Poissons Ratio (z) = 0.44671 0.06838
#
# Static dielectric constant tensor:
#      x y z
#    x 3.623120 0.000000 -0.031840 
#    y 0.000000 3.368700 0.000000 
#    z -0.031840 0.000000 3.667420 
# 
# 
# High freq. dielectric constant tensor:
#      x y z
#    x 1.758100 0.000000 0.003550 
#    y 0.000000 1.733120 0.000000 
#    z 0.003550 0.000000 1.758430 
# 
# From -- ./inp_files/71650.got.cif
#   From: 2010.06.25/outbox.cif.g09.slc.cpg/sg10_36_cif.got.tgz:71650.got - 2010.06.27 22:07:45.
