data_PCOD8066360
_publ_section_title
;
Structure prediction by ZEFSAII (Michael W. Deem and Ramdas Pophale) SiO2 
 PCOD8066360
Probable space group: P 2/M
;
_chemical_formula_sum "Si O2"
_cell_formula_units_Z 32
_cell_length_a 11.786453
_cell_length_b 8.542645
_cell_length_c 15.067063
_cell_angle_alpha 90.000000
_cell_angle_beta 88.707957
_cell_angle_gamma 90.000000
_cell_volume 1516.678948
_symmetry_space_group_name_H-M "P 2/M"
_symmetry_group_IT_number 10
_symmetry_cell_setting 'monoclinic'
loop_
_space_group_symop_operation_xyz
x,y,z
-x,y,-z
-x,-y,-z
x,-y,z
loop_
_atom_site_type_symbol
_atom_site_label
_atom_site_fract_x
_atom_site_fract_y
_atom_site_fract_z
Si Si1 0.123632 0.822693 0.191552
Si Si2 0.583860 0.816052 0.419888
Si Si3 0.923846 0.179010 0.077116
Si Si4 0.330225 0.680550 0.101712
Si Si5 0.062551 0.816121 0.384568
Si Si6 0.326712 0.184210 0.916771
Si Si7 0.834259 0.683327 0.444181
Si Si8 0.482831 0.317558 0.765336
O O1 0.199494 0.713967 0.127370
O O2 0.128354 0.773387 0.293563
O O3 0.991298 0.807197 0.167976
O O4 0.166381 0.000000 0.176532
O O5 0.500000 0.755360 0.500000
O O6 0.707783 0.739392 0.424146
O O7 0.528139 0.777060 0.325922
O O8 0.600611 0.000000 0.428361
O O9 0.800509 0.254812 0.087115
O O10 0.902140 0.000000 0.048273
O O11 0.000000 0.261881 0.000000
O O12 0.348917 0.500000 0.078828
O O13 0.400174 0.730660 0.188089
O O14 0.373331 0.776329 0.014643
O O15 0.133798 0.720963 0.455294
O O16 0.930176 0.765938 0.381645
O O17 0.067544 0.000000 0.405620
O O18 0.386206 0.276993 0.837331
O O19 0.337478 0.000000 0.898202
O O20 0.840185 0.500000 0.426759
O O21 0.478063 0.500000 0.741794
#
# Coordination Sequence:
#
# PCOD8066360 Si02
#       8
#     4   4   4   4   4   4   4   4
#     4  10  21  37  61  90 122 162 209 259 310 367
#     4  11  26  47  70  95 123 161 213 268 317 379
#     4   9  17  34  58  87 121 156 197 249 304 355
#     4  11  24  41  61  89 130 170 209 262 320 376
#     4  10  21  38  64  95 127 165 212 263 310 370
#     4  11  22  39  67  94 123 167 216 262 310 373
#     4  11  23  41  65  92 128 166 204 255 322 386
#     4  11  26  45  64  92 127 166 208 260 325 381
#
# _framework density 21.098728999999999
#
# number of rings (size 3 to 8) (size 9 to 14) (size 15 to 20)
#    0.000    1.500    1.250    4.125    3.500    5.500 
#    0.000    1.875    0.000    0.000    0.000    0.000 
#    0.000    0.000    0.000    0.000    0.000    0.000 
#
# Total GULP energy -396761.785189 kJ/mol
# GULP energy per Si atom -12398.805787 kJ/mol
# Density = 2.105071 g / cm^3
# Si number density = 21.098729 Si / 1000 Ang^3
#
#
#
# Elastic Constant Matrix: (Units=GPa)
#
#
# Indices 1 2 3 4 5 6 
#
# 1 86.1707 17.7318 28.6653 0.0000 5.0577 0.0000
# 2 17.7318 46.6782 11.7028 0.0000 2.3264 0.0000
# 3 28.6653 11.7028 116.0089 0.0000 -6.1898 0.0000
# 4 0.0000 0.0000 0.0000 20.3028 0.0000 9.5937
# 5 5.0577 2.3264 -6.1898 0.0000 29.9839 0.0000
# 6 0.0000 0.0000 0.0000 9.5937 0.0000 14.6325
#
#
#
# Elastic Compliance Matrix: (Units=1/GPa)
#
#
# Indices 1 2 3 4 5 6 
#
# 1 0.013666 -0.004288 -0.003083 0.000000 -0.002609 0.000000
# 2 -0.004288 0.023468 -0.001382 0.000000 -0.001383 0.000000
# 3 -0.003083 -0.001382 0.009661 0.000000 0.002622 0.000000
# 4 0.000000 0.000000 0.000000 0.071364 0.000000 -0.046789
# 5 -0.002609 -0.001383 0.002622 0.000000 0.034440 0.000000
# 6 0.000000 0.000000 0.000000 -0.046789 0.000000 0.099018
#
#
# Mechanical properties :
#
#
# Convention : Reuss Voigt Hill
#
# Bulk Modulus (GPa) = 34.14329 40.56195 37.35262
# Shear Modulus (GPa) = 17.92849 25.70104 21.81477
#
# Velocity S-wave (km/s) = 2.91820 3.49396 3.21898
# Velocity P-wave (km/s) = 5.25093 5.96184 5.61764
#
# Compressibility (1/GPa) = 0.02928833
#
# Stress axis : x y z
#
# Youngs Moduli (GPa) = 73.17339 42.61200 103.50695
#
# Poissons Ratio (x) = 0.18273 0.31916
# Poissons Ratio (y) = 0.31379 0.14300
# Poissons Ratio (z) = 0.22563 0.05887
#
# Static dielectric constant tensor:
#      x y z
#    x 4.003140 0.000000 0.037390 
#    y 0.000000 3.632220 0.000000 
#    z 0.037390 0.000000 3.877480 
# 
# 
# High freq. dielectric constant tensor:
#      x y z
#    x 1.835650 0.000000 0.001380 
#    y 0.000000 1.813870 0.000000 
#    z 0.001380 0.000000 1.834490 
# 
# From -- ./inp_files/63760.got.cif
#   From: 2010.06.25/outbox.cif.g09.slc.cpg/sg10_32_cif.got.tgz:63760.got - 2010.06.27 22:07:45.
