data_PCOD8066802
_publ_section_title
;
Structure prediction by ZEFSAII (Michael W. Deem and Ramdas Pophale) SiO2 
 PCOD8066802
Probable space group: P 2/M
;
_chemical_formula_sum "Si O2"
_cell_formula_units_Z 32
_cell_length_a 12.437572
_cell_length_b 8.720953
_cell_length_c 14.521972
_cell_angle_alpha 90.000000
_cell_angle_beta 89.199218
_cell_angle_gamma 90.000000
_cell_volume 1575.007879
_symmetry_space_group_name_H-M "P 2/M"
_symmetry_group_IT_number 10
_symmetry_cell_setting 'monoclinic'
loop_
_space_group_symop_operation_xyz
x,y,z
-x,y,-z
-x,-y,-z
x,-y,z
loop_
_atom_site_type_symbol
_atom_site_label
_atom_site_fract_x
_atom_site_fract_y
_atom_site_fract_z
Si Si1 0.104333 0.180571 0.176352
Si Si2 0.320080 0.818252 0.275306
Si Si3 0.389807 0.172143 0.948513
Si Si4 0.816166 0.319471 0.003272
Si Si5 0.616207 0.179358 0.525336
Si Si6 0.290910 0.177417 0.663537
Si Si7 0.533450 0.678517 0.226970
Si Si8 0.886985 0.679902 0.206915
O O1 0.205189 0.234914 0.237129
O O2 0.996980 0.232337 0.231019
O O3 0.105424 0.000000 0.161150
O O4 0.102305 0.263069 0.076493
O O5 0.335790 0.755430 0.379485
O O6 0.412931 0.740049 0.212715
O O7 0.332125 0.000000 0.267634
O O8 0.296355 0.233730 0.016528
O O9 0.395171 0.290186 0.864058
O O10 0.363370 0.000000 0.914140
O O11 0.500000 0.173301 0.000000
O O12 0.802245 0.500000 0.995851
O O13 0.853101 0.268637 0.104637
O O14 0.500000 0.254120 0.500000
O O15 0.707178 0.210021 0.446134
O O16 0.597348 0.000000 0.538336
O O17 0.411154 0.225472 0.692283
O O18 0.201608 0.277452 0.716029
O O19 0.269808 0.000000 0.686133
O O20 0.535112 0.500000 0.250081
O O21 0.907303 0.500000 0.211111
#
# Coordination Sequence:
#
# PCOD8066802 Si02
#       8
#     4   4   4   4   4   4   4   4
#     4  11  24  40  62  89 118 157 204 251 297 350
#     4  10  21  40  62  88 121 156 200 249 296 356
#     4  11  23  37  55  82 117 158 202 246 291 348
#     4  11  23  39  60  86 118 157 200 248 299 352
#     4   9  17  34  63  93 118 152 196 244 299 351
#     4  11  21  37  64  91 117 152 198 248 295 348
#     4  12  23  35  55  86 123 159 193 237 300 360
#     4  11  24  42  62  86 120 159 202 250 299 354
#
# _framework density 20.317360000000001
#
# number of rings (size 3 to 8) (size 9 to 14) (size 15 to 20)
#    0.000    1.250    2.500    4.125    0.000    8.000 
#    0.000    2.500    0.000    3.750    0.000    0.000 
#    0.000    0.000    0.000    0.000    0.000    0.000 
#
# Total GULP energy -396860.545582 kJ/mol
# GULP energy per Si atom -12401.892049 kJ/mol
# Density = 2.027112 g / cm^3
# Si number density = 20.317360 Si / 1000 Ang^3
#
#
#
# Elastic Constant Matrix: (Units=GPa)
#
#
# Indices 1 2 3 4 5 6 
#
# 1 115.7796 28.9012 27.0070 0.0000 -5.7401 0.0000
# 2 28.9012 62.2745 23.2980 0.0000 0.7193 0.0000
# 3 27.0070 23.2980 78.7133 0.0000 -4.9283 0.0000
# 4 0.0000 0.0000 0.0000 10.5183 0.0000 -2.2967
# 5 -5.7401 0.7193 -4.9283 0.0000 21.4832 0.0000
# 6 0.0000 0.0000 0.0000 -2.2967 0.0000 25.9692
#
#
#
# Elastic Compliance Matrix: (Units=1/GPa)
#
#
# Indices 1 2 3 4 5 6 
#
# 1 0.010257 -0.003966 -0.002197 0.000000 0.002369 0.000000
# 2 -0.003966 0.019664 -0.004634 0.000000 -0.002781 0.000000
# 3 -0.002197 -0.004634 0.015018 0.000000 0.003013 0.000000
# 4 0.000000 0.000000 0.000000 0.096944 0.000000 0.008574
# 5 0.002369 -0.002781 0.003013 0.000000 0.047966 0.000000
# 6 0.000000 0.000000 0.000000 0.008574 0.000000 0.039265
#
#
# Mechanical properties :
#
#
# Convention : Reuss Voigt Hill
#
# Bulk Modulus (GPa) = 42.83310 46.13109 44.48209
# Shear Modulus (GPa) = 19.34313 23.43154 21.38733
#
# Velocity S-wave (km/s) = 3.08888 3.39968 3.24800
# Velocity P-wave (km/s) = 5.81802 6.17778 6.00060
#
# Compressibility (1/GPa) = 0.02334643
#
# Stress axis : x y z
#
# Youngs Moduli (GPa) = 97.49467 50.85423 66.58506
#
# Poissons Ratio (x) = 0.20167 0.14630
# Poissons Ratio (y) = 0.38662 0.30854
# Poissons Ratio (z) = 0.21421 0.23565
#
# Static dielectric constant tensor:
#      x y z
#    x 3.702460 0.000000 0.016740 
#    y 0.000000 3.494320 0.000000 
#    z 0.016740 0.000000 3.868350 
# 
# 
# High freq. dielectric constant tensor:
#      x y z
#    x 1.794490 0.000000 -0.008900 
#    y 0.000000 1.784220 0.000000 
#    z -0.008900 0.000000 1.789120 
# 
# From -- ./inp_files/63845.got.cif
#   From: 2010.06.25/outbox.cif.g09.slc.cpg/sg10_32_cif.got.tgz:63845.got - 2010.06.27 22:07:45.
