data_PCOD8066173
_publ_section_title
;
Structure prediction by ZEFSAII (Michael W. Deem and Ramdas Pophale) SiO2 
 PCOD8066173
Probable space group: P 2/M
;
_chemical_formula_sum "Si O2"
_cell_formula_units_Z 32
_cell_length_a 26.592037
_cell_length_b 9.338503
_cell_length_c 21.377640
_cell_angle_alpha 90.000000
_cell_angle_beta 20.694677
_cell_angle_gamma 90.000000
_cell_volume 1876.032456
_symmetry_space_group_name_H-M "P 2/M"
_symmetry_group_IT_number 10
_symmetry_cell_setting 'monoclinic'
loop_
_space_group_symop_operation_xyz
x,y,z
-x,y,-z
-x,-y,-z
x,-y,z
loop_
_atom_site_type_symbol
_atom_site_label
_atom_site_fract_x
_atom_site_fract_y
_atom_site_fract_z
Si Si1 0.849019 0.335939 0.476006
Si Si2 0.222521 0.339311 0.971396
Si Si3 0.928167 0.167222 0.019527
Si Si4 0.349902 0.335307 0.697517
Si Si5 0.154516 0.660761 0.181745
Si Si6 0.042718 0.834493 0.756504
Si Si7 0.666657 0.665020 0.803151
Si Si8 0.160047 0.168479 0.296666
O O1 0.832486 0.500000 0.476440
O O2 0.838472 0.248814 0.422724
O O3 0.722661 0.287764 0.669508
O O4 0.997273 0.305205 0.338747
O O5 0.154119 0.500000 0.043032
O O6 0.350646 0.322186 0.772753
O O7 0.266731 0.322909 0.993058
O O8 0.111311 0.215531 0.086599
O O9 0.781774 0.251963 0.179636
O O10 0.888556 0.000000 0.067927
O O11 0.000000 0.219902 0.000000
O O12 0.044836 0.196483 0.828719
O O13 0.500000 0.269834 0.500000
O O14 0.336371 0.500000 0.691877
O O15 0.160068 0.500000 0.203169
O O16 0.198594 0.771738 0.183534
O O17 0.062835 0.000000 0.717975
O O18 0.708989 0.500000 0.766713
O O19 0.734930 0.764078 0.775758
O O20 0.500000 0.689450 0.000000
O O21 0.000000 0.212755 0.500000
O O22 0.182505 0.000000 0.270129
#
# Coordination Sequence:
#
# PCOD8066173 Si02
#       8
#     4   4   4   4   4   4   4   4
#     4   9  17  30  49  73  98 123 156 201 246 287
#     4   8  15  28  45  69  98 128 159 198 244 285
#     4   9  18  32  49  71  99 131 167 203 238 284
#     4   9  17  30  50  75 102 129 161 202 246 291
#     4   9  16  28  49  72  95 127 162 202 243 283
#     4   9  16  26  45  71  95 124 161 201 241 284
#     4  10  21  37  56  74  95 129 169 201 238 293
#     4  11  22  33  49  76 104 128 158 201 248 288
#
# _framework density 17.057274
#
# number of rings (size 3 to 8) (size 9 to 14) (size 15 to 20)
#    0.000    2.750    1.250    1.500    0.000    4.250 
#    0.000    0.000    2.750    0.000    0.000    0.000 
#    0.000    0.000    0.000    0.000    0.000    0.000 
#
# Total GULP energy -396558.700606 kJ/mol
# GULP energy per Si atom -12392.459394 kJ/mol
# Density = 1.701845 g / cm^3
# Si number density = 17.057274 Si / 1000 Ang^3
#
#
#
# Elastic Constant Matrix: (Units=GPa)
#
#
# Indices 1 2 3 4 5 6 
#
# 1 129.9276 62.7487 62.3717 0.0000 27.8308 0.0000
# 2 62.7487 70.7281 37.7466 0.0000 8.0973 0.0000
# 3 62.3717 37.7466 93.3472 0.0000 25.0770 0.0000
# 4 0.0000 0.0000 0.0000 12.1505 0.0000 1.4798
# 5 27.8308 8.0973 25.0770 0.0000 27.5341 0.0000
# 6 0.0000 0.0000 0.0000 1.4798 0.0000 26.1877
#
#
#
# Elastic Compliance Matrix: (Units=1/GPa)
#
#
# Indices 1 2 3 4 5 6 
#
# 1 0.018060 -0.012619 -0.004047 0.000000 -0.010857 0.000000
# 2 -0.012619 0.026913 -0.004966 0.000000 0.009364 0.000000
# 3 -0.004047 -0.004966 0.018447 0.000000 -0.011250 0.000000
# 4 0.000000 0.000000 0.000000 0.082872 0.000000 -0.004683
# 5 -0.010857 0.009364 -0.011250 0.000000 0.054784 0.000000
# 6 0.000000 0.000000 0.000000 -0.004683 0.000000 0.038450
#
#
# Mechanical properties :
#
#
# Convention : Reuss Voigt Hill
#
# Bulk Modulus (GPa) = 49.61875 68.85968 59.23922
# Shear Modulus (GPa) = 17.27058 21.91684 19.59371
#
# Velocity S-wave (km/s) = 3.18544 3.58844 3.39293
# Velocity P-wave (km/s) = 6.53315 7.59121 7.08197
#
# Compressibility (1/GPa) = 0.02015367
#
# Stress axis : x y z
#
# Youngs Moduli (GPa) = 55.37251 37.15740 54.20797
#
# Poissons Ratio (x) = 0.46889 0.21941
# Poissons Ratio (y) = 0.69875 0.26922
# Poissons Ratio (z) = 0.22412 0.18454
#
# Static dielectric constant tensor:
#      x y z
#    x 3.372660 0.000000 0.482590 
#    y 0.000000 3.188770 0.000000 
#    z 0.482590 0.000000 3.031390 
# 
# 
# High freq. dielectric constant tensor:
#      x y z
#    x 1.655950 0.000000 0.038800 
#    y 0.000000 1.659580 0.000000 
#    z 0.038800 0.000000 1.626660 
# 
# From -- ./inp_files/91217.got.cif
#   From: 2010.06.25/outbox.cif.g09.slc.cpg/sg10_46_cif.got.tgz:91217.got - 2010.06.27 22:07:45.
