data_PCOD8066627
_publ_section_title
;
Structure prediction by ZEFSAII (Michael W. Deem and Ramdas Pophale) SiO2 
 PCOD8066627
Probable space group: P 2/M
;
_chemical_formula_sum "Si O2"
_cell_formula_units_Z 32
_cell_length_a 22.484423
_cell_length_b 9.052709
_cell_length_c 15.093563
_cell_angle_alpha 90.000000
_cell_angle_beta 148.529119
_cell_angle_gamma 90.000000
_cell_volume 1603.898185
_symmetry_space_group_name_H-M "P 2/M"
_symmetry_group_IT_number 10
_symmetry_cell_setting 'monoclinic'
loop_
_space_group_symop_operation_xyz
x,y,z
-x,y,-z
-x,-y,-z
x,-y,z
loop_
_atom_site_type_symbol
_atom_site_label
_atom_site_fract_x
_atom_site_fract_y
_atom_site_fract_z
Si Si1 0.840971 0.831188 0.436765
Si Si2 0.554894 0.670796 0.656325
Si Si3 0.099923 0.171217 0.786468
Si Si4 0.264552 0.673292 0.857465
Si Si5 0.868236 0.173878 0.834748
Si Si6 0.812041 0.670397 0.940112
Si Si7 0.261006 0.171973 0.505733
Si Si8 0.509971 0.674083 0.236732
O O1 0.769406 0.722756 0.283847
O O2 0.814978 0.791482 0.505386
O O3 0.974270 0.807532 0.587053
O O4 0.806327 0.000000 0.371560
O O5 0.500000 0.749369 0.500000
O O6 0.520254 0.500000 0.610745
O O7 0.689602 0.690410 0.829403
O O8 0.503887 0.740055 0.681350
O O9 0.189227 0.243936 0.834054
O O10 0.130451 0.000000 0.836852
O O11 0.100640 0.245986 0.884399
O O12 0.243207 0.500000 0.843019
O O13 0.397089 0.713758 0.037820
O O14 0.808057 0.258700 0.838236
O O15 0.808339 0.227930 0.668257
O O16 0.854154 0.000000 0.831727
O O17 0.000000 0.219654 0.000000
O O18 0.847418 0.500000 0.977001
O O19 0.381335 0.252612 0.670440
O O20 0.286253 0.000000 0.529115
O O21 0.528788 0.500000 0.262921
#
# Coordination Sequence:
#
# PCOD8066627 Si02
#       8
#     4   4   4   4   4   4   4   4
#     4  10  23  42  62  86 117 158 202 247 303 360
#     4   9  17  32  54  79 111 151 188 229 286 347
#     4  11  22  39  63  89 122 160 197 243 303 364
#     4  11  23  40  62  90 122 155 195 250 306 356
#     4  10  21  39  60  84 120 163 202 245 300 355
#     4  11  21  35  58  88 120 154 196 243 294 351
#     4  10  22  40  61  86 118 157 205 252 293 349
#     4  10  21  39  59  83 121 159 194 241 303 360
#
# _framework density 19.951391000000001
#
# number of rings (size 3 to 8) (size 9 to 14) (size 15 to 20)
#    0.000    1.750    1.250    3.000    0.000    8.250 
#    0.000    3.750    0.000    2.625    0.000    0.000 
#    0.000    0.000    0.000    0.000    0.000    0.000 
#
# Total GULP energy -396908.934635 kJ/mol
# GULP energy per Si atom -12403.404207 kJ/mol
# Density = 1.990598 g / cm^3
# Si number density = 19.951391 Si / 1000 Ang^3
#
#
#
# Elastic Constant Matrix: (Units=GPa)
#
#
# Indices 1 2 3 4 5 6 
#
# 1 82.8588 36.7652 37.3009 0.0000 -1.4396 0.0000
# 2 36.7652 68.0739 47.4891 0.0000 -0.1000 0.0000
# 3 37.3009 47.4891 123.3881 0.0000 -6.8234 0.0000
# 4 0.0000 0.0000 0.0000 31.5195 0.0000 0.1531
# 5 -1.4396 -0.1000 -6.8234 0.0000 37.4486 0.0000
# 6 0.0000 0.0000 0.0000 0.1531 0.0000 19.6182
#
#
#
# Elastic Compliance Matrix: (Units=1/GPa)
#
#
# Indices 1 2 3 4 5 6 
#
# 1 0.016263 -0.007330 -0.002083 0.000000 0.000226 0.000000
# 2 -0.007330 0.023455 -0.006893 0.000000 -0.001475 0.000000
# 3 -0.002083 -0.006893 0.011497 0.000000 0.001996 0.000000
# 4 0.000000 0.000000 0.000000 0.031728 0.000000 -0.000248
# 5 0.000226 -0.001475 0.001996 0.000000 0.027072 0.000000
# 6 0.000000 0.000000 0.000000 -0.000248 0.000000 0.050975
#
#
# Mechanical properties :
#
#
# Convention : Reuss Voigt Hill
#
# Bulk Modulus (GPa) = 53.75170 57.49235 55.62202
# Shear Modulus (GPa) = 25.02482 27.90164 26.46323
#
# Velocity S-wave (km/s) = 3.54544 3.74368 3.64591
# Velocity P-wave (km/s) = 6.61513 6.89679 6.75743
#
# Compressibility (1/GPa) = 0.01860406
#
# Stress axis : x y z
#
# Youngs Moduli (GPa) = 61.49110 42.63475 86.97555
#
# Poissons Ratio (x) = 0.31250 0.18114
# Poissons Ratio (y) = 0.45072 0.59952
# Poissons Ratio (z) = 0.12807 0.29388
#
# Static dielectric constant tensor:
#      x y z
#    x 3.619180 0.000000 -0.123930 
#    y 0.000000 3.502370 0.000000 
#    z -0.123930 0.000000 3.775670 
# 
# 
# High freq. dielectric constant tensor:
#      x y z
#    x 1.783980 0.000000 -0.005060 
#    y 0.000000 1.762460 0.000000 
#    z -0.005060 0.000000 1.790060 
# 
# From -- ./inp_files/71711.got.cif
#   From: 2010.06.25/outbox.cif.g09.slc.cpg/sg10_36_cif.got.tgz:71711.got - 2010.06.27 22:07:45.
