data_PCOD8066647
_publ_section_title
;
Structure prediction by ZEFSAII (Michael W. Deem and Ramdas Pophale) SiO2 
 PCOD8066647
Probable space group: P 2/M
;
_chemical_formula_sum "Si O2"
_cell_formula_units_Z 28
_cell_length_a 10.928327
_cell_length_b 8.773314
_cell_length_c 14.642452
_cell_angle_alpha 90.000000
_cell_angle_beta 113.515690
_cell_angle_gamma 90.000000
_cell_volume 1287.292441
_symmetry_space_group_name_H-M "P 2/M"
_symmetry_group_IT_number 10
_symmetry_cell_setting 'monoclinic'
loop_
_space_group_symop_operation_xyz
x,y,z
-x,y,-z
-x,-y,-z
x,-y,z
loop_
_atom_site_type_symbol
_atom_site_label
_atom_site_fract_x
_atom_site_fract_y
_atom_site_fract_z
Si Si1 0.400542 0.824654 0.157578
Si Si2 0.307266 0.172514 0.934046
Si Si3 0.666913 0.677497 0.245408
Si Si4 0.053569 0.329135 0.915997
Si Si5 0.224246 0.326937 0.244279
Si Si6 0.348466 0.820539 0.454702
Si Si7 0.846615 0.819033 0.442133
O O1 0.536279 0.764098 0.244469
O O2 0.279872 0.726872 0.162576
O O3 0.380280 0.000000 0.178096
O O4 0.408786 0.803465 0.049614
O O5 0.328161 0.295104 0.861323
O O6 0.159207 0.197416 0.928149
O O7 0.320980 0.000000 0.899861
O O8 0.655151 0.500000 0.262572
O O9 0.797279 0.745906 0.332686
O O10 0.115562 0.500000 0.927308
O O11 0.935150 0.313234 0.806856
O O12 0.000000 0.299509 0.000000
O O13 0.269032 0.500000 0.276159
O O14 0.280341 0.219372 0.339263
O O15 0.500000 0.752461 0.500000
O O16 0.252416 0.757208 0.507219
O O17 0.356637 0.000000 0.467373
O O18 0.000000 0.764794 0.500000
O O19 0.840455 0.000000 0.433061
#
# Coordination Sequence:
#
# PCOD8066647 Si02
#       7
#     4   4   4   4   4   4   4
#     4  11  23  41  64  93 128 166 211 259 308 372
#     4  11  24  40  63  92 125 167 215 260 307 372
#     4  12  26  42  65  93 126 166 207 258 321 380
#     4  10  21  39  60  88 129 168 204 253 314 377
#     4  11  23  38  63  95 128 165 205 255 317 376
#     4  10  22  41  65  92 124 165 212 265 321 379
#     4  10  23  44  67  93 126 167 215 268 322 380
#
# _framework density 21.751080000000002
#
# number of rings (size 3 to 8) (size 9 to 14) (size 15 to 20)
#    0.000    1.286    1.429    3.857    2.000    7.143 
#    0.000    0.000    0.000    0.000    0.000    0.000 
#    0.000    0.000    0.000    0.000    0.000    0.000 
#
# Total GULP energy -347262.959020 kJ/mol
# GULP energy per Si atom -12402.248536 kJ/mol
# Density = 2.170157 g / cm^3
# Si number density = 21.751080 Si / 1000 Ang^3
#
#
#
# Elastic Constant Matrix: (Units=GPa)
#
#
# Indices 1 2 3 4 5 6 
#
# 1 86.7326 27.2523 29.7688 0.0000 16.3216 0.0000
# 2 27.2523 37.8770 20.2248 0.0000 10.7469 0.0000
# 3 29.7688 20.2248 97.0560 0.0000 15.3114 0.0000
# 4 0.0000 0.0000 0.0000 25.5839 0.0000 -3.6572
# 5 16.3216 10.7469 15.3114 0.0000 36.5925 0.0000
# 6 0.0000 0.0000 0.0000 -3.6572 0.0000 28.0925
#
#
#
# Elastic Compliance Matrix: (Units=1/GPa)
#
#
# Indices 1 2 3 4 5 6 
#
# 1 0.015880 -0.009172 -0.002427 0.000000 -0.003374 0.000000
# 2 -0.009172 0.036556 -0.004021 0.000000 -0.004962 0.000000
# 3 -0.002427 -0.004021 0.012343 0.000000 -0.002901 0.000000
# 4 0.000000 0.000000 0.000000 0.039828 0.000000 0.005185
# 5 -0.003374 -0.004962 -0.002901 0.000000 0.031504 0.000000
# 6 0.000000 0.000000 0.000000 0.005185 0.000000 0.036272
#
#
# Mechanical properties :
#
#
# Convention : Reuss Voigt Hill
#
# Bulk Modulus (GPa) = 29.81733 41.79525 35.80629
# Shear Modulus (GPa) = 23.27711 27.68177 25.47944
#
# Velocity S-wave (km/s) = 3.27488 3.57131 3.42630
# Velocity P-wave (km/s) = 5.29509 6.02185 5.67012
#
# Compressibility (1/GPa) = 0.03353755
#
# Stress axis : x y z
#
# Youngs Moduli (GPa) = 62.97416 27.35540 81.01468
#
# Poissons Ratio (x) = 0.25091 0.19662
# Poissons Ratio (y) = 0.57761 0.32580
# Poissons Ratio (z) = 0.15284 0.11001
#
# Static dielectric constant tensor:
#      x y z
#    x 4.182860 0.000000 0.135890 
#    y 0.000000 3.695040 0.000000 
#    z 0.135890 0.000000 3.861120 
# 
# 
# High freq. dielectric constant tensor:
#      x y z
#    x 1.863340 0.000000 0.008420 
#    y 0.000000 1.843470 0.000000 
#    z 0.008420 0.000000 1.858870 
# 
# From -- ./inp_files/49181.got.cif
#   From: 2010.06.25/outbox.cif.g09.slc.cpg/sg10_25_cif.got.tgz:49181.got - 2010.06.27 22:07:45.
