data_PCOD8066770
_publ_section_title
;
Structure prediction by ZEFSAII (Michael W. Deem and Ramdas Pophale) SiO2 
 PCOD8066770
Probable space group: P 2/M
;
_chemical_formula_sum "Si O2"
_cell_formula_units_Z 20
_cell_length_a 11.946451
_cell_length_b 10.208140
_cell_length_c 10.907727
_cell_angle_alpha 90.000000
_cell_angle_beta 44.199955
_cell_angle_gamma 90.000000
_cell_volume 927.374335
_symmetry_space_group_name_H-M "P 2/M"
_symmetry_group_IT_number 10
_symmetry_cell_setting 'monoclinic'
loop_
_space_group_symop_operation_xyz
x,y,z
-x,y,-z
-x,-y,-z
x,-y,z
loop_
_atom_site_type_symbol
_atom_site_label
_atom_site_fract_x
_atom_site_fract_y
_atom_site_fract_z
Si Si1 0.860063 0.854790 0.942766
Si Si2 0.674349 0.647822 0.636001
Si Si3 0.603269 0.750055 0.308189
Si Si4 0.120364 0.355516 0.756255
Si Si5 0.176176 0.150509 0.310387
O O1 0.813419 0.817935 0.841260
O O2 0.988196 0.752171 0.895214
O O3 0.937454 0.000000 0.885942
O O4 0.701247 0.856592 0.152338
O O5 0.676136 0.500000 0.688187
O O6 0.507462 0.668687 0.697092
O O7 0.822571 0.668664 0.427200
O O8 0.694763 0.753595 0.727862
O O9 0.500000 0.817667 0.500000
O O10 0.728102 0.650168 0.272029
O O11 0.043108 0.500000 0.829739
O O12 0.000000 0.180681 0.500000
O O13 0.224450 0.000000 0.300538
#
# Coordination Sequence:
#
# PCOD8066770 Si02
#       5
#     4   4   4   4   4
#     4  11  24  41  63  92 123 161 209 253 299 361
#     4  10  21  39  65  94 124 160 203 251 302 363
#     4  10  23  41  60  89 128 163 199 250 308 360
#     4  10  21  39  65  93 124 162 202 249 306 364
#     4  10  21  40  64  89 123 162 200 251 309 360
#
# _framework density 21.566264
#
# number of rings (size 3 to 8) (size 9 to 14) (size 15 to 20)
#    0.000    1.800    2.000    1.200    0.000    9.600 
#    0.000    7.000    0.000    0.000    0.000    0.000 
#    0.000    0.000    0.000    0.000    0.000    0.000 
#
# Total GULP energy -247976.933936 kJ/mol
# GULP energy per Si atom -12398.846697 kJ/mol
# Density = 2.151718 g / cm^3
# Si number density = 21.566264 Si / 1000 Ang^3
#
#
#
# Elastic Constant Matrix: (Units=GPa)
#
#
# Indices 1 2 3 4 5 6 
#
# 1 130.5492 82.4732 49.6531 0.0000 3.3902 0.0000
# 2 82.4732 144.1882 46.9622 0.0000 -6.2301 0.0000
# 3 49.6531 46.9622 121.8477 0.0000 5.9401 0.0000
# 4 0.0000 0.0000 0.0000 23.0621 0.0000 -5.9089
# 5 3.3902 -6.2301 5.9401 0.0000 27.7897 0.0000
# 6 0.0000 0.0000 0.0000 -5.9089 0.0000 -82.7726
#
#
#
# Elastic Compliance Matrix: (Units=1/GPa)
#
#
# Indices 1 2 3 4 5 6 
#
# 1 0.012907 -0.006653 -0.002573 0.000000 -0.002516 0.000000
# 2 -0.006653 0.011530 -0.001918 0.000000 0.003807 0.000000
# 3 -0.002573 -0.001918 0.010106 0.000000 -0.002276 0.000000
# 4 0.000000 0.000000 0.000000 0.042582 0.000000 -0.003040
# 5 -0.002516 0.003807 -0.002276 0.000000 0.037632 0.000000
# 6 0.000000 0.000000 0.000000 -0.003040 0.000000 -0.011864
#
#
# Mechanical properties :
#
#
# Convention : Reuss Voigt Hill
#
# Bulk Modulus (GPa) = 81.60394 83.86244 82.73319
# Shear Modulus (GPa) = 38.67999 8.11560 23.39780
#
# Velocity S-wave (km/s) = 4.23962 1.94198 3.29739
# Velocity P-wave (km/s) = 7.86681 6.63315 7.27617
#
# Compressibility (1/GPa) = 0.01225431
#
# Stress axis : x y z
#
# Youngs Moduli (GPa) = 77.47747 86.72821 98.95492
#
# Poissons Ratio (x) = 0.57704 0.25457
# Poissons Ratio (y) = 0.51549 0.18982
# Poissons Ratio (z) = 0.19932 0.16637
#
# Static dielectric constant tensor:
#      x y z
#    x 3.755510 0.000000 0.171320 
#    y 0.000000 3.672540 0.000000 
#    z 0.171320 0.000000 4.067510 
# 
# 
# High freq. dielectric constant tensor:
#      x y z
#    x 1.846580 0.000000 0.012900 
#    y 0.000000 1.834970 0.000000 
#    z 0.012900 0.000000 1.848530 
# 
# From -- ./inp_files/46415.got.cif
#   From: 2010.06.25/outbox.cif.g09.slc.cpg/sg10_24_cif.got.tgz:46415.got - 2010.06.27 22:07:45.
