data_PCOD8066255
_publ_section_title
;
Structure prediction by ZEFSAII (Michael W. Deem and Ramdas Pophale) SiO2 
 PCOD8066255
Probable space group: P 2/M
;
_chemical_formula_sum "Si O2"
_cell_formula_units_Z 28
_cell_length_a 8.719164
_cell_length_b 12.500645
_cell_length_c 14.840586
_cell_angle_alpha 90.000000
_cell_angle_beta 68.045394
_cell_angle_gamma 90.000000
_cell_volume 1500.247936
_symmetry_space_group_name_H-M "P 2/M"
_symmetry_group_IT_number 10
_symmetry_cell_setting 'monoclinic'
loop_
_space_group_symop_operation_xyz
x,y,z
-x,y,-z
-x,-y,-z
x,-y,z
loop_
_atom_site_type_symbol
_atom_site_label
_atom_site_fract_x
_atom_site_fract_y
_atom_site_fract_z
Si Si1 0.825045 0.500000 0.586154
Si Si2 0.684916 0.500000 0.432580
Si Si3 0.269709 0.306640 0.698095
Si Si4 0.164553 0.877489 0.590226
Si Si5 0.618715 0.678610 0.715278
Si Si6 0.788551 0.121233 0.625492
Si Si7 0.002665 0.373423 0.105130
Si Si8 0.356712 0.623881 0.090885
O O1 0.708509 0.500000 0.530761
O O2 0.778463 0.607504 0.651622
O O3 0.000000 0.500000 0.500000
O O4 0.500000 0.500000 0.500000
O O5 0.767544 0.398614 0.365905
O O6 0.249060 0.194601 0.649305
O O7 0.455635 0.331849 0.690123
O O8 0.144506 0.312306 0.810010
O O9 0.226269 0.846407 0.476596
O O10 0.968116 0.863507 0.629595
O O11 0.211984 0.000000 0.602267
O O12 0.666762 0.802851 0.707129
O O13 0.576882 0.641056 0.823880
O O14 0.729087 0.000000 0.651271
O O15 0.978007 0.500000 0.124663
O O16 0.174562 0.329162 0.109786
O O17 0.000000 0.343657 0.000000
O O18 0.344644 0.500000 0.068229
O O19 0.500000 0.679306 0.000000
#
# Coordination Sequence:
#
# PCOD8066255 Si02
#       8
#     2   2   4   4   4   4   4   4
#     4  12  28  36  53  80 119 156 193 230 279 340
#     4  12  24  40  49  80 123 156 187 228 283 332
#     4  12  23  36  58  82 118 153 189 232 285 343
#     4   9  20  38  59  82 111 150 196 239 282 333
#     4  12  23  37  56  85 115 153 191 233 283 339
#     4   9  20  38  58  81 111 150 196 241 281 331
#     4  10  21  37  58  83 112 150 189 234 285 339
#     4  10  21  37  58  82 113 148 192 236 280 337
#
# _framework density 18.663582000000002
#
# number of rings (size 3 to 8) (size 9 to 14) (size 15 to 20)
#    0.000    1.429    2.857    3.429    6.000    1.714 
#    0.000    1.429    0.000    0.857    0.000    0.000 
#    0.000    0.000    0.000    0.000    0.000    0.000 
#
# Total GULP energy -346897.911241 kJ/mol
# GULP energy per Si atom -12389.211116 kJ/mol
# Density = 1.862110 g / cm^3
# Si number density = 18.663582 Si / 1000 Ang^3
#
#
#
# Elastic Constant Matrix: (Units=GPa)
#
#
# Indices 1 2 3 4 5 6 
#
# 1 71.4195 23.5177 23.6957 0.0000 -3.2809 0.0000
# 2 23.5177 76.6156 29.5455 0.0000 -3.5651 0.0000
# 3 23.6957 29.5455 97.7549 0.0000 -5.9495 0.0000
# 4 0.0000 0.0000 0.0000 20.2633 0.0000 4.6167
# 5 -3.2809 -3.5651 -5.9495 0.0000 36.4362 0.0000
# 6 0.0000 0.0000 0.0000 4.6167 0.0000 25.5702
#
#
#
# Elastic Compliance Matrix: (Units=1/GPa)
#
#
# Indices 1 2 3 4 5 6 
#
# 1 0.016216 -0.003902 -0.002713 0.000000 0.000635 0.000000
# 2 -0.003902 0.015732 -0.003774 0.000000 0.000572 0.000000
# 3 -0.002713 -0.003774 0.012111 0.000000 0.001364 0.000000
# 4 0.000000 0.000000 0.000000 0.051467 0.000000 -0.009292
# 5 0.000635 0.000572 0.001364 0.000000 0.027781 0.000000
# 6 0.000000 0.000000 0.000000 -0.009292 0.000000 0.040786
#
#
# Mechanical properties :
#
#
# Convention : Reuss Voigt Hill
#
# Bulk Modulus (GPa) = 42.95334 44.36755 43.66044
# Shear Modulus (GPa) = 25.95635 27.72269 26.83952
#
# Velocity S-wave (km/s) = 3.73332 3.85826 3.79630
# Velocity P-wave (km/s) = 6.45353 6.60848 6.53147
#
# Compressibility (1/GPa) = 0.02328108
#
# Stress axis : x y z
#
# Youngs Moduli (GPa) = 61.66804 63.56492 82.56973
#
# Poissons Ratio (x) = 0.24802 0.22399
# Poissons Ratio (y) = 0.24062 0.31164
# Poissons Ratio (z) = 0.16729 0.23991
#
# Static dielectric constant tensor:
#      x y z
#    x 3.432270 0.000000 -0.030340 
#    y 0.000000 3.307530 0.000000 
#    z -0.030340 0.000000 3.514700 
# 
# 
# High freq. dielectric constant tensor:
#      x y z
#    x 1.736020 0.000000 0.000980 
#    y 0.000000 1.698690 0.000000 
#    z 0.000980 0.000000 1.723550 
# 
# From -- ./inp_files/61159.got.cif
#   From: 2010.06.25/outbox.cif.g09.slc.cpg/sg10_31_cif.got.tgz:61159.got - 2010.06.27 22:07:45.
