data_PCOD8066442
_publ_section_title
;
Structure prediction by ZEFSAII (Michael W. Deem and Ramdas Pophale) SiO2 
 PCOD8066442
Probable space group: P 2/M
;
_chemical_formula_sum "Si O2"
_cell_formula_units_Z 32
_cell_length_a 26.420261
_cell_length_b 9.012908
_cell_length_c 20.939883
_cell_angle_alpha 90.000000
_cell_angle_beta 159.088260
_cell_angle_gamma 90.000000
_cell_volume 1779.748472
_symmetry_space_group_name_H-M "P 2/M"
_symmetry_group_IT_number 10
_symmetry_cell_setting 'monoclinic'
loop_
_space_group_symop_operation_xyz
x,y,z
-x,y,-z
-x,-y,-z
x,-y,z
loop_
_atom_site_type_symbol
_atom_site_label
_atom_site_fract_x
_atom_site_fract_y
_atom_site_fract_z
Si Si1 0.986040 0.175452 0.669379
Si Si2 0.745048 0.675878 0.071538
Si Si3 0.092130 0.331083 0.914858
Si Si4 0.590146 0.825181 0.546718
Si Si5 0.881662 0.671040 0.911636
Si Si6 0.399760 0.325267 0.971518
Si Si7 0.600750 0.668675 0.772435
Si Si8 0.705205 0.324422 0.289330
O O1 0.833122 0.231100 0.467997
O O2 0.104467 0.246707 0.763113
O O3 0.007892 0.222105 0.768757
O O4 0.994786 0.000000 0.673861
O O5 0.773138 0.500000 0.106940
O O6 0.677953 0.740811 0.057675
O O7 0.635221 0.715804 0.885674
O O8 0.051728 0.500000 0.848689
O O9 0.052630 0.293566 0.941211
O O10 0.260175 0.307572 0.106560
O O11 0.500000 0.760988 0.500000
O O12 0.750233 0.773886 0.741142
O O13 0.524740 0.769004 0.402948
O O14 0.585936 0.000000 0.541264
O O15 0.833248 0.500000 0.851152
O O16 0.000000 0.710145 0.000000
O O17 0.404384 0.500000 0.983625
O O18 0.310817 0.281574 0.804053
O O19 0.562658 0.271642 0.158105
O O20 0.547883 0.500000 0.707499
O O21 0.731829 0.500000 0.329089
#
# Coordination Sequence:
#
# PCOD8066442 Si02
#       8
#     4   4   4   4   4   4   4   4
#     4  11  22  34  51  78 110 144 177 211 257 315
#     4   9  18  35  56  80 106 135 175 223 268 305
#     4   9  18  35  57  78 102 136 176 220 264 307
#     4  11  22  34  53  79 107 142 177 211 258 316
#     4  10  21  38  59  81 104 133 175 224 269 309
#     4   8  16  33  59  83 103 133 176 223 265 305
#     4   9  17  31  54  78 102 134 175 222 263 303
#     4   9  17  34  58  81 105 137 177 218 260 311
#
# _framework density 17.980069
#
# number of rings (size 3 to 8) (size 9 to 14) (size 15 to 20)
#    0.000    2.500    1.250    3.000    0.000    3.750 
#    2.250    5.000    0.000    0.000    0.000    0.000 
#    0.000    0.000    0.000    0.000    0.000    0.000 
#
# Total GULP energy -396792.465067 kJ/mol
# GULP energy per Si atom -12399.764533 kJ/mol
# Density = 1.793915 g / cm^3
# Si number density = 17.980069 Si / 1000 Ang^3
#
#
#
# Elastic Constant Matrix: (Units=GPa)
#
#
# Indices 1 2 3 4 5 6 
#
# 1 135.9604 30.4811 52.9519 0.0000 -0.1174 0.0000
# 2 30.4811 63.0382 47.6643 0.0000 -0.4019 0.0000
# 3 52.9519 47.6643 116.4865 0.0000 -4.3765 0.0000
# 4 0.0000 0.0000 0.0000 1.7356 0.0000 6.3621
# 5 -0.1174 -0.4019 -4.3765 0.0000 16.3498 0.0000
# 6 0.0000 0.0000 0.0000 6.3621 0.0000 7.5758
#
#
#
# Elastic Compliance Matrix: (Units=1/GPa)
#
#
# Indices 1 2 3 4 5 6 
#
# 1 0.009095 -0.001813 -0.003426 0.000000 -0.000896 0.000000
# 2 -0.001813 0.023395 -0.008816 0.000000 -0.001798 0.000000
# 3 -0.003426 -0.008816 0.013880 0.000000 0.003474 0.000000
# 4 0.000000 0.000000 0.000000 -0.277220 0.000000 0.232807
# 5 -0.000896 -0.001798 0.003474 0.000000 0.062042 0.000000
# 6 0.000000 0.000000 0.000000 0.232807 0.000000 -0.063510
#
#
# Mechanical properties :
#
#
# Convention : Reuss Voigt Hill
#
# Bulk Modulus (GPa) = 54.76675 64.18666 59.47670
# Shear Modulus (GPa) = -25.23718 17.42474 -3.90622
#
# Velocity S-wave (km/s) = -3.75056 3.11644 -1.47555
# Velocity P-wave (km/s) = 3.43078 6.98039 5.49982
#
# Compressibility (1/GPa) = 0.01825926
#
# Stress axis : x y z
#
# Youngs Moduli (GPa) = 109.94852 42.74507 72.04531
#
# Poissons Ratio (x) = 0.07749 0.24685
# Poissons Ratio (y) = 0.19932 0.63516
# Poissons Ratio (z) = 0.37672 0.37685
#
# Static dielectric constant tensor:
#      x y z
#    x 3.829960 0.000000 -0.055850 
#    y 0.000000 3.071110 0.000000 
#    z -0.055850 0.000000 3.184580 
# 
# 
# High freq. dielectric constant tensor:
#      x y z
#    x 1.697930 0.000000 -0.008970 
#    y 0.000000 1.673950 0.000000 
#    z -0.008970 0.000000 1.693550 
# 
# From -- ./inp_files/86949.got.cif
#   From: 2010.06.25/outbox.cif.g09.slc.cpg/sg10_44_cif.got.tgz:86949.got - 2010.06.27 22:07:45.
