data_PCOD8066743
_publ_section_title
;
Structure prediction by ZEFSAII (Michael W. Deem and Ramdas Pophale) SiO2 
 PCOD8066743
Probable space group: P 2/M
;
_chemical_formula_sum "Si O2"
_cell_formula_units_Z 16
_cell_length_a 13.496392
_cell_length_b 7.426118
_cell_length_c 10.077225
_cell_angle_alpha 90.000000
_cell_angle_beta 50.283003
_cell_angle_gamma 90.000000
_cell_volume 776.900539
_symmetry_space_group_name_H-M "P 2/M"
_symmetry_group_IT_number 10
_symmetry_cell_setting 'monoclinic'
loop_
_space_group_symop_operation_xyz
x,y,z
-x,y,-z
-x,-y,-z
x,-y,z
loop_
_atom_site_type_symbol
_atom_site_label
_atom_site_fract_x
_atom_site_fract_y
_atom_site_fract_z
Si Si1 0.104453 0.211755 0.809778
Si Si2 0.407719 0.500000 0.881736
Si Si3 0.691622 0.500000 0.749286
Si Si4 0.624722 0.789067 0.307363
Si Si5 0.112999 0.789725 0.503972
O O1 0.248972 0.275428 0.720397
O O2 0.070011 0.268537 0.688977
O O3 0.097441 0.000000 0.830980
O O4 0.000000 0.299964 0.000000
O O5 0.553961 0.500000 0.800707
O O6 0.379014 0.681403 0.825926
O O7 0.313657 0.500000 0.087567
O O8 0.761026 0.681354 0.643611
O O9 0.500000 0.738458 0.500000
O O10 0.628417 0.000000 0.269392
O O11 0.000000 0.738151 0.500000
O O12 0.148519 0.000000 0.467233
#
# Coordination Sequence:
#
# PCOD8066743 Si02
#       5
#     4   2   2   4   4
#     4   9  19  36  61  94 123 151 202 260 304 361
#     4  11  25  40  60  89 124 165 206 254 304 363
#     4  11  25  42  58  88 128 160 208 258 295 368
#     4  10  21  39  64  89 121 162 206 255 310 365
#     4  10  22  41  66  89 122 167 202 248 314 368
#
# _framework density 20.594657000000002
#
# number of rings (size 3 to 8) (size 9 to 14) (size 15 to 20)
#    0.000    2.000    0.000    2.250    3.500    5.000 
#    0.000    3.750    0.000    0.000    0.000    0.000 
#    0.000    0.000    0.000    0.000    0.000    0.000 
#
# Total GULP energy -198433.940421 kJ/mol
# GULP energy per Si atom -12402.121276 kJ/mol
# Density = 2.054778 g / cm^3
# Si number density = 20.594657 Si / 1000 Ang^3
#
#
#
# Elastic Constant Matrix: (Units=GPa)
#
#
# Indices 1 2 3 4 5 6 
#
# 1 141.7458 26.8989 89.1592 0.0000 14.4727 0.0000
# 2 26.8989 73.4254 39.2025 0.0000 8.8488 0.0000
# 3 89.1592 39.2025 177.6467 0.0000 9.7968 0.0000
# 4 0.0000 0.0000 0.0000 -15.1733 0.0000 -5.8214
# 5 14.4727 8.8488 9.7968 0.0000 41.3635 0.0000
# 6 0.0000 0.0000 0.0000 -5.8214 0.0000 9.9454
#
#
#
# Elastic Compliance Matrix: (Units=1/GPa)
#
#
# Indices 1 2 3 4 5 6 
#
# 1 0.010609 -0.000943 -0.004988 0.000000 -0.002329 0.000000
# 2 -0.000943 0.015788 -0.002880 0.000000 -0.002365 0.000000
# 3 -0.004988 -0.002880 0.008752 0.000000 0.000289 0.000000
# 4 0.000000 0.000000 0.000000 -0.053819 0.000000 -0.031502
# 5 -0.002329 -0.002365 0.000289 0.000000 0.025428 0.000000
# 6 0.000000 0.000000 0.000000 -0.031502 0.000000 0.082110
#
#
# Mechanical properties :
#
#
# Convention : Reuss Voigt Hill
#
# Bulk Modulus (GPa) = 57.05611 78.14880 67.60245
# Shear Modulus (GPa) = 44.51061 23.06426 33.78744
#
# Velocity S-wave (km/s) = 4.65399 3.35014 4.05482
# Velocity P-wave (km/s) = 7.52622 7.27964 7.40396
#
# Compressibility (1/GPa) = 0.01752661
#
# Stress axis : x y z
#
# Youngs Moduli (GPa) = 94.25803 63.34113 114.25449
#
# Poissons Ratio (x) = 0.05971 0.56992
# Poissons Ratio (y) = 0.08886 0.32910
# Poissons Ratio (z) = 0.47018 0.18245
#
# Static dielectric constant tensor:
#      x y z
#    x 3.921560 0.000000 0.021170 
#    y 0.000000 3.575460 0.000000 
#    z 0.021170 0.000000 3.972280 
# 
# 
# High freq. dielectric constant tensor:
#      x y z
#    x 1.817240 0.000000 0.002650 
#    y 0.000000 1.805130 0.000000 
#    z 0.002650 0.000000 1.811320 
# 
# From -- ./inp_files/16594.got.cif
#   From: 2010.06.25/outbox.cif.g09.slc.cpg/sg10_9_cif.got.tgz:16594.got - 2010.06.27 22:07:45.
