data_PCOD8066110
_publ_section_title
;
Structure prediction by ZEFSAII (Michael W. Deem and Ramdas Pophale) SiO2 
 PCOD8066110
Probable space group: P 2/M
;
_chemical_formula_sum "Si O2"
_cell_formula_units_Z 22
_cell_length_a 22.428952
_cell_length_b 11.831112
_cell_length_c 11.789035
_cell_angle_alpha 90.000000
_cell_angle_beta 158.639058
_cell_angle_gamma 90.000000
_cell_volume 1139.469842
_symmetry_space_group_name_H-M "P 2/M"
_symmetry_group_IT_number 10
_symmetry_cell_setting 'monoclinic'
loop_
_space_group_symop_operation_xyz
x,y,z
-x,y,-z
-x,-y,-z
x,-y,z
loop_
_atom_site_type_symbol
_atom_site_label
_atom_site_fract_x
_atom_site_fract_y
_atom_site_fract_z
Si Si1 0.481046 0.263982 0.590032
Si Si2 0.777605 0.130570 0.716466
Si Si3 0.846647 0.130941 0.584175
Si Si4 0.984469 0.500000 0.607030
Si Si5 0.324981 0.500000 0.339846
Si Si6 0.733124 0.691140 0.206159
Si Si7 0.502279 0.500000 0.137068
O O1 0.500000 0.206028 0.500000
O O2 0.350985 0.200888 0.439047
O O3 0.421702 0.391886 0.465483
O O4 0.665255 0.258564 0.967723
O O5 0.774204 0.166067 0.578194
O O6 0.731500 0.000000 0.647779
O O7 0.960289 0.153807 0.084297
O O8 0.757287 0.205323 0.332953
O O9 0.808394 0.000000 0.492504
O O10 0.894052 0.615656 0.479269
O O11 0.000000 0.500000 0.500000
O O12 0.145745 0.500000 0.968795
O O13 0.328930 0.500000 0.487689
O O14 0.586290 0.614545 0.988369
O O15 0.500000 0.500000 0.000000
#
# Coordination Sequence:
#
# PCOD8066110 Si02
#       7
#     4   4   4   2   2   4   2
#     4  11  22  37  57  82 115 151 188 231 282 342
#     4   9  20  38  59  82 111 150 189 233 286 340
#     4   9  19  38  60  83 112 144 190 240 284 337
#     4  11  21  39  60  83 117 153 196 236 275 342
#     4  10  21  36  59  79 110 156 189 225 285 337
#     4  10  22  35  56  87 112 145 190 233 282 337
#     4   9  21  37  52  80 121 144 178 234 284 337
#
# _framework density 19.307224999999999
#
# number of rings (size 3 to 8) (size 9 to 14) (size 15 to 20)
#    0.000    2.182    0.000    4.091    5.091    1.091 
#    0.000    2.727    0.000    2.727    0.000    0.000 
#    0.000    0.000    0.000    0.000    0.000    0.000 
#
# Total GULP energy -272645.292748 kJ/mol
# GULP energy per Si atom -12392.967852 kJ/mol
# Density = 1.926328 g / cm^3
# Si number density = 19.307225 Si / 1000 Ang^3
#
#
#
# Elastic Constant Matrix: (Units=GPa)
#
#
# Indices 1 2 3 4 5 6 
#
# 1 113.5308 45.3580 67.3876 0.0000 -21.2788 0.0000
# 2 45.3580 90.7081 53.2663 0.0000 -8.0477 0.0000
# 3 67.3876 53.2663 155.9973 0.0000 -31.0073 0.0000
# 4 0.0000 0.0000 0.0000 67.2847 0.0000 2.0564
# 5 -21.2788 -8.0477 -31.0073 0.0000 35.5069 0.0000
# 6 0.0000 0.0000 0.0000 2.0564 0.0000 21.4786
#
#
#
# Elastic Compliance Matrix: (Units=1/GPa)
#
#
# Indices 1 2 3 4 5 6 
#
# 1 0.013339 -0.004249 -0.003526 0.000000 0.003952 0.000000
# 2 -0.004249 0.015185 -0.003838 0.000000 -0.002456 0.000000
# 3 -0.003526 -0.003838 0.010468 0.000000 0.006159 0.000000
# 4 0.000000 0.000000 0.000000 0.014906 0.000000 -0.001427
# 5 0.003952 -0.002456 0.006159 0.000000 0.035353 0.000000
# 6 0.000000 0.000000 0.000000 -0.001427 0.000000 0.046695
#
#
# Mechanical properties :
#
#
# Convention : Reuss Voigt Hill
#
# Bulk Modulus (GPa) = 63.42423 76.91779 70.17101
# Shear Modulus (GPa) = 30.40869 37.80232 34.10551
#
# Velocity S-wave (km/s) = 3.97292 4.42966 4.20749
# Velocity P-wave (km/s) = 7.34621 8.12944 7.74773
#
# Compressibility (1/GPa) = 0.01576685
#
# Stress axis : x y z
#
# Youngs Moduli (GPa) = 74.96616 65.85558 95.52926
#
# Poissons Ratio (x) = 0.27983 0.33683
# Poissons Ratio (y) = 0.31854 0.36660
# Poissons Ratio (z) = 0.26433 0.25273
#
# Static dielectric constant tensor:
#      x y z
#    x 3.575490 0.000000 -0.350210 
#    y 0.000000 3.555060 0.000000 
#    z -0.350210 0.000000 3.863850 
# 
# 
# High freq. dielectric constant tensor:
#      x y z
#    x 1.745010 0.000000 -0.015060 
#    y 0.000000 1.751540 0.000000 
#    z -0.015060 0.000000 1.759960 
# 
# From -- ./inp_files/24173.got.cif
#   From: 2010.06.25/outbox.cif.g09.slc.cpg/sg10_13_cif.got.tgz:24173.got - 2010.06.27 22:07:45.
