data_PCOD8066381
_publ_section_title
;
Structure prediction by ZEFSAII (Michael W. Deem and Ramdas Pophale) SiO2 
 PCOD8066381
Probable space group: P 2/M
;
_chemical_formula_sum "Si O2"
_cell_formula_units_Z 32
_cell_length_a 9.285229
_cell_length_b 27.058929
_cell_length_c 12.953082
_cell_angle_alpha 90.000000
_cell_angle_beta 29.392403
_cell_angle_gamma 90.000000
_cell_volume 1597.241106
_symmetry_space_group_name_H-M "P 2/M"
_symmetry_group_IT_number 10
_symmetry_cell_setting 'monoclinic'
loop_
_space_group_symop_operation_xyz
x,y,z
-x,y,-z
-x,-y,-z
x,-y,z
loop_
_atom_site_type_symbol
_atom_site_label
_atom_site_fract_x
_atom_site_fract_y
_atom_site_fract_z
Si Si1 0.272408 0.556655 0.049038
Si Si2 0.322099 0.384153 0.323753
Si Si3 0.635161 0.701679 0.019542
Si Si4 0.712348 0.210140 0.117536
Si Si5 0.303670 0.944326 0.869784
Si Si6 0.757966 0.871228 0.917265
Si Si7 0.802453 0.360695 0.372381
Si Si8 0.616818 0.135926 0.543080
O O1 0.174761 0.500000 0.105110
O O2 0.972717 0.587740 0.247681
O O3 0.500000 0.566988 0.000000
O O4 0.443098 0.571122 0.835806
O O5 0.424143 0.344277 0.175226
O O6 0.319276 0.358480 0.435827
O O7 0.000000 0.404902 0.500000
O O8 0.596070 0.740602 0.136029
O O9 0.500000 0.725550 0.000000
O O10 0.975727 0.684556 0.792918
O O11 0.475675 0.187295 0.344592
O O12 0.794185 0.170140 0.981228
O O13 0.000000 0.224845 0.000000
O O14 0.522104 0.911369 0.667409
O O15 0.425989 0.000000 0.800859
O O16 0.271562 0.923822 0.006501
O O17 0.000000 0.942666 0.000000
O O18 0.036912 0.868228 0.670020
O O19 0.500000 0.860429 0.000000
O O20 0.500000 0.356165 0.500000
O O21 0.500000 0.133352 0.500000
#
# Coordination Sequence:
#
# PCOD8066381 Si02
#       8
#     4   4   4   4   4   4   4   4
#     4  10  21  38  64  95 126 164 212 256 302 371
#     4  11  20  41  65  90 121 167 207 251 306 370
#     4  11  24  43  62  90 123 157 206 255 309 372
#     4  11  24  41  63  93 120 155 209 258 303 376
#     4  10  21  37  63  97 126 163 215 257 302 375
#     4  11  23  42  63  90 128 164 203 262 314 361
#     4  11  24  41  63  91 128 163 203 259 313 362
#     4  11  20  42  66  87 123 169 206 250 312 368
#
# _framework density 20.034544
#
# number of rings (size 3 to 8) (size 9 to 14) (size 15 to 20)
#    0.000    1.250    5.000    1.875    1.750    6.500 
#    2.250    1.250    0.000    0.000    0.000    0.000 
#    0.000    0.000    0.000    0.000    0.000    0.000 
#
# Total GULP energy -396752.842054 kJ/mol
# GULP energy per Si atom -12398.526314 kJ/mol
# Density = 1.998894 g / cm^3
# Si number density = 20.034544 Si / 1000 Ang^3
#
#
#
# Elastic Constant Matrix: (Units=GPa)
#
#
# Indices 1 2 3 4 5 6 
#
# 1 102.5411 25.7603 41.5548 0.0000 -9.5664 0.0000
# 2 25.7603 98.9943 36.8922 0.0000 -0.9533 0.0000
# 3 41.5548 36.8922 137.5587 0.0000 -2.7788 0.0000
# 4 0.0000 0.0000 0.0000 -40.7021 0.0000 46.7039
# 5 -9.5664 -0.9533 -2.7788 0.0000 37.1991 0.0000
# 6 0.0000 0.0000 0.0000 46.7039 0.0000 -4.1594
#
#
#
# Elastic Compliance Matrix: (Units=1/GPa)
#
#
# Indices 1 2 3 4 5 6 
#
# 1 0.011688 -0.001911 -0.002963 0.000000 0.002736 0.000000
# 2 -0.001911 0.011536 -0.002524 0.000000 -0.000384 0.000000
# 3 -0.002963 -0.002524 0.008838 0.000000 -0.000166 0.000000
# 4 0.000000 0.000000 0.000000 0.002067 0.000000 0.023213
# 5 0.002736 -0.000384 -0.000166 0.000000 0.027564 0.000000
# 6 0.000000 0.000000 0.000000 0.023213 0.000000 0.020230
#
#
# Mechanical properties :
#
#
# Convention : Reuss Voigt Hill
#
# Bulk Modulus (GPa) = 57.91800 60.83430 59.37615
# Shear Modulus (GPa) = 48.79214 14.12666 31.45940
#
# Velocity S-wave (km/s) = 4.94033 2.65828 3.96695
# Velocity P-wave (km/s) = 7.84311 6.31289 7.11923
#
# Compressibility (1/GPa) = 0.01726579
#
# Stress axis : x y z
#
# Youngs Moduli (GPa) = 85.55599 86.68596 113.14274
#
# Poissons Ratio (x) = 0.16565 0.33526
# Poissons Ratio (y) = 0.16349 0.28561
# Poissons Ratio (z) = 0.25351 0.21883
#
# Static dielectric constant tensor:
#      x y z
#    x 3.687400 0.000000 0.199930 
#    y 0.000000 3.699650 0.000000 
#    z 0.199930 0.000000 3.855420 
# 
# 
# High freq. dielectric constant tensor:
#      x y z
#    x 1.778200 0.000000 0.007750 
#    y 0.000000 1.776120 0.000000 
#    z 0.007750 0.000000 1.794120 
# 
# From -- ./inp_files/43769.got.cif
#   From: 2010.06.25/outbox.cif.g09.slc.cpg/sg10_22_cif.got.tgz:43769.got - 2010.06.27 22:07:45.
