data_PCOD8066679
_publ_section_title
;
Structure prediction by ZEFSAII (Michael W. Deem and Ramdas Pophale) SiO2 
 PCOD8066679
Probable space group: P 2/M
;
_chemical_formula_sum "Si O2"
_cell_formula_units_Z 24
_cell_length_a 8.919590
_cell_length_b 18.344892
_cell_length_c 8.853201
_cell_angle_alpha 90.000000
_cell_angle_beta 125.384321
_cell_angle_gamma 90.000000
_cell_volume 1181.056061
_symmetry_space_group_name_H-M "P 2/M"
_symmetry_group_IT_number 10
_symmetry_cell_setting 'monoclinic'
loop_
_space_group_symop_operation_xyz
x,y,z
-x,y,-z
-x,-y,-z
x,-y,z
loop_
_atom_site_type_symbol
_atom_site_label
_atom_site_fract_x
_atom_site_fract_y
_atom_site_fract_z
Si Si1 0.428026 0.082999 0.225795
Si Si2 0.156857 0.667950 0.979704
Si Si3 0.211964 0.083928 0.411050
Si Si4 0.106658 0.838442 0.914001
Si Si5 0.478766 0.584252 0.311117
Si Si6 0.183961 0.421001 0.697423
O O1 0.322451 0.092166 0.320968
O O2 0.641840 0.109180 0.372607
O O3 0.429738 0.000000 0.172941
O O4 0.313109 0.127402 0.031160
O O5 0.133904 0.752616 0.933799
O O6 0.150918 0.633616 0.812548
O O7 0.342380 0.645187 0.169888
O O8 0.000000 0.638318 0.000000
O O9 0.025367 0.133804 0.301381
O O10 0.152303 0.000000 0.401685
O O11 0.000000 0.866235 0.000000
O O12 0.500000 0.597917 0.500000
O O13 0.417757 0.500000 0.245730
O O14 0.664454 0.604994 0.333077
O O15 0.240528 0.500000 0.798177
O O16 0.000000 0.428784 0.500000
#
# Coordination Sequence:
#
# PCOD8066679 Si02
#       6
#     4   4   4   4   4   4
#     4   8  13  23  40  63  91 136 191 236 279 324
#     4  11  22  35  51  83 121 157 191 228 283 343
#     4   8  13  23  41  62  92 138 189 237 279 323
#     4   9  17  28  39  66 107 148 184 228 280 331
#     4  10  21  39  62  86 109 142 190 239 289 343
#     4  10  21  39  62  84 109 146 191 240 287 337
#
# _framework density 20.320798
#
# number of rings (size 3 to 8) (size 9 to 14) (size 15 to 20)
#    0.000    2.667    0.000    3.500    0.000    6.000 
#   12.000    0.000    0.000    0.000    0.000    0.000 
#    0.000   13.333    0.000    4.000    0.000    4.667 
#
# Total GULP energy -297338.747847 kJ/mol
# GULP energy per Si atom -12389.114494 kJ/mol
# Density = 2.027455 g / cm^3
# Si number density = 20.320798 Si / 1000 Ang^3
#
#
#
# Elastic Constant Matrix: (Units=GPa)
#
#
# Indices 1 2 3 4 5 6 
#
# 1 97.9007 48.6532 55.5571 0.0000 13.9061 0.0000
# 2 48.6532 90.7769 69.1232 0.0000 19.7665 0.0000
# 3 55.5571 69.1232 136.9095 0.0000 33.0369 0.0000
# 4 0.0000 0.0000 0.0000 29.0938 0.0000 10.9050
# 5 13.9061 19.7665 33.0369 0.0000 39.0137 0.0000
# 6 0.0000 0.0000 0.0000 10.9050 0.0000 20.2788
#
#
#
# Elastic Compliance Matrix: (Units=1/GPa)
#
#
# Indices 1 2 3 4 5 6 
#
# 1 0.014761 -0.005460 -0.003307 0.000000 0.000305 0.000000
# 2 -0.005460 0.020014 -0.007430 0.000000 -0.001902 0.000000
# 3 -0.003307 -0.007430 0.014082 0.000000 -0.006981 0.000000
# 4 0.000000 0.000000 0.000000 0.043049 0.000000 -0.023150
# 5 0.000305 -0.001902 -0.006981 0.000000 0.032399 0.000000
# 6 0.000000 0.000000 0.000000 -0.023150 0.000000 0.061761
#
#
# Mechanical properties :
#
#
# Convention : Reuss Voigt Hill
#
# Bulk Modulus (GPa) = 60.74085 74.69492 67.71788
# Shear Modulus (GPa) = 22.32657 27.82751 25.07704
#
# Velocity S-wave (km/s) = 3.31827 3.70457 3.51673
# Velocity P-wave (km/s) = 6.68110 7.42537 7.06304
#
# Compressibility (1/GPa) = 0.01646338
#
# Stress axis : x y z
#
# Youngs Moduli (GPa) = 67.74581 49.96416 71.01149
#
# Poissons Ratio (x) = 0.27278 0.23485
# Poissons Ratio (y) = 0.36986 0.52764
# Poissons Ratio (z) = 0.22405 0.37125
#
# Static dielectric constant tensor:
#      x y z
#    x 3.580260 0.000000 0.443250 
#    y 0.000000 3.577240 0.000000 
#    z 0.443250 0.000000 4.053470 
# 
# 
# High freq. dielectric constant tensor:
#      x y z
#    x 1.773480 0.000000 0.023640 
#    y 0.000000 1.778700 0.000000 
#    z 0.023640 0.000000 1.801340 
# 
# From -- ./inp_files/20271.got.cif
#   From: 2010.06.25/outbox.cif.g09.slc.cpg/sg10_11_cif.got.tgz:20271.got - 2010.06.27 22:07:45.
