data_PCOD8066370
_publ_section_title
;
Structure prediction by ZEFSAII (Michael W. Deem and Ramdas Pophale) SiO2 
 PCOD8066370
Probable space group: P 2/M
;
_chemical_formula_sum "Si O2"
_cell_formula_units_Z 20
_cell_length_a 21.895482
_cell_length_b 7.387645
_cell_length_c 9.805672
_cell_angle_alpha 90.000000
_cell_angle_beta 141.430530
_cell_angle_gamma 90.000000
_cell_volume 988.891463
_symmetry_space_group_name_H-M "P 2/M"
_symmetry_group_IT_number 10
_symmetry_cell_setting 'monoclinic'
loop_
_space_group_symop_operation_xyz
x,y,z
-x,y,-z
-x,-y,-z
x,-y,z
loop_
_atom_site_type_symbol
_atom_site_label
_atom_site_fract_x
_atom_site_fract_y
_atom_site_fract_z
Si Si1 0.089360 0.000000 0.054284
Si Si2 0.623739 0.285295 0.847816
Si Si3 0.408849 0.713972 0.510217
Si Si4 0.205838 0.288513 0.660203
Si Si5 0.760858 0.289909 0.593304
Si Si6 0.956550 0.000000 0.573031
O O1 0.150626 0.181252 0.185798
O O2 0.000000 0.000000 0.000000
O O3 0.051105 0.000000 0.834145
O O4 0.625340 0.500000 0.861080
O O5 0.636094 0.219144 0.712984
O O6 0.519358 0.210802 0.722522
O O7 0.712695 0.209633 0.093886
O O8 0.415002 0.500000 0.516273
O O9 0.340280 0.779156 0.514353
O O10 0.183126 0.500000 0.644339
O O11 0.247005 0.252825 0.580859
O O12 0.106053 0.180338 0.509046
O O13 0.780106 0.500000 0.659292
O O14 0.000000 0.000000 0.500000
#
# Coordination Sequence:
#
# PCOD8066370 Si02
#       6
#     2   4   4   4   4   2
#     4  12  24  44  61  80 115 149 188 247 292 334
#     4   8  15  30  54  84 121 154 185 229 276 331
#     4   8  15  30  54  86 118 153 190 225 275 337
#     4  10  21  39  61  87 117 150 189 235 285 340
#     4  10  21  37  62  89 114 151 193 230 283 344
#     4  12  28  44  59  84 113 147 194 245 294 340
#
# _framework density 20.224665999999999
#
# number of rings (size 3 to 8) (size 9 to 14) (size 15 to 20)
#    0.000    2.400    2.000    1.200    2.800    2.400 
#    0.000    5.000    0.000    4.800    0.000    0.000 
#    0.000    0.000    0.000    0.000    0.000    0.000 
#
# Total GULP energy -247947.776061 kJ/mol
# GULP energy per Si atom -12397.388803 kJ/mol
# Density = 2.017863 g / cm^3
# Si number density = 20.224666 Si / 1000 Ang^3
#
#
#
# Elastic Constant Matrix: (Units=GPa)
#
#
# Indices 1 2 3 4 5 6 
#
# 1 138.1755 31.8092 25.4345 0.0000 -8.1997 0.0000
# 2 31.8092 70.0455 31.1718 0.0000 1.6986 0.0000
# 3 25.4345 31.1718 124.3555 0.0000 -11.5641 0.0000
# 4 0.0000 0.0000 0.0000 -26.5302 0.0000 -37.5876
# 5 -8.1997 1.6986 -11.5641 0.0000 29.1808 0.0000
# 6 0.0000 0.0000 0.0000 -37.5876 0.0000 -20.5324
#
#
#
# Elastic Compliance Matrix: (Units=1/GPa)
#
#
# Indices 1 2 3 4 5 6 
#
# 1 0.008303 -0.003564 -0.000590 0.000000 0.002307 0.000000
# 2 -0.003564 0.017795 -0.004071 0.000000 -0.003651 0.000000
# 3 -0.000590 -0.004071 0.009541 0.000000 0.003852 0.000000
# 4 0.000000 0.000000 0.000000 0.023652 0.000000 -0.043299
# 5 0.002307 -0.003651 0.003852 0.000000 0.036656 0.000000
# 6 0.000000 0.000000 0.000000 -0.043299 0.000000 0.030561
#
#
# Mechanical properties :
#
#
# Convention : Reuss Voigt Hill
#
# Bulk Modulus (GPa) = 52.11501 56.60083 54.35792
# Shear Modulus (GPa) = 33.47703 12.70104 23.08904
#
# Velocity S-wave (km/s) = 4.07290 2.50871 3.38246
# Velocity P-wave (km/s) = 6.92402 6.03641 6.49539
#
# Compressibility (1/GPa) = 0.01918833
#
# Stress axis : x y z
#
# Youngs Moduli (GPa) = 120.43610 56.19500 104.81123
#
# Poissons Ratio (x) = 0.20027 0.06188
# Poissons Ratio (y) = 0.42921 0.42671
# Poissons Ratio (z) = 0.07111 0.22878
#
# Static dielectric constant tensor:
#      x y z
#    x 4.341840 0.000000 0.605430 
#    y 0.000000 3.513610 0.000000 
#    z 0.605430 0.000000 4.722120 
# 
# 
# High freq. dielectric constant tensor:
#      x y z
#    x 1.793280 0.000000 -0.001750 
#    y 0.000000 1.782480 0.000000 
#    z -0.001750 0.000000 1.789240 
# 
# From -- ./inp_files/34078.got.cif
#   From: 2010.06.25/outbox.cif.g09.slc.cpg/sg10_18_cif.got.tgz:34078.got - 2010.06.27 22:07:45.
