data_PCOD8066608
_publ_section_title
;
Structure prediction by ZEFSAII (Michael W. Deem and Ramdas Pophale) SiO2 
 PCOD8066608
Probable space group: P 2/M
;
_chemical_formula_sum "Si O2"
_cell_formula_units_Z 24
_cell_length_a 19.354696
_cell_length_b 13.081544
_cell_length_c 10.825060
_cell_angle_alpha 90.000000
_cell_angle_beta 155.090714
_cell_angle_gamma 90.000000
_cell_volume 1154.373409
_symmetry_space_group_name_H-M "P 2/M"
_symmetry_group_IT_number 10
_symmetry_cell_setting 'monoclinic'
loop_
_space_group_symop_operation_xyz
x,y,z
-x,y,-z
-x,-y,-z
x,-y,z
loop_
_atom_site_type_symbol
_atom_site_label
_atom_site_fract_x
_atom_site_fract_y
_atom_site_fract_z
Si Si1 0.995622 0.108494 0.136815
Si Si2 0.912280 0.384308 0.198573
Si Si3 0.753816 0.304910 0.175848
Si Si4 0.662268 0.882475 0.183813
Si Si5 0.446769 0.385100 0.779430
Si Si6 0.151437 0.692281 0.155198
O O1 0.179127 0.136961 0.474647
O O2 0.939182 0.000000 0.107616
O O3 0.867490 0.200420 0.951607
O O4 0.000000 0.091625 0.000000
O O5 0.912149 0.500000 0.250432
O O6 0.807251 0.310937 0.119202
O O7 0.096102 0.338821 0.492660
O O8 0.840664 0.389066 0.943436
O O9 0.683859 0.192599 0.100379
O O10 0.607610 0.385919 0.955446
O O11 0.653267 0.000000 0.121989
O O12 0.500000 0.855724 0.000000
O O13 0.375650 0.500000 0.675421
O O14 0.312649 0.311261 0.500448
O O15 0.500000 0.341604 0.000000
O O16 0.000000 0.671295 0.000000
#
# Coordination Sequence:
#
# PCOD8066608 Si02
#       6
#     4   4   4   4   4   4
#     4   9  19  36  58  89 124 159 202 253 315 372
#     4  11  23  41  63  87 124 169 215 262 313 379
#     4  11  22  39  60  88 125 167 207 250 315 375
#     4  10  21  38  64  97 129 163 211 265 315 373
#     4  11  24  39  60  89 121 159 207 267 320 374
#     4  11  23  39  62  91 122 161 213 261 322 375
#
# _framework density 20.790500999999999
#
# number of rings (size 3 to 8) (size 9 to 14) (size 15 to 20)
#    0.000    1.500    1.667    4.000    7.000    3.333 
#    0.000    4.167    0.000    0.500    0.000    2.333 
#    0.000    0.000    0.000    0.000    0.000    0.000 
#
# Total GULP energy -297409.690484 kJ/mol
# GULP energy per Si atom -12392.070437 kJ/mol
# Density = 2.074318 g / cm^3
# Si number density = 20.790501 Si / 1000 Ang^3
#
#
#
# Elastic Constant Matrix: (Units=GPa)
#
#
# Indices 1 2 3 4 5 6 
#
# 1 106.7835 47.4441 54.9892 0.0000 -1.0609 0.0000
# 2 47.4441 132.4223 43.7790 0.0000 7.5767 0.0000
# 3 54.9892 43.7790 139.9554 0.0000 -0.9769 0.0000
# 4 0.0000 0.0000 0.0000 29.1830 0.0000 3.6164
# 5 -1.0609 7.5767 -0.9769 0.0000 35.0693 0.0000
# 6 0.0000 0.0000 0.0000 3.6164 0.0000 30.4928
#
#
#
# Elastic Compliance Matrix: (Units=1/GPa)
#
#
# Indices 1 2 3 4 5 6 
#
# 1 0.012942 -0.003364 -0.004026 0.000000 0.001006 0.000000
# 2 -0.003364 0.009424 -0.001642 0.000000 -0.002184 0.000000
# 3 -0.004026 -0.001642 0.009244 0.000000 0.000490 0.000000
# 4 0.000000 0.000000 0.000000 0.034778 0.000000 -0.004125
# 5 0.001006 -0.002184 0.000490 0.000000 0.029031 0.000000
# 6 0.000000 0.000000 0.000000 -0.004125 0.000000 0.033284
#
#
# Mechanical properties :
#
#
# Convention : Reuss Voigt Hill
#
# Bulk Modulus (GPa) = 73.81031 74.62065 74.21548
# Shear Modulus (GPa) = 33.05097 34.47894 33.76495
#
# Velocity S-wave (km/s) = 3.99145 4.07676 4.03433
# Velocity P-wave (km/s) = 7.53799 7.62428 7.58125
#
# Compressibility (1/GPa) = 0.01354824
#
# Stress axis : x y z
#
# Youngs Moduli (GPa) = 77.26551 106.10779 108.17925
#
# Poissons Ratio (x) = 0.35690 0.43553
# Poissons Ratio (y) = 0.25989 0.17760
# Poissons Ratio (z) = 0.31107 0.17420
#
# Static dielectric constant tensor:
#      x y z
#    x 3.437030 0.000000 0.011250 
#    y 0.000000 4.750740 0.000000 
#    z 0.011250 0.000000 3.815220 
# 
# 
# High freq. dielectric constant tensor:
#      x y z
#    x 1.785410 0.000000 -0.006440 
#    y 0.000000 1.828280 0.000000 
#    z -0.006440 0.000000 1.812330 
# 
# From -- ./inp_files/56058.got.cif
#   From: 2010.06.25/outbox.cif.g09.slc.cpg/sg10_29_cif.got.tgz:56058.got - 2010.06.27 22:07:45.
