data_PCOD8066465
_publ_section_title
;
Structure prediction by ZEFSAII (Michael W. Deem and Ramdas Pophale) SiO2 
 PCOD8066465
Probable space group: P 2/M
;
_chemical_formula_sum "Si O2"
_cell_formula_units_Z 24
_cell_length_a 11.823414
_cell_length_b 12.312784
_cell_length_c 17.543366
_cell_angle_alpha 90.000000
_cell_angle_beta 25.734562
_cell_angle_gamma 90.000000
_cell_volume 1108.930824
_symmetry_space_group_name_H-M "P 2/M"
_symmetry_group_IT_number 10
_symmetry_cell_setting 'monoclinic'
loop_
_space_group_symop_operation_xyz
x,y,z
-x,y,-z
-x,-y,-z
x,-y,z
loop_
_atom_site_type_symbol
_atom_site_label
_atom_site_fract_x
_atom_site_fract_y
_atom_site_fract_z
Si Si1 0.578131 0.000000 0.204577
Si Si2 0.914382 0.376710 0.881649
Si Si3 0.127905 0.000000 0.814556
Si Si4 0.662001 0.379113 0.731521
Si Si5 0.659627 0.771062 0.331617
Si Si6 0.727663 0.203401 0.569376
Si Si7 0.219373 0.741362 0.190961
O O1 0.747928 0.000000 0.177449
O O2 0.383144 0.898073 0.315397
O O3 0.809782 0.000000 0.001180
O O4 0.007080 0.500000 0.811184
O O5 0.904775 0.315250 0.806850
O O6 0.106321 0.313181 0.821932
O O7 0.646832 0.373113 0.090036
O O8 0.232046 0.890944 0.711590
O O9 0.764696 0.500000 0.651960
O O10 0.789508 0.300259 0.590928
O O11 0.727765 0.350994 0.778740
O O12 0.500000 0.727640 0.500000
O O13 0.492256 0.764461 0.357142
O O14 0.000582 0.176313 0.359247
O O15 0.500000 0.798615 0.000000
#
# Coordination Sequence:
#
# PCOD8066465 Si02
#       7
#     2   4   2   4   4   4   4
#     4   9  20  38  60  89 119 152 189 241 297 350
#     4  10  21  38  59  88 126 158 189 239 300 350
#     4   9  19  36  62  85 118 158 195 232 284 352
#     4  10  22  39  62  88 115 158 207 242 281 347
#     4  11  21  37  59  92 121 154 194 241 295 354
#     4  11  22  39  62  89 119 152 195 249 294 349
#     4  10  21  40  60  83 118 160 202 242 285 344
#
# _framework density 21.642468000000001
#
# number of rings (size 3 to 8) (size 9 to 14) (size 15 to 20)
#    0.000    1.833    1.667    2.250    0.000    7.000 
#    0.000    3.750    0.000    2.000    0.000    0.000 
#    0.000    0.000    0.000    0.000    0.000    0.000 
#
# Total GULP energy -297480.117413 kJ/mol
# GULP energy per Si atom -12395.004892 kJ/mol
# Density = 2.159321 g / cm^3
# Si number density = 21.642468 Si / 1000 Ang^3
#
#
#
# Elastic Constant Matrix: (Units=GPa)
#
#
# Indices 1 2 3 4 5 6 
#
# 1 75.3027 13.6068 21.2041 0.0000 -7.0855 0.0000
# 2 13.6068 55.3782 22.8992 0.0000 -9.6010 0.0000
# 3 21.2041 22.8992 134.3184 0.0000 -15.3567 0.0000
# 4 0.0000 0.0000 0.0000 5.3364 0.0000 8.7280
# 5 -7.0855 -9.6010 -15.3567 0.0000 32.2287 0.0000
# 6 0.0000 0.0000 0.0000 8.7280 0.0000 14.8194
#
#
#
# Elastic Compliance Matrix: (Units=1/GPa)
#
#
# Indices 1 2 3 4 5 6 
#
# 1 0.014358 -0.002569 -0.001645 0.000000 0.001608 0.000000
# 2 -0.002569 0.020510 -0.002599 0.000000 0.004307 0.000000
# 3 -0.001645 -0.002599 0.008480 0.000000 0.002905 0.000000
# 4 0.000000 0.000000 0.000000 5.103025 0.000000 -3.005483
# 5 0.001608 0.004307 0.002905 0.000000 0.034049 0.000000
# 6 0.000000 0.000000 0.000000 -3.005483 0.000000 1.837592
#
#
# Mechanical properties :
#
#
# Convention : Reuss Voigt Hill
#
# Bulk Modulus (GPa) = 33.64393 42.26883 37.95638
# Shear Modulus (GPa) = 0.71007 24.29619 12.50313
#
# Velocity S-wave (km/s) = 0.57341 3.35418 2.40617
# Velocity P-wave (km/s) = 4.00218 5.87993 5.02947
#
# Compressibility (1/GPa) = 0.02972304
#
# Stress axis : x y z
#
# Youngs Moduli (GPa) = 69.64570 48.75634 117.92723
#
# Poissons Ratio (x) = 0.12526 0.19398
# Poissons Ratio (y) = 0.17892 0.30646
# Poissons Ratio (z) = 0.11456 0.12670
#
# Static dielectric constant tensor:
#      x y z
#    x 3.692340 0.000000 -0.205710 
#    y 0.000000 3.769190 0.000000 
#    z -0.205710 0.000000 4.298120 
# 
# 
# High freq. dielectric constant tensor:
#      x y z
#    x 1.839730 0.000000 -0.013240 
#    y 0.000000 1.823250 0.000000 
#    z -0.013240 0.000000 1.874600 
# 
# From -- ./inp_files/85188.got.cif
#   From: 2010.06.25/outbox.cif.g09.slc.cpg/sg10_43_cif.got.tgz:85188.got - 2010.06.27 22:07:45.
