data_PCOD8066491
_publ_section_title
;
Structure prediction by ZEFSAII (Michael W. Deem and Ramdas Pophale) SiO2 
 PCOD8066491
Probable space group: P 2/M
;
_chemical_formula_sum "Si O2"
_cell_formula_units_Z 32
_cell_length_a 11.903947
_cell_length_b 8.817043
_cell_length_c 14.812125
_cell_angle_alpha 90.000000
_cell_angle_beta 94.144880
_cell_angle_gamma 90.000000
_cell_volume 1550.579060
_symmetry_space_group_name_H-M "P 2/M"
_symmetry_group_IT_number 10
_symmetry_cell_setting 'monoclinic'
loop_
_space_group_symop_operation_xyz
x,y,z
-x,y,-z
-x,-y,-z
x,-y,z
loop_
_atom_site_type_symbol
_atom_site_label
_atom_site_fract_x
_atom_site_fract_y
_atom_site_fract_z
Si Si1 0.749343 0.326605 0.328929
Si Si2 0.065023 0.677931 0.914293
Si Si3 0.973277 0.820289 0.278105
Si Si4 0.627091 0.819693 0.486938
Si Si5 0.415644 0.327835 0.841576
Si Si6 0.781898 0.820679 0.657247
Si Si7 0.709280 0.824588 0.019894
Si Si8 0.362384 0.176992 0.184995
O O1 0.764540 0.500000 0.359933
O O2 0.871620 0.250189 0.329446
O O3 0.668529 0.242879 0.394231
O O4 0.693442 0.314233 0.227796
O O5 0.050627 0.500000 0.896767
O O6 0.017730 0.763846 0.824269
O O7 0.194644 0.716612 0.935950
O O8 0.000000 0.733639 0.000000
O O9 0.087699 0.769750 0.336332
O O10 0.958719 0.000000 0.275581
O O11 0.500000 0.762622 0.500000
O O12 0.712719 0.755472 0.568057
O O13 0.629369 0.000000 0.483017
O O14 0.435413 0.500000 0.873943
O O15 0.400867 0.220889 0.928701
O O16 0.523281 0.269042 0.793090
O O17 0.724977 0.761908 0.746067
O O18 0.774578 0.000000 0.654881
O O19 0.739788 0.000000 0.036901
O O20 0.690587 0.786880 0.914850
O O21 0.389423 0.000000 0.198286
#
# Coordination Sequence:
#
# PCOD8066491 Si02
#       8
#     4   4   4   4   4   4   4   4
#     4  11  24  41  61  88 125 163 202 253 309 366
#     4  11  23  38  57  84 122 164 205 252 304 362
#     4  11  22  39  64  89 119 160 207 254 302 360
#     4  10  21  40  68  96 121 156 201 250 307 369
#     4  11  23  38  57  83 121 162 201 249 306 366
#     4   9  20  39  62  91 122 152 196 255 307 358
#     4  11  22  36  58  87 117 156 205 253 301 357
#     4  10  21  38  60  87 120 155 200 254 305 362
#
# _framework density 20.637453000000001
#
# number of rings (size 3 to 8) (size 9 to 14) (size 15 to 20)
#    0.000    1.500    1.250    3.750    0.000    7.750 
#    0.000    5.625    0.000    0.000    0.000    0.000 
#    0.000    0.000    0.000    0.000    0.000    0.000 
#
# Total GULP energy -396914.544352 kJ/mol
# GULP energy per Si atom -12403.579511 kJ/mol
# Density = 2.059048 g / cm^3
# Si number density = 20.637453 Si / 1000 Ang^3
#
#
#
# Elastic Constant Matrix: (Units=GPa)
#
#
# Indices 1 2 3 4 5 6 
#
# 1 125.6451 41.3400 37.7067 0.0000 -4.4411 0.0000
# 2 41.3400 53.9433 33.3139 0.0000 1.3242 0.0000
# 3 37.7067 33.3139 93.6502 0.0000 -11.5527 0.0000
# 4 0.0000 0.0000 0.0000 23.5709 0.0000 -5.2611
# 5 -4.4411 1.3242 -11.5527 0.0000 39.9845 0.0000
# 6 0.0000 0.0000 0.0000 -5.2611 0.0000 21.7254
#
#
#
# Elastic Compliance Matrix: (Units=1/GPa)
#
#
# Indices 1 2 3 4 5 6 
#
# 1 0.010913 -0.007367 -0.001653 0.000000 0.000979 0.000000
# 2 -0.007367 0.029170 -0.007913 0.000000 -0.004070 0.000000
# 3 -0.001653 -0.007913 0.014692 0.000000 0.004323 0.000000
# 4 0.000000 0.000000 0.000000 0.044849 0.000000 0.010861
# 5 0.000979 -0.004070 0.004323 0.000000 0.026502 0.000000
# 6 0.000000 0.000000 0.000000 0.010861 0.000000 0.048659
#
#
# Mechanical properties :
#
#
# Convention : Reuss Voigt Hill
#
# Bulk Modulus (GPa) = 47.82267 55.32887 51.57577
# Shear Modulus (GPa) = 23.18886 27.78136 25.48511
#
# Velocity S-wave (km/s) = 3.35570 3.67299 3.51792
# Velocity P-wave (km/s) = 6.18363 6.69746 6.44567
#
# Compressibility (1/GPa) = 0.02091058
#
# Stress axis : x y z
#
# Youngs Moduli (GPa) = 91.63046 34.28157 68.06645
#
# Poissons Ratio (x) = 0.25255 0.11250
# Poissons Ratio (y) = 0.67503 0.53858
# Poissons Ratio (z) = 0.15144 0.27126
#
# Static dielectric constant tensor:
#      x y z
#    x 3.910780 0.000000 -0.023170 
#    y 0.000000 3.556220 0.000000 
#    z -0.023170 0.000000 3.820480 
# 
# 
# High freq. dielectric constant tensor:
#      x y z
#    x 1.820290 0.000000 -0.004520 
#    y 0.000000 1.794040 0.000000 
#    z -0.004520 0.000000 1.810650 
# 
# From -- ./inp_files/63783.got.cif
#   From: 2010.06.25/outbox.cif.g09.slc.cpg/sg10_32_cif.got.tgz:63783.got - 2010.06.27 22:07:45.
