data_PCOD8066861
_publ_section_title
;
Structure prediction by ZEFSAII (Michael W. Deem and Ramdas Pophale) SiO2 
 PCOD8066861
Probable space group: P 2/M
;
_chemical_formula_sum "Si O2"
_cell_formula_units_Z 32
_cell_length_a 13.182848
_cell_length_b 21.877433
_cell_length_c 5.345720
_cell_angle_alpha 90.000000
_cell_angle_beta 87.694883
_cell_angle_gamma 90.000000
_cell_volume 1540.494827
_symmetry_space_group_name_H-M "P 2/M"
_symmetry_group_IT_number 10
_symmetry_cell_setting 'monoclinic'
loop_
_space_group_symop_operation_xyz
x,y,z
-x,y,-z
-x,-y,-z
x,-y,z
loop_
_atom_site_type_symbol
_atom_site_label
_atom_site_fract_x
_atom_site_fract_y
_atom_site_fract_z
Si Si1 0.886458 0.673524 0.927947
Si Si2 0.211905 0.432435 0.309605
Si Si3 0.613875 0.837341 0.033680
Si Si4 0.761348 0.230430 0.664441
Si Si5 0.718288 0.612232 0.189453
Si Si6 0.213720 0.070203 0.953111
Si Si7 0.604415 0.282260 0.356748
Si Si8 0.119428 0.119711 0.479084
O O1 0.875014 0.620294 0.714090
O O2 0.838774 0.738469 0.849985
O O3 0.823906 0.650917 0.174933
O O4 0.000000 0.685752 0.000000
O O5 0.161124 0.500000 0.323733
O O6 0.280690 0.424986 0.551508
O O7 0.286690 0.429992 0.058514
O O8 0.681353 0.894419 0.116133
O O9 0.603013 0.784177 0.236949
O O10 0.500000 0.862056 0.000000
O O11 0.669389 0.809046 0.789340
O O12 0.703027 0.284734 0.527856
O O13 0.826886 0.185449 0.481012
O O14 0.624164 0.660124 0.172693
O O15 0.146333 0.075833 0.708879
O O16 0.240723 0.000000 0.996999
O O17 0.154415 0.094450 0.204298
O O18 0.500000 0.295571 0.500000
O O19 0.000000 0.129054 0.500000
#
# Coordination Sequence:
#
# PCOD8066861 Si02
#       8
#     4   4   4   4   4   4   4   4
#     4  10  23  39  61  94 133 169 209 259 320 378
#     4  10  21  41  65  86 127 175 217 260 311 371
#     4  11  22  39  64  93 129 164 212 262 326 388
#     4  11  22  40  60  95 130 163 208 263 326 385
#     4  10  22  40  60  96 126 161 212 267 316 373
#     4  11  25  44  67  95 132 173 221 270 311 374
#     4  12  21  38  68  93 123 164 207 265 330 388
#     4  11  25  43  68  96 130 174 219 265 321 379
#
# _framework density 20.772545999999998
#
# number of rings (size 3 to 8) (size 9 to 14) (size 15 to 20)
#    0.750    0.500    5.000    1.125    0.000    5.500 
#    0.000    0.625    0.000    4.875    0.000    0.000 
#    0.000    0.000    0.000    0.000    0.000    0.000 
#
# Total GULP energy -396484.345522 kJ/mol
# GULP energy per Si atom -12390.135798 kJ/mol
# Density = 2.072527 g / cm^3
# Si number density = 20.772546 Si / 1000 Ang^3
#
#
#
# Elastic Constant Matrix: (Units=GPa)
#
#
# Indices 1 2 3 4 5 6 
#
# 1 125.1081 34.6953 28.5323 0.0000 -9.7363 0.0000
# 2 34.6953 77.2558 12.3307 0.0000 -0.1920 0.0000
# 3 28.5323 12.3307 111.5502 0.0000 -0.5035 0.0000
# 4 0.0000 0.0000 0.0000 22.0593 0.0000 -5.0364
# 5 -9.7363 -0.1920 -0.5035 0.0000 24.0760 0.0000
# 6 0.0000 0.0000 0.0000 -5.0364 0.0000 11.2225
#
#
#
# Elastic Compliance Matrix: (Units=1/GPa)
#
#
# Indices 1 2 3 4 5 6 
#
# 1 0.009910 -0.004111 -0.002062 0.000000 0.003932 0.000000
# 2 -0.004111 0.014882 -0.000601 0.000000 -0.001557 0.000000
# 3 -0.002062 -0.000601 0.009556 0.000000 -0.000639 0.000000
# 4 0.000000 0.000000 0.000000 0.050507 0.000000 0.022666
# 5 0.003932 -0.001557 -0.000639 0.000000 0.043099 0.000000
# 6 0.000000 0.000000 0.000000 0.022666 0.000000 0.099279
#
#
# Mechanical properties :
#
#
# Convention : Reuss Voigt Hill
#
# Bulk Modulus (GPa) = 48.07956 51.67011 49.87483
# Shear Modulus (GPa) = 20.18450 27.36196 23.77323
#
# Velocity S-wave (km/s) = 3.12058 3.63329 3.38665
# Velocity P-wave (km/s) = 6.01498 6.52145 6.27333
#
# Compressibility (1/GPa) = 0.02079886
#
# Stress axis : x y z
#
# Youngs Moduli (GPa) = 100.91221 67.19341 104.65065
#
# Poissons Ratio (x) = 0.27626 0.21584
# Poissons Ratio (y) = 0.41489 0.06284
# Poissons Ratio (z) = 0.20813 0.04035
#
# Static dielectric constant tensor:
#      x y z
#    x 3.680930 0.000000 -0.041120 
#    y 0.000000 3.702610 0.000000 
#    z -0.041120 0.000000 3.793850 
# 
# 
# High freq. dielectric constant tensor:
#      x y z
#    x 1.795880 0.000000 -0.004360 
#    y 0.000000 1.809680 0.000000 
#    z -0.004360 0.000000 1.816620 
# 
# From -- ./inp_files/8037.got.cif
#   From: 2010.06.25/outbox.cif.g09.slc.cpg/sg10_5_cif.got.tgz:8037.got - 2010.06.27 22:07:45.
