data_PCOD8066111
_publ_section_title
;
Structure prediction by ZEFSAII (Michael W. Deem and Ramdas Pophale) SiO2 
 PCOD8066111
Probable space group: P 2/M
;
_chemical_formula_sum "Si O2"
_cell_formula_units_Z 28
_cell_length_a 9.309809
_cell_length_b 8.948760
_cell_length_c 27.472783
_cell_angle_alpha 90.000000
_cell_angle_beta 38.313224
_cell_angle_gamma 90.000000
_cell_volume 1418.959689
_symmetry_space_group_name_H-M "P 2/M"
_symmetry_group_IT_number 10
_symmetry_cell_setting 'monoclinic'
loop_
_space_group_symop_operation_xyz
x,y,z
-x,y,-z
-x,-y,-z
x,-y,z
loop_
_atom_site_type_symbol
_atom_site_label
_atom_site_fract_x
_atom_site_fract_y
_atom_site_fract_z
Si Si1 0.957571 0.676168 0.869455
Si Si2 0.510938 0.322524 0.273942
Si Si3 0.707701 0.828003 0.846354
Si Si4 0.729397 0.335166 0.567372
Si Si5 0.833599 0.175581 0.705494
Si Si6 0.255311 0.329313 0.540801
Si Si7 0.174258 0.173647 0.995642
O O1 0.934970 0.500000 0.877451
O O2 0.809445 0.731079 0.863015
O O3 0.858944 0.740366 0.945403
O O4 0.223293 0.727087 0.793769
O O5 0.478951 0.500000 0.278656
O O6 0.386652 0.254365 0.355420
O O7 0.391562 0.250045 0.258809
O O8 0.836712 0.785280 0.761947
O O9 0.748077 0.000000 0.849583
O O10 0.436617 0.796334 0.909340
O O11 0.614516 0.500000 0.595031
O O12 0.693151 0.252566 0.525435
O O13 0.000000 0.347918 0.500000
O O14 0.070470 0.235654 0.619944
O O15 0.815772 0.000000 0.701641
O O16 0.500000 0.327784 0.500000
O O17 0.160597 0.500000 0.560053
O O18 0.124246 0.000000 0.018471
O O19 0.000000 0.234105 0.000000
#
# Coordination Sequence:
#
# PCOD8066111 Si02
#       7
#     4   4   4   4   4   4   4
#     4  11  24  38  60  93 123 150 188 246 300 340
#     4  10  21  38  59  84 116 152 194 240 290 351
#     4  10  23  41  60  84 118 160 196 233 286 353
#     4   9  16  32  57  81 107 145 193 238 277 337
#     4  11  23  39  59  85 118 153 196 247 294 340
#     4  10  21  36  59  84 112 155 200 239 289 352
#     4  10  21  41  67  88 114 158 203 234 278 353
#
# _framework density 19.732766000000002
#
# number of rings (size 3 to 8) (size 9 to 14) (size 15 to 20)
#    0.000    1.857    1.429    2.143    2.000    6.286 
#    0.000    1.429    0.000    0.000    0.000    0.000 
#    0.000    0.000    0.000    0.000    0.000    0.000 
#
# Total GULP energy -347144.654213 kJ/mol
# GULP energy per Si atom -12398.023365 kJ/mol
# Density = 1.968785 g / cm^3
# Si number density = 19.732766 Si / 1000 Ang^3
#
#
#
# Elastic Constant Matrix: (Units=GPa)
#
#
# Indices 1 2 3 4 5 6 
#
# 1 121.4595 34.7681 34.6771 0.0000 13.3527 0.0000
# 2 34.7681 52.4474 32.8286 0.0000 5.6626 0.0000
# 3 34.6771 32.8286 88.9956 0.0000 14.4353 0.0000
# 4 0.0000 0.0000 0.0000 29.6490 0.0000 0.6284
# 5 13.3527 5.6626 14.4353 0.0000 38.8562 0.0000
# 6 0.0000 0.0000 0.0000 0.6284 0.0000 29.2087
#
#
#
# Elastic Compliance Matrix: (Units=1/GPa)
#
#
# Indices 1 2 3 4 5 6 
#
# 1 0.010591 -0.005752 -0.001650 0.000000 -0.002188 0.000000
# 2 -0.005752 0.027917 -0.008212 0.000000 0.000959 0.000000
# 3 -0.001650 -0.008212 0.015560 0.000000 -0.004017 0.000000
# 4 0.000000 0.000000 0.000000 0.033743 0.000000 -0.000726
# 5 -0.002188 0.000959 -0.004017 0.000000 0.027840 0.000000
# 6 0.000000 0.000000 0.000000 -0.000726 0.000000 0.034252
#
#
# Mechanical properties :
#
#
# Convention : Reuss Voigt Hill
#
# Bulk Modulus (GPa) = 43.78356 51.93891 47.86123
# Shear Modulus (GPa) = 26.49063 30.25136 28.37099
#
# Velocity S-wave (km/s) = 3.66795 3.91967 3.79590
# Velocity P-wave (km/s) = 6.33836 6.84568 6.59690
#
# Compressibility (1/GPa) = 0.02283962
#
# Stress axis : x y z
#
# Youngs Moduli (GPa) = 94.41583 35.82110 64.26599
#
# Poissons Ratio (x) = 0.20604 0.10605
# Poissons Ratio (y) = 0.54308 0.52776
# Poissons Ratio (z) = 0.15580 0.29417
#
# Static dielectric constant tensor:
#      x y z
#    x 3.727970 0.000000 0.093970 
#    y 0.000000 3.449310 0.000000 
#    z 0.093970 0.000000 3.764120 
# 
# 
# High freq. dielectric constant tensor:
#      x y z
#    x 1.784950 0.000000 0.006330 
#    y 0.000000 1.742110 0.000000 
#    z 0.006330 0.000000 1.784430 
# 
# From -- ./inp_files/91995.got.cif
#   From: 2010.06.25/outbox.cif.g09.slc.cpg/sg10_46_cif.got.tgz:91995.got - 2010.06.27 22:07:45.
