data_PCOD8066320
_publ_section_title
;
Structure prediction by ZEFSAII (Michael W. Deem and Ramdas Pophale) SiO2 
 PCOD8066320
Probable space group: P 2/M
;
_chemical_formula_sum "Si O2"
_cell_formula_units_Z 32
_cell_length_a 9.086162
_cell_length_b 14.484601
_cell_length_c 12.320985
_cell_angle_alpha 90.000000
_cell_angle_beta 78.093606
_cell_angle_gamma 90.000000
_cell_volume 1586.671580
_symmetry_space_group_name_H-M "P 2/M"
_symmetry_group_IT_number 10
_symmetry_cell_setting 'monoclinic'
loop_
_space_group_symop_operation_xyz
x,y,z
-x,y,-z
-x,-y,-z
x,-y,z
loop_
_atom_site_type_symbol
_atom_site_label
_atom_site_fract_x
_atom_site_fract_y
_atom_site_fract_z
Si Si1 0.328346 0.392847 0.058317
Si Si2 0.080505 0.100132 0.601439
Si Si3 0.123301 0.286223 0.679144
Si Si4 0.841235 0.262512 0.075315
Si Si5 0.768369 0.704206 0.707689
Si Si6 0.664627 0.896526 0.013976
Si Si7 0.218251 0.901122 0.235035
Si Si8 0.330907 0.392895 0.493845
O O1 0.285957 0.500000 0.070511
O O2 0.299005 0.348464 0.179510
O O3 0.500000 0.376847 0.000000
O O4 0.223633 0.347206 0.983691
O O5 0.182928 0.187497 0.620264
O O6 0.000000 0.121451 0.500000
O O7 0.957769 0.093725 0.714669
O O8 0.166170 0.000000 0.581722
O O9 0.144976 0.295160 0.803734
O O10 0.219964 0.365883 0.608403
O O11 0.948553 0.300387 0.677823
O O12 0.728138 0.174856 0.092296
O O13 0.000000 0.233028 0.000000
O O14 0.710545 0.811292 0.718180
O O15 0.704605 0.661419 0.609322
O O16 0.774658 0.890145 0.894878
O O17 0.659565 0.000000 0.064477
O O18 0.500000 0.865249 0.000000
O O19 0.295165 0.000000 0.259076
O O20 0.500000 0.368795 0.500000
O O21 0.308297 0.500000 0.473232
#
# Coordination Sequence:
#
# PCOD8066320 Si02
#       8
#     4   4   4   4   4   4   4   4
#     4  11  25  42  64  92 123 167 213 262 325 384
#     4   9  17  33  57  87 120 156 202 248 295 360
#     4  11  23  39  64  93 127 163 207 256 317 375
#     4  12  23  41  60  94 131 165 209 264 317 379
#     4  11  21  43  68  92 125 164 211 256 311 380
#     4  10  21  37  59  89 127 172 215 254 306 371
#     4   9  17  31  58  92 123 157 198 243 295 359
#     4  11  27  46  65  91 119 159 213 268 326 379
#
# _framework density 20.168004
#
# number of rings (size 3 to 8) (size 9 to 14) (size 15 to 20)
#    0.000    1.500    2.500    3.375    1.750    3.000 
#    0.000    0.000    0.000    1.500    0.000    0.000 
#    0.000    0.000    0.000    0.000    0.000    0.000 
#
# Total GULP energy -396677.788047 kJ/mol
# GULP energy per Si atom -12396.180876 kJ/mol
# Density = 2.012210 g / cm^3
# Si number density = 20.168004 Si / 1000 Ang^3
#
#
#
# Elastic Constant Matrix: (Units=GPa)
#
#
# Indices 1 2 3 4 5 6 
#
# 1 73.5549 61.2208 27.6298 0.0000 7.0293 0.0000
# 2 61.2208 150.0019 56.6515 0.0000 15.2889 0.0000
# 3 27.6298 56.6515 109.0282 0.0000 14.4233 0.0000
# 4 0.0000 0.0000 0.0000 20.5875 0.0000 -2.1474
# 5 7.0293 15.2889 14.4233 0.0000 30.5398 0.0000
# 6 0.0000 0.0000 0.0000 -2.1474 0.0000 20.6872
#
#
#
# Elastic Compliance Matrix: (Units=1/GPa)
#
#
# Indices 1 2 3 4 5 6 
#
# 1 0.020690 -0.008026 -0.001039 0.000000 -0.000253 0.000000
# 2 -0.008026 0.011556 -0.003680 0.000000 -0.002200 0.000000
# 3 -0.001039 -0.003680 0.011810 0.000000 -0.003496 0.000000
# 4 0.000000 0.000000 0.000000 0.049105 0.000000 0.005097
# 5 -0.000253 -0.002200 -0.003496 0.000000 0.035555 0.000000
# 6 0.000000 0.000000 0.000000 0.005097 0.000000 0.048868
#
#
# Mechanical properties :
#
#
# Convention : Reuss Voigt Hill
#
# Bulk Modulus (GPa) = 53.86182 69.28769 61.57475
# Shear Modulus (GPa) = 23.89341 26.83511 25.36426
#
# Velocity S-wave (km/s) = 3.44571 3.65167 3.55018
# Velocity P-wave (km/s) = 6.52649 7.22561 6.88493
#
# Compressibility (1/GPa) = 0.01856603
#
# Stress axis : x y z
#
# Youngs Moduli (GPa) = 48.33252 86.53389 84.67521
#
# Poissons Ratio (x) = 0.69451 0.08801
# Poissons Ratio (y) = 0.38791 0.31158
# Poissons Ratio (z) = 0.05024 0.31842
#
# Static dielectric constant tensor:
#      x y z
#    x 3.976710 0.000000 -0.199270 
#    y 0.000000 4.221630 0.000000 
#    z -0.199270 0.000000 3.710950 
# 
# 
# High freq. dielectric constant tensor:
#      x y z
#    x 1.758110 0.000000 -0.015020 
#    y 0.000000 1.810330 0.000000 
#    z -0.015020 0.000000 1.793470 
# 
# From -- ./inp_files/42976.got.cif
#   From: 2010.06.25/outbox.cif.g09.slc.cpg/sg10_22_cif.got.tgz:42976.got - 2010.06.27 22:07:45.
