data_PCOD8066822
_publ_section_title
;
Structure prediction by ZEFSAII (Michael W. Deem and Ramdas Pophale) SiO2 
 PCOD8066822
Probable space group: P 2/M
;
_chemical_formula_sum "Si O2"
_cell_formula_units_Z 32
_cell_length_a 12.152541
_cell_length_b 8.784960
_cell_length_c 31.508741
_cell_angle_alpha 90.000000
_cell_angle_beta 151.644801
_cell_angle_gamma 90.000000
_cell_volume 1597.619113
_symmetry_space_group_name_H-M "P 2/M"
_symmetry_group_IT_number 10
_symmetry_cell_setting 'monoclinic'
loop_
_space_group_symop_operation_xyz
x,y,z
-x,y,-z
-x,-y,-z
x,-y,z
loop_
_atom_site_type_symbol
_atom_site_label
_atom_site_fract_x
_atom_site_fract_y
_atom_site_fract_z
Si Si1 0.794988 0.179629 0.484415
Si Si2 0.641403 0.320805 0.822498
Si Si3 0.694586 0.180481 0.356498
Si Si4 0.234927 0.678484 0.910753
Si Si5 0.461425 0.178446 0.845893
Si Si6 0.899622 0.178500 0.049756
Si Si7 0.053897 0.678225 0.757303
Si Si8 0.572062 0.178112 0.572290
O O1 0.686298 0.232149 0.402807
O O2 0.637954 0.238529 0.469681
O O3 0.059460 0.236471 0.579651
O O4 0.806398 0.000000 0.487865
O O5 0.656727 0.500000 0.829286
O O6 0.512113 0.268247 0.736210
O O7 0.502459 0.261928 0.815745
O O8 0.900279 0.255006 0.910196
O O9 0.659180 0.000000 0.339068
O O10 0.222308 0.500000 0.915811
O O11 0.095863 0.763810 0.900474
O O12 0.113860 0.724109 0.825771
O O13 0.500000 0.735256 0.000000
O O14 0.214154 0.228874 0.779577
O O15 0.459303 0.000000 0.836184
O O16 0.656598 0.224976 0.946090
O O17 0.941886 0.000000 0.063496
O O18 0.094423 0.500000 0.763688
O O19 0.792011 0.722389 0.659007
O O20 0.500000 0.211164 0.500000
O O21 0.624918 0.000000 0.597876
#
# Coordination Sequence:
#
# PCOD8066822 Si02
#       8
#     4   4   4   4   4   4   4   4
#     4   8  17  36  61  87 117 155 201 251 305 355
#     4  12  26  40  60  91 126 162 201 249 312 373
#     4   9  18  37  63  87 114 156 205 253 300 358
#     4  10  21  40  64  91 129 170 204 248 310 375
#     4  11  24  43  65  89 120 160 209 258 304 361
#     4  11  24  41  64  92 122 160 210 260 301 353
#     4  11  24  41  63  93 128 168 208 252 312 374
#     4  10  22  39  61  91 125 164 208 256 311 368
#
# _framework density 20.029806000000001
#
# number of rings (size 3 to 8) (size 9 to 14) (size 15 to 20)
#    0.000    1.750    1.250    3.375    3.500    4.500 
#    0.000    1.875    0.000    0.000    0.000    0.000 
#    0.000    0.000    0.000    0.000    0.000    0.000 
#
# Total GULP energy -396951.144509 kJ/mol
# GULP energy per Si atom -12404.723266 kJ/mol
# Density = 1.998422 g / cm^3
# Si number density = 20.029806 Si / 1000 Ang^3
#
#
#
# Elastic Constant Matrix: (Units=GPa)
#
#
# Indices 1 2 3 4 5 6 
#
# 1 124.9575 23.8232 32.6262 0.0000 1.2784 0.0000
# 2 23.8232 61.1600 28.3073 0.0000 -3.8790 0.0000
# 3 32.6262 28.3073 87.3655 0.0000 -0.3381 0.0000
# 4 0.0000 0.0000 0.0000 25.9065 0.0000 5.3763
# 5 1.2784 -3.8790 -0.3381 0.0000 30.4855 0.0000
# 6 0.0000 0.0000 0.0000 5.3763 0.0000 26.8084
#
#
#
# Elastic Compliance Matrix: (Units=1/GPa)
#
#
# Indices 1 2 3 4 5 6 
#
# 1 0.009157 -0.002386 -0.002649 0.000000 -0.000717 0.000000
# 2 -0.002386 0.020031 -0.005589 0.000000 0.002587 0.000000
# 3 -0.002649 -0.005589 0.014245 0.000000 -0.000442 0.000000
# 4 0.000000 0.000000 0.000000 0.040277 0.000000 -0.008077
# 5 -0.000717 0.002587 -0.000442 0.000000 0.033157 0.000000
# 6 0.000000 0.000000 0.000000 -0.008077 0.000000 0.038922
#
#
# Mechanical properties :
#
#
# Convention : Reuss Voigt Hill
#
# Bulk Modulus (GPa) = 45.07849 49.22183 47.15016
# Shear Modulus (GPa) = 27.11047 29.22183 28.16615
#
# Velocity S-wave (km/s) = 3.68299 3.82372 3.75402
# Velocity P-wave (km/s) = 6.37499 6.64245 6.51009
#
# Compressibility (1/GPa) = 0.02218353
#
# Stress axis : x y z
#
# Youngs Moduli (GPa) = 109.21020 49.92280 70.20144
#
# Poissons Ratio (x) = 0.11912 0.18598
# Poissons Ratio (y) = 0.26058 0.39237
# Poissons Ratio (z) = 0.28932 0.27903
#
# Static dielectric constant tensor:
#      x y z
#    x 4.051460 0.000000 0.051660 
#    y 0.000000 3.422440 0.000000 
#    z 0.051660 0.000000 3.698560 
# 
# 
# High freq. dielectric constant tensor:
#      x y z
#    x 1.795570 0.000000 0.000310 
#    y 0.000000 1.766020 0.000000 
#    z 0.000310 0.000000 1.788260 
# 
# From -- ./inp_files/95059.got.cif
#   From: 2010.06.25/outbox.cif.g09.slc.cpg/sg10_48_cif.got.tgz:95059.got - 2010.06.27 22:07:45.
