data_PCOD8066561
_publ_section_title
;
Structure prediction by ZEFSAII (Michael W. Deem and Ramdas Pophale) SiO2 
 PCOD8066561
Probable space group: P 2/M
;
_chemical_formula_sum "Si O2"
_cell_formula_units_Z 24
_cell_length_a 23.349029
_cell_length_b 10.968132
_cell_length_c 5.195023
_cell_angle_alpha 90.000000
_cell_angle_beta 125.257792
_cell_angle_gamma 90.000000
_cell_volume 1086.372331
_symmetry_space_group_name_H-M "P 2/M"
_symmetry_group_IT_number 10
_symmetry_cell_setting 'monoclinic'
loop_
_space_group_symop_operation_xyz
x,y,z
-x,y,-z
-x,-y,-z
x,-y,z
loop_
_atom_site_type_symbol
_atom_site_label
_atom_site_fract_x
_atom_site_fract_y
_atom_site_fract_z
Si Si1 0.638350 0.635863 0.427320
Si Si2 0.455900 0.214122 0.124103
Si Si3 0.032883 0.862462 0.335392
Si Si4 0.662441 0.865731 0.857907
Si Si5 0.184585 0.782139 0.711553
Si Si6 0.206635 0.364052 0.284140
O O1 0.630287 0.500000 0.534851
O O2 0.638443 0.748287 0.629639
O O3 0.709806 0.638394 0.449636
O O4 0.573493 0.657071 0.063633
O O5 0.500000 0.234551 0.500000
O O6 0.387377 0.133175 0.017118
O O7 0.500000 0.152820 0.000000
O O8 0.117206 0.868105 0.557661
O O9 0.000000 0.794936 0.500000
O O10 0.003951 0.000000 0.260788
O O11 0.000000 0.795486 0.000000
O O12 0.652330 0.000000 0.698659
O O13 0.744151 0.857987 0.149179
O O14 0.169639 0.694872 0.432434
O O15 0.188777 0.704912 0.979117
O O16 0.177749 0.500000 0.180571
#
# Coordination Sequence:
#
# PCOD8066561 Si02
#       6
#     4   4   4   4   4   4
#     4  10  23  45  69  97 131 171 222 277 336 395
#     4  12  25  46  64  98 131 175 216 277 338 394
#     4  10  21  38  61  93 130 166 203 252 320 390
#     4  11  25  45  69 100 132 170 225 277 329 393
#     4  11  21  40  66  96 125 168 212 265 318 376
#     4  10  21  38  65  94 126 164 215 268 319 378
#
# _framework density 22.091874000000001
#
# number of rings (size 3 to 8) (size 9 to 14) (size 15 to 20)
#    0.000    1.333    3.333    2.000    0.000    3.333 
#    0.000    1.667    0.000   10.000    0.000    0.000 
#    0.000    0.000    0.000    0.000    0.000    0.000 
#
# Total GULP energy -297335.306031 kJ/mol
# GULP energy per Si atom -12388.971085 kJ/mol
# Density = 2.204159 g / cm^3
# Si number density = 22.091874 Si / 1000 Ang^3
#
#
#
# Elastic Constant Matrix: (Units=GPa)
#
#
# Indices 1 2 3 4 5 6 
#
# 1 152.3588 39.4616 64.9770 0.0000 -5.9528 0.0000
# 2 39.4616 130.2389 28.7784 0.0000 -10.7715 0.0000
# 3 64.9770 28.7784 145.8236 0.0000 -3.3688 0.0000
# 4 0.0000 0.0000 0.0000 20.5789 0.0000 -0.9892
# 5 -5.9528 -10.7715 -3.3688 0.0000 48.7342 0.0000
# 6 0.0000 0.0000 0.0000 -0.9892 0.0000 13.3405
#
#
#
# Elastic Compliance Matrix: (Units=1/GPa)
#
#
# Indices 1 2 3 4 5 6 
#
# 1 0.008503 -0.001786 -0.003427 0.000000 0.000407 0.000000
# 2 -0.001786 0.008541 -0.000853 0.000000 0.001611 0.000000
# 3 -0.003427 -0.000853 0.008553 0.000000 -0.000016 0.000000
# 4 0.000000 0.000000 0.000000 0.048767 0.000000 0.003616
# 5 0.000407 0.001611 -0.000016 0.000000 0.020924 0.000000
# 6 0.000000 0.000000 0.000000 0.003616 0.000000 0.075228
#
#
# Mechanical properties :
#
#
# Convention : Reuss Voigt Hill
#
# Bulk Modulus (GPa) = 74.26132 77.20614 75.73373
# Shear Modulus (GPa) = 26.71859 36.21102 31.46480
#
# Velocity S-wave (km/s) = 3.48146 4.05298 3.77805
# Velocity P-wave (km/s) = 7.06035 7.54492 7.30665
#
# Compressibility (1/GPa) = 0.01346596
#
# Stress axis : x y z
#
# Youngs Moduli (GPa) = 117.59935 117.08459 116.92277
#
# Poissons Ratio (x) = 0.20906 0.40072
# Poissons Ratio (y) = 0.20998 0.09970
# Poissons Ratio (z) = 0.40304 0.09984
#
# Static dielectric constant tensor:
#      x y z
#    x 4.282890 0.000000 -0.025940 
#    y 0.000000 3.777180 0.000000 
#    z -0.025940 0.000000 3.988140 
# 
# 
# High freq. dielectric constant tensor:
#      x y z
#    x 1.879850 0.000000 -0.000330 
#    y 0.000000 1.842720 0.000000 
#    z -0.000330 0.000000 1.865340 
# 
# From -- ./inp_files/13214.got.cif
#   From: 2010.06.25/outbox.cif.g09.slc.cpg/sg10_7_cif.got.tgz:13214.got - 2010.06.27 22:07:45.
