data_PCOD8066699
_publ_section_title
;
Structure prediction by ZEFSAII (Michael W. Deem and Ramdas Pophale) SiO2 
 PCOD8066699
Probable space group: P 2/M
;
_chemical_formula_sum "Si O2"
_cell_formula_units_Z 20
_cell_length_a 13.277926
_cell_length_b 13.562719
_cell_length_c 5.081190
_cell_angle_alpha 90.000000
_cell_angle_beta 76.366990
_cell_angle_gamma 90.000000
_cell_volume 889.263922
_symmetry_space_group_name_H-M "P 2/M"
_symmetry_group_IT_number 10
_symmetry_cell_setting 'monoclinic'
loop_
_space_group_symop_operation_xyz
x,y,z
-x,y,-z
-x,-y,-z
x,-y,z
loop_
_atom_site_type_symbol
_atom_site_label
_atom_site_fract_x
_atom_site_fract_y
_atom_site_fract_z
Si Si1 0.791606 0.615665 0.184070
Si Si2 0.559779 0.383076 0.212382
Si Si3 0.881004 0.713132 0.643927
Si Si4 0.386452 0.886531 0.551939
Si Si5 0.258053 0.113752 0.118512
O O1 0.795364 0.500000 0.244237
O O2 0.678863 0.650654 0.151660
O O3 0.816404 0.671540 0.438627
O O4 0.871344 0.640883 0.901219
O O5 0.500000 0.341212 0.500000
O O6 0.553993 0.500000 0.204162
O O7 0.500000 0.337028 0.000000
O O8 0.841999 0.821795 0.747365
O O9 0.000000 0.721903 0.500000
O O10 0.500000 0.835871 0.500000
O O11 0.345410 0.872662 0.284733
O O12 0.398280 0.000000 0.626567
O O13 0.306220 0.843251 0.817324
O O14 0.221379 0.000000 0.119231
#
# Coordination Sequence:
#
# PCOD8066699 Si02
#       5
#     4   4   4   4   4
#     4  11  24  43  66  92 124 161 203 254 312 370
#     4   9  17  33  59  88 119 154 188 231 293 362
#     4  12  26  43  63  89 121 160 214 268 308 356
#     4   9  17  33  60  91 124 161 196 239 300 367
#     4  10  21  39  62  89 124 162 201 248 304 365
#
# _framework density 22.490511000000001
#
# number of rings (size 3 to 8) (size 9 to 14) (size 15 to 20)
#    0.000    1.800    0.000    4.200    0.000    8.400 
#    0.000   10.000    0.000    6.000    0.000    0.000 
#    0.000    0.000    0.000    0.000    0.000    0.000 
#
# Total GULP energy -248050.210778 kJ/mol
# GULP energy per Si atom -12402.510539 kJ/mol
# Density = 2.243932 g / cm^3
# Si number density = 22.490511 Si / 1000 Ang^3
#
#
#
# Elastic Constant Matrix: (Units=GPa)
#
#
# Indices 1 2 3 4 5 6 
#
# 1 95.4633 35.8912 31.2839 0.0000 -20.9390 0.0000
# 2 35.8912 84.8379 26.0010 0.0000 -1.5976 0.0000
# 3 31.2839 26.0010 145.0507 0.0000 -3.7922 0.0000
# 4 0.0000 0.0000 0.0000 39.1277 0.0000 -9.3685
# 5 -20.9390 -1.5976 -3.7922 0.0000 49.0222 0.0000
# 6 0.0000 0.0000 0.0000 -9.3685 0.0000 28.1730
#
#
#
# Elastic Compliance Matrix: (Units=1/GPa)
#
#
# Indices 1 2 3 4 5 6 
#
# 1 0.014433 -0.005385 -0.001995 0.000000 0.005835 0.000000
# 2 -0.005385 0.014484 -0.001486 0.000000 -0.001943 0.000000
# 3 -0.001995 -0.001486 0.007583 0.000000 -0.000314 0.000000
# 4 0.000000 0.000000 0.000000 0.027768 0.000000 0.009234
# 5 0.005835 -0.001943 -0.000314 0.000000 0.022804 0.000000
# 6 0.000000 0.000000 0.000000 0.009234 0.000000 0.038566
#
#
# Mechanical properties :
#
#
# Convention : Reuss Voigt Hill
#
# Bulk Modulus (GPa) = 53.28034 56.85600 55.06817
# Shear Modulus (GPa) = 33.41684 38.74296 36.07990
#
# Velocity S-wave (km/s) = 3.85881 4.15497 4.00963
# Velocity P-wave (km/s) = 6.60269 6.95365 6.78044
#
# Compressibility (1/GPa) = 0.01876865
#
# Stress axis : x y z
#
# Youngs Moduli (GPa) = 69.28345 69.04160 131.88155
#
# Poissons Ratio (x) = 0.37178 0.26312
# Poissons Ratio (y) = 0.37308 0.19594
# Poissons Ratio (z) = 0.13823 0.10258
#
# Static dielectric constant tensor:
#      x y z
#    x 3.858300 0.000000 -0.001660 
#    y 0.000000 4.022140 0.000000 
#    z -0.001660 0.000000 4.274020 
# 
# 
# High freq. dielectric constant tensor:
#      x y z
#    x 1.869520 0.000000 0.001140 
#    y 0.000000 1.895820 0.000000 
#    z 0.001140 0.000000 1.903680 
# 
# From -- ./inp_files/6719.got.cif
#   From: 2010.06.25/outbox.cif.g09.slc.cpg/sg10_4_cif.got.tgz:6719.got - 2010.06.27 22:07:45.
