data_PCOD8066948
_publ_section_title
;
Structure prediction by ZEFSAII (Michael W. Deem and Ramdas Pophale) SiO2 
 PCOD8066948
Probable space group: P 2/M
;
_chemical_formula_sum "Si O2"
_cell_formula_units_Z 32
_cell_length_a 12.341521
_cell_length_b 18.237332
_cell_length_c 19.049213
_cell_angle_alpha 90.000000
_cell_angle_beta 151.346356
_cell_angle_gamma 90.000000
_cell_volume 2055.928578
_symmetry_space_group_name_H-M "P 2/M"
_symmetry_group_IT_number 10
_symmetry_cell_setting 'monoclinic'
loop_
_space_group_symop_operation_xyz
x,y,z
-x,y,-z
-x,-y,-z
x,-y,z
loop_
_atom_site_type_symbol
_atom_site_label
_atom_site_fract_x
_atom_site_fract_y
_atom_site_fract_z
Si Si1 0.820236 0.285723 0.803586
Si Si2 0.312126 0.714500 0.121200
Si Si3 0.071188 0.085828 0.667863
Si Si4 0.856293 0.084673 0.129002
Si Si5 0.559732 0.915010 0.347204
Si Si6 0.523324 0.151420 0.179490
Si Si7 0.930372 0.580765 0.041139
Si Si8 0.315230 0.147628 0.337770
O O1 0.647365 0.283812 0.771591
O O2 0.726980 0.235795 0.686924
O O3 0.869309 0.370812 0.807519
O O4 0.063063 0.251356 0.964658
O O5 0.500521 0.762496 0.187816
O O6 0.303473 0.628910 0.088827
O O7 0.128345 0.104052 0.780464
O O8 0.227101 0.135931 0.707252
O O9 0.817144 0.109998 0.506091
O O10 0.111659 0.000000 0.673669
O O11 0.092968 0.101724 0.227352
O O12 0.796199 0.000000 0.083605
O O13 0.656711 0.132302 0.982720
O O14 0.478715 0.897806 0.222657
O O15 0.395870 0.872459 0.306151
O O16 0.534500 0.000000 0.349215
O O17 0.901702 0.500000 0.059399
O O18 0.000000 0.573318 0.000000
O O19 0.500000 0.126209 0.500000
#
# Coordination Sequence:
#
# PCOD8066948 Si02
#       8
#     4   4   4   4   4   4   4   4
#     4   8  15  29  42  68  96 119 143 184 232 275
#     4   8  15  26  46  68  96 118 141 187 235 269
#     4  10  22  38  48  62  91 128 168 205 244 284
#     4  11  22  34  49  68  88 121 164 207 252 284
#     4  11  23  35  50  68  88 126 167 206 251 288
#     4  12  20  33  51  69  95 121 157 207 244 279
#     4   7  11  22  44  71  99 124 141 174 228 286
#     4  12  21  33  50  65  93 128 158 199 248 296
#
# _framework density 15.564743
#
# number of rings (size 3 to 8) (size 9 to 14) (size 15 to 20)
#    0.750    1.375    3.750    2.250    0.000    3.000 
#    0.000    1.250    0.000    0.375    0.000    0.000 
#    0.000   11.000    0.000    0.000    0.000    0.000 
#
# Total GULP energy -396451.433640 kJ/mol
# GULP energy per Si atom -12389.107301 kJ/mol
# Density = 1.552932 g / cm^3
# Si number density = 15.564743 Si / 1000 Ang^3
#
#
#
# Elastic Constant Matrix: (Units=GPa)
#
#
# Indices 1 2 3 4 5 6 
#
# 1 68.7381 25.5605 2.4580 0.0000 4.9592 0.0000
# 2 25.5605 86.1097 3.1631 0.0000 4.2709 0.0000
# 3 2.4580 3.1631 23.2846 0.0000 -5.9108 0.0000
# 4 0.0000 0.0000 0.0000 12.5620 0.0000 2.1780
# 5 4.9592 4.2709 -5.9108 0.0000 21.0668 0.0000
# 6 0.0000 0.0000 0.0000 2.1780 0.0000 16.5621
#
#
#
# Elastic Compliance Matrix: (Units=1/GPa)
#
#
# Indices 1 2 3 4 5 6 
#
# 1 0.016616 -0.004683 -0.002013 0.000000 -0.003527 0.000000
# 2 -0.004683 0.013173 -0.001823 0.000000 -0.002080 0.000000
# 3 -0.002013 -0.001823 0.046966 0.000000 0.014021 0.000000
# 4 0.000000 0.000000 0.000000 0.081463 0.000000 -0.010713
# 5 -0.003527 -0.002080 0.014021 0.000000 0.052654 0.000000
# 6 0.000000 0.000000 0.000000 -0.010713 0.000000 0.061788
#
#
# Mechanical properties :
#
#
# Convention : Reuss Voigt Hill
#
# Bulk Modulus (GPa) = 16.74579 26.72173 21.73376
# Shear Modulus (GPa) = 16.14965 19.83490 17.99228
#
# Velocity S-wave (km/s) = 3.22464 3.57367 3.40363
# Velocity P-wave (km/s) = 4.96453 5.85095 5.42587
#
# Compressibility (1/GPa) = 0.05971652
#
# Stress axis : x y z
#
# Youngs Moduli (GPa) = 60.18322 75.91052 21.29189
#
# Poissons Ratio (x) = 0.35552 0.04286
# Poissons Ratio (y) = 0.28186 0.03882
# Poissons Ratio (z) = 0.12115 0.13839
#
# Static dielectric constant tensor:
#      x y z
#    x 2.861740 0.000000 -0.016560 
#    y 0.000000 3.111390 0.000000 
#    z -0.016560 0.000000 2.857400 
# 
# 
# High freq. dielectric constant tensor:
#      x y z
#    x 1.583050 0.000000 -0.004130 
#    y 0.000000 1.577330 0.000000 
#    z -0.004130 0.000000 1.580920 
# 
# From -- ./inp_files/77203.got.cif
#   From: 2010.06.25/outbox.cif.g09.slc.cpg/sg10_39_cif.got.tgz:77203.got - 2010.06.27 22:07:45.
