data_PCOD8066895
_publ_section_title
;
Structure prediction by ZEFSAII (Michael W. Deem and Ramdas Pophale) SiO2 
 PCOD8066895
Probable space group: P 2/M
;
_chemical_formula_sum "Si O2"
_cell_formula_units_Z 20
_cell_length_a 13.996510
_cell_length_b 11.639852
_cell_length_c 11.269646
_cell_angle_alpha 90.000000
_cell_angle_beta 147.691021
_cell_angle_gamma 90.000000
_cell_volume 981.324983
_symmetry_space_group_name_H-M "P 2/M"
_symmetry_group_IT_number 10
_symmetry_cell_setting 'monoclinic'
loop_
_space_group_symop_operation_xyz
x,y,z
-x,y,-z
-x,-y,-z
x,-y,z
loop_
_atom_site_type_symbol
_atom_site_label
_atom_site_fract_x
_atom_site_fract_y
_atom_site_fract_z
Si Si1 0.709364 0.632493 0.712569
Si Si2 0.873070 0.366628 0.138847
Si Si3 0.733364 0.000000 0.145175
Si Si4 0.788180 0.758707 0.564778
Si Si5 0.433502 0.757979 0.057756
Si Si6 0.116185 0.000000 0.433396
O O1 0.500000 0.656467 0.500000
O O2 0.747257 0.500000 0.715387
O O3 0.800843 0.717875 0.714322
O O4 0.798551 0.662463 0.930753
O O5 0.887880 0.500000 0.178707
O O6 0.067774 0.311461 0.361417
O O7 0.742498 0.314324 0.099554
O O8 0.777005 0.000000 0.330769
O O9 0.906688 0.000000 0.243426
O O10 0.611593 0.107828 0.985798
O O11 0.588891 0.728997 0.313720
O O12 0.831856 0.892444 0.593807
O O13 0.500000 0.718241 0.000000
#
# Coordination Sequence:
#
# PCOD8066895 Si02
#       6
#     4   4   2   4   4   2
#     4  10  21  42  70  95 127 176 221 261 321 391
#     4  11  25  44  66  96 134 175 219 266 322 389
#     4  11  22  45  67  93 130 177 221 265 317 401
#     4  12  23  41  68 100 128 172 218 271 320 386
#     4  12  24  41  69  97 130 172 221 269 323 384
#     4  11  23  40  72  95 128 173 222 264 330 386
#
# _framework density 20.380609
#
# number of rings (size 3 to 8) (size 9 to 14) (size 15 to 20)
#    0.000    0.800    6.000    2.100    0.000    3.600 
#    0.000    4.500    0.000    0.000    0.000    0.000 
#    0.000    0.000    0.000    0.000    0.000    0.000 
#
# Total GULP energy -248106.936911 kJ/mol
# GULP energy per Si atom -12405.346846 kJ/mol
# Density = 2.033422 g / cm^3
# Si number density = 20.380609 Si / 1000 Ang^3
#
#
#
# Elastic Constant Matrix: (Units=GPa)
#
#
# Indices 1 2 3 4 5 6 
#
# 1 117.8596 61.2950 20.0231 0.0000 15.5366 0.0000
# 2 61.2950 124.3020 28.9722 0.0000 3.8945 0.0000
# 3 20.0231 28.9722 75.4279 0.0000 20.0184 0.0000
# 4 0.0000 0.0000 0.0000 35.6385 0.0000 26.1952
# 5 15.5366 3.8945 20.0184 0.0000 34.3069 0.0000
# 6 0.0000 0.0000 0.0000 26.1952 0.0000 90.2047
#
#
#
# Elastic Compliance Matrix: (Units=1/GPa)
#
#
# Indices 1 2 3 4 5 6 
#
# 1 0.012173 -0.005936 0.000394 0.000000 -0.005069 0.000000
# 2 -0.005936 0.011769 -0.003909 0.000000 0.003633 0.000000
# 3 0.000394 -0.003909 0.017257 0.000000 -0.009804 0.000000
# 4 0.000000 0.000000 0.000000 0.035674 0.000000 -0.010360
# 5 -0.005069 0.003633 -0.009804 0.000000 0.036752 0.000000
# 6 0.000000 0.000000 0.000000 -0.010360 0.000000 0.014094
#
#
# Mechanical properties :
#
#
# Convention : Reuss Voigt Hill
#
# Bulk Modulus (GPa) = 44.84983 59.79667 52.32325
# Shear Modulus (GPa) = 32.45619 45.84995 39.15307
#
# Velocity S-wave (km/s) = 3.99495 4.74823 4.38778
# Velocity P-wave (km/s) = 6.58281 7.71133 7.16931
#
# Compressibility (1/GPa) = 0.02229663
#
# Stress axis : x y z
#
# Youngs Moduli (GPa) = 82.15014 84.96805 57.94868
#
# Poissons Ratio (x) = 0.50433 -0.02281
# Poissons Ratio (y) = 0.48761 0.22653
# Poissons Ratio (z) = -0.03234 0.33215
#
# Static dielectric constant tensor:
#      x y z
#    x 3.776870 0.000000 0.231450 
#    y 0.000000 3.698920 0.000000 
#    z 0.231450 0.000000 3.800960 
# 
# 
# High freq. dielectric constant tensor:
#      x y z
#    x 1.806530 0.000000 0.022210 
#    y 0.000000 1.794580 0.000000 
#    z 0.022210 0.000000 1.804080 
# 
# From -- ./inp_files/50988.got.cif
#   From: 2010.06.25/outbox.cif.g09.slc.cpg/sg10_26_cif.got.tgz:50988.got - 2010.06.27 22:07:45.
