data_PCOD8066593
_publ_section_title
;
Structure prediction by ZEFSAII (Michael W. Deem and Ramdas Pophale) SiO2 
 PCOD8066593
Probable space group: P 2/M
;
_chemical_formula_sum "Si O2"
_cell_formula_units_Z 20
_cell_length_a 14.645310
_cell_length_b 15.886353
_cell_length_c 9.740797
_cell_angle_alpha 90.000000
_cell_angle_beta 24.921718
_cell_angle_gamma 90.000000
_cell_volume 954.972301
_symmetry_space_group_name_H-M "P 2/M"
_symmetry_group_IT_number 10
_symmetry_cell_setting 'monoclinic'
loop_
_space_group_symop_operation_xyz
x,y,z
-x,y,-z
-x,-y,-z
x,-y,z
loop_
_atom_site_type_symbol
_atom_site_label
_atom_site_fract_x
_atom_site_fract_y
_atom_site_fract_z
Si Si1 0.297014 0.290255 0.369343
Si Si2 0.388859 0.000000 0.302259
Si Si3 0.831654 0.000000 0.851569
Si Si4 0.958823 0.137787 0.257487
Si Si5 0.309402 0.748748 0.667111
Si Si6 0.061445 0.591939 0.072789
O O1 0.369383 0.267149 0.426730
O O2 0.164976 0.210444 0.487033
O O3 0.150267 0.373591 0.559821
O O4 0.500000 0.310135 0.000000
O O5 0.233605 0.079818 0.542383
O O6 0.500000 0.000000 0.000000
O O7 0.581163 0.000000 0.150126
O O8 0.877463 0.915850 0.873936
O O9 0.000000 0.000000 0.500000
O O10 0.106813 0.186225 0.943080
O O11 0.500000 0.787855 0.500000
O O12 0.251717 0.660704 0.822877
O O13 0.129242 0.500000 0.041093
O O14 0.000000 0.581310 0.000000
#
# Coordination Sequence:
#
# PCOD8066593 Si02
#       6
#     4   2   2   4   4   4
#     4  10  21  38  63  88 120 166 204 254 307 358
#     4  11  21  40  61  90 129 159 198 262 318 363
#     4  11  23  38  61  96 122 158 207 260 312 363
#     4  10  22  39  61  88 119 163 203 250 304 376
#     4  10  22  39  61  91 125 162 208 250 305 371
#     4   8  16  35  60  88 124 162 202 247 303 368
#
# _framework density 20.943016
#
# number of rings (size 3 to 8) (size 9 to 14) (size 15 to 20)
#    0.000    2.200    2.000    2.400    2.800    0.800 
#    0.000   13.000    0.000    1.200    0.000    0.000 
#    0.000    0.000    0.000    0.000    0.000    0.000 
#
# Total GULP energy -247789.840931 kJ/mol
# GULP energy per Si atom -12389.492047 kJ/mol
# Density = 2.089535 g / cm^3
# Si number density = 20.943016 Si / 1000 Ang^3
#
#
#
# Elastic Constant Matrix: (Units=GPa)
#
#
# Indices 1 2 3 4 5 6 
#
# 1 85.1797 30.6895 45.1622 0.0000 -17.7723 0.0000
# 2 30.6895 152.2247 60.9950 0.0000 -4.5900 0.0000
# 3 45.1622 60.9950 146.5979 0.0000 1.9754 0.0000
# 4 0.0000 0.0000 0.0000 18.2138 0.0000 -4.6000
# 5 -17.7723 -4.5900 1.9754 0.0000 43.3607 0.0000
# 6 0.0000 0.0000 0.0000 -4.6000 0.0000 17.9598
#
#
#
# Elastic Compliance Matrix: (Units=1/GPa)
#
#
# Indices 1 2 3 4 5 6 
#
# 1 0.015939 -0.001213 -0.004495 0.000000 0.006609 0.000000
# 2 -0.001213 0.008018 -0.002969 0.000000 0.000487 0.000000
# 3 -0.004495 -0.002969 0.009476 0.000000 -0.002588 0.000000
# 4 0.000000 0.000000 0.000000 0.058701 0.000000 0.015035
# 5 0.006609 0.000487 -0.002588 0.000000 0.025941 0.000000
# 6 0.000000 0.000000 0.000000 0.015035 0.000000 0.059531
#
#
# Mechanical properties :
#
#
# Convention : Reuss Voigt Hill
#
# Bulk Modulus (GPa) = 62.18940 73.07732 67.63336
# Shear Modulus (GPa) = 24.96022 32.38391 28.67206
#
# Velocity S-wave (km/s) = 3.45601 3.93655 3.70408
# Velocity P-wave (km/s) = 6.75902 7.45862 7.11743
#
# Compressibility (1/GPa) = 0.01607991
#
# Stress axis : x y z
#
# Youngs Moduli (GPa) = 62.73917 124.71763 105.52774
#
# Poissons Ratio (x) = 0.15130 0.47431
# Poissons Ratio (y) = 0.07611 0.31330
# Poissons Ratio (z) = 0.28199 0.37028
#
# Static dielectric constant tensor:
#      x y z
#    x 3.849230 0.000000 -0.287470 
#    y 0.000000 4.685300 0.000000 
#    z -0.287470 0.000000 3.844320 
# 
# 
# High freq. dielectric constant tensor:
#      x y z
#    x 1.787650 0.000000 -0.010030 
#    y 0.000000 1.832850 0.000000 
#    z -0.010030 0.000000 1.823560 
# 
# From -- ./inp_files/53874.got.cif
#   From: 2010.06.25/outbox.cif.g09.slc.cpg/sg10_27_cif.got.tgz:53874.got - 2010.06.27 22:07:45.
