data_PCOD8066025
_publ_section_title
;
Structure prediction by ZEFSAII (Michael W. Deem and Ramdas Pophale) SiO2 
 PCOD8066025
Probable space group: P 2/M
;
_chemical_formula_sum "Si O2"
_cell_formula_units_Z 32
_cell_length_a 15.093265
_cell_length_b 12.634608
_cell_length_c 17.915884
_cell_angle_alpha 90.000000
_cell_angle_beta 147.990080
_cell_angle_gamma 90.000000
_cell_volume 1810.978226
_symmetry_space_group_name_H-M "P 2/M"
_symmetry_group_IT_number 10
_symmetry_cell_setting 'monoclinic'
loop_
_space_group_symop_operation_xyz
x,y,z
-x,y,-z
-x,-y,-z
x,-y,z
loop_
_atom_site_type_symbol
_atom_site_label
_atom_site_fract_x
_atom_site_fract_y
_atom_site_fract_z
Si Si1 0.929772 0.241360 0.770100
Si Si2 0.167044 0.875938 0.832825
Si Si3 0.339657 0.877571 0.338901
Si Si4 0.625094 0.378310 0.519675
Si Si5 0.420308 0.257712 0.261803
Si Si6 0.884911 0.382361 0.989616
Si Si7 0.163329 0.874977 0.659646
Si Si8 0.488112 0.875957 0.163340
O O1 0.828436 0.145807 0.735645
O O2 0.810907 0.342418 0.673332
O O3 0.016570 0.192325 0.759722
O O4 0.074236 0.287118 0.925448
O O5 0.174271 0.836261 0.752841
O O6 0.122897 0.000000 0.807015
O O7 0.343284 0.853082 0.999410
O O8 0.500000 0.835381 0.500000
O O9 0.325380 0.822588 0.248827
O O10 0.357611 0.000000 0.336080
O O11 0.500000 0.361393 0.500000
O O12 0.629188 0.500000 0.498497
O O13 0.582414 0.304620 0.418443
O O14 0.465004 0.195068 0.219473
O O15 0.306216 0.360892 0.168407
O O16 0.898003 0.500000 0.034412
O O17 0.000000 0.375238 0.000000
O O18 0.334333 0.838890 0.742609
O O19 0.000000 0.827485 0.500000
O O20 0.150833 0.000000 0.649603
O O21 0.489177 0.000000 0.186048
#
# Coordination Sequence:
#
# PCOD8066025 Si02
#       8
#     4   4   4   4   4   4   4   4
#     4  12  20  37  53  82 109 147 186 226 277 331
#     4  10  21  36  55  81 117 152 180 217 270 334
#     4  11  22  35  50  75 113 153 187 221 270 327
#     4  11  22  38  58  77 106 147 195 244 283 319
#     4  12  20  37  53  82 109 147 186 226 277 331
#     4  11  22  36  56  79 110 145 187 240 279 315
#     4   9  19  35  57  85 110 141 186 229 264 313
#     4  10  21  36  55  81 117 152 180 217 270 334
#
# _framework density 17.670007999999999
#
# number of rings (size 3 to 8) (size 9 to 14) (size 15 to 20)
#    0.000    1.250    5.000    1.875    1.750    3.500 
#    0.000    0.625    0.000    0.000    0.000    5.250 
#    0.000    0.000    0.000    0.000    0.000    0.000 
#
# Total GULP energy -396753.117735 kJ/mol
# GULP energy per Si atom -12398.534929 kJ/mol
# Density = 1.762979 g / cm^3
# Si number density = 17.670008 Si / 1000 Ang^3
#
#
#
# Elastic Constant Matrix: (Units=GPa)
#
#
# Indices 1 2 3 4 5 6 
#
# 1 132.0654 40.5275 50.3421 0.0000 -0.0232 0.0000
# 2 40.5275 70.5986 26.4425 0.0000 -1.9504 0.0000
# 3 50.3421 26.4425 86.1707 0.0000 -3.6014 0.0000
# 4 0.0000 0.0000 0.0000 6.6334 0.0000 -7.1151
# 5 -0.0232 -1.9504 -3.6014 0.0000 31.5789 0.0000
# 6 0.0000 0.0000 0.0000 -7.1151 0.0000 14.0006
#
#
#
# Elastic Compliance Matrix: (Units=1/GPa)
#
#
# Indices 1 2 3 4 5 6 
#
# 1 0.010822 -0.004355 -0.005021 0.000000 -0.000834 0.000000
# 2 -0.004355 0.017762 -0.002874 0.000000 0.000766 0.000000
# 3 -0.005021 -0.002874 0.015486 0.000000 0.001585 0.000000
# 4 0.000000 0.000000 0.000000 0.331393 0.000000 0.168413
# 5 -0.000834 0.000766 0.001585 0.000000 0.031894 0.000000
# 6 0.000000 0.000000 0.000000 0.168413 0.000000 0.157013
#
#
# Mechanical properties :
#
#
# Convention : Reuss Voigt Hill
#
# Bulk Modulus (GPa) = 51.09740 58.16210 54.62975
# Shear Modulus (GPa) = 8.39779 21.87742 15.13760
#
# Velocity S-wave (km/s) = 2.18240 3.52250 2.93009
# Velocity P-wave (km/s) = 5.94398 7.03784 6.51391
#
# Compressibility (1/GPa) = 0.01957047
#
# Stress axis : x y z
#
# Youngs Moduli (GPa) = 92.40219 56.29894 64.57261
#
# Poissons Ratio (x) = 0.24518 0.32422
# Poissons Ratio (y) = 0.40241 0.18560
# Poissons Ratio (z) = 0.46395 0.16182
#
# Static dielectric constant tensor:
#      x y z
#    x 3.165450 0.000000 -0.019360 
#    y 0.000000 3.138680 0.000000 
#    z -0.019360 0.000000 3.461960 
# 
# 
# High freq. dielectric constant tensor:
#      x y z
#    x 1.667900 0.000000 -0.001860 
#    y 0.000000 1.669770 0.000000 
#    z -0.001860 0.000000 1.699220 
# 
# From -- ./inp_files/29505.got.cif
#   From: 2010.06.25/outbox.cif.g09.slc.cpg/sg10_15_cif.got.tgz:29505.got - 2010.06.27 22:07:45.
