data_PCOD8066825
_publ_section_title
;
Structure prediction by ZEFSAII (Michael W. Deem and Ramdas Pophale) SiO2 
 PCOD8066825
Probable space group: P 2/M
;
_chemical_formula_sum "Si O2"
_cell_formula_units_Z 32
_cell_length_a 10.970723
_cell_length_b 9.524585
_cell_length_c 28.475814
_cell_angle_alpha 90.000000
_cell_angle_beta 28.956990
_cell_angle_gamma 90.000000
_cell_volume 1440.588784
_symmetry_space_group_name_H-M "P 2/M"
_symmetry_group_IT_number 10
_symmetry_cell_setting 'monoclinic'
loop_
_space_group_symop_operation_xyz
x,y,z
-x,y,-z
-x,-y,-z
x,-y,z
loop_
_atom_site_type_symbol
_atom_site_label
_atom_site_fract_x
_atom_site_fract_y
_atom_site_fract_z
Si Si1 0.982793 0.154884 0.249004
Si Si2 0.349647 0.245141 0.205162
Si Si3 0.578137 0.663992 0.669398
Si Si4 0.150416 0.344096 0.008841
Si Si5 0.997550 0.346667 0.400562
Si Si6 0.775806 0.339723 0.908747
Si Si7 0.709304 0.842959 0.159437
Si Si8 0.579325 0.837248 0.573416
O O1 0.690434 0.176993 0.361374
O O2 0.161354 0.165717 0.233944
O O3 0.038787 0.263938 0.189281
O O4 0.019958 0.000000 0.215155
O O5 0.182968 0.348570 0.293199
O O6 0.494525 0.141046 0.191941
O O7 0.559665 0.326309 0.104119
O O8 0.496991 0.500000 0.690857
O O9 0.848000 0.675074 0.603405
O O10 0.373656 0.745754 0.769446
O O11 0.593224 0.741400 0.614827
O O12 0.064202 0.500000 0.023041
O O13 0.120335 0.323985 0.074397
O O14 0.953572 0.232102 0.053381
O O15 0.866933 0.500000 0.446008
O O16 0.788435 0.224412 0.467137
O O17 0.759151 0.500000 0.897327
O O18 0.500000 0.269641 0.000000
O O19 0.776620 0.000000 0.154331
O O20 0.640700 0.000000 0.564545
#
# Coordination Sequence:
#
# PCOD8066825 Si02
#       8
#     4   4   4   4   4   4   4   4
#     4  11  25  43  63  91 126 167 209 254 310 372
#     4  11  24  43  64  88 122 168 215 260 308 367
#     4  10  21  41  68  96 127 162 205 257 313 372
#     4  11  23  41  66  93 125 164 207 259 314 369
#     4  10  23  42  66  94 124 162 211 262 313 370
#     4  10  21  40  64  93 123 158 203 250 304 367
#     4  11  24  40  62  94 129 164 207 256 310 374
#     4  11  24  41  64  95 129 164 206 258 316 373
#
# _framework density 22.213139000000002
#
# number of rings (size 3 to 8) (size 9 to 14) (size 15 to 20)
#    0.000    1.375    1.250    3.375    0.000   12.750 
#    0.000    1.875    0.000    0.000    0.000    0.000 
#    0.000    0.000    0.000    0.000    0.000    0.000 
#
# Total GULP energy -396731.680479 kJ/mol
# GULP energy per Si atom -12397.865015 kJ/mol
# Density = 2.216258 g / cm^3
# Si number density = 22.213139 Si / 1000 Ang^3
#
#
#
# Elastic Constant Matrix: (Units=GPa)
#
#
# Indices 1 2 3 4 5 6 
#
# 1 81.7042 36.8506 49.3922 0.0000 -7.0504 0.0000
# 2 36.8506 168.9908 75.2859 0.0000 -10.4088 0.0000
# 3 49.3922 75.2859 124.6750 0.0000 -14.5035 0.0000
# 4 0.0000 0.0000 0.0000 13.7395 0.0000 -19.2866
# 5 -7.0504 -10.4088 -14.5035 0.0000 32.3192 0.0000
# 6 0.0000 0.0000 0.0000 -19.2866 0.0000 10.5613
#
#
#
# Elastic Compliance Matrix: (Units=1/GPa)
#
#
# Indices 1 2 3 4 5 6 
#
# 1 0.016210 -0.000913 -0.005796 0.000000 0.000641 0.000000
# 2 -0.000913 0.008153 -0.004515 0.000000 0.000400 0.000000
# 3 -0.005796 -0.004515 0.013428 0.000000 0.003308 0.000000
# 4 0.000000 0.000000 0.000000 -0.046553 0.000000 -0.085014
# 5 0.000641 0.000400 0.003308 0.000000 0.032694 0.000000
# 6 0.000000 0.000000 0.000000 -0.085014 0.000000 -0.060563
#
#
# Mechanical properties :
#
#
# Convention : Reuss Voigt Hill
#
# Bulk Modulus (GPa) = 65.17535 77.60305 71.38920
# Shear Modulus (GPa) = -551.32718 25.58010 -262.87354
#
# Velocity S-wave (km/s) = -15.77141 3.39717 -10.89029
# Velocity P-wave (km/s) = 17.38521 7.09924 11.22155
#
# Compressibility (1/GPa) = 0.01534322
#
# Stress axis : x y z
#
# Youngs Moduli (GPa) = 61.68926 122.66088 74.47157
#
# Poissons Ratio (x) = 0.11202 0.43163
# Poissons Ratio (y) = 0.05634 0.33621
# Poissons Ratio (z) = 0.35755 0.55376
#
# Static dielectric constant tensor:
#      x y z
#    x 3.972090 0.000000 -0.127790 
#    y 0.000000 3.894270 0.000000 
#    z -0.127790 0.000000 4.100010 
# 
# 
# High freq. dielectric constant tensor:
#      x y z
#    x 1.873160 0.000000 -0.004630 
#    y 0.000000 1.870940 0.000000 
#    z -0.004630 0.000000 1.883000 
# 
# From -- ./inp_files/94922.got.cif
#   From: 2010.06.25/outbox.cif.g09.slc.cpg/sg10_48_cif.got.tgz:94922.got - 2010.06.27 22:07:45.
