data_PCOD8066197
_publ_section_title
;
Structure prediction by ZEFSAII (Michael W. Deem and Ramdas Pophale) SiO2 
 PCOD8066197
Probable space group: P 2/M
;
_chemical_formula_sum "Si O2"
_cell_formula_units_Z 28
_cell_length_a 9.780813
_cell_length_b 18.613538
_cell_length_c 16.254398
_cell_angle_alpha 90.000000
_cell_angle_beta 27.192627
_cell_angle_gamma 90.000000
_cell_volume 1352.306909
_symmetry_space_group_name_H-M "P 2/M"
_symmetry_group_IT_number 10
_symmetry_cell_setting 'monoclinic'
loop_
_space_group_symop_operation_xyz
x,y,z
-x,y,-z
-x,-y,-z
x,-y,z
loop_
_atom_site_type_symbol
_atom_site_label
_atom_site_fract_x
_atom_site_fract_y
_atom_site_fract_z
Si Si1 0.483212 0.919719 0.710730
Si Si2 0.377358 0.177100 0.919350
Si Si3 0.095559 0.920490 0.303118
Si Si4 0.632849 0.328573 0.016509
Si Si5 0.200104 0.875129 0.698560
Si Si6 0.842393 0.583527 0.330107
Si Si7 0.119109 0.582835 0.352931
O O1 0.354010 0.860423 0.842704
O O2 0.295075 0.920892 0.727224
O O3 0.831716 0.900853 0.508631
O O4 0.454254 0.000000 0.763963
O O5 0.637474 0.137029 0.832157
O O6 0.423364 0.262480 0.890020
O O7 0.057719 0.179317 0.136866
O O8 0.951054 0.924846 0.289846
O O9 0.224142 0.000000 0.253516
O O10 0.450220 0.393188 0.153212
O O11 0.500000 0.303988 0.000000
O O12 0.966432 0.360990 0.828069
O O13 0.500000 0.836940 0.500000
O O14 0.500000 0.601980 0.500000
O O15 0.918273 0.500000 0.268133
O O16 0.897713 0.599606 0.396353
O O17 0.149135 0.500000 0.355043
O O18 0.000000 0.621323 0.500000
#
# Coordination Sequence:
#
# PCOD8066197 Si02
#       7
#     4   4   4   4   4   4   4
#     4  10  22  40  60  82 109 142 185 240 296 342
#     4  12  23  36  56  83 113 148 189 232 280 335
#     4  10  21  38  60  83 106 139 188 242 289 336
#     4  10  21  37  56  82 117 155 190 224 273 337
#     4  10  22  39  57  79 109 144 184 232 288 347
#     4   9  18  36  63  90 115 148 191 234 273 319
#     4   9  18  35  60  88 116 148 186 227 274 328
#
# _framework density 20.705358
#
# number of rings (size 3 to 8) (size 9 to 14) (size 15 to 20)
#    0.000    2.000    0.000    3.429    0.000    9.714 
#    0.000    6.429    0.000    3.429    0.000    0.000 
#    0.000    0.000    0.000    0.000    0.000    0.000 
#
# Total GULP energy -346939.407791 kJ/mol
# GULP energy per Si atom -12390.693135 kJ/mol
# Density = 2.065823 g / cm^3
# Si number density = 20.705358 Si / 1000 Ang^3
#
#
#
# Elastic Constant Matrix: (Units=GPa)
#
#
# Indices 1 2 3 4 5 6 
#
# 1 99.8340 48.0772 51.3737 0.0000 -0.9837 0.0000
# 2 48.0772 73.5460 53.8182 0.0000 -1.3007 0.0000
# 3 51.3737 53.8182 143.2469 0.0000 -9.3382 0.0000
# 4 0.0000 0.0000 0.0000 22.8518 0.0000 5.3459
# 5 -0.9837 -1.3007 -9.3382 0.0000 37.4405 0.0000
# 6 0.0000 0.0000 0.0000 5.3459 0.0000 9.5799
#
#
#
# Elastic Compliance Matrix: (Units=1/GPa)
#
#
# Indices 1 2 3 4 5 6 
#
# 1 0.015187 -0.008175 -0.002407 0.000000 -0.000485 0.000000
# 2 -0.008175 0.023200 -0.005841 0.000000 -0.000866 0.000000
# 3 -0.002407 -0.005841 0.010187 0.000000 0.002275 0.000000
# 4 0.000000 0.000000 0.000000 0.050331 0.000000 -0.028086
# 5 -0.000485 -0.000866 0.002275 0.000000 0.027234 0.000000
# 6 0.000000 0.000000 0.000000 -0.028086 0.000000 0.120059
#
#
# Mechanical properties :
#
#
# Convention : Reuss Voigt Hill
#
# Bulk Modulus (GPa) = 63.58010 69.24057 66.41033
# Shear Modulus (GPa) = 17.58793 24.86494 21.22644
#
# Velocity S-wave (km/s) = 2.91767 3.46915 3.20530
# Velocity P-wave (km/s) = 6.49031 7.03990 6.77068
#
# Compressibility (1/GPa) = 0.01572819
#
# Stress axis : x y z
#
# Youngs Moduli (GPa) = 65.84382 43.10366 98.16624
#
# Poissons Ratio (x) = 0.35239 0.23628
# Poissons Ratio (y) = 0.53830 0.57336
# Poissons Ratio (z) = 0.15848 0.25175
#
# Static dielectric constant tensor:
#      x y z
#    x 3.795930 0.000000 0.041030 
#    y 0.000000 3.416500 0.000000 
#    z 0.041030 0.000000 3.981980 
# 
# 
# High freq. dielectric constant tensor:
#      x y z
#    x 1.809180 0.000000 -0.001550 
#    y 0.000000 1.784680 0.000000 
#    z -0.001550 0.000000 1.822250 
# 
# From -- ./inp_files/62560.got.cif
#   From: 2010.06.25/outbox.cif.g09.slc.cpg/sg10_32_cif.got.tgz:62560.got - 2010.06.27 22:07:45.
