data_PCOD8066642
_publ_section_title
;
Structure prediction by ZEFSAII (Michael W. Deem and Ramdas Pophale) SiO2 
 PCOD8066642
Probable space group: P 2/M
;
_chemical_formula_sum "Si O2"
_cell_formula_units_Z 24
_cell_length_a 12.334372
_cell_length_b 8.533543
_cell_length_c 23.760226
_cell_angle_alpha 90.000000
_cell_angle_beta 30.042022
_cell_angle_gamma 90.000000
_cell_volume 1252.040056
_symmetry_space_group_name_H-M "P 2/M"
_symmetry_group_IT_number 10
_symmetry_cell_setting 'monoclinic'
loop_
_space_group_symop_operation_xyz
x,y,z
-x,y,-z
-x,-y,-z
x,-y,z
loop_
_atom_site_type_symbol
_atom_site_label
_atom_site_fract_x
_atom_site_fract_y
_atom_site_fract_z
Si Si1 0.908505 0.182205 0.241594
Si Si2 0.378580 0.185200 0.000075
Si Si3 0.462220 0.179934 0.387442
Si Si4 0.703819 0.183504 0.760598
Si Si5 0.755340 0.682017 0.620813
Si Si6 0.135084 0.681570 0.617401
O O1 0.714711 0.212737 0.285277
O O2 0.876107 0.282782 0.311903
O O3 0.128557 0.239432 0.112094
O O4 0.922381 0.000000 0.252995
O O5 0.390629 0.000000 0.998032
O O6 0.500000 0.257345 0.000000
O O7 0.498660 0.242308 0.889498
O O8 0.389134 0.288311 0.368968
O O9 0.330260 0.219659 0.503047
O O10 0.420927 0.000000 0.389776
O O11 0.654552 0.221015 0.717832
O O12 0.913610 0.277533 0.685710
O O13 0.746765 0.000000 0.750113
O O14 0.751563 0.500000 0.637910
O O15 0.000000 0.740168 0.500000
O O16 0.185206 0.500000 0.585381
#
# Coordination Sequence:
#
# PCOD8066642 Si02
#       6
#     4   4   4   4   4   4
#     4  10  21  39  60  86 117 151 193 238 283 336
#     4   9  17  34  61  88 114 146 188 239 285 326
#     4  11  23  38  60  86 114 152 196 237 282 341
#     4  11  21  36  62  89 114 148 194 239 282 334
#     4  11  23  39  59  84 117 152 188 236 289 341
#     4  12  23  35  55  86 123 155 186 232 291 344
#
# _framework density 19.168716
#
# number of rings (size 3 to 8) (size 9 to 14) (size 15 to 20)
#    0.000    1.333    3.333    3.500    0.000    4.000 
#    0.000    3.333    0.000    5.000    0.000    0.000 
#    0.000    0.000    0.000    0.000    0.000    0.000 
#
# Total GULP energy -297708.030122 kJ/mol
# GULP energy per Si atom -12404.501255 kJ/mol
# Density = 1.912509 g / cm^3
# Si number density = 19.168716 Si / 1000 Ang^3
#
#
#
# Elastic Constant Matrix: (Units=GPa)
#
#
# Indices 1 2 3 4 5 6 
#
# 1 82.5271 29.5965 64.0467 0.0000 0.3658 0.0000
# 2 29.5965 40.3985 20.0761 0.0000 -2.7753 0.0000
# 3 64.0467 20.0761 153.3862 0.0000 -1.3104 0.0000
# 4 0.0000 0.0000 0.0000 4.8391 0.0000 4.7776
# 5 0.3658 -2.7753 -1.3104 0.0000 38.1198 0.0000
# 6 0.0000 0.0000 0.0000 4.7776 0.0000 27.5563
#
#
#
# Elastic Compliance Matrix: (Units=1/GPa)
#
#
# Indices 1 2 3 4 5 6 
#
# 1 0.022872 -0.012945 -0.007868 0.000000 -0.001432 0.000000
# 2 -0.012945 0.033927 0.000987 0.000000 0.002628 0.000000
# 3 -0.007868 0.000987 0.009680 0.000000 0.000480 0.000000
# 4 0.000000 0.000000 0.000000 0.249331 0.000000 -0.043228
# 5 -0.001432 0.002628 0.000480 0.000000 0.026455 0.000000
# 6 0.000000 0.000000 0.000000 -0.043228 0.000000 0.043784
#
#
# Mechanical properties :
#
#
# Convention : Reuss Voigt Hill
#
# Bulk Modulus (GPa) = 37.27600 55.97226 46.62413
# Shear Modulus (GPa) = 11.50370 24.94254 18.22312
#
# Velocity S-wave (km/s) = 2.45241 3.61114 3.08664
# Velocity P-wave (km/s) = 5.24477 6.83010 6.08925
#
# Compressibility (1/GPa) = 0.02682691
#
# Stress axis : x y z
#
# Youngs Moduli (GPa) = 43.72103 29.47510 103.30750
#
# Poissons Ratio (x) = 0.38155 0.81286
# Poissons Ratio (y) = 0.56596 -0.10197
# Poissons Ratio (z) = 0.34401 -0.02909
#
# Static dielectric constant tensor:
#      x y z
#    x 3.450200 0.000000 0.027930 
#    y 0.000000 3.343870 0.000000 
#    z 0.027930 0.000000 3.815230 
# 
# 
# High freq. dielectric constant tensor:
#      x y z
#    x 1.741090 0.000000 0.002320 
#    y 0.000000 1.734840 0.000000 
#    z 0.002320 0.000000 1.748810 
# 
# From -- ./inp_files/45005.got.cif
#   From: 2010.06.25/outbox.cif.g09.slc.cpg/sg10_23_cif.got.tgz:45005.got - 2010.06.27 22:07:45.
