data_PCOD8066737
_publ_section_title
;
Structure prediction by ZEFSAII (Michael W. Deem and Ramdas Pophale) SiO2 
 PCOD8066737
Probable space group: P 2/M
;
_chemical_formula_sum "Si O2"
_cell_formula_units_Z 18
_cell_length_a 5.066454
_cell_length_b 24.741997
_cell_length_c 7.416165
_cell_angle_alpha 90.000000
_cell_angle_beta 114.432027
_cell_angle_gamma 90.000000
_cell_volume 846.399853
_symmetry_space_group_name_H-M "P 2/M"
_symmetry_group_IT_number 10
_symmetry_cell_setting 'monoclinic'
loop_
_space_group_symop_operation_xyz
x,y,z
-x,y,-z
-x,-y,-z
x,-y,z
loop_
_atom_site_type_symbol
_atom_site_label
_atom_site_fract_x
_atom_site_fract_y
_atom_site_fract_z
Si Si1 0.677222 0.560193 0.868336
Si Si2 0.500000 0.271273 0.000000
Si Si3 0.165110 0.883055 0.359725
Si Si4 0.662082 0.343682 0.376410
Si Si5 0.000000 0.802836 0.000000
Si Si6 0.832481 0.000000 0.635871
O O1 0.696364 0.500000 0.787177
O O2 0.514045 0.600217 0.687493
O O3 0.500000 0.557923 0.000000
O O4 0.000000 0.582549 0.000000
O O5 0.647208 0.308401 0.191982
O O6 0.729013 0.234305 0.964226
O O7 0.500000 0.876257 0.500000
O O8 0.061918 0.838678 0.191428
O O9 0.095258 0.942471 0.248251
O O10 0.000000 0.874605 0.500000
O O11 0.500000 0.313970 0.500000
O O12 0.000000 0.355719 0.500000
O O13 0.500000 0.000000 0.500000
O O14 0.000000 0.000000 0.500000
#
# Coordination Sequence:
#
# PCOD8066737 Si02
#       6
#     4   2   4   4   2   2
#     4  10  21  40  68  98 133 167 199 256 323 380
#     4  12  28  46  61  91 130 160 222 274 310 368
#     4  10  21  39  63  92 127 161 205 257 313 381
#     4  12  26  43  70  95 124 172 215 261 322 379
#     4  12  26  41  66  90 119 172 212 264 320 366
#     4   8  16  33  58  89 124 160 194 249 314 373
#
# _framework density 21.266542999999999
#
# number of rings (size 3 to 8) (size 9 to 14) (size 15 to 20)
#    0.000    1.333    1.111    4.000    1.556    6.667 
#    0.000    0.000    0.000    9.333    0.000    0.000 
#    0.000    0.000    0.000    0.000    0.000    0.000 
#
# Total GULP energy -223102.036040 kJ/mol
# GULP energy per Si atom -12394.557558 kJ/mol
# Density = 2.121814 g / cm^3
# Si number density = 21.266543 Si / 1000 Ang^3
#
#
#
# Elastic Constant Matrix: (Units=GPa)
#
#
# Indices 1 2 3 4 5 6 
#
# 1 158.0984 37.6078 50.6354 0.0000 20.4003 0.0000
# 2 37.6078 132.8379 67.0973 0.0000 8.4075 0.0000
# 3 50.6354 67.0973 116.6094 0.0000 9.1201 0.0000
# 4 0.0000 0.0000 0.0000 6.6340 0.0000 -1.1406
# 5 20.4003 8.4075 9.1201 0.0000 41.3159 0.0000
# 6 0.0000 0.0000 0.0000 -1.1406 0.0000 36.1118
#
#
#
# Elastic Compliance Matrix: (Units=1/GPa)
#
#
# Indices 1 2 3 4 5 6 
#
# 1 0.007758 -0.000594 -0.002785 0.000000 -0.003095 0.000000
# 2 -0.000594 0.010686 -0.005844 0.000000 -0.000591 0.000000
# 3 -0.002785 -0.005844 0.013175 0.000000 -0.000344 0.000000
# 4 0.000000 0.000000 0.000000 0.151561 0.000000 0.004787
# 5 -0.003095 -0.000591 -0.000344 0.000000 0.025928 0.000000
# 6 0.000000 0.000000 0.000000 0.004787 0.000000 0.027843
#
#
# Mechanical properties :
#
#
# Convention : Reuss Voigt Hill
#
# Bulk Modulus (GPa) = 75.91989 79.80296 77.86142
# Shear Modulus (GPa) = 19.24655 33.62602 26.43629
#
# Velocity S-wave (km/s) = 3.01161 3.98071 3.52958
# Velocity P-wave (km/s) = 6.91880 7.66385 7.30084
#
# Compressibility (1/GPa) = 0.01317178
#
# Stress axis : x y z
#
# Youngs Moduli (GPa) = 128.90384 93.58443 75.90275
#
# Poissons Ratio (x) = 0.05556 0.21139
# Poissons Ratio (y) = 0.07653 0.44361
# Poissons Ratio (z) = 0.35899 0.54695
#
# Static dielectric constant tensor:
#      x y z
#    x 4.010220 0.000000 0.006780 
#    y 0.000000 4.427030 0.000000 
#    z 0.006780 0.000000 3.631180 
# 
# 
# High freq. dielectric constant tensor:
#      x y z
#    x 1.862100 0.000000 0.003610 
#    y 0.000000 1.848910 0.000000 
#    z 0.003610 0.000000 1.815720 
# 
# From -- ./inp_files/15626.got.cif
#   From: 2010.06.25/outbox.cif.g09.slc.cpg/sg10_8_cif.got.tgz:15626.got - 2010.06.27 22:07:45.
