data_PCOD8066116
_publ_section_title
;
Structure prediction by ZEFSAII (Michael W. Deem and Ramdas Pophale) SiO2 
 PCOD8066116
Probable space group: P 2/M
;
_chemical_formula_sum "Si O2"
_cell_formula_units_Z 28
_cell_length_a 28.200452
_cell_length_b 7.834332
_cell_length_c 9.759913
_cell_angle_alpha 90.000000
_cell_angle_beta 139.114054
_cell_angle_gamma 90.000000
_cell_volume 1411.400907
_symmetry_space_group_name_H-M "P 2/M"
_symmetry_group_IT_number 10
_symmetry_cell_setting 'monoclinic'
loop_
_space_group_symop_operation_xyz
x,y,z
-x,y,-z
-x,-y,-z
x,-y,z
loop_
_atom_site_type_symbol
_atom_site_label
_atom_site_fract_x
_atom_site_fract_y
_atom_site_fract_z
Si Si1 0.908536 0.000000 0.439952
Si Si2 0.714551 0.193030 0.477859
Si Si3 0.833743 0.690155 0.934700
Si Si4 0.068237 0.000000 0.830969
Si Si5 0.683855 0.201992 0.104990
Si Si6 0.478874 0.799013 0.302253
Si Si7 0.436950 0.694560 0.765488
Si Si8 0.190271 0.692185 0.805754
O O1 0.864148 0.170987 0.382314
O O2 0.925742 0.000000 0.318215
O O3 0.983664 0.000000 0.689068
O O4 0.768992 0.308313 0.683930
O O5 0.712471 0.258771 0.316816
O O6 0.634923 0.196204 0.369385
O O7 0.743141 0.000000 0.546777
O O8 0.868313 0.500000 0.007731
O O9 0.894714 0.828881 0.028146
O O10 0.801183 0.731209 0.013872
O O11 0.731341 0.291610 0.091959
O O12 0.688334 0.000000 0.095001
O O13 0.601728 0.266569 0.908527
O O14 0.500000 0.743479 0.500000
O O15 0.537180 0.706841 0.333937
O O16 0.484849 0.000000 0.292676
O O17 0.419659 0.500000 0.767490
O O18 0.500000 0.770651 0.000000
O O19 0.160131 0.500000 0.716867
#
# Coordination Sequence:
#
# PCOD8066116 Si02
#       8
#     2   4   4   2   4   4   4   4
#     4   9  18  36  61  89 125 151 189 232 278 350
#     4  11  22  37  60  82 110 155 199 242 294 342
#     4  10  21  37  58  90 121 151 195 237 284 345
#     4   9  18  36  61  91 121 157 183 231 292 331
#     4  10  21  37  57  81 114 152 197 244 288 347
#     4  10  22  39  57  80 107 146 194 243 295 341
#     4  11  23  38  55  79 113 149 192 245 294 343
#     4  10  21  36  59  88 119 156 192 235 289 341
#
# _framework density 19.838445
#
# number of rings (size 3 to 8) (size 9 to 14) (size 15 to 20)
#    0.000    1.857    2.857    0.857    2.000    3.143 
#    0.000    2.857    0.000    1.714    0.000    2.000 
#    0.000    0.000    0.000    0.000    0.000    0.000 
#
# Total GULP energy -347272.328099 kJ/mol
# GULP energy per Si atom -12402.583146 kJ/mol
# Density = 1.979329 g / cm^3
# Si number density = 19.838445 Si / 1000 Ang^3
#
#
#
# Elastic Constant Matrix: (Units=GPa)
#
#
# Indices 1 2 3 4 5 6 
#
# 1 55.6809 21.1520 31.9825 0.0000 -5.7263 0.0000
# 2 21.1520 94.0887 38.4385 0.0000 3.5349 0.0000
# 3 31.9825 38.4385 109.1416 0.0000 1.4191 0.0000
# 4 0.0000 0.0000 0.0000 16.5812 0.0000 -0.2259
# 5 -5.7263 3.5349 1.4191 0.0000 28.7005 0.0000
# 6 0.0000 0.0000 0.0000 -0.2259 0.0000 17.9579
#
#
#
# Elastic Compliance Matrix: (Units=1/GPa)
#
#
# Indices 1 2 3 4 5 6 
#
# 1 0.022931 -0.003012 -0.005727 0.000000 0.005229 0.000000
# 2 -0.003012 0.012860 -0.003620 0.000000 -0.002006 0.000000
# 3 -0.005727 -0.003620 0.012132 0.000000 -0.001297 0.000000
# 4 0.000000 0.000000 0.000000 0.060320 0.000000 0.000759
# 5 0.005229 -0.002006 -0.001297 0.000000 0.036197 0.000000
# 6 0.000000 0.000000 0.000000 0.000759 0.000000 0.055695
#
#
# Mechanical properties :
#
#
# Convention : Reuss Voigt Hill
#
# Bulk Modulus (GPa) = 43.09438 49.11746 46.10592
# Shear Modulus (GPa) = 21.49720 23.80380 22.65050
#
# Velocity S-wave (km/s) = 3.29540 3.46769 3.38264
# Velocity P-wave (km/s) = 6.02074 6.39106 6.20866
#
# Compressibility (1/GPa) = 0.02320488
#
# Stress axis : x y z
#
# Youngs Moduli (GPa) = 43.60939 77.76173 82.42330
#
# Poissons Ratio (x) = 0.23421 0.47202
# Poissons Ratio (y) = 0.13135 0.29840
# Poissons Ratio (z) = 0.24974 0.28153
#
# Static dielectric constant tensor:
#      x y z
#    x 3.466590 0.000000 0.039170 
#    y 0.000000 3.635020 0.000000 
#    z 0.039170 0.000000 3.571890 
# 
# 
# High freq. dielectric constant tensor:
#      x y z
#    x 1.756630 0.000000 -0.001100 
#    y 0.000000 1.779220 0.000000 
#    z -0.001100 0.000000 1.761150 
# 
# From -- ./inp_files/37402.got.cif
#   From: 2010.06.25/outbox.cif.g09.slc.cpg/sg10_19_cif.got.tgz:37402.got - 2010.06.27 22:07:45.
