data_PCOD8066821
_publ_section_title
;
Structure prediction by ZEFSAII (Michael W. Deem and Ramdas Pophale) SiO2 
 PCOD8066821
Probable space group: P 2/M
;
_chemical_formula_sum "Si O2"
_cell_formula_units_Z 28
_cell_length_a 19.431325
_cell_length_b 13.426139
_cell_length_c 8.976695
_cell_angle_alpha 90.000000
_cell_angle_beta 142.868334
_cell_angle_gamma 90.000000
_cell_volume 1413.690354
_symmetry_space_group_name_H-M "P 2/M"
_symmetry_group_IT_number 10
_symmetry_cell_setting 'monoclinic'
loop_
_space_group_symop_operation_xyz
x,y,z
-x,y,-z
-x,-y,-z
x,-y,z
loop_
_atom_site_type_symbol
_atom_site_label
_atom_site_fract_x
_atom_site_fract_y
_atom_site_fract_z
Si Si1 0.420094 0.106377 0.225292
Si Si2 0.696143 0.388092 0.180756
Si Si3 0.166625 0.115312 0.885958
Si Si4 0.489074 0.309851 0.658534
Si Si5 0.736412 0.619151 0.586035
Si Si6 0.909215 0.717100 0.447090
Si Si7 0.934634 0.762106 0.026832
O O1 0.500000 0.086352 0.500000
O O2 0.471975 0.198391 0.220221
O O3 0.413269 0.000000 0.122506
O O4 0.299079 0.134676 0.086227
O O5 0.739470 0.500000 0.257126
O O6 0.698263 0.348972 0.353881
O O7 0.784211 0.329434 0.228418
O O8 0.571214 0.383625 0.891868
O O9 0.099806 0.172071 0.639354
O O10 0.135145 0.158291 0.995466
O O11 0.132829 0.000000 0.821873
O O12 0.500000 0.321427 0.500000
O O13 0.359940 0.336345 0.472611
O O14 0.748003 0.500000 0.625823
O O15 0.854642 0.671393 0.834839
O O16 0.000000 0.656788 0.500000
O O17 0.959819 0.716810 0.698980
O O18 0.000000 0.813512 0.000000
#
# Coordination Sequence:
#
# PCOD8066821 Si02
#       7
#     4   4   4   4   4   4   4
#     4   9  17  32  60  90 120 156 195 242 305 364
#     4  11  23  41  61  87 123 165 206 251 314 373
#     4  10  21  40  64  91 125 164 204 250 315 380
#     4  11  22  39  63  93 126 157 207 261 304 364
#     4  11  25  42  62  87 123 172 208 251 318 372
#     4  10  22  39  61  89 121 161 204 256 310 360
#     4  11  22  39  62  88 123 159 209 260 302 362
#
# _framework density 19.806315999999999
#
# number of rings (size 3 to 8) (size 9 to 14) (size 15 to 20)
#    0.000    1.571    2.857    2.571    2.000    6.286 
#    0.000    0.000    0.000    3.429    0.000    0.000 
#    0.000    0.000    0.000    0.000    0.000    0.000 
#
# Total GULP energy -346979.936979 kJ/mol
# GULP energy per Si atom -12392.140606 kJ/mol
# Density = 1.976124 g / cm^3
# Si number density = 19.806316 Si / 1000 Ang^3
#
#
#
# Elastic Constant Matrix: (Units=GPa)
#
#
# Indices 1 2 3 4 5 6 
#
# 1 98.0815 50.8045 38.5925 0.0000 -1.3533 0.0000
# 2 50.8045 106.6432 26.5847 0.0000 1.3571 0.0000
# 3 38.5925 26.5847 111.5536 0.0000 -1.8754 0.0000
# 4 0.0000 0.0000 0.0000 13.3411 0.0000 -3.8218
# 5 -1.3533 1.3571 -1.8754 0.0000 36.7620 0.0000
# 6 0.0000 0.0000 0.0000 -3.8218 0.0000 20.9698
#
#
#
# Elastic Compliance Matrix: (Units=1/GPa)
#
#
# Indices 1 2 3 4 5 6 
#
# 1 0.014834 -0.006164 -0.003653 0.000000 0.000587 0.000000
# 2 -0.006164 0.012539 -0.000868 0.000000 -0.000734 0.000000
# 3 -0.003653 -0.000868 0.010442 0.000000 0.000430 0.000000
# 4 0.000000 0.000000 0.000000 0.079085 0.000000 0.014414
# 5 0.000587 -0.000734 0.000430 0.000000 0.027273 0.000000
# 6 0.000000 0.000000 0.000000 0.014414 0.000000 0.050315
#
#
# Mechanical properties :
#
#
# Convention : Reuss Voigt Hill
#
# Bulk Modulus (GPa) = 60.80751 60.91572 60.86162
# Shear Modulus (GPa) = 22.58975 27.56768 25.07871
#
# Velocity S-wave (km/s) = 3.38084 3.73482 3.56223
# Velocity P-wave (km/s) = 6.78291 7.03000 6.90756
#
# Compressibility (1/GPa) = 0.01644534
#
# Stress axis : x y z
#
# Youngs Moduli (GPa) = 67.41404 79.75023 95.76480
#
# Poissons Ratio (x) = 0.49154 0.34983
# Poissons Ratio (y) = 0.41551 0.08315
# Poissons Ratio (z) = 0.24627 0.06925
#
# Static dielectric constant tensor:
#      x y z
#    x 3.511310 0.000000 -0.015210 
#    y 0.000000 3.820070 0.000000 
#    z -0.015210 0.000000 3.508260 
# 
# 
# High freq. dielectric constant tensor:
#      x y z
#    x 1.769620 0.000000 0.018150 
#    y 0.000000 1.764270 0.000000 
#    z 0.018150 0.000000 1.785780 
# 
# From -- ./inp_files/32852.got.cif
#   From: 2010.06.25/outbox.cif.g09.slc.cpg/sg10_17_cif.got.tgz:32852.got - 2010.06.27 22:07:45.
