data_PCOD8066295
_publ_section_title
;
Structure prediction by ZEFSAII (Michael W. Deem and Ramdas Pophale) SiO2 
 PCOD8066295
Probable space group: P 2/M
;
_chemical_formula_sum "Si O2"
_cell_formula_units_Z 28
_cell_length_a 8.628557
_cell_length_b 12.172522
_cell_length_c 13.973833
_cell_angle_alpha 90.000000
_cell_angle_beta 64.291087
_cell_angle_gamma 90.000000
_cell_volume 1322.402566
_symmetry_space_group_name_H-M "P 2/M"
_symmetry_group_IT_number 10
_symmetry_cell_setting 'monoclinic'
loop_
_space_group_symop_operation_xyz
x,y,z
-x,y,-z
-x,-y,-z
x,-y,z
loop_
_atom_site_type_symbol
_atom_site_label
_atom_site_fract_x
_atom_site_fract_y
_atom_site_fract_z
Si Si1 0.953528 0.126451 0.203019
Si Si2 0.982966 0.220108 0.402567
Si Si3 0.700943 0.681880 0.222429
Si Si4 0.692892 0.622830 0.433769
Si Si5 0.666018 0.701824 0.745379
Si Si6 0.337023 0.500000 0.110349
Si Si7 0.662162 0.127544 0.897987
Si Si8 0.195691 0.500000 0.951164
O O1 0.960562 0.141553 0.316661
O O2 0.813185 0.205029 0.189038
O O3 0.146193 0.151859 0.109215
O O4 0.901957 0.000000 0.195769
O O5 0.817211 0.297483 0.457999
O O6 0.000000 0.154507 0.500000
O O7 0.148408 0.300957 0.353920
O O8 0.750412 0.620108 0.306622
O O9 0.494391 0.697949 0.284355
O O10 0.730389 0.609242 0.119439
O O11 0.500000 0.667397 0.500000
O O12 0.708614 0.500000 0.471491
O O13 0.665474 0.606629 0.823928
O O14 0.648488 0.820335 0.798088
O O15 0.500000 0.500000 0.000000
O O16 0.194381 0.500000 0.067245
O O17 0.635549 0.000000 0.890277
O O18 0.500000 0.176917 0.000000
O O19 0.000000 0.500000 0.000000
#
# Coordination Sequence:
#
# PCOD8066295 Si02
#       8
#     4   4   4   4   4   2   4   2
#     4   9  21  40  64  91 124 161 203 256 310 368
#     4  10  22  39  62  91 120 158 203 255 304 368
#     4  11  22  40  59  88 124 160 205 251 307 364
#     4  10  21  37  59  84 124 160 200 250 306 365
#     4  11  23  37  63  87 122 160 206 249 303 366
#     4  12  24  42  59  88 125 164 203 254 299 362
#     4   9  19  37  60  84 115 155 201 253 303 353
#     4  12  28  38  61  88 125 166 207 248 307 364
#
# _framework density 21.173584000000002
#
# number of rings (size 3 to 8) (size 9 to 14) (size 15 to 20)
#    0.000    1.714    2.143    1.286    7.000    1.143 
#    0.000    0.000    0.000   17.571    0.000    0.000 
#    0.000    0.000    0.000    0.000    0.000    0.000 
#
# Total GULP energy -346869.553776 kJ/mol
# GULP energy per Si atom -12388.198349 kJ/mol
# Density = 2.112539 g / cm^3
# Si number density = 21.173584 Si / 1000 Ang^3
#
#
#
# Elastic Constant Matrix: (Units=GPa)
#
#
# Indices 1 2 3 4 5 6 
#
# 1 124.1176 42.0872 28.9132 0.0000 -14.2870 0.0000
# 2 42.0872 81.1364 20.1028 0.0000 -6.5262 0.0000
# 3 28.9132 20.1028 70.2469 0.0000 -6.9435 0.0000
# 4 0.0000 0.0000 0.0000 23.5320 0.0000 -0.2309
# 5 -14.2870 -6.5262 -6.9435 0.0000 46.7917 0.0000
# 6 0.0000 0.0000 0.0000 -0.2309 0.0000 27.4863
#
#
#
# Elastic Compliance Matrix: (Units=1/GPa)
#
#
# Indices 1 2 3 4 5 6 
#
# 1 0.010512 -0.004586 -0.002802 0.000000 0.002154 0.000000
# 2 -0.004586 0.015345 -0.002467 0.000000 0.000374 0.000000
# 3 -0.002802 -0.002467 0.016214 0.000000 0.001206 0.000000
# 4 0.000000 0.000000 0.000000 0.042499 0.000000 0.000357
# 5 0.002154 0.000374 0.001206 0.000000 0.022260 0.000000
# 6 0.000000 0.000000 0.000000 0.000357 0.000000 0.036385
#
#
# Mechanical properties :
#
#
# Convention : Reuss Voigt Hill
#
# Bulk Modulus (GPa) = 44.71693 50.85636 47.78664
# Shear Modulus (GPa) = 29.34655 31.85516 30.60086
#
# Velocity S-wave (km/s) = 3.72694 3.88297 3.80575
# Velocity P-wave (km/s) = 6.29961 6.64636 6.47531
#
# Compressibility (1/GPa) = 0.02236290
#
# Stress axis : x y z
#
# Youngs Moduli (GPa) = 95.12529 65.16833 61.67559
#
# Poissons Ratio (x) = 0.29884 0.17279
# Poissons Ratio (y) = 0.43621 0.15215
# Poissons Ratio (z) = 0.26651 0.16077
#
# Static dielectric constant tensor:
#      x y z
#    x 3.424690 0.000000 -0.119090 
#    y 0.000000 3.633250 0.000000 
#    z -0.119090 0.000000 3.697790 
# 
# 
# High freq. dielectric constant tensor:
#      x y z
#    x 1.843330 0.000000 -0.013940 
#    y 0.000000 1.812100 0.000000 
#    z -0.013940 0.000000 1.831410 
# 
# From -- ./inp_files/61161.got.cif
#   From: 2010.06.25/outbox.cif.g09.slc.cpg/sg10_31_cif.got.tgz:61161.got - 2010.06.27 22:07:45.
