data_PCOD8066187
_publ_section_title
;
Structure prediction by ZEFSAII (Michael W. Deem and Ramdas Pophale) SiO2 
 PCOD8066187
Probable space group: P 2/M
;
_chemical_formula_sum "Si O2"
_cell_formula_units_Z 32
_cell_length_a 21.851690
_cell_length_b 8.737047
_cell_length_c 12.074979
_cell_angle_alpha 90.000000
_cell_angle_beta 46.522794
_cell_angle_gamma 90.000000
_cell_volume 1672.869975
_symmetry_space_group_name_H-M "P 2/M"
_symmetry_group_IT_number 10
_symmetry_cell_setting 'monoclinic'
loop_
_space_group_symop_operation_xyz
x,y,z
-x,y,-z
-x,-y,-z
x,-y,z
loop_
_atom_site_type_symbol
_atom_site_label
_atom_site_fract_x
_atom_site_fract_y
_atom_site_fract_z
Si Si1 0.717054 0.321366 0.353216
Si Si2 0.236601 0.181031 0.926593
Si Si3 0.914427 0.181034 0.736008
Si Si4 0.897776 0.818785 0.509251
Si Si5 0.406510 0.321595 0.101668
Si Si6 0.253770 0.680967 0.435866
Si Si7 0.540580 0.172690 0.569048
Si Si8 0.610770 0.678044 0.127927
O O1 0.731832 0.500000 0.314662
O O2 0.767420 0.228095 0.196766
O O3 0.750632 0.267604 0.430974
O O4 0.618493 0.286883 0.470048
O O5 0.314753 0.259304 0.889379
O O6 0.247745 0.000000 0.923238
O O7 0.150654 0.241019 0.090626
O O8 0.885434 0.238976 0.650931
O O9 0.009177 0.235456 0.646879
O O10 0.914636 0.000000 0.731589
O O11 0.830085 0.739668 0.516740
O O12 0.887247 0.000000 0.513107
O O13 0.415615 0.500000 0.116446
O O14 0.338298 0.249849 0.272317
O O15 0.500000 0.246674 0.000000
O O16 0.369251 0.292893 0.025684
O O17 0.256862 0.500000 0.420961
O O18 0.500000 0.176298 0.500000
O O19 0.475206 0.232764 0.740886
O O20 0.568835 0.000000 0.564304
O O21 0.597763 0.500000 0.170685
#
# Coordination Sequence:
#
# PCOD8066187 Si02
#       8
#     4   4   4   4   4   4   4   4
#     4  11  23  38  56  77 106 147 188 224 266 322
#     4  11  21  35  54  79 110 140 175 225 274 315
#     4   8  17  34  58  85 112 140 175 221 271 323
#     4   9  17  35  61  85 108 141 181 218 265 328
#     4   9  18  34  54  77 106 141 178 216 262 317
#     4  10  21  37  56  80 111 144 181 224 271 321
#     4  11  22  36  54  77 106 142 182 227 268 309
#     4  11  21  33  55  82 108 140 178 220 270 328
#
# _framework density 19.128803999999999
#
# number of rings (size 3 to 8) (size 9 to 14) (size 15 to 20)
#    0.000    2.000    1.250    3.750    0.000    3.500 
#    0.000    4.375    0.000    6.375    0.000    0.000 
#    0.000    0.000    0.000    0.000    0.000    0.000 
#
# Total GULP energy -396787.431913 kJ/mol
# GULP energy per Si atom -12399.607247 kJ/mol
# Density = 1.908527 g / cm^3
# Si number density = 19.128804 Si / 1000 Ang^3
#
#
#
# Elastic Constant Matrix: (Units=GPa)
#
#
# Indices 1 2 3 4 5 6 
#
# 1 123.7183 19.7876 69.3716 0.0000 3.4975 0.0000
# 2 19.7876 25.6367 14.0558 0.0000 9.5794 0.0000
# 3 69.3716 14.0558 146.3577 0.0000 -0.5148 0.0000
# 4 0.0000 0.0000 0.0000 30.9794 0.0000 -10.2185
# 5 3.4975 9.5794 -0.5148 0.0000 26.5960 0.0000
# 6 0.0000 0.0000 0.0000 -10.2185 0.0000 20.4339
#
#
#
# Elastic Compliance Matrix: (Units=1/GPa)
#
#
# Indices 1 2 3 4 5 6 
#
# 1 0.011955 -0.006765 -0.005014 0.000000 0.000767 0.000000
# 2 -0.006765 0.051904 -0.001841 0.000000 -0.017841 0.000000
# 3 -0.005014 -0.001841 0.009391 0.000000 0.001504 0.000000
# 4 0.000000 0.000000 0.000000 0.038656 0.000000 0.019331
# 5 0.000767 -0.017841 0.001504 0.000000 0.043954 0.000000
# 6 0.000000 0.000000 0.000000 0.019331 0.000000 0.058605
#
#
# Mechanical properties :
#
#
# Convention : Reuss Voigt Hill
#
# Bulk Modulus (GPa) = 21.73448 55.79364 38.76406
# Shear Modulus (GPa) = 19.45221 28.43504 23.94363
#
# Velocity S-wave (km/s) = 3.19236 3.85970 3.54178
# Velocity P-wave (km/s) = 4.99750 7.00669 6.08559
#
# Compressibility (1/GPa) = 0.04600985
#
# Stress axis : x y z
#
# Youngs Moduli (GPa) = 83.64989 19.26646 106.48255
#
# Poissons Ratio (x) = 0.13034 0.53390
# Poissons Ratio (y) = 0.56588 0.19603
# Poissons Ratio (z) = 0.41942 0.03547
#
# Static dielectric constant tensor:
#      x y z
#    x 3.330810 0.000000 -0.140130 
#    y 0.000000 3.333020 0.000000 
#    z -0.140130 0.000000 3.922880 
# 
# 
# High freq. dielectric constant tensor:
#      x y z
#    x 1.739710 0.000000 0.003720 
#    y 0.000000 1.723080 0.000000 
#    z 0.003720 0.000000 1.754410 
# 
# From -- ./inp_files/55284.got.cif
#   From: 2010.06.25/outbox.cif.g09.slc.cpg/sg10_28_cif.got.tgz:55284.got - 2010.06.27 22:07:45.
