data_PCOD8066288
_publ_section_title
;
Structure prediction by ZEFSAII (Michael W. Deem and Ramdas Pophale) SiO2 
 PCOD8066288
Probable space group: P 2/M
;
_chemical_formula_sum "Si O2"
_cell_formula_units_Z 32
_cell_length_a 13.562095
_cell_length_b 14.125101
_cell_length_c 20.003247
_cell_angle_alpha 90.000000
_cell_angle_beta 24.095465
_cell_angle_gamma 90.000000
_cell_volume 1564.421466
_symmetry_space_group_name_H-M "P 2/M"
_symmetry_group_IT_number 10
_symmetry_cell_setting 'monoclinic'
loop_
_space_group_symop_operation_xyz
x,y,z
-x,y,-z
-x,-y,-z
x,-y,z
loop_
_atom_site_type_symbol
_atom_site_label
_atom_site_fract_x
_atom_site_fract_y
_atom_site_fract_z
Si Si1 0.193816 0.606204 0.643848
Si Si2 0.557904 0.106576 0.387760
Si Si3 0.240073 0.393869 0.176089
Si Si4 0.547811 0.611077 0.303415
Si Si5 0.132478 0.254260 0.352414
Si Si6 0.550743 0.751504 0.186517
Si Si7 0.114318 0.277803 0.822493
Si Si8 0.252637 0.890893 0.452647
O O1 0.266103 0.500000 0.623063
O O2 0.358723 0.637306 0.479221
O O3 0.221639 0.678759 0.687366
O O4 0.914281 0.606216 0.795905
O O5 0.500000 0.127586 0.500000
O O6 0.766390 0.177156 0.235292
O O7 0.317642 0.120994 0.491020
O O8 0.656616 0.000000 0.317201
O O9 0.271307 0.500000 0.185142
O O10 0.099373 0.333423 0.317481
O O11 0.500000 0.348273 0.000000
O O12 0.559862 0.500000 0.281412
O O13 0.467971 0.662975 0.284400
O O14 0.809994 0.650400 0.164779
O O15 0.413213 0.243524 0.200002
O O16 0.000000 0.291862 0.500000
O O17 0.004444 0.158358 0.404939
O O18 0.475731 0.846908 0.272310
O O19 0.830807 0.740824 0.996313
O O20 0.225595 0.000000 0.449000
#
# Coordination Sequence:
#
# PCOD8066288 Si02
#       8
#     4   4   4   4   4   4   4   4
#     4  10  21  37  59  86 115 161 212 244 291 359
#     4  10  22  39  63  93 119 151 195 244 305 367
#     4  10  21  37  58  87 124 162 200 248 305 356
#     4  11  23  39  59  87 125 167 210 250 296 360
#     4  10  22  39  62  87 118 157 212 248 294 356
#     4  11  24  39  56  94 121 158 204 246 306 363
#     4  12  23  36  61  88 126 157 193 254 309 357
#     4  10  22  43  68  89 118 157 202 252 304 368
#
# _framework density 20.454846
#
# number of rings (size 3 to 8) (size 9 to 14) (size 15 to 20)
#    0.000    1.500    1.250    4.125    1.750    6.000 
#    0.000    1.250    0.000    0.375    0.000    0.000 
#    0.000    0.000    0.000    0.000    0.000    0.000 
#
# Total GULP energy -396711.570187 kJ/mol
# GULP energy per Si atom -12397.236568 kJ/mol
# Density = 2.040829 g / cm^3
# Si number density = 20.454846 Si / 1000 Ang^3
#
#
#
# Elastic Constant Matrix: (Units=GPa)
#
#
# Indices 1 2 3 4 5 6 
#
# 1 111.5932 52.3831 32.9490 0.0000 -11.0307 0.0000
# 2 52.3831 134.4215 45.8251 0.0000 1.6800 0.0000
# 3 32.9490 45.8251 81.7820 0.0000 -20.5178 0.0000
# 4 0.0000 0.0000 0.0000 -2.7977 0.0000 7.5303
# 5 -11.0307 1.6800 -20.5178 0.0000 33.7040 0.0000
# 6 0.0000 0.0000 0.0000 7.5303 0.0000 23.6169
#
#
#
# Elastic Compliance Matrix: (Units=1/GPa)
#
#
# Indices 1 2 3 4 5 6 
#
# 1 0.011630 -0.003987 -0.001707 0.000000 0.002966 0.000000
# 2 -0.003987 0.011107 -0.006000 0.000000 -0.005511 0.000000
# 3 -0.001707 -0.006000 0.019135 0.000000 0.011389 0.000000
# 4 0.000000 0.000000 0.000000 -0.192354 0.000000 0.061333
# 5 0.002966 -0.005511 0.011389 0.000000 0.037849 0.000000
# 6 0.000000 0.000000 0.000000 0.061333 0.000000 0.022786
#
#
# Mechanical properties :
#
#
# Convention : Reuss Voigt Hill
#
# Bulk Modulus (GPa) = 54.10419 65.56790 59.83604
# Shear Modulus (GPa) = -82.92348 24.01394 -29.45477
#
# Velocity S-wave (km/s) = -6.37399 3.43008 -3.79884
# Velocity P-wave (km/s) = 5.25951 6.91461 3.17407
#
# Compressibility (1/GPa) = 0.01848286
#
# Stress axis : x y z
#
# Youngs Moduli (GPa) = 85.98449 90.03002 52.26041
#
# Poissons Ratio (x) = 0.35896 0.08923
# Poissons Ratio (y) = 0.34283 0.31357
# Poissons Ratio (z) = 0.14682 0.54020
#
# Static dielectric constant tensor:
#      x y z
#    x 4.063730 0.000000 -0.201710 
#    y 0.000000 3.724850 0.000000 
#    z -0.201710 0.000000 3.541410 
# 
# 
# High freq. dielectric constant tensor:
#      x y z
#    x 1.817130 0.000000 -0.013270 
#    y 0.000000 1.796870 0.000000 
#    z -0.013270 0.000000 1.782320 
# 
# From -- ./inp_files/85403.got.cif
#   From: 2010.06.25/outbox.cif.g09.slc.cpg/sg10_43_cif.got.tgz:85403.got - 2010.06.27 22:07:45.
