data_PCOD8066905
_publ_section_title
;
Structure prediction by ZEFSAII (Michael W. Deem and Ramdas Pophale) SiO2 
 PCOD8066905
Probable space group: P 2/M
;
_chemical_formula_sum "Si O2"
_cell_formula_units_Z 14
_cell_length_a 11.288418
_cell_length_b 9.734883
_cell_length_c 8.915832
_cell_angle_alpha 90.000000
_cell_angle_beta 38.001115
_cell_angle_gamma 90.000000
_cell_volume 603.223832
_symmetry_space_group_name_H-M "P 2/M"
_symmetry_group_IT_number 10
_symmetry_cell_setting 'monoclinic'
loop_
_space_group_symop_operation_xyz
x,y,z
-x,y,-z
-x,-y,-z
x,-y,z
loop_
_atom_site_type_symbol
_atom_site_label
_atom_site_fract_x
_atom_site_fract_y
_atom_site_fract_z
Si Si1 0.162092 0.653344 0.148296
Si Si2 0.723360 0.346707 0.301430
Si Si3 0.500000 0.759249 0.000000
Si Si4 0.830921 0.844536 0.463338
O O1 0.088091 0.500000 0.256345
O O2 0.371342 0.667858 0.016103
O O3 0.006225 0.761858 0.367692
O O4 0.171469 0.678669 0.960785
O O5 0.500000 0.333474 0.500000
O O6 0.773947 0.500000 0.312624
O O7 0.785902 0.229931 0.352943
O O8 0.355915 0.850372 0.243380
O O9 0.897284 0.000000 0.365523
#
# Coordination Sequence:
#
# PCOD8066905 Si02
#       4
#     4   4   2   4
#     4  11  25  45  73 103 133 173 226 283 337 396
#     4  10  21  44  73 101 132 172 224 282 336 392
#     4  12  26  46  68  98 136 184 226 278 328 398
#     4  12  27  45  68 100 139 181 224 273 335 404
#
# _framework density 23.208632999999999
#
# number of rings (size 3 to 8) (size 9 to 14) (size 15 to 20)
#    0.000    0.857    2.857    3.429    0.000   13.143 
#    0.000    0.000    0.000    0.000    0.000    0.000 
#    0.000    0.000    0.000    0.000    0.000    0.000 
#
# Total GULP energy -173590.848863 kJ/mol
# GULP energy per Si atom -12399.346347 kJ/mol
# Density = 2.315581 g / cm^3
# Si number density = 23.208633 Si / 1000 Ang^3
#
#
#
# Elastic Constant Matrix: (Units=GPa)
#
#
# Indices 1 2 3 4 5 6 
#
# 1 110.3218 76.7433 43.4637 0.0000 3.9754 0.0000
# 2 76.7433 209.0396 63.1522 0.0000 -5.9069 0.0000
# 3 43.4637 63.1522 112.9515 0.0000 -17.4841 0.0000
# 4 0.0000 0.0000 0.0000 28.0568 0.0000 -7.1161
# 5 3.9754 -5.9069 -17.4841 0.0000 41.0603 0.0000
# 6 0.0000 0.0000 0.0000 -7.1161 0.0000 14.6828
#
#
#
# Elastic Compliance Matrix: (Units=1/GPa)
#
#
# Indices 1 2 3 4 5 6 
#
# 1 0.013264 -0.003930 -0.003418 0.000000 -0.003305 0.000000
# 2 -0.003930 0.006934 -0.002303 0.000000 0.000397 0.000000
# 3 -0.003418 -0.002303 0.012264 0.000000 0.005222 0.000000
# 4 0.000000 0.000000 0.000000 0.040637 0.000000 0.019695
# 5 -0.003305 0.000397 0.005222 0.000000 0.026955 0.000000
# 6 0.000000 0.000000 0.000000 0.019695 0.000000 0.077652
#
#
# Mechanical properties :
#
#
# Convention : Reuss Voigt Hill
#
# Bulk Modulus (GPa) = 75.98901 88.78128 82.38515
# Shear Modulus (GPa) = 24.82670 33.35690 29.09180
#
# Velocity S-wave (km/s) = 3.27420 3.79524 3.54431
# Velocity P-wave (km/s) = 6.86343 7.58563 7.23355
#
# Compressibility (1/GPa) = 0.01315980
#
# Stress axis : x y z
#
# Youngs Moduli (GPa) = 75.39065 144.22521 81.53625
#
# Poissons Ratio (x) = 0.56686 0.27871
# Poissons Ratio (y) = 0.29631 0.18775
# Poissons Ratio (z) = 0.25770 0.33211
#
# Static dielectric constant tensor:
#      x y z
#    x 4.404040 0.000000 -0.044070 
#    y 0.000000 3.893810 0.000000 
#    z -0.044070 0.000000 4.419590 
# 
# 
# High freq. dielectric constant tensor:
#      x y z
#    x 1.938800 0.000000 -0.002970 
#    y 0.000000 1.897300 0.000000 
#    z -0.002970 0.000000 1.935630 
# 
# From -- ./inp_files/21888.got.cif
#   From: 2010.06.25/outbox.cif.g09.slc.cpg/sg10_11_cif.got.tgz:21888.got - 2010.06.27 22:07:45.
