data_PCOD8066100
_publ_section_title
;
Structure prediction by ZEFSAII (Michael W. Deem and Ramdas Pophale) SiO2 
 PCOD8066100
Probable space group: P 2/M
;
_chemical_formula_sum "Si O2"
_cell_formula_units_Z 28
_cell_length_a 27.053652
_cell_length_b 9.169210
_cell_length_c 9.233959
_cell_angle_alpha 90.000000
_cell_angle_beta 38.856237
_cell_angle_gamma 90.000000
_cell_volume 1437.038595
_symmetry_space_group_name_H-M "P 2/M"
_symmetry_group_IT_number 10
_symmetry_cell_setting 'monoclinic'
loop_
_space_group_symop_operation_xyz
x,y,z
-x,y,-z
-x,-y,-z
x,-y,z
loop_
_atom_site_type_symbol
_atom_site_label
_atom_site_fract_x
_atom_site_fract_y
_atom_site_fract_z
Si Si1 0.143755 0.328548 0.004947
Si Si2 0.431761 0.663749 0.271746
Si Si3 0.279169 0.170126 0.522548
Si Si4 0.009672 0.673274 0.815277
Si Si5 0.294705 0.169258 0.157487
Si Si6 0.838759 0.328331 0.701040
Si Si7 0.472746 0.162704 0.724876
O O1 0.155967 0.500000 0.953154
O O2 0.213791 0.245784 0.767719
O O3 0.142272 0.287391 0.176957
O O4 0.062426 0.273753 0.119728
O O5 0.400629 0.500000 0.373426
O O6 0.363055 0.764155 0.369495
O O7 0.465602 0.730217 0.341271
O O8 0.500000 0.662066 0.000000
O O9 0.261421 0.198768 0.394122
O O10 0.280999 0.000000 0.554593
O O11 0.012138 0.500000 0.813385
O O12 0.090318 0.732688 0.560704
O O13 0.000000 0.736384 0.000000
O O14 0.242567 0.255178 0.160647
O O15 0.291167 0.000000 0.124043
O O16 0.384346 0.226282 0.940403
O O17 0.829202 0.500000 0.703523
O O18 0.500000 0.153102 0.500000
O O19 0.474972 0.000000 0.790209
#
# Coordination Sequence:
#
# PCOD8066100 Si02
#       7
#     4   4   4   4   4   4   4
#     4  10  21  37  58  88 121 150 190 239 287 342
#     4  11  23  39  61  89 117 149 192 244 295 341
#     4  11  23  39  60  83 114 155 197 238 288 345
#     4   9  17  33  59  87 116 153 192 232 283 344
#     4  10  22  39  57  82 115 152 195 240 285 341
#     4  10  21  36  58  87 119 154 188 234 292 344
#     4  10  22  40  61  84 114 156 198 238 290 345
#
# _framework density 19.484514999999998
#
# number of rings (size 3 to 8) (size 9 to 14) (size 15 to 20)
#    0.000    1.857    1.429    2.143    2.000    6.000 
#    0.000    0.714    0.000    4.286    0.000    0.000 
#    0.000    0.000    0.000    0.000    0.000    0.000 
#
# Total GULP energy -347287.444207 kJ/mol
# GULP energy per Si atom -12403.123007 kJ/mol
# Density = 1.944017 g / cm^3
# Si number density = 19.484515 Si / 1000 Ang^3
#
#
#
# Elastic Constant Matrix: (Units=GPa)
#
#
# Indices 1 2 3 4 5 6 
#
# 1 136.9586 43.5675 30.6109 0.0000 1.5202 0.0000
# 2 43.5675 46.6310 29.6663 0.0000 5.8344 0.0000
# 3 30.6109 29.6663 91.5583 0.0000 3.8676 0.0000
# 4 0.0000 0.0000 0.0000 20.0130 0.0000 15.4070
# 5 1.5202 5.8344 3.8676 0.0000 31.0711 0.0000
# 6 0.0000 0.0000 0.0000 15.4070 0.0000 -4.3474
#
#
#
# Elastic Compliance Matrix: (Units=1/GPa)
#
#
# Indices 1 2 3 4 5 6 
#
# 1 0.010457 -0.009673 -0.000419 0.000000 0.001357 0.000000
# 2 -0.009673 0.036466 -0.008356 0.000000 -0.005334 0.000000
# 3 -0.000419 -0.008356 0.013775 0.000000 -0.000125 0.000000
# 4 0.000000 0.000000 0.000000 0.013402 0.000000 0.047497
# 5 0.001357 -0.005334 -0.000125 0.000000 0.033135 0.000000
# 6 0.000000 0.000000 0.000000 0.047497 0.000000 -0.061696
#
#
# Mechanical properties :
#
#
# Convention : Reuss Voigt Hill
#
# Bulk Modulus (GPa) = 42.01496 53.64860 47.83178
# Shear Modulus (GPa) = 55.32743 20.76755 38.04749
#
# Velocity S-wave (km/s) = 5.33453 3.26828 4.42374
# Velocity P-wave (km/s) = 7.71706 6.46807 7.12001
#
# Compressibility (1/GPa) = 0.02380104
#
# Stress axis : x y z
#
# Youngs Moduli (GPa) = 95.62725 27.42251 72.59535
#
# Poissons Ratio (x) = 0.26527 0.03043
# Poissons Ratio (y) = 0.92504 0.60662
# Poissons Ratio (z) = 0.04009 0.22915
#
# Static dielectric constant tensor:
#      x y z
#    x 3.635580 0.000000 -0.013060 
#    y 0.000000 3.490100 0.000000 
#    z -0.013060 0.000000 3.692790 
# 
# 
# High freq. dielectric constant tensor:
#      x y z
#    x 1.769690 0.000000 -0.000410 
#    y 0.000000 1.738930 0.000000 
#    z -0.000410 0.000000 1.770150 
# 
# From -- ./inp_files/36893.got.cif
#   From: 2010.06.25/outbox.cif.g09.slc.cpg/sg10_19_cif.got.tgz:36893.got - 2010.06.27 22:07:45.
