data_PCOD8066438
_publ_section_title
;
Structure prediction by ZEFSAII (Michael W. Deem and Ramdas Pophale) SiO2 
 PCOD8066438
Probable space group: P 2/M
;
_chemical_formula_sum "Si O2"
_cell_formula_units_Z 26
_cell_length_a 23.231600
_cell_length_b 11.673924
_cell_length_c 5.004674
_cell_angle_alpha 90.000000
_cell_angle_beta 73.100496
_cell_angle_gamma 90.000000
_cell_volume 1298.674314
_symmetry_space_group_name_H-M "P 2/M"
_symmetry_group_IT_number 10
_symmetry_cell_setting 'monoclinic'
loop_
_space_group_symop_operation_xyz
x,y,z
-x,y,-z
-x,-y,-z
x,-y,z
loop_
_atom_site_type_symbol
_atom_site_label
_atom_site_fract_x
_atom_site_fract_y
_atom_site_fract_z
Si Si1 0.579585 0.500000 0.187423
Si Si2 0.674840 0.128397 0.949330
Si Si3 0.596238 0.869202 0.547347
Si Si4 0.036473 0.636391 0.202818
Si Si5 0.244108 0.684942 0.388267
Si Si6 0.500000 0.302342 0.500000
Si Si7 0.828666 0.370011 0.024159
Si Si8 0.339848 0.500000 0.411724
O O1 0.540598 0.384742 0.262542
O O2 0.635980 0.500000 0.317046
O O3 0.602255 0.500000 0.854545
O O4 0.621038 0.136233 0.811326
O O5 0.732547 0.198355 0.774096
O O6 0.698984 0.000000 0.949214
O O7 0.647663 0.172181 0.267961
O O8 0.540874 0.781458 0.623388
O O9 0.576206 0.000000 0.502941
O O10 0.038123 0.500000 0.213398
O O11 0.104822 0.681990 0.107630
O O12 0.000000 0.687916 0.500000
O O13 0.000000 0.682163 0.000000
O O14 0.205068 0.624104 0.212893
O O15 0.301086 0.611885 0.406034
O O16 0.203999 0.707270 0.706621
O O17 0.830874 0.500000 0.134795
#
# Coordination Sequence:
#
# PCOD8066438 Si02
#       8
#     2   4   4   4   4   2   4   2
#     4  11  26  36  54  72 106 135 172 209 254 321
#     4  10  22  39  57  80 105 136 174 220 272 321
#     4  10  21  38  59  78 100 129 169 219 275 322
#     4   9  17  29  46  68 106 149 179 213 254 299
#     4  12  21  34  56  76 109 142 179 221 259 310
#     4  11  23  40  54  80 101 131 170 218 258 313
#     4  11  20  33  49  82 110 144 186 215 255 309
#     4  12  22  39  52  76 102 145 172 203 266 319
#
# _framework density 20.020415
#
# number of rings (size 3 to 8) (size 9 to 14) (size 15 to 20)
#    0.000    1.385    1.538    4.846    0.000    5.538 
#    0.000    2.308    0.000    0.000    0.000    0.000 
#    0.000   12.308    0.000    0.000    0.000    0.000 
#
# Total GULP energy -322444.375917 kJ/mol
# GULP energy per Si atom -12401.706766 kJ/mol
# Density = 1.997485 g / cm^3
# Si number density = 20.020415 Si / 1000 Ang^3
#
#
#
# Elastic Constant Matrix: (Units=GPa)
#
#
# Indices 1 2 3 4 5 6 
#
# 1 82.5842 25.8149 31.8798 0.0000 -15.3035 0.0000
# 2 25.8149 65.8665 11.7173 0.0000 -13.7276 0.0000
# 3 31.8798 11.7173 95.5581 0.0000 -5.1112 0.0000
# 4 0.0000 0.0000 0.0000 15.0646 0.0000 1.2606
# 5 -15.3035 -13.7276 -5.1112 0.0000 35.6074 0.0000
# 6 0.0000 0.0000 0.0000 1.2606 0.0000 9.5965
#
#
#
# Elastic Compliance Matrix: (Units=1/GPa)
#
#
# Indices 1 2 3 4 5 6 
#
# 1 0.016144 -0.004570 -0.004584 0.000000 0.004519 0.000000
# 2 -0.004570 0.018080 -0.000428 0.000000 0.004945 0.000000
# 3 -0.004584 -0.000428 0.012025 0.000000 -0.000409 0.000000
# 4 0.000000 0.000000 0.000000 0.067119 0.000000 -0.008817
# 5 0.004519 0.004945 -0.000409 0.000000 0.031874 0.000000
# 6 0.000000 0.000000 0.000000 -0.008817 0.000000 0.105363
#
#
# Mechanical properties :
#
#
# Convention : Reuss Voigt Hill
#
# Bulk Modulus (GPa) = 36.92046 42.53698 39.72872
# Shear Modulus (GPa) = 17.93421 23.69348 20.81384
#
# Velocity S-wave (km/s) = 2.99623 3.44389 3.22783
# Velocity P-wave (km/s) = 5.51827 6.09153 5.81197
#
# Compressibility (1/GPa) = 0.02708525
#
# Stress axis : x y z
#
# Youngs Moduli (GPa) = 61.94143 55.30954 83.16222
#
# Poissons Ratio (x) = 0.25277 0.38121
# Poissons Ratio (y) = 0.28308 0.03558
# Poissons Ratio (z) = 0.28393 0.02366
#
# Static dielectric constant tensor:
#      x y z
#    x 3.643840 0.000000 -0.042830 
#    y 0.000000 3.490480 0.000000 
#    z -0.042830 0.000000 3.760410 
# 
# 
# High freq. dielectric constant tensor:
#      x y z
#    x 1.778700 0.000000 0.006080 
#    y 0.000000 1.744240 0.000000 
#    z 0.006080 0.000000 1.795820 
# 
# From -- ./inp_files/12373.got.cif
#   From: 2010.06.25/outbox.cif.g09.slc.cpg/sg10_7_cif.got.tgz:12373.got - 2010.06.27 22:07:45.
