data_PCOD8066526
_publ_section_title
;
Structure prediction by ZEFSAII (Michael W. Deem and Ramdas Pophale) SiO2 
 PCOD8066526
Probable space group: P 2/M
;
_chemical_formula_sum "Si O2"
_cell_formula_units_Z 20
_cell_length_a 5.157550
_cell_length_b 8.444017
_cell_length_c 23.625378
_cell_angle_alpha 90.000000
_cell_angle_beta 70.878843
_cell_angle_gamma 90.000000
_cell_volume 972.129396
_symmetry_space_group_name_H-M "P 2/M"
_symmetry_group_IT_number 10
_symmetry_cell_setting 'monoclinic'
loop_
_space_group_symop_operation_xyz
x,y,z
-x,y,-z
-x,-y,-z
x,-y,z
loop_
_atom_site_type_symbol
_atom_site_label
_atom_site_fract_x
_atom_site_fract_y
_atom_site_fract_z
Si Si1 0.597794 0.810997 0.932379
Si Si2 0.804069 0.816945 0.461428
Si Si3 0.202394 0.188544 0.863178
Si Si4 0.577215 0.185178 0.272499
Si Si5 0.011259 0.682146 0.667590
O O1 0.397546 0.744113 0.898397
O O2 0.899400 0.745649 0.896863
O O3 0.596825 0.000000 0.933084
O O4 0.500000 0.745045 0.000000
O O5 0.500000 0.763404 0.500000
O O6 0.000000 0.785227 0.500000
O O7 0.906918 0.710323 0.402879
O O8 0.809300 0.000000 0.442037
O O9 0.306077 0.250566 0.795204
O O10 0.207469 0.000000 0.863693
O O11 0.252310 0.213992 0.297315
O O12 0.729710 0.274293 0.312166
O O13 0.634750 0.000000 0.275190
O O14 0.934266 0.500000 0.681596
#
# Coordination Sequence:
#
# PCOD8066526 Si02
#       5
#     4   4   4   4   4
#     4   9  15  24  40  67 106 143 174 221 288 346
#     4  10  21  38  61  87 115 150 191 231 278 342
#     4   9  17  28  45  71 102 142 187 227 275 338
#     4  11  22  39  61  83 115 158 201 240 284 347
#     4  12  25  40  60  89 122 152 191 243 295 341
#
# _framework density 20.573391000000001
#
# number of rings (size 3 to 8) (size 9 to 14) (size 15 to 20)
#    0.000    1.800    0.000    5.400    0.000    8.000 
#    0.000    0.000    0.000    0.000    0.000    0.000 
#    0.000   56.000    0.000    0.000    0.000    0.000 
#
# Total GULP energy -248095.752866 kJ/mol
# GULP energy per Si atom -12404.787643 kJ/mol
# Density = 2.052656 g / cm^3
# Si number density = 20.573391 Si / 1000 Ang^3
#
#
#
# Elastic Constant Matrix: (Units=GPa)
#
#
# Indices 1 2 3 4 5 6 
#
# 1 148.8149 13.2323 52.2587 0.0000 -8.4012 0.0000
# 2 13.2323 38.9252 28.4163 0.0000 3.0070 0.0000
# 3 52.2587 28.4163 143.2122 0.0000 -8.2666 0.0000
# 4 0.0000 0.0000 0.0000 -1.3856 0.0000 -0.4147
# 5 -8.4012 3.0070 -8.2666 0.0000 40.6892 0.0000
# 6 0.0000 0.0000 0.0000 -0.4147 0.0000 15.1173
#
#
#
# Elastic Compliance Matrix: (Units=1/GPa)
#
#
# Indices 1 2 3 4 5 6 
#
# 1 0.007773 -0.000827 -0.002607 0.000000 0.001136 0.000000
# 2 -0.000827 0.030623 -0.005985 0.000000 -0.003650 0.000000
# 3 -0.002607 -0.005985 0.009224 0.000000 0.001778 0.000000
# 4 0.000000 0.000000 0.000000 -0.715845 0.000000 -0.019639
# 5 0.001136 -0.003650 0.001778 0.000000 0.025442 0.000000
# 6 0.000000 0.000000 0.000000 -0.019639 0.000000 0.065611
#
#
# Mechanical properties :
#
#
# Convention : Reuss Voigt Hill
#
# Bulk Modulus (GPa) = 34.74419 57.64078 46.19249
# Shear Modulus (GPa) = -9.11175 26.68720 8.78772
#
# Velocity S-wave (km/s) = -2.10678 3.60553 2.06898
# Velocity P-wave (km/s) = 3.31761 6.73878 5.31120
#
# Compressibility (1/GPa) = 0.02878179
#
# Stress axis : x y z
#
# Youngs Moduli (GPa) = 128.65351 32.65561 108.41299
#
# Poissons Ratio (x) = 0.02701 0.28259
# Poissons Ratio (y) = 0.10643 0.64885
# Poissons Ratio (z) = 0.33535 0.19544
#
# Static dielectric constant tensor:
#      x y z
#    x 3.881910 0.000000 -0.002650 
#    y 0.000000 3.192730 0.000000 
#    z -0.002650 0.000000 3.884870 
# 
# 
# High freq. dielectric constant tensor:
#      x y z
#    x 1.823860 0.000000 0.000490 
#    y 0.000000 1.756370 0.000000 
#    z 0.000490 0.000000 1.821930 
# 
# From -- ./inp_files/11983.got.cif
#   From: 2010.06.25/outbox.cif.g09.slc.cpg/sg10_6_cif.got.tgz:11983.got - 2010.06.27 22:07:45.
