data_PCOD8066224
_publ_section_title
;
Structure prediction by ZEFSAII (Michael W. Deem and Ramdas Pophale) SiO2 
 PCOD8066224
Probable space group: P 2/M
;
_chemical_formula_sum "Si O2"
_cell_formula_units_Z 28
_cell_length_a 8.869203
_cell_length_b 9.258609
_cell_length_c 28.529617
_cell_angle_alpha 90.000000
_cell_angle_beta 38.995749
_cell_angle_gamma 90.000000
_cell_volume 1474.206394
_symmetry_space_group_name_H-M "P 2/M"
_symmetry_group_IT_number 10
_symmetry_cell_setting 'monoclinic'
loop_
_space_group_symop_operation_xyz
x,y,z
-x,y,-z
-x,-y,-z
x,-y,z
loop_
_atom_site_type_symbol
_atom_site_label
_atom_site_fract_x
_atom_site_fract_y
_atom_site_fract_z
Si Si1 0.951857 0.833089 0.289495
Si Si2 0.160254 0.833683 0.865002
Si Si3 0.887494 0.670723 0.575957
Si Si4 0.767281 0.670723 0.424043
Si Si5 0.600665 0.166911 0.289496
Si Si6 0.675021 0.330450 1.000000
Si Si7 0.514734 0.166317 0.865002
O O1 0.848345 0.739522 0.356226
O O2 0.801583 0.801217 0.279367
O O3 0.222816 0.784496 0.214456
O O4 0.940007 0.000000 0.307133
O O5 0.295098 0.784496 0.785544
O O6 0.336713 0.808684 0.865315
O O7 0.931849 0.734850 0.926993
O O8 0.077403 0.000000 0.881489
O O9 0.855289 0.500000 0.584019
O O10 0.629474 0.739522 0.643774
O O11 0.000000 0.724195 0.500000
O O12 0.059910 0.723203 0.576036
O O13 0.500000 0.724195 0.500000
O O14 0.775386 0.500000 0.415980
O O15 0.524328 0.000000 0.307133
O O16 0.704338 0.500000 1.000000
O O17 0.500000 0.291101 0.000000
O O18 0.566816 0.265150 0.073007
O O19 0.515152 0.000000 0.881489
#
# Coordination Sequence:
#
# PCOD8066224 Si02
#       7
#     4   4   4   4   4   4   4
#     4  10  21  37  58  84 112 144 183 226 273 325
#     4  10  21  38  60  84 110 143 183 226 274 327
#     4  10  21  37  57  81 110 146 186 227 274 327
#     4  10  21  37  57  81 110 146 186 227 274 327
#     4  10  21  37  58  84 112 144 183 226 273 325
#     4  11  24  39  56  82 114 147 184 225 270 322
#     4  10  21  38  60  84 110 143 183 226 274 327
#
# _framework density 18.993271
#
# number of rings (size 3 to 8) (size 9 to 14) (size 15 to 20)
#    0.000    1.857    0.000    3.429    0.000    9.714 
#    0.000    0.000    0.000    0.000    0.000    0.000 
#    0.000    0.000    0.000    0.000    0.000    0.000 
#
# Total GULP energy -347354.433165 kJ/mol
# GULP energy per Si atom -12405.515470 kJ/mol
# Density = 1.895004 g / cm^3
# Si number density = 18.993271 Si / 1000 Ang^3
#
#
#
# Elastic Constant Matrix: (Units=GPa)
#
#
# Indices 1 2 3 4 5 6 
#
# 1 101.3160 46.0484 63.1933 0.0000 -2.5174 0.0000
# 2 46.0484 42.7346 54.1893 0.0000 -0.4168 0.0000
# 3 63.1933 54.1893 156.0865 0.0000 -0.2870 0.0000
# 4 0.0000 0.0000 0.0000 47.3630 0.0000 -0.7634
# 5 -2.5174 -0.4168 -0.2870 0.0000 43.5287 0.0000
# 6 0.0000 0.0000 0.0000 -0.7634 0.0000 32.4535
#
#
#
# Elastic Compliance Matrix: (Units=1/GPa)
#
#
# Indices 1 2 3 4 5 6 
#
# 1 0.019480 -0.019621 -0.001073 0.000000 0.000932 0.000000
# 2 -0.019621 0.061570 -0.013433 0.000000 -0.000634 0.000000
# 3 -0.001073 -0.013433 0.011505 0.000000 -0.000115 0.000000
# 4 0.000000 0.000000 0.000000 0.021122 0.000000 0.000497
# 5 0.000932 -0.000634 -0.000115 0.000000 0.023020 0.000000
# 6 0.000000 0.000000 0.000000 0.000497 0.000000 0.030825
#
#
# Mechanical properties :
#
#
# Convention : Reuss Voigt Hill
#
# Bulk Modulus (GPa) = 41.15105 69.66655 55.40880
# Shear Modulus (GPa) = 20.50213 33.78278 27.14246
#
# Velocity S-wave (km/s) = 3.28905 4.22200 3.78439
# Velocity P-wave (km/s) = 6.01140 7.77987 6.95210
#
# Compressibility (1/GPa) = 0.02430072
#
# Stress axis : x y z
#
# Youngs Moduli (GPa) = 51.33344 16.24161 86.92171
#
# Poissons Ratio (x) = 0.31868 0.09329
# Poissons Ratio (y) = 1.00722 1.16762
# Poissons Ratio (z) = 0.05509 0.21817
#
# Static dielectric constant tensor:
#      x y z
#    x 3.741840 0.000000 0.007370 
#    y 0.000000 3.406220 0.000000 
#    z 0.007370 0.000000 3.597830 
# 
# 
# High freq. dielectric constant tensor:
#      x y z
#    x 1.759860 0.000000 0.000270 
#    y 0.000000 1.730080 0.000000 
#    z 0.000270 0.000000 1.754670 
# 
# From -- ./inp_files/37001.got.cif
#   From: 2010.06.25/outbox.cif.g09.slc.cpg/sg10_19_cif.got.tgz:37001.got - 2010.06.27 22:07:45.
