data_PCOD8066695
_publ_section_title
;
Structure prediction by ZEFSAII (Michael W. Deem and Ramdas Pophale) SiO2 
 PCOD8066695
Probable space group: P 2/M
;
_chemical_formula_sum "Si O2"
_cell_formula_units_Z 28
_cell_length_a 21.511080
_cell_length_b 8.835309
_cell_length_c 22.828174
_cell_angle_alpha 90.000000
_cell_angle_beta 160.900347
_cell_angle_gamma 90.000000
_cell_volume 1419.660793
_symmetry_space_group_name_H-M "P 2/M"
_symmetry_group_IT_number 10
_symmetry_cell_setting 'monoclinic'
loop_
_space_group_symop_operation_xyz
x,y,z
-x,y,-z
-x,-y,-z
x,-y,z
loop_
_atom_site_type_symbol
_atom_site_label
_atom_site_fract_x
_atom_site_fract_y
_atom_site_fract_z
Si Si1 0.897328 0.320417 0.326747
Si Si2 0.435128 0.323693 0.310062
Si Si3 0.711229 0.169886 0.712433
Si Si4 0.161868 0.677692 0.285363
Si Si5 0.233111 0.676918 0.011685
Si Si6 0.320401 0.176556 0.968724
Si Si7 0.739295 0.178488 0.298997
O O1 0.891510 0.500000 0.329462
O O2 0.829183 0.273916 0.201694
O O3 0.759189 0.241723 0.250969
O O4 0.111717 0.261859 0.525975
O O5 0.419618 0.500000 0.309027
O O6 0.285169 0.246540 0.220613
O O7 0.650803 0.266211 0.512789
O O8 0.377797 0.284733 0.192931
O O9 0.500000 0.181119 0.500000
O O10 0.850444 0.251039 0.790406
O O11 0.783546 0.000000 0.784085
O O12 0.163787 0.500000 0.277564
O O13 0.979188 0.727191 0.159851
O O14 0.240977 0.500000 0.001980
O O15 0.299076 0.779211 0.016979
O O16 0.277891 0.000000 0.921959
O O17 0.531641 0.218609 0.136797
O O18 0.780139 0.000000 0.335294
#
# Coordination Sequence:
#
# PCOD8066695 Si02
#       7
#     4   4   4   4   4   4   4
#     4  11  22  37  62  92 118 147 187 235 281 327
#     4   9  18  34  54  74 101 136 173 219 273 326
#     4   9  17  30  51  78 103 130 169 218 270 323
#     4   9  18  34  54  75 102 137 174 217 273 327
#     4  10  22  37  53  77 106 140 186 229 266 321
#     4  11  24  40  58  82 116 156 191 228 279 336
#     4  10  21  39  62  88 119 152 187 229 280 336
#
# _framework density 19.723020000000002
#
# number of rings (size 3 to 8) (size 9 to 14) (size 15 to 20)
#    0.000    2.143    0.000    3.857    0.000    8.571 
#    0.000    4.286    0.000    0.000    0.000    0.000 
#    0.000    0.000    0.000    0.000    0.000    0.000 
#
# Total GULP energy -347273.448364 kJ/mol
# GULP energy per Si atom -12402.623156 kJ/mol
# Density = 1.967813 g / cm^3
# Si number density = 19.723020 Si / 1000 Ang^3
#
#
#
# Elastic Constant Matrix: (Units=GPa)
#
#
# Indices 1 2 3 4 5 6 
#
# 1 -156.8556 -67.7466 -144.3155 0.0000 132.6472 0.0000
# 2 -67.7466 33.5320 -44.5784 0.0000 55.0320 0.0000
# 3 -144.3155 -44.5784 -50.8625 0.0000 97.4087 0.0000
# 4 0.0000 0.0000 0.0000 18.2963 0.0000 0.4711
# 5 132.6472 55.0320 97.4087 0.0000 -62.0931 0.0000
# 6 0.0000 0.0000 0.0000 0.4711 0.0000 31.4957
#
#
#
# Elastic Compliance Matrix: (Units=1/GPa)
#
#
# Indices 1 2 3 4 5 6 
#
# 1 0.012819 -0.004659 -0.006111 0.000000 0.013669 0.000000
# 2 -0.004659 0.017029 -0.004060 0.000000 -0.001229 0.000000
# 3 -0.006111 -0.004060 0.015295 0.000000 0.007340 0.000000
# 4 0.000000 0.000000 0.000000 0.054677 0.000000 -0.000818
# 5 0.013669 -0.001229 0.007340 0.000000 0.023522 0.000000
# 6 0.000000 0.000000 0.000000 -0.000818 0.000000 0.031763
#
#
# Mechanical properties :
#
#
# Convention : Reuss Voigt Hill
#
# Bulk Modulus (GPa) = 64.58654 -76.38523 -5.89935
# Shear Modulus (GPa) = 26.32596 3.03673 14.68135
#
# Velocity S-wave (km/s) = 3.65743 1.24219 2.73129
# Velocity P-wave (km/s) = 7.11714 6.06265 2.63609
#
# Compressibility (1/GPa) = 0.01548310
#
# Stress axis : x y z
#
# Youngs Moduli (GPa) = 78.00630 58.72276 65.38145
#
# Poissons Ratio (x) = 0.27358 0.39957
# Poissons Ratio (y) = 0.36342 0.26545
# Poissons Ratio (z) = 0.47673 0.23841
#
# Static dielectric constant tensor:
#      x y z
#    x 3.529830 0.000000 -0.011430 
#    y 0.000000 3.551500 0.000000 
#    z -0.011430 0.000000 3.779280 
# 
# 
# High freq. dielectric constant tensor:
#      x y z
#    x 1.765820 0.000000 -0.003060 
#    y 0.000000 1.768840 0.000000 
#    z -0.003060 0.000000 1.772540 
# 
# From -- ./inp_files/90406.got.cif
#   From: 2010.06.25/outbox.cif.g09.slc.cpg/sg10_46_cif.got.tgz:90406.got - 2010.06.27 22:07:45.
