data_PCOD8066348
_publ_section_title
;
Structure prediction by ZEFSAII (Michael W. Deem and Ramdas Pophale) SiO2 
 PCOD8066348
Probable space group: P 2/M
;
_chemical_formula_sum "Si O2"
_cell_formula_units_Z 18
_cell_length_a 10.332680
_cell_length_b 12.684173
_cell_length_c 14.002589
_cell_angle_alpha 90.000000
_cell_angle_beta 150.235095
_cell_angle_gamma 90.000000
_cell_volume 911.071147
_symmetry_space_group_name_H-M "P 2/M"
_symmetry_group_IT_number 10
_symmetry_cell_setting 'monoclinic'
loop_
_space_group_symop_operation_xyz
x,y,z
-x,y,-z
-x,-y,-z
x,-y,z
loop_
_atom_site_type_symbol
_atom_site_label
_atom_site_fract_x
_atom_site_fract_y
_atom_site_fract_z
Si Si1 0.000000 0.774522 0.000000
Si Si2 0.930067 0.618407 0.128639
Si Si3 0.516476 0.878060 0.398550
Si Si4 0.653613 0.380782 0.233330
Si Si5 0.860613 0.697859 0.552352
O O1 0.250726 0.848284 0.173639
O O2 0.979814 0.701680 0.078894
O O3 0.956136 0.500000 0.104400
O O4 0.136388 0.634926 0.345782
O O5 0.642155 0.636249 0.989746
O O6 0.500000 0.851516 0.500000
O O7 0.758009 0.815565 0.506350
O O8 0.575684 0.000000 0.419142
O O9 0.746714 0.500000 0.269458
O O10 0.664882 0.362099 0.355087
O O11 0.848284 0.298822 0.306437
#
# Coordination Sequence:
#
# PCOD8066348 Si02
#       5
#     2   4   4   4   4
#     4  12  22  42  60  88 118 156 198 250 298 352
#     4  11  22  36  59  91 126 158 191 233 293 362
#     4  11  24  43  65  84 110 157 208 255 301 342
#     4  10  21  37  60  90 125 161 195 230 290 363
#     4  11  20  38  61  87 118 156 197 244 289 346
#
# _framework density 19.756962999999999
#
# number of rings (size 3 to 8) (size 9 to 14) (size 15 to 20)
#    0.000    1.111    4.444    4.000    0.000    1.778 
#    0.000    3.333    0.000    1.333    0.000    0.000 
#    0.000    0.000    0.000    0.000    0.000    0.000 
#
# Total GULP energy -223202.476576 kJ/mol
# GULP energy per Si atom -12400.137588 kJ/mol
# Density = 1.971200 g / cm^3
# Si number density = 19.756963 Si / 1000 Ang^3
#
#
#
# Elastic Constant Matrix: (Units=GPa)
#
#
# Indices 1 2 3 4 5 6 
#
# 1 81.6939 59.1729 26.4075 0.0000 0.8630 0.0000
# 2 59.1729 116.6906 44.5493 0.0000 11.1549 0.0000
# 3 26.4075 44.5493 97.8465 0.0000 -11.5355 0.0000
# 4 0.0000 0.0000 0.0000 36.3287 0.0000 8.6038
# 5 0.8630 11.1549 -11.5355 0.0000 31.3028 0.0000
# 6 0.0000 0.0000 0.0000 8.6038 0.0000 41.9441
#
#
#
# Elastic Compliance Matrix: (Units=1/GPa)
#
#
# Indices 1 2 3 4 5 6 
#
# 1 0.019645 -0.010106 -0.000355 0.000000 0.002929 0.000000
# 2 -0.010106 0.016638 -0.005764 0.000000 -0.007775 0.000000
# 3 -0.000355 -0.005764 0.013783 0.000000 0.007143 0.000000
# 4 0.000000 0.000000 0.000000 0.028932 0.000000 -0.005935
# 5 0.002929 -0.007775 0.007143 0.000000 0.037268 0.000000
# 6 0.000000 0.000000 0.000000 -0.005935 0.000000 0.025059
#
#
# Mechanical properties :
#
#
# Convention : Reuss Voigt Hill
#
# Bulk Modulus (GPa) = 56.77290 61.83228 59.30259
# Shear Modulus (GPa) = 27.83228 32.98855 30.41041
#
# Velocity S-wave (km/s) = 3.75738 4.09065 3.92755
# Velocity P-wave (km/s) = 6.90086 7.32636 7.11679
#
# Compressibility (1/GPa) = 0.01761404
#
# Stress axis : x y z
#
# Youngs Moduli (GPa) = 50.90410 60.10228 72.55488
#
# Poissons Ratio (x) = 0.60740 0.02578
# Poissons Ratio (y) = 0.51444 0.41824
# Poissons Ratio (z) = 0.01809 0.34646
#
# Static dielectric constant tensor:
#      x y z
#    x 3.536430 0.000000 -0.159640 
#    y 0.000000 3.413700 0.000000 
#    z -0.159640 0.000000 3.919050 
# 
# 
# High freq. dielectric constant tensor:
#      x y z
#    x 1.763850 0.000000 -0.012980 
#    y 0.000000 1.748000 0.000000 
#    z -0.012980 0.000000 1.792750 
# 
# From -- ./inp_files/64216.got.cif
#   From: 2010.06.25/outbox.cif.g09.slc.cpg/sg10_33_cif.got.tgz:64216.got - 2010.06.27 22:07:45.
