data_PCOD8066441
_publ_section_title
;
Structure prediction by ZEFSAII (Michael W. Deem and Ramdas Pophale) SiO2 
 PCOD8066441
Probable space group: P 2/M
;
_chemical_formula_sum "Si O2"
_cell_formula_units_Z 32
_cell_length_a 27.404372
_cell_length_b 9.189751
_cell_length_c 21.353146
_cell_angle_alpha 90.000000
_cell_angle_beta 17.887649
_cell_angle_gamma 90.000000
_cell_volume 1651.726283
_symmetry_space_group_name_H-M "P 2/M"
_symmetry_group_IT_number 10
_symmetry_cell_setting 'monoclinic'
loop_
_space_group_symop_operation_xyz
x,y,z
-x,y,-z
-x,-y,-z
x,-y,z
loop_
_atom_site_type_symbol
_atom_site_label
_atom_site_fract_x
_atom_site_fract_y
_atom_site_fract_z
Si Si1 0.588469 0.333225 0.108380
Si Si2 0.053698 0.338269 0.829002
Si Si3 0.040874 0.830051 0.636346
Si Si4 0.266539 0.830607 0.471624
Si Si5 0.740976 0.667531 0.052051
Si Si6 0.938302 0.329326 0.643648
Si Si7 0.476405 0.838595 0.601741
Si Si8 0.770627 0.338589 0.255235
O O1 0.550845 0.500000 0.137614
O O2 0.440198 0.240247 0.265312
O O3 0.612462 0.313033 0.153395
O O4 0.753142 0.282355 0.874331
O O5 0.053213 0.500000 0.799072
O O6 0.138759 0.230391 0.677117
O O7 0.135574 0.346361 0.795491
O O8 0.874894 0.288766 0.066898
O O9 0.202041 0.804977 0.479566
O O10 0.049795 0.755820 0.556961
O O11 0.005294 0.000000 0.671091
O O12 0.899659 0.756288 0.846762
O O13 0.285145 0.000000 0.463437
O O14 0.786920 0.500000 0.005333
O O15 0.667552 0.732486 0.204728
O O16 0.953711 0.500000 0.640174
O O17 0.000000 0.288500 0.500000
O O18 0.500000 0.838343 0.500000
O O19 0.637679 0.778420 0.433608
O O20 0.444237 0.000000 0.667651
O O21 0.700117 0.500000 0.327078
#
# Coordination Sequence:
#
# PCOD8066441 Si02
#       8
#     4   4   4   4   4   4   4   4
#     4   9  19  36  59  86 112 142 182 227 274 326
#     4   9  19  35  55  75 100 135 178 232 283 331
#     4  10  22  38  56  84 120 152 186 227 276 335
#     4  11  23  35  52  81 116 149 185 227 274 331
#     4  10  21  38  59  80 104 142 193 241 284 335
#     4   9  19  39  66  93 118 147 188 231 269 321
#     4  11  24  36  48  71 106 141 178 230 287 338
#     4   9  19  36  53  73  98 131 182 233 281 339
#
# _framework density 19.373671000000002
#
# number of rings (size 3 to 8) (size 9 to 14) (size 15 to 20)
#    0.000    2.250    0.000    3.750    1.750    9.750 
#    0.000    1.875    0.000    3.750    0.000    0.000 
#    0.000    0.000    0.000    0.000    0.000    0.000 
#
# Total GULP energy -396640.995676 kJ/mol
# GULP energy per Si atom -12395.031115 kJ/mol
# Density = 1.932958 g / cm^3
# Si number density = 19.373671 Si / 1000 Ang^3
#
#
#
# Elastic Constant Matrix: (Units=GPa)
#
#
# Indices 1 2 3 4 5 6 
#
# 1 79.4864 55.2112 43.3315 0.0000 -1.9655 0.0000
# 2 55.2112 102.1369 37.6731 0.0000 2.0022 0.0000
# 3 43.3315 37.6731 60.0318 0.0000 11.1203 0.0000
# 4 0.0000 0.0000 0.0000 26.2781 0.0000 -5.3971
# 5 -1.9655 2.0022 11.1203 0.0000 29.4850 0.0000
# 6 0.0000 0.0000 0.0000 -5.3971 0.0000 39.1388
#
#
#
# Elastic Compliance Matrix: (Units=1/GPa)
#
#
# Indices 1 2 3 4 5 6 
#
# 1 0.027997 -0.009455 -0.015846 0.000000 0.008485 0.000000
# 2 -0.009455 0.016081 -0.003169 0.000000 -0.000527 0.000000
# 3 -0.015846 -0.003169 0.032512 0.000000 -0.013103 0.000000
# 4 0.000000 0.000000 0.000000 0.039164 0.000000 0.005401
# 5 0.008485 -0.000527 -0.013103 0.000000 0.039459 0.000000
# 6 0.000000 0.000000 0.000000 0.005401 0.000000 0.026295
#
#
# Mechanical properties :
#
#
# Convention : Reuss Voigt Hill
#
# Bulk Modulus (GPa) = 50.89545 57.12072 54.00808
# Shear Modulus (GPa) = 20.40829 26.00968 23.20898
#
# Velocity S-wave (km/s) = 3.24914 3.66803 3.46492
# Velocity P-wave (km/s) = 6.35636 6.89107 6.62911
#
# Compressibility (1/GPa) = 0.01964812
#
# Stress axis : x y z
#
# Youngs Moduli (GPa) = 35.71837 62.18404 30.75796
#
# Poissons Ratio (x) = 0.58798 0.48740
# Poissons Ratio (y) = 0.33773 0.09748
# Poissons Ratio (z) = 0.56600 0.19708
#
# Static dielectric constant tensor:
#      x y z
#    x 3.536830 0.000000 0.027960 
#    y 0.000000 3.718590 0.000000 
#    z 0.027960 0.000000 2.165360 
# 
# 
# High freq. dielectric constant tensor:
#      x y z
#    x 1.750290 0.000000 -0.005050 
#    y 0.000000 1.756950 0.000000 
#    z -0.005050 0.000000 1.745360 
# 
# From -- ./inp_files/86916.got.cif
#   From: 2010.06.25/outbox.cif.g09.slc.cpg/sg10_44_cif.got.tgz:86916.got - 2010.06.27 22:07:45.
