data_PCOD8066414
_publ_section_title
;
Structure prediction by ZEFSAII (Michael W. Deem and Ramdas Pophale) SiO2 
 PCOD8066414
Probable space group: P 2/M
;
_chemical_formula_sum "Si O2"
_cell_formula_units_Z 18
_cell_length_a 10.617274
_cell_length_b 17.232141
_cell_length_c 5.071878
_cell_angle_alpha 90.000000
_cell_angle_beta 52.359464
_cell_angle_gamma 90.000000
_cell_volume 734.798479
_symmetry_space_group_name_H-M "P 2/M"
_symmetry_group_IT_number 10
_symmetry_cell_setting 'monoclinic'
loop_
_space_group_symop_operation_xyz
x,y,z
-x,y,-z
-x,-y,-z
x,-y,z
loop_
_atom_site_type_symbol
_atom_site_label
_atom_site_fract_x
_atom_site_fract_y
_atom_site_fract_z
Si Si1 0.115861 0.500000 0.100527
Si Si2 0.189868 0.821792 0.239620
Si Si3 0.185663 0.651075 0.263241
Si Si4 0.395894 0.587969 0.397551
Si Si5 0.810406 0.912728 0.257690
O O1 0.225188 0.580045 0.000308
O O2 0.000000 0.500000 0.500000
O O3 0.000000 0.500000 0.000000
O O4 0.258701 0.734881 0.095079
O O5 0.255621 0.857799 0.426263
O O6 0.000000 0.820674 0.500000
O O7 0.256214 0.877124 0.926797
O O8 0.238798 0.632955 0.498449
O O9 0.000000 0.661294 0.500000
O O10 0.500000 0.627500 0.500000
O O11 0.340183 0.500000 0.552504
O O12 0.500000 0.584934 0.000000
O O13 0.745701 0.000000 0.378595
O O14 0.000000 0.913482 0.000000
#
# Coordination Sequence:
#
# PCOD8066414 Si02
#       5
#     2   4   4   4   4
#     4  10  22  34  50  76 106 142 179 220 269 318
#     4   9  18  28  46  72 102 135 175 222 265 314
#     4  10  21  38  57  83 113 147 190 234 276 326
#     4  10  22  39  57  78 108 147 189 232 277 325
#     4   9  16  28  44  67 102 141 171 206 269 336
#
# _framework density 24.496511999999999
#
# number of rings (size 3 to 8) (size 9 to 14) (size 15 to 20)
#    0.000    2.444    1.111    0.667    0.000   14.222 
#    0.000    0.000    0.000    0.000    0.000    0.000 
#    0.000   17.778    0.000    0.000    0.000    0.000 
#
# Total GULP energy -223083.313391 kJ/mol
# GULP energy per Si atom -12393.517411 kJ/mol
# Density = 2.444076 g / cm^3
# Si number density = 24.496512 Si / 1000 Ang^3
#
#
#
# Elastic Constant Matrix: (Units=GPa)
#
#
# Indices 1 2 3 4 5 6 
#
# 1 132.8272 38.7337 43.9369 0.0000 45.9721 0.0000
# 2 38.7337 225.9452 71.9883 0.0000 33.3502 0.0000
# 3 43.9369 71.9883 98.5067 0.0000 48.7168 0.0000
# 4 0.0000 0.0000 0.0000 36.7214 0.0000 12.2205
# 5 45.9721 33.3502 48.7168 0.0000 51.2544 0.0000
# 6 0.0000 0.0000 0.0000 12.2205 0.0000 -0.5953
#
#
#
# Elastic Compliance Matrix: (Units=1/GPa)
#
#
# Indices 1 2 3 4 5 6 
#
# 1 0.010970 -0.000547 0.000372 0.000000 -0.009836 0.000000
# 2 -0.000547 0.005803 -0.004476 0.000000 0.000969 0.000000
# 3 0.000372 -0.004476 0.022609 0.000000 -0.018911 0.000000
# 4 0.000000 0.000000 0.000000 0.003477 0.000000 0.071382
# 5 -0.009836 0.000969 -0.018911 0.000000 0.045677 0.000000
# 6 0.000000 0.000000 0.000000 0.071382 0.000000 -0.214496
#
#
# Mechanical properties :
#
#
# Convention : Reuss Voigt Hill
#
# Bulk Modulus (GPa) = 33.24616 85.17743 59.21180
# Shear Modulus (GPa) = -46.89031 37.65077 -4.61977
#
# Velocity S-wave (km/s) = -4.37986 3.92469 -1.37477
# Velocity P-wave (km/s) = 3.46068 7.44207 4.65876
#
# Compressibility (1/GPa) = 0.03007866
#
# Stress axis : x y z
#
# Youngs Moduli (GPa) = 91.16130 172.33577 44.22974
#
# Poissons Ratio (x) = 0.09427 -0.01644
# Poissons Ratio (y) = 0.04987 0.19797
# Poissons Ratio (z) = -0.03387 0.77136
#
# Static dielectric constant tensor:
#      x y z
#    x 4.438680 0.000000 0.276120 
#    y 0.000000 5.288230 0.000000 
#    z 0.276120 0.000000 4.620710 
# 
# 
# High freq. dielectric constant tensor:
#      x y z
#    x 1.950800 0.000000 0.026370 
#    y 0.000000 1.968930 0.000000 
#    z 0.026370 0.000000 1.988380 
# 
# From -- ./inp_files/4040.got.cif
#   From: 2010.06.25/outbox.cif.g09.slc.cpg/sg10_3_cif.got.tgz:4040.got - 2010.06.27 22:07:45.
