data_PCOD8066693
_publ_section_title
;
Structure prediction by ZEFSAII (Michael W. Deem and Ramdas Pophale) SiO2 
 PCOD8066693
Probable space group: P 2/M
;
_chemical_formula_sum "Si O2"
_cell_formula_units_Z 24
_cell_length_a 14.891129
_cell_length_b 15.313045
_cell_length_c 11.935492
_cell_angle_alpha 90.000000
_cell_angle_beta 150.437525
_cell_angle_gamma 90.000000
_cell_volume 1342.778169
_symmetry_space_group_name_H-M "P 2/M"
_symmetry_group_IT_number 10
_symmetry_cell_setting 'monoclinic'
loop_
_space_group_symop_operation_xyz
x,y,z
-x,y,-z
-x,-y,-z
x,-y,z
loop_
_atom_site_type_symbol
_atom_site_label
_atom_site_fract_x
_atom_site_fract_y
_atom_site_fract_z
Si Si1 0.242954 0.500000 0.374911
Si Si2 0.177819 0.500000 0.040738
Si Si3 0.000000 0.797486 0.500000
Si Si4 0.182190 0.900581 0.133992
Si Si5 0.453355 0.638377 0.254555
Si Si6 0.627811 0.245157 0.035330
Si Si7 0.180344 0.100540 0.871546
Si Si8 0.500000 0.225809 0.500000
O O1 0.358737 0.584443 0.536625
O O2 0.042162 0.500000 0.214675
O O3 0.225638 0.500000 0.223044
O O4 0.270921 0.584036 0.085056
O O5 0.175582 0.734611 0.694461
O O6 0.003863 0.861693 0.613602
O O7 0.331144 0.835931 0.345318
O O8 0.243795 0.000000 0.224264
O O9 0.146433 0.884498 0.964891
O O10 0.000000 0.876613 0.000000
O O11 0.461027 0.717006 0.349388
O O12 0.435937 0.673834 0.109412
O O13 0.642887 0.156522 0.976855
O O14 0.500000 0.227281 0.000000
O O15 0.215257 0.000000 0.879965
#
# Coordination Sequence:
#
# PCOD8066693 Si02
#       8
#     2   2   2   4   4   4   4   2
#     4  10  21  39  64  87 118 147 183 224 288 358
#     4  10  21  39  62  88 116 152 178 229 285 353
#     4   8  19  36  56  77 108 148 198 245 276 320
#     4  10  22  37  53  82 123 162 195 231 288 349
#     4  11  21  38  59  90 118 143 188 240 288 347
#     4  10  22  37  57  83 114 152 193 243 284 329
#     4   9  18  37  57  79 114 152 198 246 280 326
#     4  12  19  35  60  86 118 154 186 239 291 340
#
# _framework density 17.873391000000002
#
# number of rings (size 3 to 8) (size 9 to 14) (size 15 to 20)
#    1.000    1.000    3.333    1.000    0.000    4.333 
#    0.000    1.667    0.000    3.000    0.000    0.000 
#    0.000    0.000    0.000    0.000    0.000    0.000 
#
# Total GULP energy -297418.569802 kJ/mol
# GULP energy per Si atom -12392.440408 kJ/mol
# Density = 1.783271 g / cm^3
# Si number density = 17.873391 Si / 1000 Ang^3
#
#
#
# Elastic Constant Matrix: (Units=GPa)
#
#
# Indices 1 2 3 4 5 6 
#
# 1 129.7764 57.2924 56.4637 0.0000 10.8983 0.0000
# 2 57.2924 105.3755 62.8674 0.0000 8.0262 0.0000
# 3 56.4637 62.8674 99.6990 0.0000 23.1517 0.0000
# 4 0.0000 0.0000 0.0000 45.3932 0.0000 -8.0736
# 5 10.8983 8.0262 23.1517 0.0000 24.4378 0.0000
# 6 0.0000 0.0000 0.0000 -8.0736 0.0000 6.4912
#
#
#
# Elastic Compliance Matrix: (Units=1/GPa)
#
#
# Indices 1 2 3 4 5 6 
#
# 1 0.011032 -0.003637 -0.003961 0.000000 0.000027 0.000000
# 2 -0.003637 0.016955 -0.009891 0.000000 0.005424 0.000000
# 3 -0.003961 -0.009891 0.022238 0.000000 -0.016053 0.000000
# 4 0.000000 0.000000 0.000000 0.028287 0.000000 0.035183
# 5 0.000027 0.005424 -0.016053 0.000000 0.054335 0.000000
# 6 0.000000 0.000000 0.000000 0.035183 0.000000 0.197813
#
#
# Mechanical properties :
#
#
# Convention : Reuss Voigt Hill
#
# Bulk Modulus (GPa) = 65.58480 76.45533 71.02007
# Shear Modulus (GPa) = 13.48718 25.81295 19.65007
#
# Velocity S-wave (km/s) = 2.74997 3.80440 3.31932
# Velocity P-wave (km/s) = 6.84521 7.88460 7.38322
#
# Compressibility (1/GPa) = 0.01524744
#
# Stress axis : x y z
#
# Youngs Moduli (GPa) = 90.64278 58.97802 44.96778
#
# Poissons Ratio (x) = 0.21452 0.17811
# Poissons Ratio (y) = 0.32970 0.44479
# Poissons Ratio (z) = 0.35901 0.58336
#
# Static dielectric constant tensor:
#      x y z
#    x 3.144840 0.000000 -0.063390 
#    y 0.000000 3.332430 0.000000 
#    z -0.063390 0.000000 3.305980 
# 
# 
# High freq. dielectric constant tensor:
#      x y z
#    x 1.684100 0.000000 -0.005510 
#    y 0.000000 1.692000 0.000000 
#    z -0.005510 0.000000 1.691110 
# 
# From -- ./inp_files/51744.got.cif
#   From: 2010.06.25/outbox.cif.g09.slc.cpg/sg10_26_cif.got.tgz:51744.got - 2010.06.27 22:07:45.
