data_PCOD8066603
_publ_section_title
;
Structure prediction by ZEFSAII (Michael W. Deem and Ramdas Pophale) SiO2 
 PCOD8066603
Probable space group: P 2/M
;
_chemical_formula_sum "Si O2"
_cell_formula_units_Z 24
_cell_length_a 14.688566
_cell_length_b 7.785714
_cell_length_c 15.738551
_cell_angle_alpha 90.000000
_cell_angle_beta 140.106586
_cell_angle_gamma 90.000000
_cell_volume 1154.371083
_symmetry_space_group_name_H-M "P 2/M"
_symmetry_group_IT_number 10
_symmetry_cell_setting 'monoclinic'
loop_
_space_group_symop_operation_xyz
x,y,z
-x,y,-z
-x,-y,-z
x,-y,z
loop_
_atom_site_type_symbol
_atom_site_label
_atom_site_fract_x
_atom_site_fract_y
_atom_site_fract_z
Si Si1 0.569911 0.202964 0.465637
Si Si2 0.609441 0.194253 0.824309
Si Si3 0.064063 0.194683 0.638940
Si Si4 0.272440 0.500000 0.813011
Si Si5 0.078341 0.303223 0.971310
Si Si6 0.888639 0.798604 0.678796
Si Si7 0.447347 0.500000 0.094819
O O1 0.500000 0.283110 0.500000
O O2 0.466115 0.256295 0.315620
O O3 0.728775 0.276869 0.566346
O O4 0.581014 0.000000 0.481649
O O5 0.553967 0.324162 0.854645
O O6 0.562896 0.000000 0.815240
O O7 0.779117 0.193866 0.936860
O O8 0.192509 0.325419 0.734486
O O9 0.000000 0.212015 0.500000
O O10 0.949989 0.245327 0.629502
O O11 0.119124 0.000000 0.693834
O O12 0.413301 0.500000 0.860168
O O13 0.305809 0.500000 0.936670
O O14 0.124268 0.500000 0.016162
O O15 0.979781 0.288806 0.818045
O O16 0.000000 0.235304 0.000000
O O17 0.890373 0.000000 0.697582
#
# Coordination Sequence:
#
# PCOD8066603 Si02
#       7
#     4   4   4   2   4   4   2
#     4   9  19  37  62  94 129 167 213 259 315 385
#     4  11  23  42  68  91 127 172 209 262 324 376
#     4  10  23  42  67  97 128 164 215 267 319 384
#     4  11  25  44  66  90 130 167 204 266 326 372
#     4  11  23  39  60  93 133 170 216 265 310 376
#     4  10  21  38  63  94 126 166 214 265 320 376
#     4  11  26  44  62  96 126 160 218 262 309 397
#
# _framework density 20.790541000000001
#
# number of rings (size 3 to 8) (size 9 to 14) (size 15 to 20)
#    0.000    1.667    0.833    2.750    3.500    5.333 
#    1.500    2.083    0.000    0.000    0.000    0.000 
#    0.000    0.000    0.000    0.000    0.000    0.000 
#
# Total GULP energy -297642.326797 kJ/mol
# GULP energy per Si atom -12401.763617 kJ/mol
# Density = 2.074322 g / cm^3
# Si number density = 20.790541 Si / 1000 Ang^3
#
#
#
# Elastic Constant Matrix: (Units=GPa)
#
#
# Indices 1 2 3 4 5 6 
#
# 1 112.3654 34.7761 61.7533 0.0000 -13.3747 0.0000
# 2 34.7761 95.0605 39.4920 0.0000 -7.4939 0.0000
# 3 61.7533 39.4920 157.3531 0.0000 -6.6152 0.0000
# 4 0.0000 0.0000 0.0000 261.3218 0.0000 -45.2929
# 5 -13.3747 -7.4939 -6.6152 0.0000 42.3257 0.0000
# 6 0.0000 0.0000 0.0000 -45.2929 0.0000 29.9245
#
#
#
# Elastic Compliance Matrix: (Units=1/GPa)
#
#
# Indices 1 2 3 4 5 6 
#
# 1 0.012252 -0.002583 -0.004043 0.000000 0.002782 0.000000
# 2 -0.002583 0.012401 -0.002054 0.000000 0.001058 0.000000
# 3 -0.004043 -0.002054 0.008444 0.000000 -0.000322 0.000000
# 4 0.000000 0.000000 0.000000 0.005188 0.000000 0.007852
# 5 0.002782 0.001058 -0.000322 0.000000 0.024643 0.000000
# 6 0.000000 0.000000 0.000000 0.007852 0.000000 0.045302
#
#
# Mechanical properties :
#
#
# Convention : Reuss Voigt Hill
#
# Bulk Modulus (GPa) = 63.54641 70.75798 67.15219
# Shear Modulus (GPa) = 38.21579 81.96490 60.09034
#
# Velocity S-wave (km/s) = 4.29200 6.28568 5.38196
# Velocity P-wave (km/s) = 7.42920 9.31597 8.42557
#
# Compressibility (1/GPa) = 0.01573653
#
# Stress axis : x y z
#
# Youngs Moduli (GPa) = 81.61810 80.63560 118.42899
#
# Poissons Ratio (x) = 0.20830 0.47882
# Poissons Ratio (y) = 0.21084 0.24328
# Poissons Ratio (z) = 0.32999 0.16564
#
# Static dielectric constant tensor:
#      x y z
#    x 3.915400 0.000000 -0.117100 
#    y 0.000000 3.658480 0.000000 
#    z -0.117100 0.000000 4.107380 
# 
# 
# High freq. dielectric constant tensor:
#      x y z
#    x 1.821390 0.000000 -0.004740 
#    y 0.000000 1.811570 0.000000 
#    z -0.004740 0.000000 1.824580 
# 
# From -- ./inp_files/66722.got.cif
#   From: 2010.06.25/outbox.cif.g09.slc.cpg/sg10_34_cif.got.tgz:66722.got - 2010.06.27 22:07:45.
