data_PCOD8066902
_publ_section_title
;
Structure prediction by ZEFSAII (Michael W. Deem and Ramdas Pophale) SiO2 
 PCOD8066902
Probable space group: P 2/M
;
_chemical_formula_sum "Si O2"
_cell_formula_units_Z 16
_cell_length_a 5.290951
_cell_length_b 21.403623
_cell_length_c 5.419409
_cell_angle_alpha 90.000000
_cell_angle_beta 89.427029
_cell_angle_gamma 90.000000
_cell_volume 613.693106
_symmetry_space_group_name_H-M "P 2/M"
_symmetry_group_IT_number 10
_symmetry_cell_setting 'monoclinic'
loop_
_space_group_symop_operation_xyz
x,y,z
-x,y,-z
-x,-y,-z
x,-y,z
loop_
_atom_site_type_symbol
_atom_site_label
_atom_site_fract_x
_atom_site_fract_y
_atom_site_fract_z
Si Si1 0.748726 0.800976 0.864301
Si Si2 0.000000 0.721239 0.500000
Si Si3 0.748795 0.931323 0.659975
Si Si4 0.652763 0.366626 0.239749
Si Si5 0.751677 0.500000 0.339586
O O1 0.736316 0.876380 0.858645
O O2 0.772625 0.766592 0.599059
O O3 0.500000 0.775089 0.000000
O O4 0.000000 0.780095 0.000000
O O5 0.106551 0.678300 0.721218
O O6 0.500000 0.925439 0.500000
O O7 0.000000 0.921154 0.500000
O O8 0.756219 0.000000 0.789176
O O9 0.500000 0.365461 0.500000
O O10 0.750733 0.436855 0.175853
O O11 0.500000 0.342876 0.000000
O O12 0.500000 0.500000 0.500000
O O13 0.000000 0.500000 0.500000
#
# Coordination Sequence:
#
# PCOD8066902 Si02
#       5
#     4   2   4   4   2
#     4  12  29  47  76 109 151 204 264 325 399 478
#     4  12  30  49  73 112 164 208 272 324 408 480
#     4  10  21  43  73 105 145 194 253 325 400 471
#     4  11  27  49  81 116 161 212 269 337 406 485
#     4  10  21  50  80 119 157 203 266 339 405 478
#
# _framework density 26.071666
#
# number of rings (size 3 to 8) (size 9 to 14) (size 15 to 20)
#    0.000    1.000    2.500    1.875    7.000    1.000 
#    0.000    2.500    0.000    0.000    0.000    0.875 
#    0.000    0.000    0.000    0.000    0.000    0.000 
#
# Total GULP energy -198362.847416 kJ/mol
# GULP energy per Si atom -12397.677963 kJ/mol
# Density = 2.601233 g / cm^3
# Si number density = 26.071666 Si / 1000 Ang^3
#
#
#
# Elastic Constant Matrix: (Units=GPa)
#
#
# Indices 1 2 3 4 5 6 
#
# 1 194.6928 42.5609 52.3931 0.0000 1.2998 0.0000
# 2 42.5609 192.4791 45.5535 0.0000 -1.8674 0.0000
# 3 52.3931 45.5535 112.5103 0.0000 6.0526 0.0000
# 4 0.0000 0.0000 0.0000 -123.8079 0.0000 -55.0309
# 5 1.2998 -1.8674 6.0526 0.0000 54.1280 0.0000
# 6 0.0000 0.0000 0.0000 -55.0309 0.0000 -1.9000
#
#
#
# Elastic Compliance Matrix: (Units=1/GPa)
#
#
# Indices 1 2 3 4 5 6 
#
# 1 0.005965 -0.000729 -0.002488 0.000000 0.000110 0.000000
# 2 -0.000729 0.005847 -0.002052 0.000000 0.000449 0.000000
# 3 -0.002488 -0.002052 0.010944 0.000000 -0.001235 0.000000
# 4 0.000000 0.000000 0.000000 0.000680 0.000000 -0.019702
# 5 0.000110 0.000449 -0.001235 0.000000 0.018626 0.000000
# 6 0.000000 0.000000 0.000000 -0.019702 0.000000 0.044325
#
#
# Mechanical properties :
#
#
# Convention : Reuss Voigt Hill
#
# Bulk Modulus (GPa) = 81.85389 86.74415 84.29902
# Shear Modulus (GPa) = 49.50657 9.62901 29.56779
#
# Velocity S-wave (km/s) = 4.36232 1.92388 3.37129
# Velocity P-wave (km/s) = 7.53903 6.18698 6.89622
#
# Compressibility (1/GPa) = 0.01221689
#
# Stress axis : x y z
#
# Youngs Moduli (GPa) = 167.65790 171.04245 91.37428
#
# Poissons Ratio (x) = 0.12467 0.22737
# Poissons Ratio (y) = 0.12221 0.18749
# Poissons Ratio (z) = 0.41719 0.35095
#
# Static dielectric constant tensor:
#      x y z
#    x 4.897480 0.000000 0.152030 
#    y 0.000000 5.465670 0.000000 
#    z 0.152030 0.000000 4.348110 
# 
# 
# High freq. dielectric constant tensor:
#      x y z
#    x 2.057580 0.000000 0.002290 
#    y 0.000000 2.081140 0.000000 
#    z 0.002290 0.000000 2.007280 
# 
# From -- ./inp_files/1324.got.cif
#   From: 2010.06.25/outbox.cif.g09.slc.cpg/sg10_1_cif.got.tgz:1324.got - 2010.06.27 22:07:45.
