data_PCOD8066447
_publ_section_title
;
Structure prediction by ZEFSAII (Michael W. Deem and Ramdas Pophale) SiO2 
 PCOD8066447
Probable space group: P 2/M
;
_chemical_formula_sum "Si O2"
_cell_formula_units_Z 28
_cell_length_a 12.783976
_cell_length_b 13.824704
_cell_length_c 8.297882
_cell_angle_alpha 90.000000
_cell_angle_beta 74.863579
_cell_angle_gamma 90.000000
_cell_volume 1415.645221
_symmetry_space_group_name_H-M "P 2/M"
_symmetry_group_IT_number 10
_symmetry_cell_setting 'monoclinic'
loop_
_space_group_symop_operation_xyz
x,y,z
-x,y,-z
-x,-y,-z
x,-y,z
loop_
_atom_site_type_symbol
_atom_site_label
_atom_site_fract_x
_atom_site_fract_y
_atom_site_fract_z
Si Si1 0.498358 0.111205 0.689894
Si Si2 0.779033 0.606899 0.270462
Si Si3 0.686764 0.228843 0.729354
Si Si4 0.411686 0.606089 0.411777
Si Si5 0.093713 0.886306 0.841789
Si Si6 0.705036 0.779175 0.096163
Si Si7 0.900052 0.745364 0.431470
O O1 0.500000 0.131858 0.500000
O O2 0.618085 0.133615 0.710796
O O3 0.413010 0.181516 0.810915
O O4 0.469879 0.000000 0.739874
O O5 0.811385 0.500000 0.190129
O O6 0.699614 0.593361 0.450803
O O7 0.722651 0.670055 0.153251
O O8 0.882996 0.662304 0.302541
O O9 0.607794 0.321047 0.728446
O O10 0.793784 0.234051 0.578928
O O11 0.721588 0.224664 0.899347
O O12 0.500000 0.649896 0.500000
O O13 0.450276 0.500000 0.332142
O O14 0.209250 0.851542 0.859868
O O15 0.069439 0.843296 0.675123
O O16 0.096401 0.000000 0.821695
O O17 0.000000 0.851655 0.000000
O O18 0.000000 0.711759 0.500000
#
# Coordination Sequence:
#
# PCOD8066447 Si02
#       7
#     4   4   4   4   4   4   4
#     4  11  23  39  58  80 110 149 190 231 278 332
#     4   9  19  35  56  81 110 147 186 225 273 329
#     4  11  22  35  55  83 113 146 183 228 281 334
#     4   9  17  32  54  78 107 143 183 226 273 327
#     4  10  21  38  59  82 110 146 188 232 278 327
#     4  11  22  36  57  83 116 148 183 229 278 331
#     4  10  21  38  59  83 113 146 186 232 280 332
#
# _framework density 19.778967999999999
#
# number of rings (size 3 to 8) (size 9 to 14) (size 15 to 20)
#    0.000    1.857    0.000    5.571    0.000    4.571 
#    0.000    0.000    0.000   18.857    0.000    0.000 
#    0.000    0.000    0.000    0.000    0.000    0.000 
#
# Total GULP energy -347196.982322 kJ/mol
# GULP energy per Si atom -12399.892226 kJ/mol
# Density = 1.973395 g / cm^3
# Si number density = 19.778968 Si / 1000 Ang^3
#
#
#
# Elastic Constant Matrix: (Units=GPa)
#
#
# Indices 1 2 3 4 5 6 
#
# 1 90.9013 33.4849 15.0874 0.0000 2.2505 0.0000
# 2 33.4849 114.9816 48.4715 0.0000 4.1519 0.0000
# 3 15.0874 48.4715 85.6866 0.0000 6.8830 0.0000
# 4 0.0000 0.0000 0.0000 13.1307 0.0000 -2.9612
# 5 2.2505 4.1519 6.8830 0.0000 35.6263 0.0000
# 6 0.0000 0.0000 0.0000 -2.9612 0.0000 17.5542
#
#
#
# Elastic Compliance Matrix: (Units=1/GPa)
#
#
# Indices 1 2 3 4 5 6 
#
# 1 0.012329 -0.003512 -0.000157 0.000000 -0.000339 0.000000
# 2 -0.003512 0.012421 -0.006409 0.000000 0.000013 0.000000
# 3 -0.000157 -0.006409 0.015503 0.000000 -0.002238 0.000000
# 4 0.000000 0.000000 0.000000 0.079169 0.000000 0.013355
# 5 -0.000339 0.000013 -0.002238 0.000000 0.028522 0.000000
# 6 0.000000 0.000000 0.000000 0.013355 0.000000 0.059219
#
#
# Mechanical properties :
#
#
# Convention : Reuss Voigt Hill
#
# Bulk Modulus (GPa) = 49.75722 53.96189 51.85955
# Shear Modulus (GPa) = 21.36580 26.23062 23.79821
#
# Velocity S-wave (km/s) = 3.29025 3.64564 3.47249
# Velocity P-wave (km/s) = 6.29647 6.71287 6.50800
#
# Compressibility (1/GPa) = 0.02009759
#
# Stress axis : x y z
#
# Youngs Moduli (GPa) = 81.10878 80.50766 64.50208
#
# Poissons Ratio (x) = 0.28275 0.01012
# Poissons Ratio (y) = 0.28486 0.41340
# Poissons Ratio (z) = 0.01272 0.51598
#
# Static dielectric constant tensor:
#      x y z
#    x 3.619170 0.000000 0.024980 
#    y 0.000000 3.960730 0.000000 
#    z 0.024980 0.000000 3.493940 
# 
# 
# High freq. dielectric constant tensor:
#      x y z
#    x 1.773790 0.000000 0.002000 
#    y 0.000000 1.778450 0.000000 
#    z 0.002000 0.000000 1.757040 
# 
# From -- ./inp_files/24875.got.cif
#   From: 2010.06.25/outbox.cif.g09.slc.cpg/sg10_13_cif.got.tgz:24875.got - 2010.06.27 22:07:45.
