data_PCOD8066611
_publ_section_title
;
Structure prediction by ZEFSAII (Michael W. Deem and Ramdas Pophale) SiO2 
 PCOD8066611
Probable space group: P 2/M
;
_chemical_formula_sum "Si O2"
_cell_formula_units_Z 14
_cell_length_a 11.284190
_cell_length_b 10.832329
_cell_length_c 9.486421
_cell_angle_alpha 90.000000
_cell_angle_beta 141.881007
_cell_angle_gamma 90.000000
_cell_volume 715.794873
_symmetry_space_group_name_H-M "P 2/M"
_symmetry_group_IT_number 10
_symmetry_cell_setting 'monoclinic'
loop_
_space_group_symop_operation_xyz
x,y,z
-x,y,-z
-x,-y,-z
x,-y,z
loop_
_atom_site_type_symbol
_atom_site_label
_atom_site_fract_x
_atom_site_fract_y
_atom_site_fract_z
Si Si1 0.033548 0.641363 0.812417
Si Si2 0.696083 0.000000 0.267795
Si Si3 0.000000 0.794702 0.500000
Si Si4 0.271965 0.738084 0.279956
Si Si5 0.694586 0.000000 0.597842
O O1 0.090818 0.500000 0.840555
O O2 0.014844 0.707656 0.647349
O O3 0.832007 0.645335 0.708900
O O4 0.202918 0.708889 0.057660
O O5 0.653571 0.000000 0.393663
O O6 0.811227 0.878114 0.332539
O O7 0.500000 0.000000 0.000000
O O8 0.500000 0.722193 0.500000
O O9 0.196874 0.875105 0.254360
O O10 0.500000 0.000000 0.500000
#
# Coordination Sequence:
#
# PCOD8066611 Si02
#       5
#     4   2   2   4   2
#     4  11  24  41  62  90 125 167 210 251 298 365
#     4  11  25  43  65  94 128 158 201 255 314 372
#     4  11  25  42  64  92 127 165 200 250 314 369
#     4  10  22  40  64  92 124 158 208 260 308 355
#     4  10  21  38  65  96 118 154 201 259 310 366
#
# _framework density 19.558675999999998
#
# number of rings (size 3 to 8) (size 9 to 14) (size 15 to 20)
#    0.000    1.429    2.857    2.143    8.000    5.714 
#    0.000    0.000    0.000    5.143    0.000    0.000 
#    0.000    0.000    0.000    0.000    0.000    0.000 
#
# Total GULP energy -173597.842025 kJ/mol
# GULP energy per Si atom -12399.845859 kJ/mol
# Density = 1.951416 g / cm^3
# Si number density = 19.558676 Si / 1000 Ang^3
#
#
#
# Elastic Constant Matrix: (Units=GPa)
#
#
# Indices 1 2 3 4 5 6 
#
# 1 87.8297 23.3677 71.2961 0.0000 -3.6505 0.0000
# 2 23.3677 136.9678 80.8845 0.0000 -11.1563 0.0000
# 3 71.2961 80.8845 176.9630 0.0000 -6.8547 0.0000
# 4 0.0000 0.0000 0.0000 30.6767 0.0000 -15.1935
# 5 -3.6505 -11.1563 -6.8547 0.0000 41.9531 0.0000
# 6 0.0000 0.0000 0.0000 -15.1935 0.0000 32.8742
#
#
#
# Elastic Compliance Matrix: (Units=1/GPa)
#
#
# Indices 1 2 3 4 5 6 
#
# 1 0.017185 0.001639 -0.007646 0.000000 0.000682 0.000000
# 2 0.001639 0.010313 -0.005296 0.000000 0.002020 0.000000
# 3 -0.007646 -0.005296 0.011142 0.000000 -0.000253 0.000000
# 4 0.000000 0.000000 0.000000 0.042275 0.000000 0.019538
# 5 0.000682 0.002020 -0.000253 0.000000 0.024391 0.000000
# 6 0.000000 0.000000 0.000000 0.019538 0.000000 0.039449
#
#
# Mechanical properties :
#
#
# Convention : Reuss Voigt Hill
#
# Bulk Modulus (GPa) = 62.36735 83.65078 73.00906
# Shear Modulus (GPa) = 28.95075 36.18160 32.56617
#
# Velocity S-wave (km/s) = 3.85151 4.30571 4.08493
# Velocity P-wave (km/s) = 7.19273 8.22076 7.72387
#
# Compressibility (1/GPa) = 0.01603403
#
# Stress axis : x y z
#
# Youngs Moduli (GPa) = 58.19078 96.96133 89.74748
#
# Poissons Ratio (x) = -0.15893 0.68624
# Poissons Ratio (y) = -0.09538 0.47531
# Poissons Ratio (z) = 0.44495 0.51351
#
# Static dielectric constant tensor:
#      x y z
#    x 3.444140 0.000000 0.457870 
#    y 0.000000 4.285790 0.000000 
#    z 0.457870 0.000000 1.398730 
# 
# 
# High freq. dielectric constant tensor:
#      x y z
#    x 1.765070 0.000000 -0.008490 
#    y 0.000000 1.776480 0.000000 
#    z -0.008490 0.000000 1.762430 
# 
# From -- ./inp_files/22877.got.cif
#   From: 2010.06.25/outbox.cif.g09.slc.cpg/sg10_12_cif.got.tgz:22877.got - 2010.06.27 22:07:45.
