data_PCOD8066168
_publ_section_title
;
Structure prediction by ZEFSAII (Michael W. Deem and Ramdas Pophale) SiO2 
 PCOD8066168
Probable space group: P 2/M
;
_chemical_formula_sum "Si O2"
_cell_formula_units_Z 16
_cell_length_a 9.195805
_cell_length_b 13.177103
_cell_length_c 12.062241
_cell_angle_alpha 90.000000
_cell_angle_beta 140.309331
_cell_angle_gamma 90.000000
_cell_volume 933.459579
_symmetry_space_group_name_H-M "P 2/M"
_symmetry_group_IT_number 10
_symmetry_cell_setting 'monoclinic'
loop_
_space_group_symop_operation_xyz
x,y,z
-x,y,-z
-x,-y,-z
x,-y,z
loop_
_atom_site_type_symbol
_atom_site_label
_atom_site_fract_x
_atom_site_fract_y
_atom_site_fract_z
Si Si1 0.845954 0.194966 0.703036
Si Si2 0.346939 0.215643 0.017867
Si Si3 0.956634 0.386862 0.104100
Si Si4 0.505852 0.881440 0.331391
O O1 0.721668 0.139031 0.731706
O O2 0.722380 0.172673 0.515052
O O3 0.845893 0.317444 0.723576
O O4 0.108187 0.156009 0.854759
O O5 0.484687 0.161291 0.195947
O O6 0.500000 0.213693 0.000000
O O7 0.287630 0.332316 0.016763
O O8 0.957732 0.500000 0.156400
O O9 0.000000 0.391968 0.000000
O O10 0.555098 0.000000 0.355864
#
# Coordination Sequence:
#
# PCOD8066168 Si02
#       4
#     4   4   4   4
#     4   9  19  37  55  82 109 135 187 232 261 320
#     4  10  21  37  55  80 119 145 176 222 272 330
#     4   9  17  36  60  82 109 142 182 226 272 318
#     4  11  21  36  59  80 105 148 188 227 275 315
#
# _framework density 17.140537999999999
#
# number of rings (size 3 to 8) (size 9 to 14) (size 15 to 20)
#    1.500    0.750    2.500    2.250    0.000    5.000 
#    0.000    5.000    0.000    1.500    0.000    0.000 
#    0.000    0.000    0.000    0.000    0.000    0.000 
#
# Total GULP energy -198251.592934 kJ/mol
# GULP energy per Si atom -12390.724558 kJ/mol
# Density = 1.710153 g / cm^3
# Si number density = 17.140538 Si / 1000 Ang^3
#
#
#
# Elastic Constant Matrix: (Units=GPa)
#
#
# Indices 1 2 3 4 5 6 
#
# 1 109.3509 31.0214 59.1077 0.0000 -16.7961 0.0000
# 2 31.0214 146.4121 68.0356 0.0000 -11.2924 0.0000
# 3 59.1077 68.0356 122.5856 0.0000 -15.1304 0.0000
# 4 0.0000 0.0000 0.0000 19.6487 0.0000 -4.6463
# 5 -16.7961 -11.2924 -15.1304 0.0000 14.0940 0.0000
# 6 0.0000 0.0000 0.0000 -4.6463 0.0000 2.7109
#
#
#
# Elastic Compliance Matrix: (Units=1/GPa)
#
#
# Indices 1 2 3 4 5 6 
#
# 1 0.013639 0.000510 -0.005536 0.000000 0.010719 0.000000
# 2 0.000510 0.009281 -0.005077 0.000000 0.002593 0.000000
# 3 -0.005536 -0.005077 0.014211 0.000000 0.004591 0.000000
# 4 0.000000 0.000000 0.000000 0.085577 0.000000 0.146672
# 5 0.010719 0.002593 0.004591 0.000000 0.090733 0.000000
# 6 0.000000 0.000000 0.000000 0.146672 0.000000 0.620262
#
#
# Mechanical properties :
#
#
# Convention : Reuss Voigt Hill
#
# Bulk Modulus (GPa) = 59.08474 77.18645 68.13559
# Shear Modulus (GPa) = 5.81699 21.96967 13.89333
#
# Velocity S-wave (km/s) = 1.84420 3.58402 2.85011
# Velocity P-wave (km/s) = 6.25143 7.89026 7.11817
#
# Compressibility (1/GPa) = 0.01692484
#
# Stress axis : x y z
#
# Youngs Moduli (GPa) = 73.31754 107.74522 70.36681
#
# Poissons Ratio (x) = -0.05490 0.38957
# Poissons Ratio (y) = -0.03736 0.35723
# Poissons Ratio (z) = 0.40591 0.54698
#
# Static dielectric constant tensor:
#      x y z
#    x 2.966610 0.000000 0.015510 
#    y 0.000000 3.363700 0.000000 
#    z 0.015510 0.000000 3.154160 
# 
# 
# High freq. dielectric constant tensor:
#      x y z
#    x 1.646830 0.000000 -0.003980 
#    y 0.000000 1.656920 0.000000 
#    z -0.003980 0.000000 1.656210 
# 
# From -- ./inp_files/23354.got.cif
#   From: 2010.06.25/outbox.cif.g09.slc.cpg/sg10_12_cif.got.tgz:23354.got - 2010.06.27 22:07:45.
