data_PCOD8066005
_publ_section_title
;
Structure prediction by ZEFSAII (Michael W. Deem and Ramdas Pophale) SiO2 
 PCOD8066005
Probable space group: P 2/M
;
_chemical_formula_sum "Si O2"
_cell_formula_units_Z 28
_cell_length_a 20.300316
_cell_length_b 8.762806
_cell_length_c 17.818027
_cell_angle_alpha 90.000000
_cell_angle_beta 151.266165
_cell_angle_gamma 90.000000
_cell_volume 1523.761965
_symmetry_space_group_name_H-M "P 2/M"
_symmetry_group_IT_number 10
_symmetry_cell_setting 'monoclinic'
loop_
_space_group_symop_operation_xyz
x,y,z
-x,y,-z
-x,-y,-z
x,-y,z
loop_
_atom_site_type_symbol
_atom_site_label
_atom_site_fract_x
_atom_site_fract_y
_atom_site_fract_z
Si Si1 0.342528 0.820333 0.333638
Si Si2 0.656858 0.818780 0.075772
Si Si3 0.348466 0.818113 0.763976
Si Si4 0.862668 0.819430 0.740786
Si Si5 0.841560 0.175475 0.553924
Si Si6 0.152996 0.176791 0.865194
Si Si7 0.150432 0.679538 0.022050
O O1 0.500000 0.768184 0.500000
O O2 0.257719 0.772607 0.323002
O O3 0.278233 0.734715 0.198901
O O4 0.332814 0.000000 0.309518
O O5 0.698880 0.758912 0.200867
O O6 0.756494 0.752331 0.111511
O O7 0.666303 0.000000 0.084853
O O8 0.503352 0.765187 0.903110
O O9 0.254083 0.744271 0.604325
O O10 0.337572 0.000000 0.752619
O O11 0.821591 0.753996 0.617377
O O12 0.885487 0.000000 0.759783
O O13 0.008475 0.750043 0.911586
O O14 0.997156 0.195523 0.682971
O O15 0.798288 0.000000 0.515480
O O16 0.188030 0.000000 0.916528
O O17 0.182404 0.270811 0.969387
O O18 0.137547 0.500000 0.014009
#
# Coordination Sequence:
#
# PCOD8066005 Si02
#       7
#     4   4   4   4   4   4   4
#     4  10  21  36  55  79 104 129 160 200 245 294
#     4   8  14  23  38  63  96 128 154 189 240 293
#     4   8  13  22  37  64  98 124 150 190 242 292
#     4   9  18  34  54  75  99 129 165 202 243 295
#     4   8  14  24  40  63  91 120 151 190 233 278
#     4   9  17  30  47  68  93 123 161 202 243 287
#     4  11  22  35  52  73  99 133 169 205 247 292
#
# _framework density 18.375572999999999
#
# number of rings (size 3 to 8) (size 9 to 14) (size 15 to 20)
#    0.000    3.000    0.000    3.429    0.000    4.286 
#    0.000    7.143    0.000    0.000    0.000   10.000 
#    0.000    0.000    0.000    0.000    0.000    0.000 
#
# Total GULP energy -347068.169467 kJ/mol
# GULP energy per Si atom -12395.291767 kJ/mol
# Density = 1.833375 g / cm^3
# Si number density = 18.375573 Si / 1000 Ang^3
#
#
#
# Elastic Constant Matrix: (Units=GPa)
#
#
# Indices 1 2 3 4 5 6 
#
# 1 122.6013 16.9533 67.5117 0.0000 5.4303 0.0000
# 2 16.9533 28.1797 28.9277 0.0000 -2.2438 0.0000
# 3 67.5117 28.9277 149.1859 0.0000 -12.7413 0.0000
# 4 0.0000 0.0000 0.0000 3.5251 0.0000 0.8281
# 5 5.4303 -2.2438 -12.7413 0.0000 24.1216 0.0000
# 6 0.0000 0.0000 0.0000 0.8281 0.0000 5.6929
#
#
#
# Elastic Compliance Matrix: (Units=1/GPa)
#
#
# Indices 1 2 3 4 5 6 
#
# 1 0.011630 -0.001934 -0.005369 0.000000 -0.005634 0.000000
# 2 -0.001934 0.044631 -0.007736 0.000000 0.000501 0.000000
# 3 -0.005369 -0.007736 0.011179 0.000000 0.006394 0.000000
# 4 0.000000 0.000000 0.000000 0.293712 0.000000 -0.042723
# 5 -0.005634 0.000501 0.006394 0.000000 0.046149 0.000000
# 6 0.000000 0.000000 0.000000 -0.042723 0.000000 0.181870
#
#
# Mechanical properties :
#
#
# Convention : Reuss Voigt Hill
#
# Bulk Modulus (GPa) = 26.76523 58.52804 42.64663
# Shear Modulus (GPa) = 7.91509 19.10621 13.51065
#
# Velocity S-wave (km/s) = 2.07768 3.22803 2.71449
# Velocity P-wave (km/s) = 4.51142 6.76858 5.75181
#
# Compressibility (1/GPa) = 0.03736191
#
# Stress axis : x y z
#
# Youngs Moduli (GPa) = 85.98376 22.40571 89.45329
#
# Poissons Ratio (x) = 0.04333 0.48030
# Poissons Ratio (y) = 0.16626 0.69205
# Poissons Ratio (z) = 0.46167 0.17334
#
# Static dielectric constant tensor:
#      x y z
#    x 3.732510 0.000000 -0.152470 
#    y 0.000000 2.822320 0.000000 
#    z -0.152470 0.000000 3.588940 
# 
# 
# High freq. dielectric constant tensor:
#      x y z
#    x 1.722480 0.000000 -0.007210 
#    y 0.000000 1.653900 0.000000 
#    z -0.007210 0.000000 1.716060 
# 
# From -- ./inp_files/79321.got.cif
#   From: 2010.06.25/outbox.cif.g09.slc.cpg/sg10_40_cif.got.tgz:79321.got - 2010.06.27 22:07:45.
