data_PCOD8066356
_publ_section_title
;
Structure prediction by ZEFSAII (Michael W. Deem and Ramdas Pophale) SiO2 
 PCOD8066356
Probable space group: P 2/M
;
_chemical_formula_sum "Si O2"
_cell_formula_units_Z 24
_cell_length_a 16.253536
_cell_length_b 10.191051
_cell_length_c 22.686411
_cell_angle_alpha 90.000000
_cell_angle_beta 18.222991
_cell_angle_gamma 90.000000
_cell_volume 1175.121716
_symmetry_space_group_name_H-M "P 2/M"
_symmetry_group_IT_number 10
_symmetry_cell_setting 'monoclinic'
loop_
_space_group_symop_operation_xyz
x,y,z
-x,y,-z
-x,-y,-z
x,-y,z
loop_
_atom_site_type_symbol
_atom_site_label
_atom_site_fract_x
_atom_site_fract_y
_atom_site_fract_z
Si Si1 0.858628 0.354224 0.739562
Si Si2 0.572767 0.355271 0.687779
Si Si3 0.777332 0.148689 0.893811
Si Si4 0.851434 0.853801 0.040622
Si Si5 0.719901 0.752620 0.710066
Si Si6 0.206421 0.155152 0.695030
O O1 0.773566 0.500000 0.818634
O O2 0.734728 0.246684 0.867995
O O3 0.757572 0.335509 0.742026
O O4 0.171226 0.341335 0.526900
O O5 0.447408 0.500000 0.764544
O O6 0.392109 0.241391 0.785577
O O7 0.632546 0.340364 0.716252
O O8 0.042964 0.193320 0.747545
O O9 0.809703 0.000000 0.847867
O O10 0.521409 0.148320 0.111357
O O11 0.753196 0.000000 0.088750
O O12 0.000000 0.864335 0.000000
O O13 0.044401 0.791277 0.860869
O O14 0.000000 0.822014 0.500000
O O15 0.500000 0.217574 0.500000
O O16 0.230644 0.000000 0.683231
#
# Coordination Sequence:
#
# PCOD8066356 Si02
#       6
#     4   4   4   4   4   4
#     4  10  23  40  60  87 121 161 203 242 291 358
#     4  10  21  39  62  88 119 156 201 251 298 345
#     4  11  23  39  61  91 123 156 198 245 298 354
#     4  10  21  37  61  89 117 153 199 243 297 361
#     4  10  21  39  62  87 118 159 202 245 296 355
#     4   9  19  37  59  85 118 154 192 238 291 353
#
# _framework density 20.423418000000002
#
# number of rings (size 3 to 8) (size 9 to 14) (size 15 to 20)
#    0.000    2.000    1.667    1.000    2.333    6.667 
#    0.000    3.333    0.000    1.000    0.000    0.000 
#    0.000    0.000    0.000    0.000    0.000    0.000 
#
# Total GULP energy -297448.432934 kJ/mol
# GULP energy per Si atom -12393.684706 kJ/mol
# Density = 2.037693 g / cm^3
# Si number density = 20.423418 Si / 1000 Ang^3
#
#
#
# Elastic Constant Matrix: (Units=GPa)
#
#
# Indices 1 2 3 4 5 6 
#
# 1 72.1628 35.4579 27.9385 0.0000 1.2194 0.0000
# 2 35.4579 104.0302 46.9596 0.0000 -1.2075 0.0000
# 3 27.9385 46.9596 116.8988 0.0000 -8.8748 0.0000
# 4 0.0000 0.0000 0.0000 17.4148 0.0000 5.8202
# 5 1.2194 -1.2075 -8.8748 0.0000 36.4494 0.0000
# 6 0.0000 0.0000 0.0000 5.8202 0.0000 16.9691
#
#
#
# Elastic Compliance Matrix: (Units=1/GPa)
#
#
# Indices 1 2 3 4 5 6 
#
# 1 0.017126 -0.004838 -0.002247 0.000000 -0.001280 0.000000
# 2 -0.004838 0.013130 -0.004150 0.000000 -0.000414 0.000000
# 3 -0.002247 -0.004150 0.010956 0.000000 0.002605 0.000000
# 4 0.000000 0.000000 0.000000 0.064857 0.000000 -0.022245
# 5 -0.001280 -0.000414 0.002605 0.000000 0.028099 0.000000
# 6 0.000000 0.000000 0.000000 -0.022245 0.000000 0.066560
#
#
# Mechanical properties :
#
#
# Convention : Reuss Voigt Hill
#
# Bulk Modulus (GPa) = 53.35183 57.08931 55.22057
# Shear Modulus (GPa) = 21.79173 26.34904 24.07039
#
# Velocity S-wave (km/s) = 3.27004 3.59575 3.43675
# Velocity P-wave (km/s) = 6.35902 6.72702 6.54560
#
# Compressibility (1/GPa) = 0.01874350
#
# Stress axis : x y z
#
# Youngs Moduli (GPa) = 58.38982 76.16200 91.27312
#
# Poissons Ratio (x) = 0.36847 0.20508
# Poissons Ratio (y) = 0.28249 0.37874
# Poissons Ratio (z) = 0.13119 0.31604
#
# Static dielectric constant tensor:
#      x y z
#    x 3.611670 0.000000 -0.035000 
#    y 0.000000 3.456360 0.000000 
#    z -0.035000 0.000000 4.128080 
# 
# 
# High freq. dielectric constant tensor:
#      x y z
#    x 1.797790 0.000000 -0.000730 
#    y 0.000000 1.767010 0.000000 
#    z -0.000730 0.000000 1.812590 
# 
# From -- ./inp_files/80120.got.cif
#   From: 2010.06.25/outbox.cif.g09.slc.cpg/sg10_41_cif.got.tgz:80120.got - 2010.06.27 22:07:45.
