data_PCOD8066128
_publ_section_title
;
Structure prediction by ZEFSAII (Michael W. Deem and Ramdas Pophale) SiO2 
 PCOD8066128
Probable space group: P 2/M
;
_chemical_formula_sum "Si O2"
_cell_formula_units_Z 18
_cell_length_a 5.496528
_cell_length_b 19.273363
_cell_length_c 6.805445
_cell_angle_alpha 90.000000
_cell_angle_beta 77.885133
_cell_angle_gamma 90.000000
_cell_volume 704.889251
_symmetry_space_group_name_H-M "P 2/M"
_symmetry_group_IT_number 10
_symmetry_cell_setting 'monoclinic'
loop_
_space_group_symop_operation_xyz
x,y,z
-x,y,-z
-x,-y,-z
x,-y,z
loop_
_atom_site_type_symbol
_atom_site_label
_atom_site_fract_x
_atom_site_fract_y
_atom_site_fract_z
Si Si1 0.000000 0.635079 0.500000
Si Si2 0.763542 0.576094 0.177096
Si Si3 0.554337 0.852089 0.259367
Si Si4 0.554829 0.300324 0.718688
Si Si5 0.944703 0.079920 0.737917
O O1 0.170776 0.585642 0.603727
O O2 0.148812 0.685740 0.322524
O O3 0.635716 0.500000 0.177685
O O4 0.579980 0.637670 0.140434
O O5 0.000000 0.579757 0.000000
O O6 0.500000 0.857663 0.500000
O O7 0.539325 0.773143 0.182657
O O8 0.333709 0.890445 0.173801
O O9 0.831759 0.883585 0.173291
O O10 0.500000 0.303846 0.500000
O O11 0.000000 0.090776 0.500000
O O12 0.948430 0.000000 0.798025
#
# Coordination Sequence:
#
# PCOD8066128 Si02
#       5
#     2   4   4   4   4
#     4  10  21  36  60  82 113 156 198 242 303 358
#     4  10  22  39  58  84 117 151 196 249 299 359
#     4   9  17  26  45  67 106 148 193 241 293 353
#     4   9  20  33  53  79 109 150 198 242 297 356
#     4   9  16  25  40  67 104 148 192 237 294 353
#
# _framework density 25.535926
#
# number of rings (size 3 to 8) (size 9 to 14) (size 15 to 20)
#    0.000    2.667    0.000    1.000   10.889    8.444 
#    0.000    2.222    0.000    0.000    0.000    0.000 
#    0.000    5.333    0.000    2.889    0.000    1.333 
#
# Total GULP energy -223058.794041 kJ/mol
# GULP energy per Si atom -12392.155224 kJ/mol
# Density = 2.547780 g / cm^3
# Si number density = 25.535926 Si / 1000 Ang^3
#
#
#
# Elastic Constant Matrix: (Units=GPa)
#
#
# Indices 1 2 3 4 5 6 
#
# 1 171.9208 101.9619 38.3365 0.0000 -27.4098 0.0000
# 2 101.9619 262.6824 26.1870 0.0000 -49.0428 0.0000
# 3 38.3365 26.1870 36.0851 0.0000 -9.8127 0.0000
# 4 0.0000 0.0000 0.0000 -42.5383 0.0000 -80.1076
# 5 -27.4098 -49.0428 -9.8127 0.0000 52.8925 0.0000
# 6 0.0000 0.0000 0.0000 -80.1076 0.0000 -114.2557
#
#
#
# Elastic Compliance Matrix: (Units=1/GPa)
#
#
# Indices 1 2 3 4 5 6 
#
# 1 0.009241 -0.002655 -0.007643 0.000000 0.000909 0.000000
# 2 -0.002655 0.005555 -0.000194 0.000000 0.003739 0.000000
# 3 -0.007643 -0.000194 0.036698 0.000000 0.002668 0.000000
# 4 0.000000 0.000000 0.000000 0.073383 0.000000 -0.051451
# 5 0.000909 0.003739 0.002668 0.000000 0.023339 0.000000
# 6 0.000000 0.000000 0.000000 -0.051451 0.000000 0.027321
#
#
# Mechanical properties :
#
#
# Convention : Reuss Voigt Hill
#
# Bulk Modulus (GPa) = 32.77639 89.29546 61.03593
# Shear Modulus (GPa) = 24.19084 -0.50009 11.84537
#
# Velocity S-wave (km/s) = 3.08120 -0.44302 2.15610
# Velocity P-wave (km/s) = 5.05190 5.89769 5.49111
#
# Compressibility (1/GPa) = 0.03050977
#
# Stress axis : x y z
#
# Youngs Moduli (GPa) = 108.21850 180.02424 27.24926
#
# Poissons Ratio (x) = 0.47800 0.20827
# Poissons Ratio (y) = 0.28734 0.00528
# Poissons Ratio (z) = 0.82712 0.03486
#
# Static dielectric constant tensor:
#      x y z
#    x 5.757710 0.000000 -0.865170 
#    y 0.000000 4.862350 0.000000 
#    z -0.865170 0.000000 4.815740 
# 
# 
# High freq. dielectric constant tensor:
#      x y z
#    x 2.023390 0.000000 0.003570 
#    y 0.000000 2.014460 0.000000 
#    z 0.003570 0.000000 2.026650 
# 
# From -- ./inp_files/4195.got.cif
#   From: 2010.06.25/outbox.cif.g09.slc.cpg/sg10_3_cif.got.tgz:4195.got - 2010.06.27 22:07:45.
