data_PCOD8066208
_publ_section_title
;
Structure prediction by ZEFSAII (Michael W. Deem and Ramdas Pophale) SiO2 
 PCOD8066208
Probable space group: P 2/M
;
_chemical_formula_sum "Si O2"
_cell_formula_units_Z 28
_cell_length_a 27.821429
_cell_length_b 8.987794
_cell_length_c 8.095045
_cell_angle_alpha 90.000000
_cell_angle_beta 135.478062
_cell_angle_gamma 90.000000
_cell_volume 1419.327968
_symmetry_space_group_name_H-M "P 2/M"
_symmetry_group_IT_number 10
_symmetry_cell_setting 'monoclinic'
loop_
_space_group_symop_operation_xyz
x,y,z
-x,y,-z
-x,-y,-z
x,-y,z
loop_
_atom_site_type_symbol
_atom_site_label
_atom_site_fract_x
_atom_site_fract_y
_atom_site_fract_z
Si Si1 0.933331 0.328970 0.752775
Si Si2 0.580383 0.671479 0.711399
Si Si3 0.350929 0.822144 0.807623
Si Si4 0.931296 0.834659 0.432791
Si Si5 0.197249 0.163314 0.445583
Si Si6 0.344109 0.324295 0.439895
Si Si7 0.795017 0.164375 0.914706
O O1 0.931969 0.500000 0.795939
O O2 0.944150 0.298494 0.588813
O O3 0.859412 0.266828 0.615901
O O4 0.000000 0.252310 0.000000
O O5 0.500000 0.694452 0.500000
O O6 0.600355 0.500000 0.791146
O O7 0.612552 0.726576 0.615509
O O8 0.603222 0.764215 0.928771
O O9 0.273487 0.772778 0.663255
O O10 0.370850 0.754338 0.675347
O O11 0.357217 0.000000 0.806512
O O12 0.000000 0.843318 0.500000
O O13 0.918583 0.000000 0.478936
O O14 0.863799 0.782167 0.171117
O O15 0.182652 0.153992 0.218149
O O16 0.191275 0.000000 0.512334
O O17 0.350139 0.500000 0.482805
O O18 0.265904 0.281050 0.206685
O O19 0.770740 0.000000 0.915384
#
# Coordination Sequence:
#
# PCOD8066208 Si02
#       7
#     4   4   4   4   4   4   4
#     4  11  24  37  51  77 112 148 187 236 290 342
#     4  10  23  42  63  90 125 164 205 248 298 364
#     4  10  22  40  63  91 123 159 201 252 304 356
#     4  10  21  37  57  79 106 146 191 235 286 345
#     4   9  19  37  59  82 108 145 189 234 286 346
#     4  10  21  38  62  90 121 160 201 245 301 362
#     4   9  19  36  58  84 112 143 187 241 290 343
#
# _framework density 19.727646
#
# number of rings (size 3 to 8) (size 9 to 14) (size 15 to 20)
#    0.000    2.143    0.000    3.000    2.000    8.000 
#    0.000    2.857    0.000    0.000    0.000    0.000 
#    0.000    0.000    0.000    0.000    0.000    0.000 
#
# Total GULP energy -346975.968594 kJ/mol
# GULP energy per Si atom -12391.998878 kJ/mol
# Density = 1.968274 g / cm^3
# Si number density = 19.727646 Si / 1000 Ang^3
#
#
#
# Elastic Constant Matrix: (Units=GPa)
#
#
# Indices 1 2 3 4 5 6 
#
# 1 111.5838 38.5567 49.9576 0.0000 -4.2609 0.0000
# 2 38.5567 65.7976 38.1930 0.0000 -5.7826 0.0000
# 3 49.9576 38.1930 127.3948 0.0000 -13.3380 0.0000
# 4 0.0000 0.0000 0.0000 37.4734 0.0000 -6.6580
# 5 -4.2609 -5.7826 -13.3380 0.0000 21.0095 0.0000
# 6 0.0000 0.0000 0.0000 -6.6580 0.0000 30.1725
#
#
#
# Elastic Compliance Matrix: (Units=1/GPa)
#
#
# Indices 1 2 3 4 5 6 
#
# 1 0.012254 -0.005352 -0.003315 0.000000 -0.001093 0.000000
# 2 -0.005352 0.020793 -0.003909 0.000000 0.002156 0.000000
# 3 -0.003315 -0.003909 0.010860 0.000000 0.005147 0.000000
# 4 0.000000 0.000000 0.000000 0.027774 0.000000 0.006129
# 5 -0.001093 0.002156 0.005147 0.000000 0.051236 0.000000
# 6 0.000000 0.000000 0.000000 0.006129 0.000000 0.034495
#
#
# Mechanical properties :
#
#
# Convention : Reuss Voigt Hill
#
# Bulk Modulus (GPa) = 53.32143 62.02119 57.67131
# Shear Modulus (GPa) = 26.48053 29.60236 28.04145
#
# Velocity S-wave (km/s) = 3.66772 3.87790 3.77427
# Velocity P-wave (km/s) = 6.70997 7.18037 6.94915
#
# Compressibility (1/GPa) = 0.01875419
#
# Stress axis : x y z
#
# Youngs Moduli (GPa) = 81.60736 48.09282 92.07764
#
# Poissons Ratio (x) = 0.25741 0.30524
# Poissons Ratio (y) = 0.43679 0.35995
# Poissons Ratio (z) = 0.27053 0.18800
#
# Static dielectric constant tensor:
#      x y z
#    x 4.359280 0.000000 -0.393750 
#    y 0.000000 3.607290 0.000000 
#    z -0.393750 0.000000 3.832190 
# 
# 
# High freq. dielectric constant tensor:
#      x y z
#    x 1.770560 0.000000 0.000430 
#    y 0.000000 1.761970 0.000000 
#    z 0.000430 0.000000 1.778130 
# 
# From -- ./inp_files/37328.got.cif
#   From: 2010.06.25/outbox.cif.g09.slc.cpg/sg10_19_cif.got.tgz:37328.got - 2010.06.27 22:07:45.
