data_PCOD8066214
_publ_section_title
;
Structure prediction by ZEFSAII (Michael W. Deem and Ramdas Pophale) SiO2 
 PCOD8066214
Probable space group: P 2/M
;
_chemical_formula_sum "Si O2"
_cell_formula_units_Z 28
_cell_length_a 28.973624
_cell_length_b 9.074967
_cell_length_c 9.290727
_cell_angle_alpha 90.000000
_cell_angle_beta 142.528492
_cell_angle_gamma 90.000000
_cell_volume 1486.151569
_symmetry_space_group_name_H-M "P 2/M"
_symmetry_group_IT_number 10
_symmetry_cell_setting 'monoclinic'
loop_
_space_group_symop_operation_xyz
x,y,z
-x,y,-z
-x,-y,-z
x,-y,z
loop_
_atom_site_type_symbol
_atom_site_label
_atom_site_fract_x
_atom_site_fract_y
_atom_site_fract_z
Si Si1 0.197594 0.668872 0.908437
Si Si2 0.789634 0.670766 0.387462
Si Si3 0.068615 0.327526 0.068248
Si Si4 0.491543 0.669653 0.145383
Si Si5 0.928714 0.173952 0.229319
Si Si6 0.634420 0.174014 0.991650
Si Si7 0.630130 0.330361 0.687608
O O1 0.177654 0.500000 0.895541
O O2 0.179897 0.704257 0.697699
O O3 0.148391 0.772860 0.887548
O O4 0.285448 0.703918 0.160318
O O5 0.766453 0.500000 0.340949
O O6 0.853501 0.713932 0.659627
O O7 0.716272 0.766588 0.242125
O O8 0.063764 0.500000 0.021638
O O9 0.062886 0.239827 0.907326
O O10 0.000000 0.277483 0.000000
O O11 0.468896 0.500000 0.116938
O O12 0.426504 0.774645 0.043197
O O13 0.571775 0.707641 0.417287
O O14 0.500000 0.705225 0.000000
O O15 0.000000 0.227703 0.500000
O O16 0.925989 0.000000 0.209279
O O17 0.609498 0.232863 0.774221
O O18 0.637398 0.000000 0.994256
O O19 0.624907 0.500000 0.724228
#
# Coordination Sequence:
#
# PCOD8066214 Si02
#       7
#     4   4   4   4   4   4   4
#     4   9  18  35  59  83 106 138 184 232 272 316
#     4   9  19  37  60  84 109 139 179 226 275 325
#     4  10  21  38  61  85 107 138 184 233 274 316
#     4  10  21  37  57  80 108 144 185 229 275 321
#     4  11  24  38  53  79 116 153 183 216 267 328
#     4  11  22  35  55  83 113 145 181 221 268 326
#     4   9  19  37  59  81 107 142 184 228 273 322
#
# _framework density 18.840609000000001
#
# number of rings (size 3 to 8) (size 9 to 14) (size 15 to 20)
#    0.000    2.143    0.000    3.857    0.000    9.143 
#    0.000    2.857    0.000    0.000    0.000    0.000 
#    0.000    0.000    0.000    0.000    0.000    0.000 
#
# Total GULP energy -347319.352369 kJ/mol
# GULP energy per Si atom -12404.262585 kJ/mol
# Density = 1.879773 g / cm^3
# Si number density = 18.840609 Si / 1000 Ang^3
#
#
#
# Elastic Constant Matrix: (Units=GPa)
#
#
# Indices 1 2 3 4 5 6 
#
# 1 138.7285 71.9597 84.2570 0.0000 0.5917 0.0000
# 2 71.9597 96.0382 68.3756 0.0000 -0.0615 0.0000
# 3 84.2570 68.3756 147.1629 0.0000 -11.4934 0.0000
# 4 0.0000 0.0000 0.0000 16.0860 0.0000 -2.7862
# 5 0.5917 -0.0615 -11.4934 0.0000 24.2375 0.0000
# 6 0.0000 0.0000 0.0000 -2.7862 0.0000 -4.0765
#
#
#
# Elastic Compliance Matrix: (Units=1/GPa)
#
#
# Indices 1 2 3 4 5 6 
#
# 1 0.013725 -0.006787 -0.004914 0.000000 -0.002683 0.000000
# 2 -0.006787 0.019210 -0.005216 0.000000 -0.002259 0.000000
# 3 -0.004914 -0.005216 0.012504 0.000000 0.006036 0.000000
# 4 0.000000 0.000000 0.000000 0.055586 0.000000 -0.037992
# 5 -0.002683 -0.002259 0.006036 0.000000 0.044181 0.000000
# 6 0.000000 0.000000 0.000000 -0.037992 0.000000 -0.219340
#
#
# Mechanical properties :
#
#
# Convention : Reuss Voigt Hill
#
# Bulk Modulus (GPa) = 86.17534 92.34602 89.26068
# Shear Modulus (GPa) = -137.23801 17.73854 -59.74973
#
# Velocity S-wave (km/s) = -8.54399 3.07173 -5.63756
# Velocity P-wave (km/s) = 7.17597 7.85502 2.25908
#
# Compressibility (1/GPa) = 0.01160425
#
# Stress axis : x y z
#
# Youngs Moduli (GPa) = 72.86112 52.05640 79.97566
#
# Poissons Ratio (x) = 0.35329 0.39302
# Poissons Ratio (y) = 0.49448 0.41717
# Poissons Ratio (z) = 0.35806 0.27154
#
# Static dielectric constant tensor:
#      x y z
#    x 3.371340 0.000000 0.057410 
#    y 0.000000 3.326040 0.000000 
#    z 0.057410 0.000000 3.717060 
# 
# 
# High freq. dielectric constant tensor:
#      x y z
#    x 1.733490 0.000000 0.005210 
#    y 0.000000 1.721400 0.000000 
#    z 0.005210 0.000000 1.743990 
# 
# From -- ./inp_files/37065.got.cif
#   From: 2010.06.25/outbox.cif.g09.slc.cpg/sg10_19_cif.got.tgz:37065.got - 2010.06.27 22:07:45.
