data_PCOD8066158
_publ_section_title
;
Structure prediction by ZEFSAII (Michael W. Deem and Ramdas Pophale) SiO2 
 PCOD8066158
Probable space group: P 2/M
;
_chemical_formula_sum "Si O2"
_cell_formula_units_Z 32
_cell_length_a 31.223683
_cell_length_b 9.047871
_cell_length_c 11.360129
_cell_angle_alpha 90.000000
_cell_angle_beta 147.207498
_cell_angle_gamma 90.000000
_cell_volume 1738.165032
_symmetry_space_group_name_H-M "P 2/M"
_symmetry_group_IT_number 10
_symmetry_cell_setting 'monoclinic'
loop_
_space_group_symop_operation_xyz
x,y,z
-x,y,-z
-x,-y,-z
x,-y,z
loop_
_atom_site_type_symbol
_atom_site_label
_atom_site_fract_x
_atom_site_fract_y
_atom_site_fract_z
Si Si1 0.287624 0.829134 0.317985
Si Si2 0.399924 0.825159 0.152070
Si Si3 0.130517 0.833687 0.813073
Si Si4 0.797322 0.326563 0.675819
Si Si5 0.252507 0.327586 0.701922
Si Si6 0.105521 0.326120 0.518132
Si Si7 0.575803 0.174949 0.530618
Si Si8 0.947556 0.171693 0.123271
O O1 0.270327 0.732528 0.392925
O O2 0.367835 0.766613 0.443703
O O3 0.294863 0.000000 0.373485
O O4 0.218916 0.810656 0.063459
O O5 0.394831 0.765250 0.274535
O O6 0.485439 0.777924 0.296881
O O7 0.389420 0.000000 0.123744
O O8 0.333341 0.753659 0.918492
O O9 0.113865 0.716252 0.673560
O O10 0.069064 0.805495 0.776549
O O11 0.119641 0.000000 0.737867
O O12 0.808378 0.500000 0.720748
O O13 0.770721 0.286174 0.483773
O O14 0.880615 0.248236 0.890726
O O15 0.267197 0.500000 0.751356
O O16 0.183255 0.273094 0.628556
O O17 0.092107 0.500000 0.475720
O O18 0.031226 0.245123 0.286475
O O19 0.582432 0.000000 0.552010
O O20 0.948716 0.000000 0.092497
#
# Coordination Sequence:
#
# PCOD8066158 Si02
#       8
#     4   4   4   4   4   4   4   4
#     4   9  17  32  54  78 105 134 167 210 256 298
#     4   9  17  32  56  81 105 136 170 202 245 305
#     4   9  18  32  51  77 107 134 160 201 255 303
#     4  10  21  38  55  70  97 137 176 212 251 298
#     4  10  23  39  51  70 104 139 170 211 258 296
#     4  11  22  34  51  75 102 134 170 207 252 307
#     4   8  15  30  54  84 111 132 161 206 255 299
#     4  10  21  37  55  76 102 130 165 211 258 301
#
# _framework density 18.410219999999999
#
# number of rings (size 3 to 8) (size 9 to 14) (size 15 to 20)
#    0.000    2.500    0.000    3.750    0.000    7.500 
#    0.000    5.625    0.000    3.750    0.000    0.000 
#    0.000    0.000    0.000    0.000    0.000    0.000 
#
# Total GULP energy -396828.526445 kJ/mol
# GULP energy per Si atom -12400.891451 kJ/mol
# Density = 1.836832 g / cm^3
# Si number density = 18.410220 Si / 1000 Ang^3
#
#
#
# Elastic Constant Matrix: (Units=GPa)
#
#
# Indices 1 2 3 4 5 6 
#
# 1 71.9040 38.9572 62.6448 0.0000 5.7956 0.0000
# 2 38.9572 70.1444 54.3678 0.0000 -3.0166 0.0000
# 3 62.6448 54.3678 116.5801 0.0000 6.2255 0.0000
# 4 0.0000 0.0000 0.0000 20.3738 0.0000 -6.3579
# 5 5.7956 -3.0166 6.2255 0.0000 28.3188 0.0000
# 6 0.0000 0.0000 0.0000 -6.3579 0.0000 22.7389
#
#
#
# Elastic Compliance Matrix: (Units=1/GPa)
#
#
# Indices 1 2 3 4 5 6 
#
# 1 0.028083 -0.006618 -0.011798 0.000000 -0.003859 0.000000
# 2 -0.006618 0.024528 -0.008191 0.000000 0.005768 0.000000
# 3 -0.011798 -0.008191 0.018876 0.000000 -0.002608 0.000000
# 4 0.000000 0.000000 0.000000 0.053775 0.000000 0.015036
# 5 -0.003859 0.005768 -0.002608 0.000000 0.037290 0.000000
# 6 0.000000 0.000000 0.000000 0.015036 0.000000 0.048182
#
#
# Mechanical properties :
#
#
# Convention : Reuss Voigt Hill
#
# Bulk Modulus (GPa) = 54.72237 63.39645 59.05941
# Shear Modulus (GPa) = 18.51584 21.13022 19.82303
#
# Velocity S-wave (km/s) = 3.17478 3.39151 3.28493
# Velocity P-wave (km/s) = 6.57475 7.06022 6.82181
#
# Compressibility (1/GPa) = 0.01827406
#
# Stress axis : x y z
#
# Youngs Moduli (GPa) = 35.60880 40.76894 52.97622
#
# Poissons Ratio (x) = 0.26983 0.62501
# Poissons Ratio (y) = 0.23567 0.43390
# Poissons Ratio (z) = 0.42011 0.33392
#
# Static dielectric constant tensor:
#      x y z
#    x 3.539630 0.000000 0.231920 
#    y 0.000000 3.225910 0.000000 
#    z 0.231920 0.000000 3.387210 
# 
# 
# High freq. dielectric constant tensor:
#      x y z
#    x 1.712010 0.000000 0.011970 
#    y 0.000000 1.700870 0.000000 
#    z 0.011970 0.000000 1.714780 
# 
# From -- ./inp_files/58355.got.cif
#   From: 2010.06.25/outbox.cif.g09.slc.cpg/sg10_30_cif.got.tgz:58355.got - 2010.06.27 22:07:45.
