data_PCOD8066402
_publ_section_title
;
Structure prediction by ZEFSAII (Michael W. Deem and Ramdas Pophale) SiO2 
 PCOD8066402
Probable space group: P 2/M
;
_chemical_formula_sum "Si O2"
_cell_formula_units_Z 28
_cell_length_a 8.698039
_cell_length_b 14.904544
_cell_length_c 11.737037
_cell_angle_alpha 90.000000
_cell_angle_beta 116.940611
_cell_angle_gamma 90.000000
_cell_volume 1356.464638
_symmetry_space_group_name_H-M "P 2/M"
_symmetry_group_IT_number 10
_symmetry_cell_setting 'monoclinic'
loop_
_space_group_symop_operation_xyz
x,y,z
-x,y,-z
-x,-y,-z
x,-y,z
loop_
_atom_site_type_symbol
_atom_site_label
_atom_site_fract_x
_atom_site_fract_y
_atom_site_fract_z
Si Si1 0.059272 0.754947 0.699627
Si Si2 0.838495 0.218792 0.010554
Si Si3 0.695642 0.401561 0.208792
Si Si4 0.687865 0.195970 0.588880
Si Si5 0.769580 0.100571 0.390803
Si Si6 0.311272 0.599264 0.064304
Si Si7 0.610138 0.102583 0.796912
O O1 0.136260 0.782627 0.846577
O O2 0.164246 0.667343 0.692432
O O3 0.088198 0.833926 0.617302
O O4 0.852355 0.735493 0.638881
O O5 0.811962 0.318134 0.943985
O O6 0.677440 0.154600 0.930857
O O7 0.000000 0.175873 0.000000
O O8 0.751317 0.500000 0.271123
O O9 0.499672 0.380392 0.182720
O O10 0.685940 0.400504 0.070264
O O11 0.500000 0.242757 0.500000
O O12 0.721820 0.120473 0.505497
O O13 0.687686 0.149075 0.710704
O O14 0.594667 0.110138 0.260704
O O15 0.843728 0.000000 0.407733
O O16 0.246796 0.500000 0.084908
O O17 0.672253 0.000000 0.818395
#
# Coordination Sequence:
#
# PCOD8066402 Si02
#       7
#     4   4   4   4   4   4   4
#     4  11  21  35  57  86 110 142 180 228 278 318
#     4  11  21  34  51  82 119 148 177 215 274 341
#     4   8  15  30  53  81 110 141 176 216 268 325
#     4  10  21  39  58  76 105 146 190 231 272 314
#     4  10  22  38  59  83 105 137 191 242 267 303
#     4   8  15  29  51  78 111 146 177 215 262 318
#     4  10  21  38  56  78 113 153 180 213 274 335
#
# _framework density 20.641895999999999
#
# number of rings (size 3 to 8) (size 9 to 14) (size 15 to 20)
#    0.000    2.286    1.429    2.571    0.000    6.286 
#    0.000    1.429    0.000    2.143    0.000    2.000 
#    0.000    0.000    0.000    0.000    0.000    0.000 
#
# Total GULP energy -346970.695593 kJ/mol
# GULP energy per Si atom -12391.810557 kJ/mol
# Density = 2.059491 g / cm^3
# Si number density = 20.641896 Si / 1000 Ang^3
#
#
#
# Elastic Constant Matrix: (Units=GPa)
#
#
# Indices 1 2 3 4 5 6 
#
# 1 82.8082 22.6457 28.2739 0.0000 20.1696 0.0000
# 2 22.6457 70.3005 25.5862 0.0000 15.1533 0.0000
# 3 28.2739 25.5862 80.2803 0.0000 15.4239 0.0000
# 4 0.0000 0.0000 0.0000 5.2875 0.0000 -2.5033
# 5 20.1696 15.1533 15.4239 0.0000 34.8834 0.0000
# 6 0.0000 0.0000 0.0000 -2.5033 0.0000 15.9740
#
#
#
# Elastic Compliance Matrix: (Units=1/GPa)
#
#
# Indices 1 2 3 4 5 6 
#
# 1 0.015456 -0.002339 -0.003471 0.000000 -0.006386 0.000000
# 2 -0.002339 0.017343 -0.003842 0.000000 -0.004482 0.000000
# 3 -0.003471 -0.003842 0.015515 0.000000 -0.003184 0.000000
# 4 0.000000 0.000000 0.000000 0.204282 0.000000 0.032013
# 5 -0.006386 -0.004482 -0.003184 0.000000 0.035714 0.000000
# 6 0.000000 0.000000 0.000000 0.032013 0.000000 0.067618
#
#
# Mechanical properties :
#
#
# Convention : Reuss Voigt Hill
#
# Bulk Modulus (GPa) = 34.47191 42.93340 38.70265
# Shear Modulus (GPa) = 12.99024 21.68785 17.33905
#
# Velocity S-wave (km/s) = 2.51134 3.24492 2.90141
# Velocity P-wave (km/s) = 5.01451 5.90624 5.47855
#
# Compressibility (1/GPa) = 0.02900913
#
# Stress axis : x y z
#
# Youngs Moduli (GPa) = 64.69812 57.66105 64.45298
#
# Poissons Ratio (x) = 0.13487 0.22373
# Poissons Ratio (y) = 0.15133 0.24765
# Poissons Ratio (z) = 0.22458 0.22155
#
# Static dielectric constant tensor:
#      x y z
#    x 3.792650 0.000000 0.358120 
#    y 0.000000 3.888610 0.000000 
#    z 0.358120 0.000000 3.653830 
# 
# 
# High freq. dielectric constant tensor:
#      x y z
#    x 1.804770 0.000000 0.023490 
#    y 0.000000 1.787700 0.000000 
#    z 0.023490 0.000000 1.796410 
# 
# From -- ./inp_files/25067.got.cif
#   From: 2010.06.25/outbox.cif.g09.slc.cpg/sg10_13_cif.got.tgz:25067.got - 2010.06.27 22:07:45.
