data_PCOD8066461
_publ_section_title
;
Structure prediction by ZEFSAII (Michael W. Deem and Ramdas Pophale) SiO2 
 PCOD8066461
Probable space group: P 2/M
;
_chemical_formula_sum "Si O2"
_cell_formula_units_Z 20
_cell_length_a 26.352883
_cell_length_b 7.646677
_cell_length_c 8.829768
_cell_angle_alpha 90.000000
_cell_angle_beta 33.308884
_cell_angle_gamma 90.000000
_cell_volume 977.109114
_symmetry_space_group_name_H-M "P 2/M"
_symmetry_group_IT_number 10
_symmetry_cell_setting 'monoclinic'
loop_
_space_group_symop_operation_xyz
x,y,z
-x,y,-z
-x,-y,-z
x,-y,z
loop_
_atom_site_type_symbol
_atom_site_label
_atom_site_fract_x
_atom_site_fract_y
_atom_site_fract_z
Si Si1 0.724257 0.202647 0.264826
Si Si2 0.911905 0.204449 0.626786
Si Si3 0.609127 0.500000 0.054222
Si Si4 0.905454 0.697770 0.304169
Si Si5 0.392581 0.500000 0.589650
Si Si6 0.279386 0.194747 0.375603
O O1 0.645612 0.323464 0.389662
O O2 0.732896 0.247031 0.419571
O O3 0.698052 0.000000 0.301182
O O4 0.821572 0.251104 0.947714
O O5 0.907939 0.303964 0.478722
O O6 0.000000 0.273154 0.500000
O O7 0.920600 0.000000 0.571400
O O8 0.501219 0.500000 0.291437
O O9 0.633858 0.500000 0.168744
O O10 0.651065 0.326367 0.877488
O O11 0.892141 0.500000 0.279275
O O12 0.820178 0.809310 0.455759
O O13 0.000000 0.777686 0.000000
O O14 0.321518 0.000000 0.255421
#
# Coordination Sequence:
#
# PCOD8066461 Si02
#       6
#     4   4   2   4   2   4
#     4  10  23  41  64  95 125 164 210 254 311 368
#     4  10  21  38  59  87 125 167 213 255 301 364
#     4  11  25  45  64  97 122 159 211 249 321 375
#     4  11  23  37  57  90 128 166 211 254 302 365
#     4  11  25  43  68  89 128 163 197 265 311 375
#     4  11  23  42  67  92 127 165 206 259 308 369
#
# _framework density 20.468543
#
# number of rings (size 3 to 8) (size 9 to 14) (size 15 to 20)
#    0.000    1.400    1.000    3.600    1.400    8.400 
#    0.000    4.000    0.000    0.000    0.000    0.000 
#    0.000    0.000    0.000    0.000    0.000    0.000 
#
# Total GULP energy -248118.352647 kJ/mol
# GULP energy per Si atom -12405.917632 kJ/mol
# Density = 2.042196 g / cm^3
# Si number density = 20.468543 Si / 1000 Ang^3
#
#
#
# Elastic Constant Matrix: (Units=GPa)
#
#
# Indices 1 2 3 4 5 6 
#
# 1 157.8528 53.0209 75.7517 0.0000 9.1141 0.0000
# 2 53.0209 99.3678 60.9034 0.0000 2.2598 0.0000
# 3 75.7517 60.9034 142.9376 0.0000 16.8064 0.0000
# 4 0.0000 0.0000 0.0000 17.3142 0.0000 10.4900
# 5 9.1141 2.2598 16.8064 0.0000 32.2479 0.0000
# 6 0.0000 0.0000 0.0000 10.4900 0.0000 28.8426
#
#
#
# Elastic Compliance Matrix: (Units=1/GPa)
#
#
# Indices 1 2 3 4 5 6 
#
# 1 0.008948 -0.002560 -0.003595 0.000000 -0.000476 0.000000
# 2 -0.002560 0.014502 -0.005100 0.000000 0.002365 0.000000
# 3 -0.003595 -0.005100 0.011626 0.000000 -0.004685 0.000000
# 4 0.000000 0.000000 0.000000 0.074079 0.000000 -0.026942
# 5 -0.000476 0.002365 -0.004685 0.000000 0.033420 0.000000
# 6 0.000000 0.000000 0.000000 -0.026942 0.000000 0.044470
#
#
# Mechanical properties :
#
#
# Convention : Reuss Voigt Hill
#
# Bulk Modulus (GPa) = 79.59402 86.61224 83.10313
# Shear Modulus (GPa) = 23.39252 29.71309 26.55280
#
# Velocity S-wave (km/s) = 3.38428 3.81418 3.60564
# Velocity P-wave (km/s) = 7.36489 7.86155 7.61727
#
# Compressibility (1/GPa) = 0.01256376
#
# Stress axis : x y z
#
# Youngs Moduli (GPa) = 111.76120 68.95653 86.01756
#
# Poissons Ratio (x) = 0.17652 0.30925
# Poissons Ratio (y) = 0.28610 0.43873
# Poissons Ratio (z) = 0.40181 0.35171
#
# Static dielectric constant tensor:
#      x y z
#    x 3.752190 0.000000 0.075390 
#    y 0.000000 3.721350 0.000000 
#    z 0.075390 0.000000 3.722810 
# 
# 
# High freq. dielectric constant tensor:
#      x y z
#    x 1.809800 0.000000 0.008810 
#    y 0.000000 1.809360 0.000000 
#    z 0.008810 0.000000 1.803870 
# 
# From -- ./inp_files/31442.got.cif
#   From: 2010.06.25/outbox.cif.g09.slc.cpg/sg10_16_cif.got.tgz:31442.got - 2010.06.27 22:07:45.
