data_PCOD8066519
_publ_section_title
;
Structure prediction by ZEFSAII (Michael W. Deem and Ramdas Pophale) SiO2 
 PCOD8066519
Probable space group: P 2/M
;
_chemical_formula_sum "Si O2"
_cell_formula_units_Z 28
_cell_length_a 28.835946
_cell_length_b 9.055628
_cell_length_c 8.961202
_cell_angle_alpha 90.000000
_cell_angle_beta 39.021263
_cell_angle_gamma 90.000000
_cell_volume 1473.295295
_symmetry_space_group_name_H-M "P 2/M"
_symmetry_group_IT_number 10
_symmetry_cell_setting 'monoclinic'
loop_
_space_group_symop_operation_xyz
x,y,z
-x,y,-z
-x,-y,-z
x,-y,z
loop_
_atom_site_type_symbol
_atom_site_label
_atom_site_fract_x
_atom_site_fract_y
_atom_site_fract_z
Si Si1 0.340927 0.176367 0.727418
Si Si2 0.340927 0.176367 0.067948
Si Si3 0.924587 0.830692 0.263419
Si Si4 0.924587 0.830692 0.613644
Si Si5 0.791404 0.328120 0.099250
Si Si6 0.208596 0.671881 0.556272
Si Si7 0.500000 0.160688 0.323905
O O1 0.422413 0.239699 0.475727
O O2 0.339554 0.000000 0.716165
O O3 0.321953 0.222090 0.945119
O O4 0.283013 0.246457 0.760543
O O5 0.283013 0.246458 0.324392
O O6 0.339554 0.000000 0.086065
O O7 0.422413 0.239700 0.912207
O O8 0.933234 0.810894 0.416915
O O9 0.858941 0.729415 0.371641
O O10 0.907441 0.000000 0.262617
O O11 0.000000 0.776378 0.000000
O O12 0.858941 0.729413 0.833654
O O13 0.000000 0.776379 0.500000
O O14 0.907439 0.000000 0.700183
O O15 0.781125 0.500000 0.093320
O O16 0.807740 0.294438 0.230649
O O17 0.218873 0.500000 0.498950
O O18 0.500000 0.137765 0.500000
O O19 0.500001 0.000000 0.246402
#
# Coordination Sequence:
#
# PCOD8066519 Si02
#       7
#     4   4   4   4   4   4   4
#     4   9  17  32  56  82 105 133 173 220 268 316
#     4   9  17  32  56  82 105 133 173 220 268 316
#     4  10  21  38  61  86 108 133 169 213 261 312
#     4  10  21  38  61  86 108 133 169 213 261 312
#     4  11  24  38  51  73 108 147 182 215 256 307
#     4  11  24  38  51  73 108 147 182 215 256 307
#     4   7  12  26  50  79 106 130 164 215 268 315
#
# _framework density 19.005016999999999
#
# number of rings (size 3 to 8) (size 9 to 14) (size 15 to 20)
#    0.000    2.429    0.000    4.286    0.000    8.571 
#    0.000    1.429    0.000    6.857    0.000    0.000 
#    0.000    0.000    0.000    0.000    0.000    0.000 
#
# Total GULP energy -347074.445226 kJ/mol
# GULP energy per Si atom -12395.515901 kJ/mol
# Density = 1.896176 g / cm^3
# Si number density = 19.005017 Si / 1000 Ang^3
#
#
#
# Elastic Constant Matrix: (Units=GPa)
#
#
# Indices 1 2 3 4 5 6 
#
# 1 96.0839 31.5878 39.1155 0.0000 -22.7013 0.0000
# 2 31.5878 48.0389 34.8125 0.0000 -5.6805 0.0000
# 3 39.1155 34.8125 121.1662 0.0000 -21.4860 0.0000
# 4 0.0000 0.0000 0.0000 -4.4249 0.0000 23.9838
# 5 -22.7013 -5.6805 -21.4860 0.0000 32.7857 0.0000
# 6 0.0000 0.0000 0.0000 23.9838 0.0000 9.1877
#
#
#
# Elastic Compliance Matrix: (Units=1/GPa)
#
#
# Indices 1 2 3 4 5 6 
#
# 1 0.015698 -0.008511 -0.001082 0.000000 0.008686 0.000000
# 2 -0.008511 0.030910 -0.007048 0.000000 -0.005156 0.000000
# 3 -0.001082 -0.007048 0.011629 0.000000 0.005651 0.000000
# 4 0.000000 0.000000 0.000000 -0.014918 0.000000 0.038943
# 5 0.008686 -0.005156 0.005651 0.000000 0.039325 0.000000
# 6 0.000000 0.000000 0.000000 0.038943 0.000000 0.007185
#
#
# Mechanical properties :
#
#
# Convention : Reuss Voigt Hill
#
# Bulk Modulus (GPa) = 40.07016 52.92453 46.49734
# Shear Modulus (GPa) = 38.04297 18.16127 28.10212
#
# Velocity S-wave (km/s) = 4.47893 3.09464 3.84952
# Velocity P-wave (km/s) = 6.91935 6.37787 6.65412
#
# Compressibility (1/GPa) = 0.02495623
#
# Stress axis : x y z
#
# Youngs Moduli (GPa) = 63.70107 32.35162 85.98868
#
# Poissons Ratio (x) = 0.27534 0.09306
# Poissons Ratio (y) = 0.54216 0.60602
# Poissons Ratio (z) = 0.06894 0.22800
#
# Static dielectric constant tensor:
#      x y z
#    x 3.566910 0.000000 -0.259720 
#    y 0.000000 3.255570 0.000000 
#    z -0.259720 0.000000 3.714340 
# 
# 
# High freq. dielectric constant tensor:
#      x y z
#    x 1.740470 0.000000 -0.017150 
#    y 0.000000 1.710960 0.000000 
#    z -0.017150 0.000000 1.750200 
# 
# From -- ./inp_files/37118.got.cif
#   From: 2010.06.25/outbox.cif.g09.slc.cpg/sg10_19_cif.got.tgz:37118.got - 2010.06.27 22:07:45.
