data_PCOD8066632
_publ_section_title
;
Structure prediction by ZEFSAII (Michael W. Deem and Ramdas Pophale) SiO2 
 PCOD8066632
Probable space group: P 2/M
;
_chemical_formula_sum "Si O2"
_cell_formula_units_Z 32
_cell_length_a 15.009096
_cell_length_b 9.087320
_cell_length_c 23.715572
_cell_angle_alpha 90.000000
_cell_angle_beta 149.738361
_cell_angle_gamma 90.000000
_cell_volume 1630.087557
_symmetry_space_group_name_H-M "P 2/M"
_symmetry_group_IT_number 10
_symmetry_cell_setting 'monoclinic'
loop_
_space_group_symop_operation_xyz
x,y,z
-x,y,-z
-x,-y,-z
x,-y,z
loop_
_atom_site_type_symbol
_atom_site_label
_atom_site_fract_x
_atom_site_fract_y
_atom_site_fract_z
Si Si1 0.332955 0.162498 0.383055
Si Si2 0.376476 0.161914 0.277648
Si Si3 0.038883 0.825939 0.779316
Si Si4 0.262375 0.174636 0.007730
Si Si5 0.044634 0.671364 0.662415
Si Si6 0.974608 0.659556 0.922155
Si Si7 0.294437 0.673181 0.593642
Si Si8 0.374490 0.670731 0.764513
O O1 0.500000 0.252951 0.500000
O O2 0.388363 0.145033 0.349936
O O3 0.142214 0.236411 0.290492
O O4 0.322193 0.000000 0.405391
O O5 0.540210 0.252131 0.344660
O O6 0.198553 0.245376 0.169965
O O7 0.373698 0.000000 0.247436
O O8 0.198723 0.783752 0.909325
O O9 0.060299 0.753721 0.730264
O O10 0.034249 0.000000 0.768724
O O11 0.134364 0.248614 0.983110
O O12 0.254869 0.000000 0.012574
O O13 0.459052 0.231512 0.126591
O O14 0.019676 0.500000 0.661477
O O15 0.224290 0.703442 0.727754
O O16 0.883000 0.729223 0.534963
O O17 0.954170 0.500000 0.879522
O O18 0.000000 0.620853 0.000000
O O19 0.312665 0.500000 0.596142
O O20 0.294737 0.715331 0.659967
O O21 0.432064 0.500000 0.795921
#
# Coordination Sequence:
#
# PCOD8066632 Si02
#       8
#     4   4   4   4   4   4   4   4
#     4   9  17  32  54  79 111 151 189 225 277 344
#     4  11  21  35  57  86 118 154 193 233 284 346
#     4  10  21  39  59  84 121 159 196 244 301 355
#     4  11  23  40  61  87 121 159 201 247 297 356
#     4  10  22  40  63  89 116 154 203 252 303 359
#     4  11  23  38  57  83 118 158 196 238 290 347
#     4  10  21  39  61  88 122 156 196 248 305 362
#     4  10  22  41  63  86 117 158 201 249 306 361
#
# _framework density 19.630846999999999
#
# number of rings (size 3 to 8) (size 9 to 14) (size 15 to 20)
#    0.000    1.750    1.250    3.000    0.000    9.500 
#    0.000    2.500    0.000    4.875    0.000    0.000 
#    0.000    0.000    0.000    0.000    0.000    0.000 
#
# Total GULP energy -396565.675374 kJ/mol
# GULP energy per Si atom -12392.677355 kJ/mol
# Density = 1.958617 g / cm^3
# Si number density = 19.630847 Si / 1000 Ang^3
#
#
#
# Elastic Constant Matrix: (Units=GPa)
#
#
# Indices 1 2 3 4 5 6 
#
# 1 137.8496 121.7942 82.2895 0.0000 12.8285 0.0000
# 2 121.7942 580.7875 238.1812 0.0000 110.5027 0.0000
# 3 82.2895 238.1812 202.7787 0.0000 35.9628 0.0000
# 4 0.0000 0.0000 0.0000 182.8636 0.0000 -865.0263
# 5 12.8285 110.5027 35.9628 0.0000 59.7445 0.0000
# 6 0.0000 0.0000 0.0000 -865.0263 0.0000 4914.5101
#
#
#
# Elastic Compliance Matrix: (Units=1/GPa)
#
#
# Indices 1 2 3 4 5 6 
#
# 1 0.009912 -0.001271 -0.002876 0.000000 0.001953 0.000000
# 2 -0.001271 0.004842 -0.004066 0.000000 -0.006236 0.000000
# 3 -0.002876 -0.004066 0.010558 0.000000 0.001782 0.000000
# 4 0.000000 0.000000 0.000000 0.032673 0.000000 0.005751
# 5 0.001953 -0.006236 0.001782 0.000000 0.026779 0.000000
# 6 0.000000 0.000000 0.000000 0.005751 0.000000 0.001216
#
#
# Mechanical properties :
#
#
# Convention : Reuss Voigt Hill
#
# Bulk Modulus (GPa) = 112.52621 200.66063 156.59342
# Shear Modulus (GPa) = 47.45230 1063.36704 555.40967
#
# Velocity S-wave (km/s) = 4.92187 23.29931 16.83868
# Velocity P-wave (km/s) = 9.47340 28.74455 21.40087
#
# Compressibility (1/GPa) = 0.00888682
#
# Stress axis : x y z
#
# Youngs Moduli (GPa) = 100.88528 206.52027 94.71080
#
# Poissons Ratio (x) = 0.26242 0.27242
# Poissons Ratio (y) = 0.12819 0.38509
# Poissons Ratio (z) = 0.29018 0.83970
#
# Static dielectric constant tensor:
#      x y z
#    x 3.255490 0.000000 -0.619250 
#    y 0.000000 4.199120 0.000000 
#    z -0.619250 0.000000 2.906240 
# 
# 
# High freq. dielectric constant tensor:
#      x y z
#    x 1.769300 0.000000 -0.000870 
#    y 0.000000 1.755050 0.000000 
#    z -0.000870 0.000000 1.780820 
# 
# From -- ./inp_files/71526.got.cif
#   From: 2010.06.25/outbox.cif.g09.slc.cpg/sg10_36_cif.got.tgz:71526.got - 2010.06.27 22:07:45.
