data_PCOD8066393
_publ_section_title
;
Structure prediction by ZEFSAII (Michael W. Deem and Ramdas Pophale) SiO2 
 PCOD8066393
Probable space group: P 2/M
;
_chemical_formula_sum "Si O2"
_cell_formula_units_Z 28
_cell_length_a 9.076619
_cell_length_b 18.894412
_cell_length_c 15.178993
_cell_angle_alpha 90.000000
_cell_angle_beta 33.911674
_cell_angle_gamma 90.000000
_cell_volume 1452.338574
_symmetry_space_group_name_H-M "P 2/M"
_symmetry_group_IT_number 10
_symmetry_cell_setting 'monoclinic'
loop_
_space_group_symop_operation_xyz
x,y,z
-x,y,-z
-x,-y,-z
x,-y,z
loop_
_atom_site_type_symbol
_atom_site_label
_atom_site_fract_x
_atom_site_fract_y
_atom_site_fract_z
Si Si1 0.688303 0.921662 0.155143
Si Si2 0.747817 0.078259 0.935965
Si Si3 0.938192 0.790769 0.285676
Si Si4 0.744223 0.656342 0.820704
Si Si5 0.286764 0.583253 0.532399
Si Si6 0.522205 0.205711 0.348964
Si Si7 0.698146 0.676015 0.646353
O O1 0.572594 0.872691 0.288635
O O2 0.570360 0.000000 0.230095
O O3 0.624241 0.892956 0.089102
O O4 0.000000 0.922068 0.000000
O O5 0.951753 0.131764 0.790268
O O6 0.883817 0.000000 0.882684
O O7 0.500000 0.067206 0.000000
O O8 0.751910 0.795218 0.462786
O O9 0.763970 0.766300 0.288516
O O10 0.172671 0.735814 0.191038
O O11 0.630904 0.649386 0.777533
O O12 0.996985 0.605943 0.709423
O O13 0.500000 0.629510 0.000000
O O14 0.500000 0.608641 0.500000
O O15 0.298917 0.500000 0.513600
O O16 0.346664 0.616988 0.407091
O O17 0.492376 0.258453 0.281402
O O18 0.000000 0.701822 0.500000
#
# Coordination Sequence:
#
# PCOD8066393 Si02
#       7
#     4   4   4   4   4   4   4
#     4  10  21  38  55  80 115 152 202 254 310 370
#     4  10  22  39  57  78 112 157 200 249 312 374
#     4  11  22  37  56  83 122 154 201 251 306 368
#     4  11  24  39  61  94 128 163 203 257 303 356
#     4  10  21  43  71  94 126 169 203 241 298 364
#     4  11  22  35  59  85 114 159 200 254 303 366
#     4  10  21  38  60  90 124 161 201 246 297 366
#
# _framework density 19.279250000000001
#
# number of rings (size 3 to 8) (size 9 to 14) (size 15 to 20)
#    0.000    1.571    4.286    1.286    4.000    3.429 
#    0.000    3.571    0.000    4.714    0.000    0.000 
#    0.000    0.000    0.000    0.000    0.000    0.000 
#
# Total GULP energy -347071.591503 kJ/mol
# GULP energy per Si atom -12395.413982 kJ/mol
# Density = 1.923537 g / cm^3
# Si number density = 19.279250 Si / 1000 Ang^3
#
#
#
# Elastic Constant Matrix: (Units=GPa)
#
#
# Indices 1 2 3 4 5 6 
#
# 1 139.6171 42.9602 50.2418 0.0000 16.3063 0.0000
# 2 42.9602 87.8987 23.3108 0.0000 0.4031 0.0000
# 3 50.2418 23.3108 83.1616 0.0000 6.9882 0.0000
# 4 0.0000 0.0000 0.0000 22.4718 0.0000 0.5737
# 5 16.3063 0.4031 6.9882 0.0000 24.3811 0.0000
# 6 0.0000 0.0000 0.0000 0.5737 0.0000 26.6308
#
#
#
# Elastic Compliance Matrix: (Units=1/GPa)
#
#
# Indices 1 2 3 4 5 6 
#
# 1 0.010835 -0.003956 -0.004953 0.000000 -0.005761 0.000000
# 2 -0.003956 0.013750 -0.001709 0.000000 0.002908 0.000000
# 3 -0.004953 -0.001709 0.015591 0.000000 -0.001128 0.000000
# 4 0.000000 0.000000 0.000000 0.044525 0.000000 -0.000959
# 5 -0.005761 0.002908 -0.001128 0.000000 0.045144 0.000000
# 6 0.000000 0.000000 0.000000 -0.000959 0.000000 0.037571
#
#
# Mechanical properties :
#
#
# Convention : Reuss Voigt Hill
#
# Bulk Modulus (GPa) = 52.79565 60.41144 56.60355
# Shear Modulus (GPa) = 25.64586 27.64105 26.64346
#
# Velocity S-wave (km/s) = 3.65119 3.79056 3.72153
# Velocity P-wave (km/s) = 6.72451 7.11061 6.92025
#
# Compressibility (1/GPa) = 0.01894095
#
# Stress axis : x y z
#
# Youngs Moduli (GPa) = 92.29550 72.72816 64.14028
#
# Poissons Ratio (x) = 0.28768 0.31768
# Poissons Ratio (y) = 0.36508 0.10960
# Poissons Ratio (z) = 0.45713 0.12428
#
# Static dielectric constant tensor:
#      x y z
#    x 4.004010 0.000000 0.114700 
#    y 0.000000 3.567350 0.000000 
#    z 0.114700 0.000000 3.252160 
# 
# 
# High freq. dielectric constant tensor:
#      x y z
#    x 1.776250 0.000000 0.009630 
#    y 0.000000 1.743910 0.000000 
#    z 0.009630 0.000000 1.727730 
# 
# From -- ./inp_files/62328.got.cif
#   From: 2010.06.25/outbox.cif.g09.slc.cpg/sg10_32_cif.got.tgz:62328.got - 2010.06.27 22:07:45.
