data_PCOD8066982
_publ_section_title
;
Structure prediction by ZEFSAII (Michael W. Deem and Ramdas Pophale) SiO2 
 PCOD8066982
Probable space group: P 2/M
;
_chemical_formula_sum "Si O2"
_cell_formula_units_Z 32
_cell_length_a 14.486111
_cell_length_b 8.704274
_cell_length_c 14.995453
_cell_angle_alpha 90.000000
_cell_angle_beta 59.140139
_cell_angle_gamma 90.000000
_cell_volume 1623.102835
_symmetry_space_group_name_H-M "P 2/M"
_symmetry_group_IT_number 10
_symmetry_cell_setting 'monoclinic'
loop_
_space_group_symop_operation_xyz
x,y,z
-x,y,-z
-x,-y,-z
x,-y,z
loop_
_atom_site_type_symbol
_atom_site_label
_atom_site_fract_x
_atom_site_fract_y
_atom_site_fract_z
Si Si1 0.787040 0.321073 0.723985
Si Si2 0.263219 0.180835 0.431587
Si Si3 0.498156 0.175551 0.724480
Si Si4 0.947577 0.680605 0.798160
Si Si5 0.717904 0.320891 0.221579
Si Si6 0.430697 0.824389 0.115919
Si Si7 0.822454 0.819069 0.336094
Si Si8 0.110626 0.819858 0.993707
O O1 0.787816 0.500000 0.707799
O O2 0.803394 0.244752 0.619337
O O3 0.883064 0.270999 0.741718
O O4 0.675725 0.275733 0.824915
O O5 0.387123 0.236690 0.369036
O O6 0.206272 0.236081 0.550016
O O7 0.262331 0.000000 0.421328
O O8 0.407244 0.285852 0.730924
O O9 0.496894 0.188058 0.831886
O O10 0.477021 0.000000 0.704418
O O11 0.973275 0.500000 0.787204
O O12 0.055629 0.778794 0.746372
O O13 0.879309 0.726361 0.919189
O O14 0.740995 0.500000 0.196436
O O15 0.744493 0.271818 0.308819
O O16 0.789362 0.224305 0.117455
O O17 0.395589 0.000000 0.116164
O O18 0.500000 0.758733 0.000000
O O19 0.804219 0.000000 0.332577
O O20 0.115303 0.000000 0.011884
O O21 0.000000 0.773674 0.000000
#
# Coordination Sequence:
#
# PCOD8066982 Si02
#       8
#     4   4   4   4   4   4   4   4
#     4  10  22  38  58  87 122 156 192 239 297 357
#     4   9  21  42  66  88 115 154 201 251 294 340
#     4   9  19  38  60  85 118 154 197 245 292 344
#     4  11  24  40  59  90 125 158 195 239 298 356
#     4  12  25  39  59  89 124 158 193 240 299 360
#     4   9  19  36  58  85 114 153 201 244 288 343
#     4  11  23  41  64  89 115 153 205 250 292 346
#     4  11  23  40  63  87 115 157 203 245 291 346
#
# _framework density 19.715326000000001
#
# number of rings (size 3 to 8) (size 9 to 14) (size 15 to 20)
#    0.000    1.750    1.250    3.375    1.750    6.750 
#    0.000    5.000    0.000    0.000    0.000    0.000 
#    0.000    0.000    0.000    0.000    0.000    0.000 
#
# Total GULP energy -396950.704505 kJ/mol
# GULP energy per Si atom -12404.709516 kJ/mol
# Density = 1.967045 g / cm^3
# Si number density = 19.715326 Si / 1000 Ang^3
#
#
#
# Elastic Constant Matrix: (Units=GPa)
#
#
# Indices 1 2 3 4 5 6 
#
# 1 93.5990 38.7389 19.3173 0.0000 15.2091 0.0000
# 2 38.7389 48.1250 19.5857 0.0000 9.5157 0.0000
# 3 19.3173 19.5857 101.4128 0.0000 20.0631 0.0000
# 4 0.0000 0.0000 0.0000 15.4632 0.0000 10.5857
# 5 15.2091 9.5157 20.0631 0.0000 18.2421 0.0000
# 6 0.0000 0.0000 0.0000 10.5857 0.0000 27.6417
#
#
#
# Elastic Compliance Matrix: (Units=1/GPa)
#
#
# Indices 1 2 3 4 5 6 
#
# 1 0.017026 -0.012334 0.000862 0.000000 -0.008709 0.000000
# 2 -0.012334 0.032681 -0.003354 0.000000 -0.003075 0.000000
# 3 0.000862 -0.003354 0.012960 0.000000 -0.013223 0.000000
# 4 0.000000 0.000000 0.000000 0.087648 0.000000 -0.033566
# 5 -0.008709 -0.003075 -0.013223 0.000000 0.078227 0.000000
# 6 0.000000 0.000000 0.000000 -0.033566 0.000000 0.049032
#
#
# Mechanical properties :
#
#
# Convention : Reuss Voigt Hill
#
# Bulk Modulus (GPa) = 30.28904 44.26894 37.27899
# Shear Modulus (GPa) = 15.71190 23.30240 19.50715
#
# Velocity S-wave (km/s) = 2.82607 3.44167 3.14895
# Velocity P-wave (km/s) = 5.10348 6.18840 5.67194
#
# Compressibility (1/GPa) = 0.03301524
#
# Stress axis : x y z
#
# Youngs Moduli (GPa) = 58.73375 30.59913 77.15914
#
# Poissons Ratio (x) = 0.37741 -0.06650
# Poissons Ratio (y) = 0.72442 0.25877
# Poissons Ratio (z) = -0.05062 0.10262
#
# Static dielectric constant tensor:
#      x y z
#    x 3.641460 0.000000 0.133310 
#    y 0.000000 3.491480 0.000000 
#    z 0.133310 0.000000 3.768670 
# 
# 
# High freq. dielectric constant tensor:
#      x y z
#    x 1.769430 0.000000 0.006540 
#    y 0.000000 1.766850 0.000000 
#    z 0.006540 0.000000 1.774620 
# 
# From -- ./inp_files/66494.got.cif
#   From: 2010.06.25/outbox.cif.g09.slc.cpg/sg10_34_cif.got.tgz:66494.got - 2010.06.27 22:07:45.
