data_PCOD8066218
_publ_section_title
;
Structure prediction by ZEFSAII (Michael W. Deem and Ramdas Pophale) SiO2 
 PCOD8066218
Probable space group: P 2/M
;
_chemical_formula_sum "Si O2"
_cell_formula_units_Z 20
_cell_length_a 27.162915
_cell_length_b 8.681248
_cell_length_c 9.563977
_cell_angle_alpha 90.000000
_cell_angle_beta 152.079880
_cell_angle_gamma 90.000000
_cell_volume 1056.004311
_symmetry_space_group_name_H-M "P 2/M"
_symmetry_group_IT_number 10
_symmetry_cell_setting 'monoclinic'
loop_
_space_group_symop_operation_xyz
x,y,z
-x,y,-z
-x,-y,-z
x,-y,z
loop_
_atom_site_type_symbol
_atom_site_label
_atom_site_fract_x
_atom_site_fract_y
_atom_site_fract_z
Si Si1 0.668769 0.821853 0.678890
Si Si2 0.121381 0.179296 0.295230
Si Si3 0.270297 0.322235 0.449615
Si Si4 0.446799 0.675929 0.115348
Si Si5 0.268242 0.678665 0.880520
O O1 0.727528 0.779984 0.683450
O O2 0.545277 0.788193 0.357283
O O3 0.685257 0.000000 0.753790
O O4 0.722753 0.723168 0.935867
O O5 0.170469 0.275060 0.291143
O O6 0.175828 0.223082 0.578080
O O7 0.138399 0.000000 0.307859
O O8 0.000000 0.223950 0.000000
O O9 0.259621 0.500000 0.380858
O O10 0.377144 0.293687 0.803615
O O11 0.487594 0.500000 0.220859
O O12 0.379306 0.713445 0.084054
O O13 0.239271 0.500000 0.791029
#
# Coordination Sequence:
#
# PCOD8066218 Si02
#       5
#     4   4   4   4   4
#     4  12  23  33  51  81 116 148 180 225 274 317
#     4  10  21  39  62  85 109 136 171 222 278 327
#     4  10  21  37  57  80 109 146 186 224 263 318
#     4   9  19  35  54  77 108 148 188 222 262 316
#     4  10  21  37  57  80 109 146 186 224 263 318
#
# _framework density 18.939316999999999
#
# number of rings (size 3 to 8) (size 9 to 14) (size 15 to 20)
#    0.000    1.800    0.000    6.000    0.000   11.200 
#    0.000    1.000    0.000    6.000    0.000    0.000 
#    0.000    0.000    0.000    0.000    0.000    0.000 
#
# Total GULP energy -248118.933627 kJ/mol
# GULP energy per Si atom -12405.946681 kJ/mol
# Density = 1.889621 g / cm^3
# Si number density = 18.939317 Si / 1000 Ang^3
#
#
#
# Elastic Constant Matrix: (Units=GPa)
#
#
# Indices 1 2 3 4 5 6 
#
# 1 94.7585 18.6721 47.6671 0.0000 -14.1109 0.0000
# 2 18.6721 57.8319 21.1366 0.0000 8.4236 0.0000
# 3 47.6671 21.1366 78.7752 0.0000 11.4864 0.0000
# 4 0.0000 0.0000 0.0000 26.6207 0.0000 -2.8790
# 5 -14.1109 8.4236 11.4864 0.0000 24.9420 0.0000
# 6 0.0000 0.0000 0.0000 -2.8790 0.0000 32.8223
#
#
#
# Elastic Compliance Matrix: (Units=1/GPa)
#
#
# Indices 1 2 3 4 5 6 
#
# 1 0.022424 -0.004718 -0.015420 0.000000 0.021381 0.000000
# 2 -0.004718 0.020626 -0.001366 0.000000 -0.009006 0.000000
# 3 -0.015420 -0.001366 0.025295 0.000000 -0.019912 0.000000
# 4 0.000000 0.000000 0.000000 0.037925 0.000000 0.003326
# 5 0.021381 -0.009006 -0.019912 0.000000 0.064401 0.000000
# 6 0.000000 0.000000 0.000000 0.003326 0.000000 0.030759
#
#
# Mechanical properties :
#
#
# Convention : Reuss Voigt Hill
#
# Bulk Modulus (GPa) = 39.47011 45.14634 42.30822
# Shear Modulus (GPa) = 19.77189 26.46966 23.12078
#
# Velocity S-wave (km/s) = 3.23454 3.74251 3.49776
# Velocity P-wave (km/s) = 5.90214 6.52413 6.22091
#
# Compressibility (1/GPa) = 0.02533563
#
# Stress axis : x y z
#
# Youngs Moduli (GPa) = 44.59515 48.48253 39.53323
#
# Poissons Ratio (x) = 0.22876 0.60962
# Poissons Ratio (y) = 0.21042 0.05400
# Poissons Ratio (z) = 0.68768 0.06622
#
# Static dielectric constant tensor:
#      x y z
#    x 3.518180 0.000000 -0.096710 
#    y 0.000000 3.509590 0.000000 
#    z -0.096710 0.000000 3.342980 
# 
# 
# High freq. dielectric constant tensor:
#      x y z
#    x 1.739460 0.000000 -0.009740 
#    y 0.000000 1.744360 0.000000 
#    z -0.009740 0.000000 1.720730 
# 
# From -- ./inp_files/22174.got.cif
#   From: 2010.06.25/outbox.cif.g09.slc.cpg/sg10_12_cif.got.tgz:22174.got - 2010.06.27 22:07:45.
