data_PCOD8066726
_publ_section_title
;
Structure prediction by ZEFSAII (Michael W. Deem and Ramdas Pophale) SiO2 
 PCOD8066726
Probable space group: P 2/M
;
_chemical_formula_sum "Si O2"
_cell_formula_units_Z 32
_cell_length_a 12.122965
_cell_length_b 8.573804
_cell_length_c 31.548378
_cell_angle_alpha 90.000000
_cell_angle_beta 151.635405
_cell_angle_gamma 90.000000
_cell_volume 1557.853779
_symmetry_space_group_name_H-M "P 2/M"
_symmetry_group_IT_number 10
_symmetry_cell_setting 'monoclinic'
loop_
_space_group_symop_operation_xyz
x,y,z
-x,y,-z
-x,-y,-z
x,-y,z
loop_
_atom_site_type_symbol
_atom_site_label
_atom_site_fract_x
_atom_site_fract_y
_atom_site_fract_z
Si Si1 0.775619 0.181484 0.473423
Si Si2 0.625555 0.319971 0.821693
Si Si3 0.737986 0.319551 0.372027
Si Si4 0.233282 0.818797 0.904170
Si Si5 0.489647 0.179704 0.861924
Si Si6 0.887729 0.319630 0.051168
Si Si7 0.063975 0.319198 0.761174
Si Si8 0.422226 0.182282 0.426763
O O1 0.676376 0.273147 0.399246
O O2 0.630507 0.228520 0.465690
O O3 0.043868 0.223427 0.572206
O O4 0.753643 0.000000 0.455987
O O5 0.596939 0.500000 0.825609
O O6 0.485298 0.281866 0.731685
O O7 0.529129 0.210955 0.825941
O O8 0.893519 0.278090 0.904293
O O9 0.805967 0.500000 0.393346
O O10 0.097588 0.783294 0.901570
O O11 0.116948 0.720236 0.827737
O O12 0.212925 0.000000 0.885669
O O13 0.500000 0.767495 0.000000
O O14 0.225702 0.219983 0.784329
O O15 0.540061 0.000000 0.889307
O O16 0.656560 0.285003 0.946857
O O17 0.890788 0.500000 0.065531
O O18 0.111310 0.500000 0.769069
O O19 0.799633 0.281109 0.661397
O O20 0.500000 0.230201 0.500000
O O21 0.361030 0.000000 0.403211
#
# Coordination Sequence:
#
# PCOD8066726 Si02
#       8
#     4   4   4   4   4   4   4   4
#     4  10  21  39  63  91 123 161 205 253 312 374
#     4  10  24  42  62  92 126 163 209 260 315 372
#     4  10  21  39  63  90 122 161 205 258 312 368
#     4  11  23  41  66  96 130 170 215 265 318 379
#     4  12  25  42  64  91 126 168 213 260 315 377
#     4  11  23  41  65  93 129 169 211 261 315 373
#     4  12  26  43  67  96 128 169 216 264 320 384
#     4  10  24  45  67  95 132 169 208 262 322 381
#
# _framework density 20.541079
#
# number of rings (size 3 to 8) (size 9 to 14) (size 15 to 20)
#    0.000    1.250    1.250    4.875    3.500    5.250 
#    0.000    0.000    0.000    0.000    0.000    0.000 
#    0.000    0.000    0.000    0.000    0.000    0.000 
#
# Total GULP energy -397038.979793 kJ/mol
# GULP energy per Si atom -12407.468119 kJ/mol
# Density = 2.049433 g / cm^3
# Si number density = 20.541079 Si / 1000 Ang^3
#
#
#
# Elastic Constant Matrix: (Units=GPa)
#
#
# Indices 1 2 3 4 5 6 
#
# 1 138.0661 29.5587 39.5696 0.0000 -2.8555 0.0000
# 2 29.5587 57.7210 31.1785 0.0000 -2.4906 0.0000
# 3 39.5696 31.1785 95.8694 0.0000 -3.0134 0.0000
# 4 0.0000 0.0000 0.0000 22.5036 0.0000 -1.2635
# 5 -2.8555 -2.4906 -3.0134 0.0000 28.5297 0.0000
# 6 0.0000 0.0000 0.0000 -1.2635 0.0000 31.8974
#
#
#
# Elastic Compliance Matrix: (Units=1/GPa)
#
#
# Indices 1 2 3 4 5 6 
#
# 1 0.008633 -0.003018 -0.002571 0.000000 0.000329 0.000000
# 2 -0.003018 0.022107 -0.005913 0.000000 0.001003 0.000000
# 3 -0.002571 -0.005913 0.013435 0.000000 0.000646 0.000000
# 4 0.000000 0.000000 0.000000 0.044536 0.000000 0.001764
# 5 0.000329 0.001003 0.000646 0.000000 0.035240 0.000000
# 6 0.000000 0.000000 0.000000 0.001764 0.000000 0.031420
#
#
# Mechanical properties :
#
#
# Convention : Reuss Voigt Hill
#
# Bulk Modulus (GPa) = 47.23227 54.69668 50.96447
# Shear Modulus (GPa) = 26.96403 29.34279 28.15341
#
# Velocity S-wave (km/s) = 3.62703 3.78364 3.70617
# Velocity P-wave (km/s) = 6.37059 6.76562 6.57108
#
# Compressibility (1/GPa) = 0.02117197
#
# Stress axis : x y z
#
# Youngs Moduli (GPa) = 115.83835 45.23439 74.43052
#
# Poissons Ratio (x) = 0.13650 0.19139
# Poissons Ratio (y) = 0.34956 0.44008
# Poissons Ratio (z) = 0.29786 0.26745
#
# Static dielectric constant tensor:
#      x y z
#    x 3.882350 0.000000 -0.040290 
#    y 0.000000 3.707260 0.000000 
#    z -0.040290 0.000000 3.737800 
# 
# 
# High freq. dielectric constant tensor:
#      x y z
#    x 1.814080 0.000000 -0.000930 
#    y 0.000000 1.806640 0.000000 
#    z -0.000930 0.000000 1.805490 
# 
# From -- ./inp_files/95056.got.cif
#   From: 2010.06.25/outbox.cif.g09.slc.cpg/sg10_48_cif.got.tgz:95056.got - 2010.06.27 22:07:45.
