data_PCOD8066257
_publ_section_title
;
Structure prediction by ZEFSAII (Michael W. Deem and Ramdas Pophale) SiO2 
 PCOD8066257
Probable space group: P 2/M
;
_chemical_formula_sum "Si O2"
_cell_formula_units_Z 28
_cell_length_a 14.818484
_cell_length_b 8.744401
_cell_length_c 21.749734
_cell_angle_alpha 90.000000
_cell_angle_beta 148.873729
_cell_angle_gamma 90.000000
_cell_volume 1456.854137
_symmetry_space_group_name_H-M "P 2/M"
_symmetry_group_IT_number 10
_symmetry_cell_setting 'monoclinic'
loop_
_space_group_symop_operation_xyz
x,y,z
-x,y,-z
-x,-y,-z
x,-y,z
loop_
_atom_site_type_symbol
_atom_site_label
_atom_site_fract_x
_atom_site_fract_y
_atom_site_fract_z
Si Si1 0.467795 0.680772 0.387024
Si Si2 0.764912 0.676093 0.231108
Si Si3 0.777109 0.318278 0.650379
Si Si4 0.168691 0.677760 0.869360
Si Si5 0.551281 0.179221 0.881675
Si Si6 0.923848 0.173668 0.523129
Si Si7 0.546647 0.319299 0.299374
O O1 0.475473 0.500000 0.397359
O O2 0.302583 0.738994 0.330664
O O3 0.650542 0.743768 0.522188
O O4 0.447063 0.730654 0.304007
O O5 0.736791 0.500000 0.233064
O O6 0.743673 0.699825 0.146010
O O7 0.623021 0.775682 0.183691
O O8 0.958778 0.727107 0.362446
O O9 0.786961 0.500000 0.653367
O O10 0.972342 0.254085 0.755573
O O11 0.172787 0.500000 0.890824
O O12 0.277872 0.774234 0.981551
O O13 0.563028 0.259656 0.822298
O O14 0.546649 0.000000 0.868163
O O15 0.734695 0.244809 0.410323
O O16 0.000000 0.181578 0.500000
O O17 0.915730 0.000000 0.542402
O O18 0.568254 0.500000 0.307464
#
# Coordination Sequence:
#
# PCOD8066257 Si02
#       7
#     4   4   4   4   4   4   4
#     4   8  15  29  55  89 115 137 168 218 279 327
#     4  11  22  37  59  84 108 140 185 232 274 321
#     4   8  14  30  56  86 116 136 166 221 278 327
#     4  10  21  37  58  83 108 141 185 230 274 321
#     4  12  25  39  53  74 109 152 189 225 274 328
#     4  11  22  35  53  80 114 147 179 217 268 325
#     4  11  21  35  57  83 111 145 186 228 272 319
#
# _framework density 19.219494999999998
#
# number of rings (size 3 to 8) (size 9 to 14) (size 15 to 20)
#    0.000    1.857    1.429    4.714    0.000    5.714 
#    0.000    0.714    0.000    6.000    0.000    6.000 
#    0.000    0.000    0.000    0.000    0.000    0.000 
#
# Total GULP energy -347197.309892 kJ/mol
# GULP energy per Si atom -12399.903925 kJ/mol
# Density = 1.917575 g / cm^3
# Si number density = 19.219495 Si / 1000 Ang^3
#
#
#
# Elastic Constant Matrix: (Units=GPa)
#
#
# Indices 1 2 3 4 5 6 
#
# 1 102.9607 39.8011 37.7853 0.0000 -20.6151 0.0000
# 2 39.8011 148.3752 63.9204 0.0000 -29.9626 0.0000
# 3 37.7853 63.9204 110.9597 0.0000 -26.0716 0.0000
# 4 0.0000 0.0000 0.0000 -41.5520 0.0000 -49.5295
# 5 -20.6151 -29.9626 -26.0716 0.0000 32.1074 0.0000
# 6 0.0000 0.0000 0.0000 -49.5295 0.0000 -40.0075
#
#
#
# Elastic Compliance Matrix: (Units=1/GPa)
#
#
# Indices 1 2 3 4 5 6 
#
# 1 0.011968 -0.001312 -0.002227 0.000000 0.004652 0.000000
# 2 -0.001312 0.009856 -0.004039 0.000000 0.005077 0.000000
# 3 -0.002227 -0.004039 0.013440 0.000000 0.005715 0.000000
# 4 0.000000 0.000000 0.000000 0.050593 0.000000 -0.062634
# 5 0.004652 0.005077 0.005715 0.000000 0.043510 0.000000
# 6 0.000000 0.000000 0.000000 -0.062634 0.000000 0.052546
#
#
# Mechanical properties :
#
#
# Convention : Reuss Voigt Hill
#
# Bulk Modulus (GPa) = 49.72559 71.70102 60.71330
# Shear Modulus (GPa) = 24.53734 4.82884 14.68309
#
# Velocity S-wave (km/s) = 3.57696 1.58680 2.76700
# Velocity P-wave (km/s) = 6.55653 6.38315 6.47042
#
# Compressibility (1/GPa) = 0.02011037
#
# Stress axis : x y z
#
# Youngs Moduli (GPa) = 83.55503 101.45621 74.40565
#
# Poissons Ratio (x) = 0.13307 0.16569
# Poissons Ratio (y) = 0.10959 0.30049
# Poissons Ratio (z) = 0.18607 0.40973
#
# Static dielectric constant tensor:
#      x y z
#    x 3.182910 0.000000 -0.154530 
#    y 0.000000 3.336480 0.000000 
#    z -0.154530 0.000000 3.627220 
# 
# 
# High freq. dielectric constant tensor:
#      x y z
#    x 1.752870 0.000000 -0.007860 
#    y 0.000000 1.724120 0.000000 
#    z -0.007860 0.000000 1.746080 
# 
# From -- ./inp_files/49107.got.cif
#   From: 2010.06.25/outbox.cif.g09.slc.cpg/sg10_25_cif.got.tgz:49107.got - 2010.06.27 22:07:45.
