data_PCOD8066880
_publ_section_title
;
Structure prediction by ZEFSAII (Michael W. Deem and Ramdas Pophale) SiO2 
 PCOD8066880
Probable space group: P 2/M
;
_chemical_formula_sum "Si O2"
_cell_formula_units_Z 20
_cell_length_a 5.135002
_cell_length_b 13.260129
_cell_length_c 16.667634
_cell_angle_alpha 90.000000
_cell_angle_beta 123.525832
_cell_angle_gamma 90.000000
_cell_volume 946.104806
_symmetry_space_group_name_H-M "P 2/M"
_symmetry_group_IT_number 10
_symmetry_cell_setting 'monoclinic'
loop_
_space_group_symop_operation_xyz
x,y,z
-x,y,-z
-x,-y,-z
x,-y,z
loop_
_atom_site_type_symbol
_atom_site_label
_atom_site_fract_x
_atom_site_fract_y
_atom_site_fract_z
Si Si1 0.832064 0.000000 0.323172
Si Si2 0.789741 0.389458 0.333373
Si Si3 0.109053 0.683749 0.242648
Si Si4 0.834933 0.798533 0.596279
Si Si5 0.134156 0.810143 0.935935
Si Si6 0.891538 0.000000 0.803479
O O1 0.469232 0.000000 0.283579
O O2 0.980472 0.098668 0.389939
O O3 0.886444 0.000000 0.236688
O O4 0.881805 0.500000 0.384227
O O5 0.422129 0.376446 0.277992
O O6 0.875142 0.387391 0.253167
O O7 0.981454 0.299006 0.410220
O O8 0.190341 0.783019 0.311289
O O9 0.937178 0.714059 0.131840
O O10 0.500000 0.805661 0.500000
O O11 0.500000 0.833127 0.000000
O O12 0.952638 0.904764 0.869769
O O13 0.000000 0.785113 0.000000
#
# Coordination Sequence:
#
# PCOD8066880 Si02
#       6
#     2   4   4   4   4   2
#     4  12  23  41  66  88 139 171 208 250 315 386
#     4  10  21  41  68  93 126 168 210 266 319 366
#     4  10  22  41  62  93 127 163 205 262 316 378
#     4  10  24  42  65  96 128 172 212 258 314 378
#     4  12  23  38  64  92 126 167 213 265 316 370
#     4  12  22  41  59  92 125 171 215 262 312 368
#
# _framework density 21.139308
#
# number of rings (size 3 to 8) (size 9 to 14) (size 15 to 20)
#    1.200    0.000    2.000    5.100    0.000    1.200 
#    0.000    2.000    0.000   12.000    0.000    0.000 
#    0.000    0.000    0.000    0.000    0.000    0.000 
#
# Total GULP energy -247926.116050 kJ/mol
# GULP energy per Si atom -12396.305803 kJ/mol
# Density = 2.109119 g / cm^3
# Si number density = 21.139308 Si / 1000 Ang^3
#
#
#
# Elastic Constant Matrix: (Units=GPa)
#
#
# Indices 1 2 3 4 5 6 
#
# 1 112.4906 18.6651 4.8940 0.0000 11.9221 0.0000
# 2 18.6651 143.9132 28.6296 0.0000 24.6017 0.0000
# 3 4.8940 28.6296 62.8672 0.0000 14.5000 0.0000
# 4 0.0000 0.0000 0.0000 16.0592 0.0000 35.2988
# 5 11.9221 24.6017 14.5000 0.0000 33.8674 0.0000
# 6 0.0000 0.0000 0.0000 35.2988 0.0000 93.3753
#
#
#
# Elastic Compliance Matrix: (Units=1/GPa)
#
#
# Indices 1 2 3 4 5 6 
#
# 1 0.009307 -0.000779 0.000283 0.000000 -0.002831 0.000000
# 2 -0.000779 0.008380 -0.002680 0.000000 -0.004666 0.000000
# 3 0.000283 -0.002680 0.018506 0.000000 -0.006077 0.000000
# 4 0.000000 0.000000 0.000000 0.368307 0.000000 -0.139232
# 5 -0.002831 -0.004666 -0.006077 0.000000 0.036515 0.000000
# 6 0.000000 0.000000 0.000000 -0.139232 0.000000 0.063343
#
#
# Mechanical properties :
#
#
# Convention : Reuss Voigt Hill
#
# Bulk Modulus (GPa) = 33.50933 47.07203 40.29068
# Shear Modulus (GPa) = 9.60325 46.46586 28.03456
#
# Velocity S-wave (km/s) = 2.13371 4.69345 3.64563
# Velocity P-wave (km/s) = 4.68576 7.18938 6.06810
#
# Compressibility (1/GPa) = 0.02984244
#
# Stress axis : x y z
#
# Youngs Moduli (GPa) = 107.44939 119.32554 54.03574
#
# Poissons Ratio (x) = 0.09301 -0.01532
# Poissons Ratio (y) = 0.08375 0.14479
# Poissons Ratio (z) = -0.03046 0.31974
#
# Static dielectric constant tensor:
#      x y z
#    x 3.678650 0.000000 -0.123210 
#    y 0.000000 4.019010 0.000000 
#    z -0.123210 0.000000 3.556860 
# 
# 
# High freq. dielectric constant tensor:
#      x y z
#    x 1.841150 0.000000 0.003300 
#    y 0.000000 1.825530 0.000000 
#    z 0.003300 0.000000 1.811350 
# 
# From -- ./inp_files/73256.got.cif
#   From: 2010.06.25/outbox.cif.g09.slc.cpg/sg10_37_cif.got.tgz:73256.got - 2010.06.27 22:07:45.
