data_PCOD8066530
_publ_section_title
;
Structure prediction by ZEFSAII (Michael W. Deem and Ramdas Pophale) SiO2 
 PCOD8066530
Probable space group: P 2/M
;
_chemical_formula_sum "Si O2"
_cell_formula_units_Z 28
_cell_length_a 24.788496
_cell_length_b 9.089154
_cell_length_c 21.210912
_cell_angle_alpha 90.000000
_cell_angle_beta 163.724684
_cell_angle_gamma 90.000000
_cell_volume 1339.317472
_symmetry_space_group_name_H-M "P 2/M"
_symmetry_group_IT_number 10
_symmetry_cell_setting 'monoclinic'
loop_
_space_group_symop_operation_xyz
x,y,z
-x,y,-z
-x,-y,-z
x,-y,z
loop_
_atom_site_type_symbol
_atom_site_label
_atom_site_fract_x
_atom_site_fract_y
_atom_site_fract_z
Si Si1 0.078824 0.829854 0.158121
Si Si2 0.288409 0.334773 0.862260
Si Si3 0.859883 0.334767 0.433991
Si Si4 0.454105 0.327620 0.619254
Si Si5 0.874520 0.672353 0.039444
Si Si6 0.584076 0.164285 0.882861
Si Si7 0.987782 0.835700 0.689244
O O1 0.285588 0.751702 0.392115
O O2 0.100681 0.000000 0.201814
O O3 0.000000 0.811330 0.000000
O O4 0.925686 0.751982 0.031971
O O5 0.371861 0.500000 0.957373
O O6 0.276651 0.278248 0.776485
O O7 0.078009 0.334789 0.655843
O O8 0.427657 0.231089 0.059739
O O9 0.799926 0.500000 0.385792
O O10 0.837508 0.230966 0.469921
O O11 0.411814 0.500000 0.576315
O O12 0.651917 0.294558 0.804573
O O13 0.458664 0.263846 0.695182
O O14 0.915422 0.500000 0.079506
O O15 0.012854 0.735978 0.249112
O O16 0.497621 0.000000 0.787194
O O17 0.802041 0.161930 0.104586
O O18 0.919997 0.000000 0.630828
#
# Coordination Sequence:
#
# PCOD8066530 Si02
#       7
#     4   4   4   4   4   4   4
#     4  11  25  43  63  89 120 151 184 227 281 341
#     4   8  13  21  34  56  91 135 181 229 279 329
#     4   8  13  21  34  56  91 135 181 229 279 329
#     4  10  21  38  61  87 116 152 193 236 281 333
#     4  10  21  38  61  87 116 152 193 236 281 333
#     4   9  16  26  43  69 102 140 183 231 281 333
#     4   9  16  26  43  69 102 140 183 231 281 333
#
# _framework density 20.906172000000002
#
# number of rings (size 3 to 8) (size 9 to 14) (size 15 to 20)
#    0.000    2.714    0.000    3.000    0.000    7.429 
#    0.000    5.714    0.000    0.000    0.000    1.000 
#    0.000    8.000    0.000    0.857    0.000    0.571 
#
# Total GULP energy -347133.187296 kJ/mol
# GULP energy per Si atom -12397.613832 kJ/mol
# Density = 2.085859 g / cm^3
# Si number density = 20.906172 Si / 1000 Ang^3
#
#
#
# Elastic Constant Matrix: (Units=GPa)
#
#
# Indices 1 2 3 4 5 6 
#
# 1 45.0779 75.0559 114.5338 0.0000 -44.4239 0.0000
# 2 75.0559 171.0162 61.4196 0.0000 -25.7717 0.0000
# 3 114.5338 61.4196 23.5590 0.0000 0.2595 0.0000
# 4 0.0000 0.0000 0.0000 24.2056 0.0000 -14.4042
# 5 -44.4239 -25.7717 0.2595 0.0000 26.8214 0.0000
# 6 0.0000 0.0000 0.0000 -14.4042 0.0000 32.8545
#
#
#
# Elastic Compliance Matrix: (Units=1/GPa)
#
#
# Indices 1 2 3 4 5 6 
#
# 1 0.000240 -0.004251 0.009955 0.000000 -0.003783 0.000000
# 2 -0.004251 0.009330 -0.003681 0.000000 0.001960 0.000000
# 3 0.009955 -0.003681 0.003504 0.000000 0.012917 0.000000
# 4 0.000000 0.000000 0.000000 0.055896 0.000000 0.024506
# 5 -0.003783 0.001960 0.012917 0.000000 0.032777 0.000000
# 6 0.000000 0.000000 0.000000 0.024506 0.000000 0.041181
#
#
# Mechanical properties :
#
#
# Convention : Reuss Voigt Hill
#
# Bulk Modulus (GPa) = 58.40612 82.40796 70.40704
# Shear Modulus (GPa) = 34.58045 16.01921 25.29983
#
# Velocity S-wave (km/s) = 4.07145 2.77111 3.48251
# Velocity P-wave (km/s) = 7.07815 7.05282 7.06550
#
# Compressibility (1/GPa) = 0.01712149
#
# Stress axis : x y z
#
# Youngs Moduli (GPa) = 4159.43790 107.17616 285.35344
#
# Poissons Ratio (x) = 0.45558 -2.84067
# Poissons Ratio (y) = 17.68091 1.05039
# Poissons Ratio (z) = -41.40685 0.39452
#
# Static dielectric constant tensor:
#      x y z
#    x 3.744230 0.000000 -0.237250 
#    y 0.000000 3.984580 0.000000 
#    z -0.237250 0.000000 3.600570 
# 
# 
# High freq. dielectric constant tensor:
#      x y z
#    x 1.812600 0.000000 -0.012240 
#    y 0.000000 1.822070 0.000000 
#    z -0.012240 0.000000 1.805290 
# 
# From -- ./inp_files/86551.got.cif
#   From: 2010.06.25/outbox.cif.g09.slc.cpg/sg10_44_cif.got.tgz:86551.got - 2010.06.27 22:07:45.
