data_PCOD8066974
_publ_section_title
;
Structure prediction by ZEFSAII (Michael W. Deem and Ramdas Pophale) SiO2 
 PCOD8066974
Probable space group: P 2/M
;
_chemical_formula_sum "Si O2"
_cell_formula_units_Z 28
_cell_length_a 9.498560
_cell_length_b 7.672005
_cell_length_c 28.708413
_cell_angle_alpha 90.000000
_cell_angle_beta 40.297948
_cell_angle_gamma 90.000000
_cell_volume 1353.071169
_symmetry_space_group_name_H-M "P 2/M"
_symmetry_group_IT_number 10
_symmetry_cell_setting 'monoclinic'
loop_
_space_group_symop_operation_xyz
x,y,z
-x,y,-z
-x,-y,-z
x,-y,z
loop_
_atom_site_type_symbol
_atom_site_label
_atom_site_fract_x
_atom_site_fract_y
_atom_site_fract_z
Si Si1 0.582409 0.202694 0.173386
Si Si2 0.745057 0.500000 0.066923
Si Si3 0.729091 0.500000 0.965974
Si Si4 0.178774 0.795059 0.714488
Si Si5 0.039169 0.798612 0.851854
Si Si6 0.094920 0.197661 0.301527
Si Si7 0.674257 0.699090 0.585405
Si Si8 0.983167 0.294281 0.429132
O O1 0.672058 0.321911 0.109672
O O2 0.338916 0.272699 0.245645
O O3 0.726489 0.229772 0.183238
O O4 0.588731 0.000000 0.155970
O O5 0.655171 0.500000 0.037847
O O6 0.000000 0.500000 0.000000
O O7 0.862578 0.674407 0.920159
O O8 0.500000 0.500000 0.000000
O O9 0.418438 0.717150 0.652756
O O10 0.061707 0.744385 0.792209
O O11 0.039236 0.712368 0.707034
O O12 0.207405 0.000000 0.702772
O O13 0.963287 0.000000 0.876218
O O14 0.966335 0.210813 0.382340
O O15 0.118554 0.000000 0.280018
O O16 0.745299 0.500000 0.567113
O O17 0.774612 0.773604 0.511676
O O18 0.798597 0.776624 0.599400
O O19 0.985961 0.500000 0.420340
#
# Coordination Sequence:
#
# PCOD8066974 Si02
#       8
#     4   2   2   4   4   4   4   4
#     4  10  22  41  67  92 122 161 201 251 303 353
#     4  12  24  44  66  98 125 152 205 248 294 365
#     4  12  28  44  64  98 127 158 203 242 298 371
#     4  10  22  38  57  84 119 157 197 241 297 356
#     4  10  22  43  66  90 123 163 203 247 300 358
#     4  10  22  38  57  86 118 155 198 243 297 353
#     4   9  19  36  57  83 115 155 198 247 298 348
#     4   9  19  36  57  83 115 153 201 248 295 347
#
# _framework density 20.693663000000001
#
# number of rings (size 3 to 8) (size 9 to 14) (size 15 to 20)
#    0.000    2.000    1.429    1.714    4.000    4.571 
#    0.000    4.286    0.000    0.000    0.000    0.000 
#    0.000    0.000    0.000    0.000    0.000    0.000 
#
# Total GULP energy -347090.935115 kJ/mol
# GULP energy per Si atom -12396.104826 kJ/mol
# Density = 2.064656 g / cm^3
# Si number density = 20.693663 Si / 1000 Ang^3
#
#
#
# Elastic Constant Matrix: (Units=GPa)
#
#
# Indices 1 2 3 4 5 6 
#
# 1 133.3236 27.7947 40.7876 0.0000 22.5253 0.0000
# 2 27.7947 62.8925 32.0638 0.0000 3.9066 0.0000
# 3 40.7876 32.0638 85.9086 0.0000 21.2158 0.0000
# 4 0.0000 0.0000 0.0000 13.3381 0.0000 10.9712
# 5 22.5253 3.9066 21.2158 0.0000 44.3371 0.0000
# 6 0.0000 0.0000 0.0000 10.9712 0.0000 18.9094
#
#
#
# Elastic Compliance Matrix: (Units=1/GPa)
#
#
# Indices 1 2 3 4 5 6 
#
# 1 0.009417 -0.002582 -0.002701 0.000000 -0.003264 0.000000
# 2 -0.002582 0.020504 -0.007150 0.000000 0.002926 0.000000
# 3 -0.002701 -0.007150 0.017120 0.000000 -0.006190 0.000000
# 4 0.000000 0.000000 0.000000 0.143417 0.000000 -0.083210
# 5 -0.003264 0.002926 -0.006190 0.000000 0.026917 0.000000
# 6 0.000000 0.000000 0.000000 -0.083210 0.000000 0.101162
#
#
# Mechanical properties :
#
#
# Convention : Reuss Voigt Hill
#
# Bulk Modulus (GPa) = 45.09467 53.71298 49.40382
# Shear Modulus (GPa) = 14.25338 27.41550 20.83444
#
# Velocity S-wave (km/s) = 2.62731 3.64376 3.17646
# Velocity P-wave (km/s) = 5.57158 6.61175 6.11383
#
# Compressibility (1/GPa) = 0.02217557
#
# Stress axis : x y z
#
# Youngs Moduli (GPa) = 106.19544 48.76990 58.41165
#
# Poissons Ratio (x) = 0.12591 0.15778
# Poissons Ratio (y) = 0.27417 0.41763
# Poissons Ratio (z) = 0.28685 0.34870
#
# Static dielectric constant tensor:
#      x y z
#    x 3.972560 0.000000 -0.026400 
#    y 0.000000 3.669160 0.000000 
#    z -0.026400 0.000000 3.455490 
# 
# 
# High freq. dielectric constant tensor:
#      x y z
#    x 1.816830 0.000000 0.005000 
#    y 0.000000 1.802690 0.000000 
#    z 0.005000 0.000000 1.808480 
# 
# From -- ./inp_files/37166.got.cif
#   From: 2010.06.25/outbox.cif.g09.slc.cpg/sg10_19_cif.got.tgz:37166.got - 2010.06.27 22:07:45.
