data_PCOD8066096
_publ_section_title
;
Structure prediction by ZEFSAII (Michael W. Deem and Ramdas Pophale) SiO2 
 PCOD8066096
Probable space group: P 2/M
;
_chemical_formula_sum "Si O2"
_cell_formula_units_Z 26
_cell_length_a 11.893415
_cell_length_b 19.819044
_cell_length_c 8.561951
_cell_angle_alpha 90.000000
_cell_angle_beta 36.515268
_cell_angle_gamma 90.000000
_cell_volume 1200.897570
_symmetry_space_group_name_H-M "P 2/M"
_symmetry_group_IT_number 10
_symmetry_cell_setting 'monoclinic'
loop_
_space_group_symop_operation_xyz
x,y,z
-x,y,-z
-x,-y,-z
x,-y,z
loop_
_atom_site_type_symbol
_atom_site_label
_atom_site_fract_x
_atom_site_fract_y
_atom_site_fract_z
Si Si1 0.223468 0.360426 0.926740
Si Si2 0.906519 0.576351 0.443327
Si Si3 0.710674 0.193196 0.417574
Si Si4 0.658654 0.923686 0.697076
Si Si5 0.000000 0.130544 0.500000
Si Si6 0.125572 0.213187 0.081636
Si Si7 0.371164 0.660174 0.429120
O O1 0.427477 0.375957 0.774896
O O2 0.235707 0.354079 0.727263
O O3 0.140341 0.292509 0.096248
O O4 0.075880 0.419663 0.127898
O O5 0.828633 0.500000 0.534044
O O6 0.732231 0.627193 0.604213
O O7 0.000000 0.599108 0.500000
O O8 0.623411 0.125499 0.588774
O O9 0.599923 0.258588 0.611349
O O10 0.925616 0.197712 0.229499
O O11 0.707979 0.190968 0.229088
O O12 0.864683 0.915160 0.544893
O O13 0.641795 0.000000 0.653305
O O14 0.500000 0.907144 0.000000
O O15 0.137061 0.175331 0.235159
#
# Coordination Sequence:
#
# PCOD8066096 Si02
#       7
#     4   4   4   4   2   4   4
#     4  10  21  37  62  90 117 152 198 249 297 352
#     4  11  25  42  59  85 125 162 195 241 298 358
#     4   9  18  37  59  85 119 154 194 249 298 352
#     4  10  22  39  57  82 119 158 199 242 295 355
#     4  10  21  36  58  86 115 150 196 242 297 354
#     4   9  18  34  59  89 117 149 194 248 300 351
#     4  10  21  39  62  90 117 151 203 249 295 355
#
# _framework density 21.650473000000002
#
# number of rings (size 3 to 8) (size 9 to 14) (size 15 to 20)
#    0.000    2.154    1.538    0.692    3.231    2.462 
#    0.000   10.000    0.000    1.846    0.000    0.000 
#    0.000    0.000    0.000    0.000    0.000    0.000 
#
# Total GULP energy -322368.549883 kJ/mol
# GULP energy per Si atom -12398.790380 kJ/mol
# Density = 2.160120 g / cm^3
# Si number density = 21.650473 Si / 1000 Ang^3
#
#
#
# Elastic Constant Matrix: (Units=GPa)
#
#
# Indices 1 2 3 4 5 6 
#
# 1 80.2061 45.8631 4.6908 0.0000 14.1948 0.0000
# 2 45.8631 93.5152 29.9169 0.0000 13.6728 0.0000
# 3 4.6908 29.9169 51.2772 0.0000 10.9346 0.0000
# 4 0.0000 0.0000 0.0000 27.5459 0.0000 5.8403
# 5 14.1948 13.6728 10.9346 0.0000 23.3042 0.0000
# 6 0.0000 0.0000 0.0000 5.8403 0.0000 21.1149
#
#
#
# Elastic Compliance Matrix: (Units=1/GPa)
#
#
# Indices 1 2 3 4 5 6 
#
# 1 0.019502 -0.010222 0.006038 0.000000 -0.008715 0.000000
# 2 -0.010222 0.018959 -0.010092 0.000000 -0.000162 0.000000
# 3 0.006038 -0.010092 0.027067 0.000000 -0.010457 0.000000
# 4 0.000000 0.000000 0.000000 0.038565 0.000000 -0.010667
# 5 -0.008715 -0.000162 -0.010457 0.000000 0.053221 0.000000
# 6 0.000000 0.000000 0.000000 -0.010667 0.000000 0.050310
#
#
# Mechanical properties :
#
#
# Convention : Reuss Voigt Hill
#
# Bulk Modulus (GPa) = 27.04353 42.88223 34.96288
# Shear Modulus (GPa) = 20.12067 24.02819 22.07443
#
# Velocity S-wave (km/s) = 3.05182 3.33501 3.19655
# Velocity P-wave (km/s) = 4.99362 5.88892 5.45965
#
# Compressibility (1/GPa) = 0.03697742
#
# Stress axis : x y z
#
# Youngs Moduli (GPa) = 51.27619 52.74582 36.94500
#
# Poissons Ratio (x) = 0.53917 -0.22308
# Poissons Ratio (y) = 0.52415 0.37284
# Poissons Ratio (z) = -0.30962 0.53229
#
# Static dielectric constant tensor:
#      x y z
#    x 3.912320 0.000000 0.205400 
#    y 0.000000 3.725450 0.000000 
#    z 0.205400 0.000000 4.115180 
# 
# 
# High freq. dielectric constant tensor:
#      x y z
#    x 1.849030 0.000000 -0.008110 
#    y 0.000000 1.829690 0.000000 
#    z -0.008110 0.000000 1.849200 
# 
# From -- ./inp_files/26015.got.cif
#   From: 2010.06.25/outbox.cif.g09.slc.cpg/sg10_14_cif.got.tgz:26015.got - 2010.06.27 22:07:45.
