data_PCOD8066731
_publ_section_title
;
Structure prediction by ZEFSAII (Michael W. Deem and Ramdas Pophale) SiO2 
 PCOD8066731
Probable space group: P 2/M
;
_chemical_formula_sum "Si O2"
_cell_formula_units_Z 32
_cell_length_a 23.777726
_cell_length_b 8.742177
_cell_length_c 13.887801
_cell_angle_alpha 90.000000
_cell_angle_beta 33.344362
_cell_angle_gamma 90.000000
_cell_volume 1586.811230
_symmetry_space_group_name_H-M "P 2/M"
_symmetry_group_IT_number 10
_symmetry_cell_setting 'monoclinic'
loop_
_space_group_symop_operation_xyz
x,y,z
-x,y,-z
-x,-y,-z
x,-y,z
loop_
_atom_site_type_symbol
_atom_site_label
_atom_site_fract_x
_atom_site_fract_y
_atom_site_fract_z
Si Si1 0.751647 0.177037 0.719994
Si Si2 0.095188 0.818745 0.803582
Si Si3 0.600899 0.677654 0.795230
Si Si4 0.824417 0.679651 0.972394
Si Si5 0.957631 0.822019 0.328684
Si Si6 0.456782 0.177042 0.320782
Si Si7 0.328672 0.679740 0.973663
Si Si8 0.739344 0.823393 0.285861
O O1 0.693247 0.221878 0.705592
O O2 0.872715 0.206159 0.532284
O O3 0.729836 0.000000 0.774887
O O4 0.712123 0.282705 0.862099
O O5 0.086302 0.751917 0.708484
O O6 0.198560 0.764704 0.708826
O O7 0.092719 0.000000 0.801528
O O8 0.000000 0.754166 0.000000
O O9 0.630176 0.500000 0.759112
O O10 0.581603 0.723334 0.713342
O O11 0.500000 0.714715 0.000000
O O12 0.833053 0.500000 0.959828
O O13 0.753504 0.737023 0.986529
O O14 0.773369 0.729546 0.144832
O O15 0.937015 0.743909 0.792438
O O16 0.980991 0.000000 0.281911
O O17 0.567173 0.231356 0.198273
O O18 0.380190 0.201358 0.520441
O O19 0.459995 0.000000 0.284897
O O20 0.350194 0.500000 0.936453
O O21 0.765608 0.000000 0.227465
#
# Coordination Sequence:
#
# PCOD8066731 Si02
#       8
#     4   4   4   4   4   4   4   4
#     4  11  23  39  64  94 121 155 203 254 300 353
#     4   9  15  30  60  89 116 152 185 225 291 358
#     4  11  22  37  61  92 128 166 196 235 302 367
#     4  11  25  42  61  86 118 160 205 249 300 363
#     4  10  21  39  63  91 122 155 196 248 302 356
#     4  11  23  39  64  94 121 155 203 254 300 353
#     4  11  25  44  61  82 119 162 204 251 304 361
#     4  10  21  39  63  91 122 155 196 248 302 356
#
# _framework density 20.166229000000001
#
# number of rings (size 3 to 8) (size 9 to 14) (size 15 to 20)
#    0.000    1.500    2.500    2.625    0.000    7.500 
#    0.000    6.250    0.000    0.000    0.000    0.000 
#    0.000    0.000    0.000    0.000    0.000    0.000 
#
# Total GULP energy -396898.877848 kJ/mol
# GULP energy per Si atom -12403.089933 kJ/mol
# Density = 2.012033 g / cm^3
# Si number density = 20.166229 Si / 1000 Ang^3
#
#
#
# Elastic Constant Matrix: (Units=GPa)
#
#
# Indices 1 2 3 4 5 6 
#
# 1 97.7187 19.8439 35.9802 0.0000 -30.6128 0.0000
# 2 19.8439 45.2059 35.3217 0.0000 -11.6002 0.0000
# 3 35.9802 35.3217 118.3738 0.0000 -25.3886 0.0000
# 4 0.0000 0.0000 0.0000 17.8239 0.0000 -4.3776
# 5 -30.6128 -11.6002 -25.3886 0.0000 20.7692 0.0000
# 6 0.0000 0.0000 0.0000 -4.3776 0.0000 32.0643
#
#
#
# Elastic Compliance Matrix: (Units=1/GPa)
#
#
# Indices 1 2 3 4 5 6 
#
# 1 0.019125 -0.001761 0.000742 0.000000 0.028112 0.000000
# 2 -0.001761 0.029916 -0.007271 0.000000 0.005226 0.000000
# 3 0.000742 -0.007271 0.013222 0.000000 0.013195 0.000000
# 4 0.000000 0.000000 0.000000 0.058051 0.000000 0.007925
# 5 0.028112 0.005226 0.013195 0.000000 0.108633 0.000000
# 6 0.000000 0.000000 0.000000 0.007925 0.000000 0.032269
#
#
# Mechanical properties :
#
#
# Convention : Reuss Voigt Hill
#
# Bulk Modulus (GPa) = 21.88995 49.28778 35.58886
# Shear Modulus (GPa) = 17.06353 25.47499 21.26926
#
# Velocity S-wave (km/s) = 2.91201 3.55808 3.25113
# Velocity P-wave (km/s) = 4.71007 6.43224 5.63731
#
# Compressibility (1/GPa) = 0.04568307
#
# Stress axis : x y z
#
# Youngs Moduli (GPa) = 52.28832 33.42717 75.63207
#
# Poissons Ratio (x) = 0.05886 -0.05611
# Poissons Ratio (y) = 0.09208 0.54989
# Poissons Ratio (z) = -0.03879 0.24303
#
# Static dielectric constant tensor:
#      x y z
#    x 3.767250 0.000000 -0.136900 
#    y 0.000000 3.492850 0.000000 
#    z -0.136900 0.000000 3.781150 
# 
# 
# High freq. dielectric constant tensor:
#      x y z
#    x 1.784980 0.000000 -0.005860 
#    y 0.000000 1.775020 0.000000 
#    z -0.005860 0.000000 1.801350 
# 
# From -- ./inp_files/71474.got.cif
#   From: 2010.06.25/outbox.cif.g09.slc.cpg/sg10_36_cif.got.tgz:71474.got - 2010.06.27 22:07:45.
