data_PCOD8066953
_publ_section_title
;
Structure prediction by ZEFSAII (Michael W. Deem and Ramdas Pophale) SiO2 
 PCOD8066953
Probable space group: P 2/M
;
_chemical_formula_sum "Si O2"
_cell_formula_units_Z 28
_cell_length_a 9.689719
_cell_length_b 9.019257
_cell_length_c 27.201183
_cell_angle_alpha 90.000000
_cell_angle_beta 141.254705
_cell_angle_gamma 90.000000
_cell_volume 1487.806788
_symmetry_space_group_name_H-M "P 2/M"
_symmetry_group_IT_number 10
_symmetry_cell_setting 'monoclinic'
loop_
_space_group_symop_operation_xyz
x,y,z
-x,y,-z
-x,-y,-z
x,-y,z
loop_
_atom_site_type_symbol
_atom_site_label
_atom_site_fract_x
_atom_site_fract_y
_atom_site_fract_z
Si Si1 0.301874 0.323519 0.182250
Si Si2 0.001975 0.173029 0.275265
Si Si3 0.458330 0.322783 0.849586
Si Si4 0.378251 0.828494 0.304319
Si Si5 0.122519 0.661441 0.982824
Si Si6 0.754924 0.674257 0.567648
Si Si7 0.198758 0.170835 0.518262
O O1 0.285603 0.500000 0.180216
O O2 0.470692 0.276790 0.185967
O O3 0.392329 0.261695 0.258068
O O4 0.053451 0.257032 0.102310
O O5 0.767301 0.244746 0.198763
O O6 0.149057 0.202280 0.268035
O O7 0.111361 0.247564 0.352495
O O8 0.976183 0.000000 0.279118
O O9 0.435808 0.500000 0.847299
O O10 0.641926 0.260976 0.939977
O O11 0.576032 0.773440 0.394030
O O12 0.410664 0.000000 0.300215
O O13 0.175295 0.500000 0.974897
O O14 0.000000 0.638818 0.000000
O O15 0.500000 0.720447 0.500000
O O16 0.790461 0.500000 0.582526
O O17 0.851579 0.729175 0.542885
O O18 0.000000 0.195141 0.500000
O O19 0.220683 0.000000 0.507908
#
# Coordination Sequence:
#
# PCOD8066953 Si02
#       7
#     4   4   4   4   4   4   4
#     4   9  18  33  57  84 109 141 178 222 276 323
#     4  11  23  38  56  77 109 150 185 217 265 326
#     4   9  18  34  57  85 111 137 179 229 269 316
#     4  10  22  38  53  76 111 147 182 221 267 320
#     4   7  12  28  53  79 108 140 174 216 269 323
#     4  11  23  39  60  84 108 139 181 227 273 317
#     4  10  22  40  60  81 108 146 185 221 267 321
#
# _framework density 18.819647
#
# number of rings (size 3 to 8) (size 9 to 14) (size 15 to 20)
#    0.000    2.429    1.429    2.571    2.000    3.143 
#    0.000    1.429    0.000    6.857    0.000    0.000 
#    0.000    0.000    0.000    0.000    0.000    0.000 
#
# Total GULP energy -347062.544381 kJ/mol
# GULP energy per Si atom -12395.090871 kJ/mol
# Density = 1.877681 g / cm^3
# Si number density = 18.819647 Si / 1000 Ang^3
#
#
#
# Elastic Constant Matrix: (Units=GPa)
#
#
# Indices 1 2 3 4 5 6 
#
# 1 57.0520 23.4077 12.9171 0.0000 10.2144 0.0000
# 2 23.4077 42.6032 17.3873 0.0000 7.5533 0.0000
# 3 12.9171 17.3873 56.4599 0.0000 20.7701 0.0000
# 4 0.0000 0.0000 0.0000 36.6792 0.0000 -11.9389
# 5 10.2144 7.5533 20.7701 0.0000 34.3099 0.0000
# 6 0.0000 0.0000 0.0000 -11.9389 0.0000 38.8253
#
#
#
# Elastic Compliance Matrix: (Units=1/GPa)
#
#
# Indices 1 2 3 4 5 6 
#
# 1 0.023215 -0.011978 -0.000064 0.000000 -0.004235 0.000000
# 2 -0.011978 0.033063 -0.007817 0.000000 0.001019 0.000000
# 3 -0.000064 -0.007817 0.025078 0.000000 -0.013442 0.000000
# 4 0.000000 0.000000 0.000000 0.030296 0.000000 0.009316
# 5 -0.004235 0.001019 -0.013442 0.000000 0.038320 0.000000
# 6 0.000000 0.000000 0.000000 0.009316 0.000000 0.028621
#
#
# Mechanical properties :
#
#
# Convention : Reuss Voigt Hill
#
# Bulk Modulus (GPa) = 24.01617 29.28213 26.64915
# Shear Modulus (GPa) = 21.53402 28.78975 25.16188
#
# Velocity S-wave (km/s) = 3.38632 3.91547 3.66047
# Velocity P-wave (km/s) = 5.29891 6.00286 5.66184
#
# Compressibility (1/GPa) = 0.04163862
#
# Stress axis : x y z
#
# Youngs Moduli (GPa) = 43.07532 30.24529 39.87488
#
# Poissons Ratio (x) = 0.36228 0.00257
# Poissons Ratio (y) = 0.51596 0.31169
# Poissons Ratio (z) = 0.00277 0.23642
#
# Static dielectric constant tensor:
#      x y z
#    x 3.328770 0.000000 0.155270 
#    y 0.000000 3.224800 0.000000 
#    z 0.155270 0.000000 3.840400 
# 
# 
# High freq. dielectric constant tensor:
#      x y z
#    x 1.718850 0.000000 0.007700 
#    y 0.000000 1.707320 0.000000 
#    z 0.007700 0.000000 1.747950 
# 
# From -- ./inp_files/37227.got.cif
#   From: 2010.06.25/outbox.cif.g09.slc.cpg/sg10_19_cif.got.tgz:37227.got - 2010.06.27 22:07:45.
