data_PCOD8066072
_publ_section_title
;
Structure prediction by ZEFSAII (Michael W. Deem and Ramdas Pophale) SiO2 
 PCOD8066072
Probable space group: P 2/M
;
_chemical_formula_sum "Si O2"
_cell_formula_units_Z 18
_cell_length_a 17.248097
_cell_length_b 9.892196
_cell_length_c 5.694887
_cell_angle_alpha 90.000000
_cell_angle_beta 115.143007
_cell_angle_gamma 90.000000
_cell_volume 879.604834
_symmetry_space_group_name_H-M "P 2/M"
_symmetry_group_IT_number 10
_symmetry_cell_setting 'monoclinic'
loop_
_space_group_symop_operation_xyz
x,y,z
-x,y,-z
-x,-y,-z
x,-y,z
loop_
_atom_site_type_symbol
_atom_site_label
_atom_site_fract_x
_atom_site_fract_y
_atom_site_fract_z
Si Si1 0.657814 0.347396 0.953504
Si Si2 0.770366 0.849307 0.360625
Si Si3 0.615919 0.853246 0.514664
Si Si4 0.037024 0.841887 0.296950
Si Si5 0.500000 0.255678 0.000000
O O1 0.686631 0.500000 0.933789
O O2 0.614652 0.276148 0.677703
O O3 0.741538 0.261086 0.131757
O O4 0.582630 0.348784 0.051220
O O5 0.703242 0.847883 0.482572
O O6 0.862406 0.808672 0.580102
O O7 0.774258 0.000000 0.250210
O O8 0.612045 0.000000 0.638626
O O9 0.529700 0.842470 0.248548
O O10 0.000000 0.782266 0.500000
O O11 0.016029 0.000000 0.268918
O O12 0.000000 0.780707 0.000000
#
# Coordination Sequence:
#
# PCOD8066072 Si02
#       5
#     4   4   4   4   2
#     4  11  23  37  56  80 111 151 192 235 286 345
#     4   9  20  37  58  84 114 148 188 237 290 345
#     4  10  21  36  57  83 112 145 187 237 292 346
#     4   9  18  32  57  91 122 151 191 245 302 355
#     4  10  22  38  56  78 108 146 192 240 284 344
#
# _framework density 20.463733999999999
#
# number of rings (size 3 to 8) (size 9 to 14) (size 15 to 20)
#    0.000    2.222    0.000    2.000    3.111    8.889 
#    0.000    0.000    0.000    1.333    0.000    0.000 
#    0.000    0.000    0.000    0.000    0.000    0.000 
#
# Total GULP energy -223023.756312 kJ/mol
# GULP energy per Si atom -12390.208684 kJ/mol
# Density = 2.041716 g / cm^3
# Si number density = 20.463734 Si / 1000 Ang^3
#
#
#
# Elastic Constant Matrix: (Units=GPa)
#
#
# Indices 1 2 3 4 5 6 
#
# 1 69.7548 21.0797 42.8041 0.0000 26.0821 0.0000
# 2 21.0797 140.3019 59.7559 0.0000 7.7471 0.0000
# 3 42.8041 59.7559 149.1594 0.0000 15.7350 0.0000
# 4 0.0000 0.0000 0.0000 9.2023 0.0000 -4.4510
# 5 26.0821 7.7471 15.7350 0.0000 36.5151 0.0000
# 6 0.0000 0.0000 0.0000 -4.4510 0.0000 12.2136
#
#
#
# Elastic Compliance Matrix: (Units=1/GPa)
#
#
# Indices 1 2 3 4 5 6 
#
# 1 0.022703 -0.000593 -0.004798 0.000000 -0.014023 0.000000
# 2 -0.000593 0.008614 -0.003282 0.000000 0.000010 0.000000
# 3 -0.004798 -0.003282 0.009388 0.000000 0.000078 0.000000
# 4 0.000000 0.000000 0.000000 0.131923 0.000000 0.048076
# 5 -0.014023 0.000010 0.000078 0.000000 0.037366 0.000000
# 6 0.000000 0.000000 0.000000 0.048076 0.000000 0.099396
#
#
# Mechanical properties :
#
#
# Convention : Reuss Voigt Hill
#
# Bulk Modulus (GPa) = 42.81142 67.38837 55.09990
# Shear Modulus (GPa) = 14.94673 27.29129 21.11901
#
# Velocity S-wave (km/s) = 2.70553 3.65587 3.21599
# Velocity P-wave (km/s) = 5.54309 7.12900 6.38547
#
# Compressibility (1/GPa) = 0.02335826
#
# Stress axis : x y z
#
# Youngs Moduli (GPa) = 44.04761 116.09364 106.52356
#
# Poissons Ratio (x) = 0.06886 0.51111
# Poissons Ratio (y) = 0.02613 0.34958
# Poissons Ratio (z) = 0.21134 0.38098
#
# Static dielectric constant tensor:
#      x y z
#    x 3.739670 0.000000 -0.020840 
#    y 0.000000 3.393470 0.000000 
#    z -0.020840 0.000000 3.803120 
# 
# 
# High freq. dielectric constant tensor:
#      x y z
#    x 1.799100 0.000000 0.006520 
#    y 0.000000 1.758410 0.000000 
#    z 0.006520 0.000000 1.802440 
# 
# From -- ./inp_files/10493.got.cif
#   From: 2010.06.25/outbox.cif.g09.slc.cpg/sg10_6_cif.got.tgz:10493.got - 2010.06.27 22:07:45.
