data_PCOD8066157
_publ_section_title
;
Structure prediction by ZEFSAII (Michael W. Deem and Ramdas Pophale) SiO2 
 PCOD8066157
Probable space group: P 2/M
;
_chemical_formula_sum "Si O2"
_cell_formula_units_Z 32
_cell_length_a 13.733800
_cell_length_b 9.067463
_cell_length_c 20.702855
_cell_angle_alpha 90.000000
_cell_angle_beta 42.278987
_cell_angle_gamma 90.000000
_cell_volume 1734.422042
_symmetry_space_group_name_H-M "P 2/M"
_symmetry_group_IT_number 10
_symmetry_cell_setting 'monoclinic'
loop_
_space_group_symop_operation_xyz
x,y,z
-x,y,-z
-x,-y,-z
x,-y,z
loop_
_atom_site_type_symbol
_atom_site_label
_atom_site_fract_x
_atom_site_fract_y
_atom_site_fract_z
Si Si1 0.338868 0.324515 0.085353
Si Si2 0.169345 0.825279 0.787056
Si Si3 0.171923 0.166249 0.419781
Si Si4 0.828106 0.337165 0.087915
Si Si5 0.174612 0.327145 0.291542
Si Si6 0.159175 0.327970 0.552986
Si Si7 0.862066 0.674722 0.931058
Si Si8 0.667763 0.671406 0.405488
O O1 0.340961 0.500000 0.083077
O O2 0.270614 0.267524 0.185500
O O3 0.243055 0.266356 0.073075
O O4 0.500000 0.259517 0.000000
O O5 0.224251 0.776185 0.831496
O O6 0.284511 0.768267 0.678669
O O7 0.013519 0.757190 0.848064
O O8 0.159994 0.000000 0.789323
O O9 0.234416 0.248553 0.326400
O O10 0.226639 0.244387 0.458213
O O11 0.000000 0.174474 0.500000
O O12 0.229839 0.000000 0.391698
O O13 0.766099 0.500000 0.134995
O O14 0.781244 0.287376 0.038661
O O15 0.000000 0.344356 0.000000
O O16 0.192818 0.500000 0.293663
O O17 0.009065 0.287115 0.356198
O O18 0.181706 0.500000 0.529229
O O19 0.242605 0.275975 0.575916
O O20 0.893480 0.500000 0.910750
O O21 0.500000 0.701333 0.500000
O O22 0.698829 0.500000 0.375462
#
# Coordination Sequence:
#
# PCOD8066157 Si02
#       8
#     4   4   4   4   4   4   4   4
#     4   9  17  30  50  76 102 129 166 211 252 288
#     4  11  21  32  51  77 104 133 165 205 251 301
#     4   9  17  29  47  72 100 127 158 199 243 289
#     4   8  15  29  50  74 100 130 165 208 252 293
#     4   9  16  28  49  74 100 128 159 200 245 290
#     4   9  17  31  52  75  96 123 161 203 246 290
#     4   9  17  32  54  77 101 131 169 211 252 296
#     4  10  21  37  55  74  99 132 169 208 249 296
#
# _framework density 18.449950000000001
#
# number of rings (size 3 to 8) (size 9 to 14) (size 15 to 20)
#    0.000    2.750    0.000    3.000    0.000    6.500 
#    0.000    4.375    0.000    6.000    0.000    0.000 
#    0.000    0.000    0.000    0.000    0.000    0.000 
#
# Total GULP energy -396748.522517 kJ/mol
# GULP energy per Si atom -12398.391329 kJ/mol
# Density = 1.840796 g / cm^3
# Si number density = 18.449950 Si / 1000 Ang^3
#
#
#
# Elastic Constant Matrix: (Units=GPa)
#
#
# Indices 1 2 3 4 5 6 
#
# 1 62.4286 39.3433 79.5261 0.0000 23.2607 0.0000
# 2 39.3433 77.6202 57.0932 0.0000 13.7104 0.0000
# 3 79.5261 57.0932 130.3752 0.0000 30.0582 0.0000
# 4 0.0000 0.0000 0.0000 10.2563 0.0000 0.7189
# 5 23.2607 13.7104 30.0582 0.0000 31.5892 0.0000
# 6 0.0000 0.0000 0.0000 0.7189 0.0000 7.2074
#
#
#
# Elastic Compliance Matrix: (Units=1/GPa)
#
#
# Indices 1 2 3 4 5 6 
#
# 1 0.079580 -0.006669 -0.041991 0.000000 -0.015749 0.000000
# 2 -0.006669 0.019568 -0.004708 0.000000 0.000898 0.000000
# 3 -0.041991 -0.004708 0.035543 0.000000 -0.000857 0.000000
# 4 0.000000 0.000000 0.000000 0.098187 0.000000 -0.009793
# 5 -0.015749 0.000898 -0.000857 0.000000 0.043679 0.000000
# 6 0.000000 0.000000 0.000000 -0.009793 0.000000 0.139723
#
#
# Mechanical properties :
#
#
# Convention : Reuss Voigt Hill
#
# Bulk Modulus (GPa) = 35.77134 69.14993 52.46063
# Shear Modulus (GPa) = 9.39258 16.10801 12.75029
#
# Velocity S-wave (km/s) = 2.25874 2.95797 2.63168
# Velocity P-wave (km/s) = 5.12181 7.01621 6.14248
#
# Compressibility (1/GPa) = 0.02795534
#
# Stress axis : x y z
#
# Youngs Moduli (GPa) = 12.56596 51.10378 28.13474
#
# Poissons Ratio (x) = 0.34079 1.18141
# Poissons Ratio (y) = 0.08380 0.13247
# Poissons Ratio (z) = 0.52766 0.24062
#
# Static dielectric constant tensor:
#      x y z
#    x 3.558050 0.000000 0.360220 
#    y 0.000000 3.178730 0.000000 
#    z 0.360220 0.000000 3.419580 
# 
# 
# High freq. dielectric constant tensor:
#      x y z
#    x 1.708500 0.000000 0.028920 
#    y 0.000000 1.690420 0.000000 
#    z 0.028920 0.000000 1.708040 
# 
# From -- ./inp_files/84725.got.cif
#   From: 2010.06.25/outbox.cif.g09.slc.cpg/sg10_43_cif.got.tgz:84725.got - 2010.06.27 22:07:45.
