data_PCOD8066420
_publ_section_title
;
Structure prediction by ZEFSAII (Michael W. Deem and Ramdas Pophale) SiO2 
 PCOD8066420
Probable space group: P 2/M
;
_chemical_formula_sum "Si O2"
_cell_formula_units_Z 24
_cell_length_a 15.188932
_cell_length_b 8.420068
_cell_length_c 14.760434
_cell_angle_alpha 90.000000
_cell_angle_beta 139.655973
_cell_angle_gamma 90.000000
_cell_volume 1222.076278
_symmetry_space_group_name_H-M "P 2/M"
_symmetry_group_IT_number 10
_symmetry_cell_setting 'monoclinic'
loop_
_space_group_symop_operation_xyz
x,y,z
-x,y,-z
-x,-y,-z
x,-y,z
loop_
_atom_site_type_symbol
_atom_site_label
_atom_site_fract_x
_atom_site_fract_y
_atom_site_fract_z
Si Si1 0.917636 0.311941 0.850223
Si Si2 0.120919 0.186452 0.654621
Si Si3 0.891646 0.684957 0.157588
Si Si4 0.416624 0.812109 0.849846
Si Si5 0.382240 0.313043 0.338652
Si Si6 0.376318 0.815153 0.138076
O O1 0.929290 0.500000 0.863973
O O2 0.761149 0.256980 0.731278
O O3 0.985625 0.252999 0.810166
O O4 0.000000 0.238258 0.000000
O O5 0.098467 0.217903 0.742603
O O6 0.264324 0.260376 0.733018
O O7 0.000000 0.263860 0.500000
O O8 0.122738 0.000000 0.639905
O O9 0.905694 0.500000 0.190799
O O10 0.751060 0.713117 0.994923
O O11 0.491027 0.763901 0.815319
O O12 0.407306 0.000000 0.853683
O O13 0.500000 0.740467 0.000000
O O14 0.500000 0.263740 0.500000
O O15 0.382216 0.500000 0.318341
O O16 0.410151 0.220091 0.268267
O O17 0.343093 0.000000 0.096994
#
# Coordination Sequence:
#
# PCOD8066420 Si02
#       6
#     4   4   4   4   4   4
#     4   9  17  33  56  79 108 145 179 217 274 329
#     4  10  21  38  58  81 111 146 182 222 272 328
#     4  11  21  35  58  83 110 144 185 226 270 321
#     4   9  17  33  56  79 108 145 179 217 274 329
#     4  10  21  38  58  81 111 146 182 222 272 328
#     4  11  21  35  58  83 110 144 185 226 270 321
#
# _framework density 19.638708000000001
#
# number of rings (size 3 to 8) (size 9 to 14) (size 15 to 20)
#    0.000    2.000    3.333    1.000    0.000    2.000 
#    0.000    5.000    0.000    0.000    0.000    0.000 
#    0.000    0.000    0.000    0.000    0.000    0.000 
#
# Total GULP energy -297614.427912 kJ/mol
# GULP energy per Si atom -12400.601163 kJ/mol
# Density = 1.959401 g / cm^3
# Si number density = 19.638708 Si / 1000 Ang^3
#
#
#
# Elastic Constant Matrix: (Units=GPa)
#
#
# Indices 1 2 3 4 5 6 
#
# 1 189.3692 8.6734 81.5075 0.0000 15.2700 0.0000
# 2 8.6734 14.7446 3.9353 0.0000 4.9443 0.0000
# 3 81.5075 3.9353 153.8270 0.0000 16.6303 0.0000
# 4 0.0000 0.0000 0.0000 16.5176 0.0000 -5.8783
# 5 15.2700 4.9443 16.6303 0.0000 35.9620 0.0000
# 6 0.0000 0.0000 0.0000 -5.8783 0.0000 22.4851
#
#
#
# Elastic Compliance Matrix: (Units=1/GPa)
#
#
# Indices 1 2 3 4 5 6 
#
# 1 0.007012 -0.002862 -0.003540 0.000000 -0.000947 0.000000
# 2 -0.002862 0.072362 0.000642 0.000000 -0.009030 0.000000
# 3 -0.003540 0.000642 0.008639 0.000000 -0.002580 0.000000
# 4 0.000000 0.000000 0.000000 0.066752 0.000000 0.017451
# 5 -0.000947 -0.009030 -0.002580 0.000000 0.030644 0.000000
# 6 0.000000 0.000000 0.000000 0.017451 0.000000 0.049036
#
#
# Mechanical properties :
#
#
# Convention : Reuss Voigt Hill
#
# Bulk Modulus (GPa) = 13.07327 60.68590 36.87959
# Shear Modulus (GPa) = 18.41876 32.58124 25.50000
#
# Velocity S-wave (km/s) = 3.06581 4.07754 3.60732
# Velocity P-wave (km/s) = 4.38219 7.28949 6.01416
#
# Compressibility (1/GPa) = 0.07649193
#
# Stress axis : x y z
#
# Youngs Moduli (GPa) = 142.61970 13.81943 115.75591
#
# Poissons Ratio (x) = 0.03956 0.40973
# Poissons Ratio (y) = 0.40822 -0.07428
# Poissons Ratio (z) = 0.50482 -0.00887
#
# Static dielectric constant tensor:
#      x y z
#    x 3.880380 0.000000 0.190080 
#    y 0.000000 3.154020 0.000000 
#    z 0.190080 0.000000 3.723060 
# 
# 
# High freq. dielectric constant tensor:
#      x y z
#    x 1.783590 0.000000 0.004360 
#    y 0.000000 1.727580 0.000000 
#    z 0.004360 0.000000 1.763350 
# 
# From -- ./inp_files/66680.got.cif
#   From: 2010.06.25/outbox.cif.g09.slc.cpg/sg10_34_cif.got.tgz:66680.got - 2010.06.27 22:07:45.
