data_PCOD8066396
_publ_section_title
;
Structure prediction by ZEFSAII (Michael W. Deem and Ramdas Pophale) SiO2 
 PCOD8066396
Probable space group: P 2/M
;
_chemical_formula_sum "Si O2"
_cell_formula_units_Z 26
_cell_length_a 5.187748
_cell_length_b 12.260619
_cell_length_c 26.225926
_cell_angle_alpha 90.000000
_cell_angle_beta 78.446782
_cell_angle_gamma 90.000000
_cell_volume 1634.302864
_symmetry_space_group_name_H-M "P 2/M"
_symmetry_group_IT_number 10
_symmetry_cell_setting 'monoclinic'
loop_
_space_group_symop_operation_xyz
x,y,z
-x,y,-z
-x,-y,-z
x,-y,z
loop_
_atom_site_type_symbol
_atom_site_label
_atom_site_fract_x
_atom_site_fract_y
_atom_site_fract_z
Si Si1 0.460894 0.629487 0.293386
Si Si2 0.109080 0.306086 0.114407
Si Si3 0.216538 0.127414 0.032859
Si Si4 0.098735 0.630229 0.647569
Si Si5 0.454658 0.369874 0.825471
Si Si6 0.780276 0.630024 0.470091
Si Si7 0.214890 0.500000 0.034886
O O1 0.455626 0.500000 0.296110
O O2 0.683165 0.676126 0.322235
O O3 0.522265 0.667579 0.233830
O O4 0.181515 0.676375 0.322965
O O5 0.159985 0.187459 0.088428
O O6 0.288159 0.323728 0.156873
O O7 0.185408 0.393091 0.069233
O O8 0.804793 0.316116 0.141092
O O9 0.202465 0.000000 0.045775
O O10 0.500000 0.161646 0.000000
O O11 0.000000 0.162528 0.000000
O O12 0.099149 0.500000 0.647671
O O13 0.160257 0.674955 0.588711
O O14 0.439435 0.500000 0.832091
O O15 0.500000 0.675002 0.500000
O O16 0.780669 0.500000 0.469719
O O17 0.000000 0.674986 0.500000
O O18 0.500000 0.500000 0.000000
O O19 0.000000 0.500000 0.000000
#
# Coordination Sequence:
#
# PCOD8066396 Si02
#       7
#     4   4   4   4   4   4   2
#     4   9  17  26  39  51  72 102 134 168 203 254
#     4  12  21  34  50  69  93 116 143 177 217 262
#     4  10  21  38  56  72  90 115 146 178 214 258
#     4   9  15  24  34  49  66  95 134 169 211 257
#     4  11  20  33  45  66  91 117 143 175 221 265
#     4   9  15  21  30  44  64  88 120 169 221 258
#     4  12  22  32  46  66  92 114 136 162 204 262
#
# _framework density 15.908924000000001
#
# number of rings (size 3 to 8) (size 9 to 14) (size 15 to 20)
#    0.000    1.846    1.538    4.615    0.000    6.154 
#    0.000    0.000    0.000    0.000    0.000    0.000 
#    0.000    0.000    0.000    0.000    0.000    0.000 
#
# Total GULP energy -322450.730044 kJ/mol
# GULP energy per Si atom -12401.951156 kJ/mol
# Density = 1.587271 g / cm^3
# Si number density = 15.908924 Si / 1000 Ang^3
#
#
#
# Elastic Constant Matrix: (Units=GPa)
#
#
# Indices 1 2 3 4 5 6 
#
# 1 127.2730 11.0273 49.3758 0.0000 4.7964 0.0000
# 2 11.0273 29.3158 22.5512 0.0000 0.6227 0.0000
# 3 49.3758 22.5512 119.6614 0.0000 4.6781 0.0000
# 4 0.0000 0.0000 0.0000 3.7643 0.0000 -2.2117
# 5 4.7964 0.6227 4.6781 0.0000 40.4038 0.0000
# 6 0.0000 0.0000 0.0000 -2.2117 0.0000 6.5001
#
#
#
# Elastic Compliance Matrix: (Units=1/GPa)
#
#
# Indices 1 2 3 4 5 6 
#
# 1 0.009383 -0.000652 -0.003723 0.000000 -0.000673 0.000000
# 2 -0.000652 0.039943 -0.007271 0.000000 0.000304 0.000000
# 3 -0.003723 -0.007271 0.011293 0.000000 -0.000754 0.000000
# 4 0.000000 0.000000 0.000000 0.332031 0.000000 0.112978
# 5 -0.000673 0.000304 -0.000754 0.000000 0.024913 0.000000
# 6 0.000000 0.000000 0.000000 0.112978 0.000000 0.192287
#
#
# Mechanical properties :
#
#
# Convention : Reuss Voigt Hill
#
# Bulk Modulus (GPa) = 26.78883 49.12876 37.95879
# Shear Modulus (GPa) = 7.74495 23.02003 15.38249
#
# Velocity S-wave (km/s) = 2.20882 3.80806 3.11289
# Velocity P-wave (km/s) = 4.83535 7.09108 6.06894
#
# Compressibility (1/GPa) = 0.03732899
#
# Stress axis : x y z
#
# Youngs Moduli (GPa) = 106.57406 25.03580 88.55310
#
# Poissons Ratio (x) = 0.01631 0.32965
# Poissons Ratio (y) = 0.06944 0.64383
# Poissons Ratio (z) = 0.39674 0.18202
#
# Static dielectric constant tensor:
#      x y z
#    x 3.360330 0.000000 0.004190 
#    y 0.000000 2.457570 0.000000 
#    z 0.004190 0.000000 3.203820 
# 
# 
# High freq. dielectric constant tensor:
#      x y z
#    x 1.639300 0.000000 -0.000170 
#    y 0.000000 1.529160 0.000000 
#    z -0.000170 0.000000 1.624330 
# 
# From -- ./inp_files/12220.got.cif
#   From: 2010.06.25/outbox.cif.g09.slc.cpg/sg10_7_cif.got.tgz:12220.got - 2010.06.27 22:07:45.
