data_PCOD8066309
_publ_section_title
;
Structure prediction by ZEFSAII (Michael W. Deem and Ramdas Pophale) SiO2 
 PCOD8066309
Probable space group: P 2/M
;
_chemical_formula_sum "Si O2"
_cell_formula_units_Z 32
_cell_length_a 12.452222
_cell_length_b 11.144283
_cell_length_c 11.992112
_cell_angle_alpha 90.000000
_cell_angle_beta 114.827330
_cell_angle_gamma 90.000000
_cell_volume 1510.352387
_symmetry_space_group_name_H-M "P 2/M"
_symmetry_group_IT_number 10
_symmetry_cell_setting 'monoclinic'
loop_
_space_group_symop_operation_xyz
x,y,z
-x,y,-z
-x,-y,-z
x,-y,z
loop_
_atom_site_type_symbol
_atom_site_label
_atom_site_fract_x
_atom_site_fract_y
_atom_site_fract_z
Si Si1 0.371082 0.323969 0.938064
Si Si2 0.992746 0.861783 0.676173
Si Si3 0.153873 0.369966 0.702163
Si Si4 0.100012 0.863075 0.119710
Si Si5 0.224894 0.764089 0.532054
Si Si6 0.630980 0.364187 0.587194
Si Si7 0.581616 0.863196 0.223163
Si Si8 0.658576 0.741005 0.829161
O O1 0.272803 0.393535 0.825115
O O2 0.391573 0.197579 0.884149
O O3 0.500000 0.390108 0.000000
O O4 0.321188 0.316128 0.041138
O O5 0.928873 0.842645 0.764853
O O6 0.892744 0.844174 0.538150
O O7 0.088326 0.753273 0.711023
O O8 0.044514 0.000000 0.689077
O O9 0.084578 0.500000 0.681489
O O10 0.189291 0.352992 0.588447
O O11 0.230039 0.821053 0.149086
O O12 0.100204 0.000000 0.085090
O O13 0.000000 0.797051 0.000000
O O14 0.277837 0.721614 0.437577
O O15 0.315453 0.844114 0.641798
O O16 0.500000 0.319914 0.500000
O O17 0.650846 0.500000 0.556022
O O18 0.649590 0.358642 0.728423
O O19 0.460553 0.818200 0.225166
O O20 0.569320 0.000000 0.187791
#
# Coordination Sequence:
#
# PCOD8066309 Si02
#       8
#     4   4   4   4   4   4   4   4
#     4   9  22  40  63  93 128 163 208 259 319 376
#     4  11  24  42  65  93 128 168 213 263 322 382
#     4  11  25  43  66  94 127 165 214 269 319 376
#     4  10  21  37  59  87 122 166 210 254 309 376
#     4  11  22  42  63  93 127 165 211 261 317 380
#     4  11  23  40  63  91 127 167 209 259 321 384
#     4  10  21  37  62  95 128 164 207 261 317 378
#     4  11  20  39  62  90 124 166 209 259 313 377
#
# _framework density 21.187109
#
# number of rings (size 3 to 8) (size 9 to 14) (size 15 to 20)
#    0.000    1.500    2.500    2.250    0.000    8.000 
#    0.000    0.625    0.000    1.500    0.000    0.000 
#    0.000    0.000    0.000    0.000    0.000    0.000 
#
# Total GULP energy -396529.298530 kJ/mol
# GULP energy per Si atom -12391.540579 kJ/mol
# Density = 2.113889 g / cm^3
# Si number density = 21.187109 Si / 1000 Ang^3
#
#
#
# Elastic Constant Matrix: (Units=GPa)
#
#
# Indices 1 2 3 4 5 6 
#
# 1 93.2206 37.1234 27.5502 0.0000 1.1864 0.0000
# 2 37.1234 104.4847 19.7044 0.0000 -8.1338 0.0000
# 3 27.5502 19.7044 119.7439 0.0000 -1.4994 0.0000
# 4 0.0000 0.0000 0.0000 27.0747 0.0000 -37.3520
# 5 1.1864 -8.1338 -1.4994 0.0000 44.4238 0.0000
# 6 0.0000 0.0000 0.0000 -37.3520 0.0000 50.2167
#
#
#
# Elastic Compliance Matrix: (Units=1/GPa)
#
#
# Indices 1 2 3 4 5 6 
#
# 1 0.013156 -0.004330 -0.002330 0.000000 -0.001223 0.000000
# 2 -0.004330 0.011441 -0.000859 0.000000 0.002181 0.000000
# 3 -0.002330 -0.000859 0.009031 0.000000 0.000210 0.000000
# 4 0.000000 0.000000 0.000000 -1.411724 0.000000 -1.050063
# 5 -0.001223 0.002181 0.000210 0.000000 0.022950 0.000000
# 6 0.000000 0.000000 0.000000 -1.050063 0.000000 -0.761141
#
#
# Mechanical properties :
#
#
# Convention : Reuss Voigt Hill
#
# Bulk Modulus (GPa) = 53.79135 54.02278 53.90706
# Shear Modulus (GPa) = -2.38657 39.88111 18.74727
#
# Velocity S-wave (km/s) = -1.06248 4.34329 2.97786
# Velocity P-wave (km/s) = 4.89272 7.12078 6.10918
#
# Compressibility (1/GPa) = 0.01859035
#
# Stress axis : x y z
#
# Youngs Moduli (GPa) = 76.01296 87.40431 110.72806
#
# Poissons Ratio (x) = 0.37847 0.25795
# Poissons Ratio (y) = 0.32914 0.09513
# Poissons Ratio (z) = 0.17708 0.07509
#
# Static dielectric constant tensor:
#      x y z
#    x 3.945090 0.000000 0.089080 
#    y 0.000000 3.564210 0.000000 
#    z 0.089080 0.000000 4.277740 
# 
# 
# High freq. dielectric constant tensor:
#      x y z
#    x 1.833380 0.000000 0.003240 
#    y 0.000000 1.814840 0.000000 
#    z 0.003240 0.000000 1.850750 
# 
# From -- ./inp_files/47013.got.cif
#   From: 2010.06.25/outbox.cif.g09.slc.cpg/sg10_24_cif.got.tgz:47013.got - 2010.06.27 22:07:45.
