data_PCOD8066131
_publ_section_title
;
Structure prediction by ZEFSAII (Michael W. Deem and Ramdas Pophale) SiO2 
 PCOD8066131
Probable space group: P 2/M
;
_chemical_formula_sum "Si O2"
_cell_formula_units_Z 26
_cell_length_a 33.411642
_cell_length_b 7.371664
_cell_length_c 33.003595
_cell_angle_alpha 90.000000
_cell_angle_beta 171.036223
_cell_angle_gamma 90.000000
_cell_volume 1266.543023
_symmetry_space_group_name_H-M "P 2/M"
_symmetry_group_IT_number 10
_symmetry_cell_setting 'monoclinic'
loop_
_space_group_symop_operation_xyz
x,y,z
-x,y,-z
-x,-y,-z
x,-y,z
loop_
_atom_site_type_symbol
_atom_site_label
_atom_site_fract_x
_atom_site_fract_y
_atom_site_fract_z
Si Si1 0.749990 0.717092 0.967471
Si Si2 0.749988 0.782912 0.153670
Si Si3 0.249991 0.789960 0.607718
Si Si4 0.750010 0.710063 0.486570
Si Si5 0.250005 0.710856 0.275544
Si Si6 0.250029 0.000000 0.101590
Si Si7 0.250001 0.500000 0.777271
Si Si8 0.750030 0.000000 0.656158
O O1 0.749993 0.500000 0.960808
O O2 0.504420 0.789808 0.747008
O O3 0.749981 0.815457 0.924406
O O4 0.995557 0.789808 0.238145
O O5 0.749992 0.684537 0.196730
O O6 0.995552 0.710185 0.374127
O O7 0.749977 0.000000 0.160339
O O8 0.504427 0.710180 0.883002
O O9 0.249994 0.750007 0.560578
O O10 0.249990 0.000000 0.615834
O O11 0.750009 0.500000 0.494667
O O12 0.500000 0.765375 0.500000
O O13 0.250053 0.500000 0.287091
O O14 0.249968 0.819264 0.317094
O O15 0.000000 0.765331 0.000000
O O16 0.500165 0.000000 0.378976
O O17 0.999905 0.000000 0.878719
O O18 0.000000 0.500000 0.500000
O O19 0.500000 0.500000 0.000000
#
# Coordination Sequence:
#
# PCOD8066131 Si02
#       8
#     4   4   4   4   4   2   2   2
#     4  10  23  41  56  81 116 155 203 250 291 349
#     4  10  23  41  59  88 125 149 189 239 288 342
#     4  10  21  36  60  90 118 154 183 238 305 349
#     4  10  21  36  60  86 113 152 196 241 302 354
#     4  10  21  39  64  92 125 158 192 247 312 369
#     4  12  26  39  62  82 120 168 206 252 302 329
#     4  12  26  42  66  90 114 164 202 230 286 348
#     4  12  24  39  60  94 116 160 210 248 298 359
#
# _framework density 20.528319
#
# number of rings (size 3 to 8) (size 9 to 14) (size 15 to 20)
#    0.000    1.538    0.000    4.154    4.308    1.846 
#    0.000    0.000    0.000    0.000    0.000    0.000 
#    0.000    0.000    0.000    0.000    0.000    0.000 
#
# Total GULP energy -322455.293846 kJ/mol
# GULP energy per Si atom -12402.126686 kJ/mol
# Density = 2.048160 g / cm^3
# Si number density = 20.528319 Si / 1000 Ang^3
#
#
#
# Elastic Constant Matrix: (Units=GPa)
#
#
# Indices 1 2 3 4 5 6 
#
# 1 186.3989 57.3743 114.3327 0.0000 4.8310 0.0000
# 2 57.3743 79.5731 43.1247 0.0000 -1.8765 0.0000
# 3 114.3327 43.1247 237.3633 0.0000 1.8924 0.0000
# 4 0.0000 0.0000 0.0000 12.7405 0.0000 -3.3450
# 5 4.8310 -1.8765 1.8924 0.0000 53.9715 0.0000
# 6 0.0000 0.0000 0.0000 -3.3450 0.0000 38.0752
#
#
#
# Elastic Compliance Matrix: (Units=1/GPa)
#
#
# Indices 1 2 3 4 5 6 
#
# 1 0.008914 -0.004574 -0.003456 0.000000 -0.000836 0.000000
# 2 -0.004574 0.016304 -0.000767 0.000000 0.001003 0.000000
# 3 -0.003456 -0.000767 0.006016 0.000000 0.000072 0.000000
# 4 0.000000 0.000000 0.000000 0.080343 0.000000 0.007058
# 5 -0.000836 0.001003 0.000072 0.000000 0.018635 0.000000
# 6 0.000000 0.000000 0.000000 0.007058 0.000000 0.026884
#
#
# Mechanical properties :
#
#
# Convention : Reuss Voigt Hill
#
# Bulk Modulus (GPa) = 73.30956 103.66651 88.48804
# Shear Modulus (GPa) = 27.89570 40.19101 34.04335
#
# Velocity S-wave (km/s) = 3.69031 4.42954 4.07671
# Velocity P-wave (km/s) = 7.34485 8.76185 8.08445
#
# Compressibility (1/GPa) = 0.01364079
#
# Stress axis : x y z
#
# Youngs Moduli (GPa) = 112.17869 61.33294 166.21033
#
# Poissons Ratio (x) = 0.28054 0.57445
# Poissons Ratio (y) = 0.51312 0.12748
# Poissons Ratio (z) = 0.38771 0.04704
#
# Static dielectric constant tensor:
#      x y z
#    x 3.619100 0.000000 0.152680 
#    y 0.000000 2.581320 0.000000 
#    z 0.152680 0.000000 4.780700 
# 
# 
# High freq. dielectric constant tensor:
#      x y z
#    x 1.802280 0.000000 0.003690 
#    y 0.000000 1.809950 0.000000 
#    z 0.003690 0.000000 1.830310 
# 
# From -- ./inp_files/95975.got.cif
#   From: 2010.06.25/outbox.cif.g09.slc.cpg/sg10_48_cif.got.tgz:95975.got - 2010.06.27 22:07:45.
