data_PCOD8066456
_publ_section_title
;
Structure prediction by ZEFSAII (Michael W. Deem and Ramdas Pophale) SiO2 
 PCOD8066456
Probable space group: P 2/M
;
_chemical_formula_sum "Si O2"
_cell_formula_units_Z 20
_cell_length_a 10.031777
_cell_length_b 11.526595
_cell_length_c 8.393760
_cell_angle_alpha 90.000000
_cell_angle_beta 99.362939
_cell_angle_gamma 90.000000
_cell_volume 957.658615
_symmetry_space_group_name_H-M "P 2/M"
_symmetry_group_IT_number 10
_symmetry_cell_setting 'monoclinic'
loop_
_space_group_symop_operation_xyz
x,y,z
-x,y,-z
-x,-y,-z
x,-y,z
loop_
_atom_site_type_symbol
_atom_site_label
_atom_site_fract_x
_atom_site_fract_y
_atom_site_fract_z
Si Si1 0.297666 0.368089 0.238667
Si Si2 0.450197 0.232562 0.811685
Si Si3 0.889717 0.000000 0.611535
Si Si4 0.802160 0.632391 0.137615
Si Si5 0.607195 0.000000 0.383035
Si Si6 0.947148 0.751262 0.669359
O O1 0.337980 0.500000 0.285277
O O2 0.432909 0.290979 0.272355
O O3 0.189783 0.323928 0.347296
O O4 0.228947 0.358220 0.053853
O O5 0.321126 0.316850 0.783627
O O6 0.407475 0.110986 0.730984
O O7 0.500000 0.211252 0.000000
O O8 0.909597 0.882687 0.718440
O O9 0.000000 0.000000 0.500000
O O10 0.749004 0.000000 0.495613
O O11 0.824506 0.500000 0.195415
O O12 0.938831 0.703419 0.191463
O O13 0.500000 0.000000 0.500000
O O14 0.000000 0.745814 0.500000
#
# Coordination Sequence:
#
# PCOD8066456 Si02
#       6
#     4   4   2   4   2   4
#     4  10  21  38  59  85 117 149 184 232 287 338
#     4  10  21  38  61  87 113 147 192 235 278 336
#     4  10  22  39  57  77 111 151 187 230 280 328
#     4  10  21  38  60  85 115 150 187 232 285 336
#     4  12  23  39  60  83 116 153 188 232 287 336
#     4  11  22  38  58  83 113 152 194 232 280 336
#
# _framework density 20.884269
#
# number of rings (size 3 to 8) (size 9 to 14) (size 15 to 20)
#    0.000    1.600    0.000    5.700    0.000    5.600 
#    0.000    4.000    0.000    4.800    0.000    0.000 
#    0.000    0.000    0.000    0.000    0.000    0.000 
#
# Total GULP energy -248051.291869 kJ/mol
# GULP energy per Si atom -12402.564593 kJ/mol
# Density = 2.083674 g / cm^3
# Si number density = 20.884269 Si / 1000 Ang^3
#
#
#
# Elastic Constant Matrix: (Units=GPa)
#
#
# Indices 1 2 3 4 5 6 
#
# 1 162.5875 73.9072 27.6632 0.0000 1.2922 0.0000
# 2 73.9072 194.0469 48.0705 0.0000 17.5390 0.0000
# 3 27.6632 48.0705 27.0336 0.0000 -3.4365 0.0000
# 4 0.0000 0.0000 0.0000 32.1462 0.0000 2.5211
# 5 1.2922 17.5390 -3.4365 0.0000 35.2697 0.0000
# 6 0.0000 0.0000 0.0000 2.5211 0.0000 43.1064
#
#
#
# Elastic Compliance Matrix: (Units=1/GPa)
#
#
# Indices 1 2 3 4 5 6 
#
# 1 0.007774 -0.001803 -0.004730 0.000000 0.000151 0.000000
# 2 -0.001803 0.011227 -0.019057 0.000000 -0.007374 0.000000
# 3 -0.004730 -0.019057 0.077910 0.000000 0.017241 0.000000
# 4 0.000000 0.000000 0.000000 0.031251 0.000000 -0.001828
# 5 0.000151 -0.007374 0.017241 0.000000 0.033694 0.000000
# 6 0.000000 0.000000 0.000000 -0.001828 0.000000 0.023305
#
#
# Mechanical properties :
#
#
# Convention : Reuss Voigt Hill
#
# Bulk Modulus (GPa) = 21.86693 75.88329 48.87511
# Shear Modulus (GPa) = 19.87403 37.70625 28.79014
#
# Velocity S-wave (km/s) = 3.08819 4.25371 3.71692
# Velocity P-wave (km/s) = 4.81759 7.78071 6.47103
#
# Compressibility (1/GPa) = 0.04573115
#
# Stress axis : x y z
#
# Youngs Moduli (GPa) = 128.64170 89.06804 12.83538
#
# Poissons Ratio (x) = 0.16055 0.06071
# Poissons Ratio (y) = 0.23189 0.24460
# Poissons Ratio (z) = 0.60849 1.69737
#
# Static dielectric constant tensor:
#      x y z
#    x 3.990340 0.000000 0.008200 
#    y 0.000000 5.252540 0.000000 
#    z 0.008200 0.000000 3.544230 
# 
# 
# High freq. dielectric constant tensor:
#      x y z
#    x 1.839660 0.000000 0.001130 
#    y 0.000000 1.835090 0.000000 
#    z 0.001130 0.000000 1.796680 
# 
# From -- ./inp_files/17790.got.cif
#   From: 2010.06.25/outbox.cif.g09.slc.cpg/sg10_9_cif.got.tgz:17790.got - 2010.06.27 22:07:45.
