data_PCOD8066971
_publ_section_title
;
Structure prediction by ZEFSAII (Michael W. Deem and Ramdas Pophale) SiO2 
 PCOD8066971
Probable space group: P 2/M
;
_chemical_formula_sum "Si O2"
_cell_formula_units_Z 32
_cell_length_a 25.638928
_cell_length_b 9.053446
_cell_length_c 16.488678
_cell_angle_alpha 90.000000
_cell_angle_beta 24.111425
_cell_angle_gamma 90.000000
_cell_volume 1563.525392
_symmetry_space_group_name_H-M "P 2/M"
_symmetry_group_IT_number 10
_symmetry_cell_setting 'monoclinic'
loop_
_space_group_symop_operation_xyz
x,y,z
-x,y,-z
-x,-y,-z
x,-y,z
loop_
_atom_site_type_symbol
_atom_site_label
_atom_site_fract_x
_atom_site_fract_y
_atom_site_fract_z
Si Si1 0.603061 0.836952 0.793929
Si Si2 0.848389 0.838550 0.553057
Si Si3 0.267006 0.172368 0.812723
Si Si4 0.410178 0.671616 0.471658
Si Si5 0.020730 0.826430 0.788449
Si Si6 0.747284 0.670644 0.460038
Si Si7 0.327670 0.825894 0.910857
Si Si8 0.850174 0.329509 0.708696
O O1 0.732056 0.857873 0.658408
O O2 0.629130 0.734342 0.679870
O O3 0.553710 0.000000 0.835590
O O4 0.500000 0.761691 0.000000
O O5 0.959903 0.780741 0.334135
O O6 0.809798 0.722914 0.676625
O O7 0.883796 0.000000 0.540480
O O8 0.369140 0.263743 0.616421
O O9 0.285817 0.215227 0.879464
O O10 0.294059 0.000000 0.760410
O O11 0.124832 0.215303 0.984461
O O12 0.442752 0.500000 0.434866
O O13 0.292851 0.696862 0.575997
O O14 0.536609 0.753417 0.260524
O O15 0.116447 0.745982 0.714956
O O16 0.046101 0.000000 0.762050
O O17 0.762228 0.500000 0.460380
O O18 0.338304 0.000000 0.908967
O O19 0.219892 0.764320 0.123611
O O20 0.813892 0.500000 0.771176
O O21 0.000000 0.299798 0.500000
#
# Coordination Sequence:
#
# PCOD8066971 Si02
#       8
#     4   4   4   4   4   4   4   4
#     4   9  19  35  56  82 112 148 192 236 283 341
#     4   9  18  34  56  84 115 151 193 238 286 337
#     4  10  22  41  65  91 115 150 202 253 302 354
#     4  11  25  42  60  88 125 160 196 244 300 358
#     4   9  19  38  63  89 119 154 198 250 297 349
#     4  10  22  38  56  85 122 158 197 240 293 354
#     4  11  24  42  65  89 117 155 202 252 297 350
#     4  11  24  39  57  86 123 159 194 236 291 353
#
# _framework density 20.466569
#
# number of rings (size 3 to 8) (size 9 to 14) (size 15 to 20)
#    0.000    2.000    0.000    3.375    1.750    9.750 
#    0.000    2.500    0.000    0.000    0.000    0.000 
#    0.000    0.000    0.000    0.000    0.000    0.000 
#
# Total GULP energy -396784.200127 kJ/mol
# GULP energy per Si atom -12399.506254 kJ/mol
# Density = 2.041999 g / cm^3
# Si number density = 20.466569 Si / 1000 Ang^3
#
#
#
# Elastic Constant Matrix: (Units=GPa)
#
#
# Indices 1 2 3 4 5 6 
#
# 1 80.2567 52.1490 27.7862 0.0000 8.9220 0.0000
# 2 52.1490 105.1911 49.5129 0.0000 5.4274 0.0000
# 3 27.7862 49.5129 101.8306 0.0000 6.8898 0.0000
# 4 0.0000 0.0000 0.0000 28.2332 0.0000 -1.0790
# 5 8.9220 5.4274 6.8898 0.0000 27.5294 0.0000
# 6 0.0000 0.0000 0.0000 -1.0790 0.0000 26.4628
#
#
#
# Elastic Compliance Matrix: (Units=1/GPa)
#
#
# Indices 1 2 3 4 5 6 
#
# 1 0.018899 -0.008894 -0.000546 0.000000 -0.004235 0.000000
# 2 -0.008894 0.016538 -0.005685 0.000000 0.001045 0.000000
# 3 -0.000546 -0.005685 0.012863 0.000000 -0.001922 0.000000
# 4 0.000000 0.000000 0.000000 0.035475 0.000000 0.001446
# 5 -0.004235 0.001045 -0.001922 0.000000 0.037972 0.000000
# 6 0.000000 0.000000 0.000000 0.001446 0.000000 0.037848
#
#
# Mechanical properties :
#
#
# Convention : Reuss Voigt Hill
#
# Bulk Modulus (GPa) = 55.39986 60.68606 58.04296
# Shear Modulus (GPa) = 25.52840 26.96710 26.24775
#
# Velocity S-wave (km/s) = 3.53558 3.63384 3.58504
# Velocity P-wave (km/s) = 6.61773 6.87910 6.74968
#
# Compressibility (1/GPa) = 0.01805059
#
# Stress axis : x y z
#
# Youngs Moduli (GPa) = 52.91355 60.46850 77.74001
#
# Poissons Ratio (x) = 0.53779 0.04244
# Poissons Ratio (y) = 0.47060 0.44195
# Poissons Ratio (z) = 0.02889 0.34376
#
# Static dielectric constant tensor:
#      x y z
#    x 3.651930 0.000000 0.105180 
#    y 0.000000 3.723580 0.000000 
#    z 0.105180 0.000000 4.280300 
# 
# 
# High freq. dielectric constant tensor:
#      x y z
#    x 1.795710 0.000000 -0.000810 
#    y 0.000000 1.795560 0.000000 
#    z -0.000810 0.000000 1.809200 
# 
# From -- ./inp_files/71462.got.cif
#   From: 2010.06.25/outbox.cif.g09.slc.cpg/sg10_36_cif.got.tgz:71462.got - 2010.06.27 22:07:45.
