data_PCOD8066495
_publ_section_title
;
Structure prediction by ZEFSAII (Michael W. Deem and Ramdas Pophale) SiO2 
 PCOD8066495
Probable space group: P 2/M
;
_chemical_formula_sum "Si O2"
_cell_formula_units_Z 32
_cell_length_a 25.449873
_cell_length_b 8.873682
_cell_length_c 14.382114
_cell_angle_alpha 90.000000
_cell_angle_beta 30.147101
_cell_angle_gamma 90.000000
_cell_volume 1631.202021
_symmetry_space_group_name_H-M "P 2/M"
_symmetry_group_IT_number 10
_symmetry_cell_setting 'monoclinic'
loop_
_space_group_symop_operation_xyz
x,y,z
-x,y,-z
-x,-y,-z
x,-y,z
loop_
_atom_site_type_symbol
_atom_site_label
_atom_site_fract_x
_atom_site_fract_y
_atom_site_fract_z
Si Si1 0.069970 0.174373 0.477034
Si Si2 0.229519 0.325607 0.836520
Si Si3 0.592875 0.674798 0.292404
Si Si4 0.989395 0.825430 0.802481
Si Si5 0.320194 0.174619 0.521852
Si Si6 0.272329 0.676081 0.229169
Si Si7 0.560950 0.173695 0.145922
Si Si8 0.806425 0.677109 0.447810
O O1 0.177140 0.266551 0.311515
O O2 0.000000 0.235683 0.500000
O O3 0.004754 0.203417 0.670009
O O4 0.098714 0.000000 0.419878
O O5 0.199194 0.500000 0.871493
O O6 0.295447 0.299047 0.829407
O O7 0.300877 0.274712 0.641858
O O8 0.125919 0.226077 0.994374
O O9 0.500000 0.739277 0.500000
O O10 0.571347 0.500000 0.305182
O O11 0.596203 0.760025 0.190324
O O12 0.072818 0.727573 0.732495
O O13 0.004001 0.000000 0.806375
O O14 0.439652 0.200866 0.310322
O O15 0.247181 0.229191 0.550819
O O16 0.297005 0.000000 0.579009
O O17 0.281902 0.500000 0.200996
O O18 0.252372 0.720085 0.366742
O O19 0.379337 0.750170 0.031311
O O20 0.590810 0.000000 0.102317
O O21 0.800818 0.500000 0.435311
#
# Coordination Sequence:
#
# PCOD8066495 Si02
#       8
#     4   4   4   4   4   4   4   4
#     4   9  19  36  57  84 117 155 196 240 292 349
#     4  11  23  39  61  89 122 158 199 244 293 353
#     4  10  21  39  61  86 120 160 198 243 296 349
#     4  10  21  38  60  87 122 157 195 244 295 352
#     4  11  24  41  62  89 118 154 200 248 299 353
#     4  10  22  39  60  87 119 155 197 244 295 351
#     4  11  24  39  60  89 122 159 199 244 295 355
#     4  10  22  42  65  88 117 155 198 248 301 351
#
# _framework density 19.617436000000001
#
# number of rings (size 3 to 8) (size 9 to 14) (size 15 to 20)
#    0.000    1.750    1.250    2.250    1.750    6.000 
#    0.000    5.000    0.000    0.000    0.000    0.000 
#    0.000    0.000    0.000    0.000    0.000    0.000 
#
# Total GULP energy -396980.705435 kJ/mol
# GULP energy per Si atom -12405.647045 kJ/mol
# Density = 1.957279 g / cm^3
# Si number density = 19.617436 Si / 1000 Ang^3
#
#
#
# Elastic Constant Matrix: (Units=GPa)
#
#
# Indices 1 2 3 4 5 6 
#
# 1 69.9904 24.9325 -4.7476 0.0000 -16.1189 0.0000
# 2 24.9325 59.8522 24.6137 0.0000 -3.8719 0.0000
# 3 -4.7476 24.6137 73.9718 0.0000 -9.8147 0.0000
# 4 0.0000 0.0000 0.0000 34.7868 0.0000 1.6461
# 5 -16.1189 -3.8719 -9.8147 0.0000 20.4483 0.0000
# 6 0.0000 0.0000 0.0000 1.6461 0.0000 29.0194
#
#
#
# Elastic Compliance Matrix: (Units=1/GPa)
#
#
# Indices 1 2 3 4 5 6 
#
# 1 0.023831 -0.011990 0.008235 0.000000 0.020468 0.000000
# 2 -0.011990 0.025396 -0.010505 0.000000 -0.009684 0.000000
# 3 0.008235 -0.010505 0.019374 0.000000 0.013801 0.000000
# 4 0.000000 0.000000 0.000000 0.028824 0.000000 -0.001635
# 5 0.020468 -0.009684 0.013801 0.000000 0.069829 0.000000
# 6 0.000000 0.000000 0.000000 -0.001635 0.000000 0.034552
#
#
# Mechanical properties :
#
#
# Convention : Reuss Voigt Hill
#
# Bulk Modulus (GPa) = 24.94938 32.60130 28.77534
# Shear Modulus (GPa) = 20.51828 27.45195 23.98512
#
# Velocity S-wave (km/s) = 3.23758 3.74487 3.50042
# Velocity P-wave (km/s) = 5.16928 5.94587 5.57112
#
# Compressibility (1/GPa) = 0.04008115
#
# Stress axis : x y z
#
# Youngs Moduli (GPa) = 41.96215 39.37661 51.61626
#
# Poissons Ratio (x) = 0.47211 -0.42504
# Poissons Ratio (y) = 0.50311 0.54222
# Poissons Ratio (z) = -0.34554 0.41364
#
# Static dielectric constant tensor:
#      x y z
#    x 3.566830 0.000000 0.000290 
#    y 0.000000 3.625330 0.000000 
#    z 0.000290 0.000000 3.627630 
# 
# 
# High freq. dielectric constant tensor:
#      x y z
#    x 1.765950 0.000000 -0.004100 
#    y 0.000000 1.772890 0.000000 
#    z -0.004100 0.000000 1.769810 
# 
# From -- ./inp_files/71477.got.cif
#   From: 2010.06.25/outbox.cif.g09.slc.cpg/sg10_36_cif.got.tgz:71477.got - 2010.06.27 22:07:45.
