data_PCOD8066553
_publ_section_title
;
Structure prediction by ZEFSAII (Michael W. Deem and Ramdas Pophale) SiO2 
 PCOD8066553
Probable space group: P 2/M
;
_chemical_formula_sum "Si O2"
_cell_formula_units_Z 20
_cell_length_a 21.639027
_cell_length_b 8.687357
_cell_length_c 13.409333
_cell_angle_alpha 90.000000
_cell_angle_beta 21.550658
_cell_angle_gamma 90.000000
_cell_volume 925.937209
_symmetry_space_group_name_H-M "P 2/M"
_symmetry_group_IT_number 10
_symmetry_cell_setting 'monoclinic'
loop_
_space_group_symop_operation_xyz
x,y,z
-x,y,-z
-x,-y,-z
x,-y,z
loop_
_atom_site_type_symbol
_atom_site_label
_atom_site_fract_x
_atom_site_fract_y
_atom_site_fract_z
Si Si1 0.191549 0.678980 0.702114
Si Si2 0.539954 0.179355 0.827280
Si Si3 0.680626 0.321196 0.272628
Si Si4 0.778388 0.678898 0.773705
Si Si5 0.912748 0.179326 0.769706
O O1 0.191927 0.500000 0.673715
O O2 0.273108 0.772087 0.487501
O O3 0.301573 0.711073 0.636489
O O4 0.000000 0.737901 0.000000
O O5 0.511911 0.000000 0.851476
O O6 0.500000 0.226700 0.000000
O O7 0.415109 0.276745 0.945826
O O8 0.500000 0.267737 0.500000
O O9 0.710598 0.500000 0.203341
O O10 0.827571 0.221439 0.001761
O O11 0.806520 0.500000 0.711416
O O12 0.827676 0.718353 0.812210
O O13 0.889404 0.776199 0.527125
O O14 0.891172 0.000000 0.778527
#
# Coordination Sequence:
#
# PCOD8066553 Si02
#       5
#     4   4   4   4   4
#     4  10  23  42  64  94 129 169 218 267 317 381
#     4  11  25  43  64  93 129 168 212 263 322 382
#     4  10  21  38  61  89 124 166 214 262 314 380
#     4  11  22  39  63  90 124 165 212 261 314 373
#     4  11  22  37  61  93 128 162 204 260 322 381
#
# _framework density 21.599736
#
# number of rings (size 3 to 8) (size 9 to 14) (size 15 to 20)
#    0.000    1.400    0.000    6.600    2.800    4.800 
#    0.000    0.000    0.000    0.000    0.000    0.000 
#    0.000    0.000    0.000    0.000    0.000    0.000 
#
# Total GULP energy -248085.829119 kJ/mol
# GULP energy per Si atom -12404.291456 kJ/mol
# Density = 2.155057 g / cm^3
# Si number density = 21.599736 Si / 1000 Ang^3
#
#
#
# Elastic Constant Matrix: (Units=GPa)
#
#
# Indices 1 2 3 4 5 6 
#
# 1 71.9502 29.7749 48.3122 0.0000 3.5280 0.0000
# 2 29.7749 90.8871 43.7260 0.0000 11.5524 0.0000
# 3 48.3122 43.7260 140.2164 0.0000 13.0628 0.0000
# 4 0.0000 0.0000 0.0000 31.0859 0.0000 3.4458
# 5 3.5280 11.5524 13.0628 0.0000 40.3853 0.0000
# 6 0.0000 0.0000 0.0000 3.4458 0.0000 21.6998
#
#
#
# Elastic Compliance Matrix: (Units=1/GPa)
#
#
# Indices 1 2 3 4 5 6 
#
# 1 0.019101 -0.003752 -0.005522 0.000000 0.001191 0.000000
# 2 -0.003752 0.013926 -0.002793 0.000000 -0.002752 0.000000
# 3 -0.005522 -0.002793 0.010090 0.000000 -0.001982 0.000000
# 4 0.000000 0.000000 0.000000 0.032745 0.000000 -0.005200
# 5 0.001191 -0.002752 -0.001982 0.000000 0.026086 0.000000
# 6 0.000000 0.000000 0.000000 -0.005200 0.000000 0.046909
#
#
# Mechanical properties :
#
#
# Convention : Reuss Voigt Hill
#
# Bulk Modulus (GPa) = 52.68340 60.74222 56.71281
# Shear Modulus (GPa) = 27.88321 30.71691 29.30006
#
# Velocity S-wave (km/s) = 3.59681 3.77516 3.68707
# Velocity P-wave (km/s) = 6.45702 6.86915 6.66627
#
# Compressibility (1/GPa) = 0.01898131
#
# Stress axis : x y z
#
# Youngs Moduli (GPa) = 52.35396 71.80998 99.10511
#
# Poissons Ratio (x) = 0.26944 0.54727
# Poissons Ratio (y) = 0.19644 0.27685
# Poissons Ratio (z) = 0.28910 0.20060
#
# Static dielectric constant tensor:
#      x y z
#    x 3.729790 0.000000 -0.058220 
#    y 0.000000 3.697120 0.000000 
#    z -0.058220 0.000000 4.209780 
# 
# 
# High freq. dielectric constant tensor:
#      x y z
#    x 1.838350 0.000000 0.002200 
#    y 0.000000 1.843140 0.000000 
#    z 0.002200 0.000000 1.863860 
# 
# From -- ./inp_files/53137.got.cif
#   From: 2010.06.25/outbox.cif.g09.slc.cpg/sg10_27_cif.got.tgz:53137.got - 2010.06.27 22:07:45.
