data_PCOD8066439
_publ_section_title
;
Structure prediction by ZEFSAII (Michael W. Deem and Ramdas Pophale) SiO2 
 PCOD8066439
Probable space group: P 2/M
;
_chemical_formula_sum "Si O2"
_cell_formula_units_Z 28
_cell_length_a 28.440042
_cell_length_b 9.301635
_cell_length_c 9.046696
_cell_angle_alpha 90.000000
_cell_angle_beta 39.466880
_cell_angle_gamma 90.000000
_cell_volume 1521.196535
_symmetry_space_group_name_H-M "P 2/M"
_symmetry_group_IT_number 10
_symmetry_cell_setting 'monoclinic'
loop_
_space_group_symop_operation_xyz
x,y,z
-x,y,-z
-x,-y,-z
x,-y,z
loop_
_atom_site_type_symbol
_atom_site_label
_atom_site_fract_x
_atom_site_fract_y
_atom_site_fract_z
Si Si1 0.071389 0.169157 0.232355
Si Si2 0.649585 0.831178 0.963206
Si Si3 0.930987 0.666279 0.064116
Si Si4 0.511083 0.160120 0.648899
Si Si5 0.787979 0.333027 0.598618
Si Si6 0.642246 0.664054 0.284466
Si Si7 0.194066 0.662586 0.103780
O O1 0.144123 0.229069 0.134140
O O2 0.000000 0.212133 0.500000
O O3 0.080476 0.000000 0.194062
O O4 0.061518 0.235925 0.096194
O O5 0.717216 0.757480 0.710233
O O6 0.664641 0.000000 0.943726
O O7 0.569028 0.803923 0.082224
O O8 0.648449 0.759680 0.125232
O O9 0.930011 0.500000 0.018307
O O10 0.856791 0.708564 0.330331
O O11 0.000000 0.700505 0.000000
O O12 0.500000 0.170400 0.500000
O O13 0.575427 0.270111 0.546405
O O14 0.536165 0.000000 0.633437
O O15 0.767167 0.500000 0.638279
O O16 0.807333 0.292793 0.720597
O O17 0.622498 0.500000 0.291440
O O18 0.722717 0.671680 0.166612
O O19 0.163686 0.500000 0.159970
#
# Coordination Sequence:
#
# PCOD8066439 Si02
#       7
#     4   4   4   4   4   4   4
#     4  11  24  38  53  77 105 132 165 204 246 294
#     4   9  16  25  39  62  95 133 166 199 245 297
#     4  10  21  38  59  79 100 130 166 204 249 299
#     4   8  14  23  35  57  91 129 166 200 241 295
#     4   9  18  32  51  76 101 128 168 211 249 294
#     4   9  16  25  40  64  93 126 166 210 250 288
#     4   9  18  33  52  74 101 133 169 207 248 297
#
# _framework density 18.406562999999998
#
# number of rings (size 3 to 8) (size 9 to 14) (size 15 to 20)
#    0.000    2.714    0.000    3.857    0.000    9.143 
#    0.000    0.000    0.000    0.000    0.000    1.000 
#    0.000    8.000    0.000    0.000    0.000    0.000 
#
# Total GULP energy -347019.185880 kJ/mol
# GULP energy per Si atom -12393.542353 kJ/mol
# Density = 1.836467 g / cm^3
# Si number density = 18.406563 Si / 1000 Ang^3
#
#
#
# Elastic Constant Matrix: (Units=GPa)
#
#
# Indices 1 2 3 4 5 6 
#
# 1 70.5648 54.1516 61.8865 0.0000 -18.7912 0.0000
# 2 54.1516 102.3875 71.9759 0.0000 -21.6692 0.0000
# 3 61.8865 71.9759 122.3968 0.0000 -30.7553 0.0000
# 4 0.0000 0.0000 0.0000 27.5036 0.0000 -10.1672
# 5 -18.7912 -21.6692 -30.7553 0.0000 29.3875 0.0000
# 6 0.0000 0.0000 0.0000 -10.1672 0.0000 14.0457
#
#
#
# Elastic Compliance Matrix: (Units=1/GPa)
#
#
# Indices 1 2 3 4 5 6 
#
# 1 0.029585 -0.008568 -0.009164 0.000000 0.003009 0.000000
# 2 -0.008568 0.019297 -0.006535 0.000000 0.001911 0.000000
# 3 -0.009164 -0.006535 0.018946 0.000000 0.009149 0.000000
# 4 0.000000 0.000000 0.000000 0.049643 0.000000 0.035935
# 5 0.003009 0.001911 0.009149 0.000000 0.046936 0.000000
# 6 0.000000 0.000000 0.000000 0.035935 0.000000 0.097208
#
#
# Mechanical properties :
#
#
# Convention : Reuss Voigt Hill
#
# Bulk Modulus (GPa) = 51.83401 74.59745 63.21573
# Shear Modulus (GPa) = 15.79378 21.34303 18.56840
#
# Velocity S-wave (km/s) = 2.93243 3.40889 3.17960
# Velocity P-wave (km/s) = 6.29978 7.49064 6.92087
#
# Compressibility (1/GPa) = 0.01929235
#
# Stress axis : x y z
#
# Youngs Moduli (GPa) = 33.80094 51.82168 52.78227
#
# Poissons Ratio (x) = 0.44401 0.48371
# Poissons Ratio (y) = 0.28961 0.34495
# Poissons Ratio (z) = 0.30976 0.33867
#
# Static dielectric constant tensor:
#      x y z
#    x 3.293260 0.000000 -0.658500 
#    y 0.000000 3.510210 0.000000 
#    z -0.658500 0.000000 3.880090 
# 
# 
# High freq. dielectric constant tensor:
#      x y z
#    x 1.681050 0.000000 -0.043080 
#    y 0.000000 1.719160 0.000000 
#    z -0.043080 0.000000 1.709890 
# 
# From -- ./inp_files/37930.got.cif
#   From: 2010.06.25/outbox.cif.g09.slc.cpg/sg10_19_cif.got.tgz:37930.got - 2010.06.27 22:07:45.
