data_PCOD8066574
_publ_section_title
;
Structure prediction by ZEFSAII (Michael W. Deem and Ramdas Pophale) SiO2 
 PCOD8066574
Probable space group: P 2/M
;
_chemical_formula_sum "Si O2"
_cell_formula_units_Z 32
_cell_length_a 29.733508
_cell_length_b 8.843495
_cell_length_c 12.494336
_cell_angle_alpha 90.000000
_cell_angle_beta 28.666278
_cell_angle_gamma 90.000000
_cell_volume 1576.011812
_symmetry_space_group_name_H-M "P 2/M"
_symmetry_group_IT_number 10
_symmetry_cell_setting 'monoclinic'
loop_
_space_group_symop_operation_xyz
x,y,z
-x,y,-z
-x,-y,-z
x,-y,z
loop_
_atom_site_type_symbol
_atom_site_label
_atom_site_fract_x
_atom_site_fract_y
_atom_site_fract_z
Si Si1 0.107837 0.828559 0.301015
Si Si2 0.125654 0.322081 0.485341
Si Si3 0.597361 0.821126 0.840332
Si Si4 0.251180 0.324368 0.861132
Si Si5 0.315743 0.178240 0.123388
Si Si6 0.754065 0.178526 0.348876
Si Si7 0.395615 0.325005 0.745827
Si Si8 0.033383 0.177814 0.046959
O O1 0.135140 0.719897 0.341131
O O2 0.000000 0.818852 0.500000
O O3 0.137842 0.000000 0.266273
O O4 0.160570 0.770515 0.085754
O O5 0.127382 0.500000 0.494622
O O6 0.215128 0.252654 0.358877
O O7 0.029029 0.258451 0.733380
O O8 0.614124 0.770562 0.928048
O O9 0.684932 0.765719 0.586620
O O10 0.590818 0.000000 0.846803
O O11 0.500000 0.749322 0.000000
O O12 0.225004 0.500000 0.910744
O O13 0.280964 0.264951 0.683182
O O14 0.335476 0.292001 0.766245
O O15 0.300512 0.000000 0.155595
O O16 0.357828 0.227639 0.922727
O O17 0.747561 0.000000 0.342698
O O18 0.859264 0.226863 0.161018
O O19 0.500000 0.272562 0.500000
O O20 0.391402 0.500000 0.788617
O O21 0.019578 0.000000 0.090269
O O22 0.000000 0.231680 0.000000
#
# Coordination Sequence:
#
# PCOD8066574 Si02
#       8
#     4   4   4   4   4   4   4   4
#     4  11  23  39  60  87 119 158 203 249 300 359
#     4  12  24  38  59  88 123 161 198 248 308 364
#     4   9  20  39  63  93 124 156 199 255 309 356
#     4  11  23  39  60  88 125 165 202 248 303 362
#     4  11  22  39  66  95 122 158 208 259 306 365
#     4  10  21  38  62  89 123 161 200 252 307 362
#     4  10  23  42  62  87 124 166 203 250 312 368
#     4  10  21  39  62  88 118 160 209 255 307 362
#
# _framework density 20.304417999999998
#
# number of rings (size 3 to 8) (size 9 to 14) (size 15 to 20)
#    0.000    1.500    1.250    3.750    1.750    7.500 
#    0.000    2.500    0.000    1.875    0.000    0.000 
#    0.000    0.000    0.000    0.000    0.000    0.000 
#
# Total GULP energy -396967.525099 kJ/mol
# GULP energy per Si atom -12405.235159 kJ/mol
# Density = 2.025820 g / cm^3
# Si number density = 20.304418 Si / 1000 Ang^3
#
#
#
# Elastic Constant Matrix: (Units=GPa)
#
#
# Indices 1 2 3 4 5 6 
#
# 1 131.7857 39.1526 51.1028 0.0000 -1.9457 0.0000
# 2 39.1526 65.3084 37.4888 0.0000 -8.3208 0.0000
# 3 51.1028 37.4888 121.2802 0.0000 -13.7401 0.0000
# 4 0.0000 0.0000 0.0000 8.3000 0.0000 -12.5507
# 5 -1.9457 -8.3208 -13.7401 0.0000 33.6728 0.0000
# 6 0.0000 0.0000 0.0000 -12.5507 0.0000 -26.3591
#
#
#
# Elastic Compliance Matrix: (Units=1/GPa)
#
#
# Indices 1 2 3 4 5 6 
#
# 1 0.010090 -0.004522 -0.003056 0.000000 -0.001781 0.000000
# 2 -0.004522 0.020822 -0.004170 0.000000 0.003182 0.000000
# 3 -0.003056 -0.004170 0.011203 0.000000 0.003364 0.000000
# 4 0.000000 0.000000 0.000000 0.070048 0.000000 -0.033353
# 5 -0.001781 0.003182 0.003364 0.000000 0.031754 0.000000
# 6 0.000000 0.000000 0.000000 -0.033353 0.000000 -0.022057
#
#
# Mechanical properties :
#
#
# Convention : Reuss Voigt Hill
#
# Bulk Modulus (GPa) = 53.70711 63.76252 58.73481
# Shear Modulus (GPa) = 32.98951 15.83141 24.41046
#
# Velocity S-wave (km/s) = 4.03519 2.79535 3.47107
# Velocity P-wave (km/s) = 6.94397 6.47225 6.71225
#
# Compressibility (1/GPa) = 0.01861951
#
# Stress axis : x y z
#
# Youngs Moduli (GPa) = 99.10698 48.02546 89.26062
#
# Poissons Ratio (x) = 0.21717 0.27274
# Poissons Ratio (y) = 0.44816 0.37225
# Poissons Ratio (z) = 0.30283 0.20029
#
# Static dielectric constant tensor:
#      x y z
#    x 2.537950 0.000000 -0.199250 
#    y 0.000000 3.518830 0.000000 
#    z -0.199250 0.000000 3.785600 
# 
# 
# High freq. dielectric constant tensor:
#      x y z
#    x 1.806420 0.000000 -0.002310 
#    y 0.000000 1.777690 0.000000 
#    z -0.002310 0.000000 1.802510 
# 
# From -- ./inp_files/58190.got.cif
#   From: 2010.06.25/outbox.cif.g09.slc.cpg/sg10_30_cif.got.tgz:58190.got - 2010.06.27 22:07:45.
