data_PCOD8066081
_publ_section_title
;
Structure prediction by ZEFSAII (Michael W. Deem and Ramdas Pophale) SiO2 
 PCOD8066081
Probable space group: P 2/M
;
_chemical_formula_sum "Si O2"
_cell_formula_units_Z 28
_cell_length_a 19.513869
_cell_length_b 9.244290
_cell_length_c 14.276371
_cell_angle_alpha 90.000000
_cell_angle_beta 33.970841
_cell_angle_gamma 90.000000
_cell_volume 1439.025750
_symmetry_space_group_name_H-M "P 2/M"
_symmetry_group_IT_number 10
_symmetry_cell_setting 'monoclinic'
loop_
_space_group_symop_operation_xyz
x,y,z
-x,y,-z
-x,-y,-z
x,-y,z
loop_
_atom_site_type_symbol
_atom_site_label
_atom_site_fract_x
_atom_site_fract_y
_atom_site_fract_z
Si Si1 0.708672 0.666458 0.013326
Si Si2 0.703676 0.335376 0.507160
Si Si3 0.024477 0.663954 0.869075
Si Si4 0.212745 0.170105 0.412474
Si Si5 0.054591 0.169776 0.216200
Si Si6 0.374163 0.333482 0.095536
Si Si7 0.491306 0.671603 0.614860
O O1 0.749268 0.500000 0.976520
O O2 0.829981 0.761867 0.861405
O O3 0.620939 0.687147 0.022244
O O4 0.634585 0.716736 0.190126
O O5 0.670679 0.500000 0.574520
O O6 0.831502 0.329120 0.309306
O O7 0.706108 0.237245 0.596368
O O8 0.604234 0.269775 0.548470
O O9 0.974903 0.500000 0.914304
O O10 0.950885 0.764649 0.881363
O O11 0.000000 0.724543 0.000000
O O12 0.259954 0.239638 0.262731
O O13 0.069123 0.208721 0.586851
O O14 0.234097 0.000000 0.387099
O O15 0.073359 0.000000 0.186747
O O16 0.351250 0.500000 0.148734
O O17 0.500000 0.277470 0.000000
O O18 0.500000 0.738205 0.500000
O O19 0.501205 0.500000 0.597549
#
# Coordination Sequence:
#
# PCOD8066081 Si02
#       7
#     4   4   4   4   4   4   4
#     4  10  21  36  57  84 113 144 184 233 278 331
#     4   9  17  32  54  81 110 141 179 228 280 328
#     4   9  18  31  54  84 108 138 186 236 277 326
#     4  10  21  37  57  81 110 148 188 228 275 330
#     4  10  22  38  54  77 114 154 188 226 278 333
#     4  10  21  38  61  88 114 143 182 230 284 335
#     4   9  18  32  55  83 110 142 180 226 279 332
#
# _framework density 19.457608
#
# number of rings (size 3 to 8) (size 9 to 14) (size 15 to 20)
#    0.000    2.429    0.000    1.714    2.000    5.714 
#    0.000    5.000    0.000    0.857    0.000    0.000 
#    0.000    0.000    0.000    0.000    0.000    0.000 
#
# Total GULP energy -347242.236466 kJ/mol
# GULP energy per Si atom -12401.508445 kJ/mol
# Density = 1.941332 g / cm^3
# Si number density = 19.457608 Si / 1000 Ang^3
#
#
#
# Elastic Constant Matrix: (Units=GPa)
#
#
# Indices 1 2 3 4 5 6 
#
# 1 102.5361 36.2271 52.8494 0.0000 -6.2519 0.0000
# 2 36.2271 64.3465 40.5051 0.0000 -1.0941 0.0000
# 3 52.8494 40.5051 92.0899 0.0000 12.0590 0.0000
# 4 0.0000 0.0000 0.0000 23.3567 0.0000 -0.5870
# 5 -6.2519 -1.0941 12.0590 0.0000 36.4261 0.0000
# 6 0.0000 0.0000 0.0000 -0.5870 0.0000 12.5300
#
#
#
# Elastic Compliance Matrix: (Units=1/GPa)
#
#
# Indices 1 2 3 4 5 6 
#
# 1 0.015440 -0.003596 -0.007957 0.000000 0.005176 0.000000
# 2 -0.003596 0.022885 -0.008375 0.000000 0.002843 0.000000
# 3 -0.007957 -0.008375 0.020196 0.000000 -0.008303 0.000000
# 4 0.000000 0.000000 0.000000 0.042865 0.000000 0.002008
# 5 0.005176 0.002843 -0.008303 0.000000 0.031175 0.000000
# 6 0.000000 0.000000 0.000000 0.002008 0.000000 0.079903
#
#
# Mechanical properties :
#
#
# Convention : Reuss Voigt Hill
#
# Bulk Modulus (GPa) = 53.57170 57.57063 55.57116
# Shear Modulus (GPa) = 19.33926 23.08861 21.21394
#
# Velocity S-wave (km/s) = 3.15607 3.44846 3.30550
# Velocity P-wave (km/s) = 6.39322 6.74595 6.57195
#
# Compressibility (1/GPa) = 0.01866657
#
# Stress axis : x y z
#
# Youngs Moduli (GPa) = 64.76694 43.69618 49.51428
#
# Poissons Ratio (x) = 0.15713 0.39399
# Poissons Ratio (y) = 0.23289 0.41466
# Poissons Ratio (z) = 0.51535 0.36594
#
# Static dielectric constant tensor:
#      x y z
#    x 3.578770 0.000000 0.052510 
#    y 0.000000 3.308420 0.000000 
#    z 0.052510 0.000000 3.601230 
# 
# 
# High freq. dielectric constant tensor:
#      x y z
#    x 1.759210 0.000000 0.001480 
#    y 0.000000 1.728580 0.000000 
#    z 0.001480 0.000000 1.764390 
# 
# From -- ./inp_files/68584.got.cif
#   From: 2010.06.25/outbox.cif.g09.slc.cpg/sg10_35_cif.got.tgz:68584.got - 2010.06.27 22:07:45.
