data_PCOD8066216
_publ_section_title
;
Structure prediction by ZEFSAII (Michael W. Deem and Ramdas Pophale) SiO2 
 PCOD8066216
Probable space group: P 2/M
;
_chemical_formula_sum "Si O2"
_cell_formula_units_Z 24
_cell_length_a 18.967106
_cell_length_b 8.750950
_cell_length_c 14.465229
_cell_angle_alpha 90.000000
_cell_angle_beta 148.911798
_cell_angle_gamma 90.000000
_cell_volume 1239.742976
_symmetry_space_group_name_H-M "P 2/M"
_symmetry_group_IT_number 10
_symmetry_cell_setting 'monoclinic'
loop_
_space_group_symop_operation_xyz
x,y,z
-x,y,-z
-x,-y,-z
x,-y,z
loop_
_atom_site_type_symbol
_atom_site_label
_atom_site_fract_x
_atom_site_fract_y
_atom_site_fract_z
Si Si1 0.411842 0.180741 0.032533
Si Si2 0.300591 0.819011 0.712677
Si Si3 0.120509 0.320288 0.197691
Si Si4 0.653360 0.320748 0.688333
Si Si5 0.768135 0.181085 0.001775
Si Si6 0.060348 0.681011 0.332700
O O1 0.327062 0.234493 0.847572
O O2 0.341227 0.244335 0.046084
O O3 0.412176 0.000000 0.032609
O O4 0.569437 0.235326 0.203224
O O5 0.165833 0.732982 0.528762
O O6 0.278054 0.000000 0.679976
O O7 0.097516 0.500000 0.177463
O O8 0.265536 0.280212 0.314416
O O9 0.112404 0.253565 0.292056
O O10 0.000000 0.247643 0.000000
O O11 0.500000 0.263701 0.500000
O O12 0.660338 0.500000 0.719009
O O13 0.721271 0.231698 0.848371
O O14 0.913630 0.250266 0.191528
O O15 0.778687 0.000000 0.017376
O O16 0.048361 0.500000 0.318574
#
# Coordination Sequence:
#
# PCOD8066216 Si02
#       6
#     4   4   4   4   4   4
#     4   8  18  37  60  81 109 145 180 223 275 331
#     4   9  18  38  62  82 105 142 186 224 272 330
#     4   9  17  34  55  74 105 146 180 214 262 323
#     4  10  21  37  57  80 108 145 184 221 271 328
#     4  11  22  37  56  82 113 145 183 227 272 320
#     4  11  22  36  56  83 113 145 183 226 272 323
#
# _framework density 19.358851000000001
#
# number of rings (size 3 to 8) (size 9 to 14) (size 15 to 20)
#    0.000    2.333    1.667    2.000    2.333    1.000 
#    0.000   10.000    0.000    0.000    0.000    0.000 
#    0.000    0.000    0.000    0.000    0.000    0.000 
#
# Total GULP energy -297579.409574 kJ/mol
# GULP energy per Si atom -12399.142066 kJ/mol
# Density = 1.931479 g / cm^3
# Si number density = 19.358851 Si / 1000 Ang^3
#
#
#
# Elastic Constant Matrix: (Units=GPa)
#
#
# Indices 1 2 3 4 5 6 
#
# 1 74.5668 18.6143 9.1246 0.0000 12.3057 0.0000
# 2 18.6143 42.0622 21.9741 0.0000 4.9950 0.0000
# 3 9.1246 21.9741 112.4603 0.0000 13.4507 0.0000
# 4 0.0000 0.0000 0.0000 17.1785 0.0000 -8.5083
# 5 12.3057 4.9950 13.4507 0.0000 30.8945 0.0000
# 6 0.0000 0.0000 0.0000 -8.5083 0.0000 17.8090
#
#
#
# Elastic Compliance Matrix: (Units=1/GPa)
#
#
# Indices 1 2 3 4 5 6 
#
# 1 0.015928 -0.006750 0.000691 0.000000 -0.005554 0.000000
# 2 -0.006750 0.029472 -0.005235 0.000000 0.000203 0.000000
# 3 0.000691 -0.005235 0.010328 0.000000 -0.003925 0.000000
# 4 0.000000 0.000000 0.000000 0.076256 0.000000 0.036432
# 5 -0.005554 0.000203 -0.003925 0.000000 0.036257 0.000000
# 6 0.000000 0.000000 0.000000 0.036432 0.000000 0.073557
#
#
# Mechanical properties :
#
#
# Convention : Reuss Voigt Hill
#
# Bulk Modulus (GPa) = 30.17546 36.50167 33.33857
# Shear Modulus (GPa) = 18.15318 25.13483 21.64400
#
# Velocity S-wave (km/s) = 3.06554 3.60719 3.34734
# Velocity P-wave (km/s) = 5.30578 6.02041 5.67436
#
# Compressibility (1/GPa) = 0.03313952
#
# Stress axis : x y z
#
# Youngs Moduli (GPa) = 62.78317 33.93001 96.82017
#
# Poissons Ratio (x) = 0.22903 -0.06689
# Poissons Ratio (y) = 0.42379 0.50689
# Poissons Ratio (z) = -0.04337 0.17763
#
# Static dielectric constant tensor:
#      x y z
#    x 3.966350 0.000000 0.117030 
#    y 0.000000 3.153230 0.000000 
#    z 0.117030 0.000000 3.583520 
# 
# 
# High freq. dielectric constant tensor:
#      x y z
#    x 1.764080 0.000000 0.005680 
#    y 0.000000 1.718860 0.000000 
#    z 0.005680 0.000000 1.761110 
# 
# From -- ./inp_files/66323.got.cif
#   From: 2010.06.25/outbox.cif.g09.slc.cpg/sg10_34_cif.got.tgz:66323.got - 2010.06.27 22:07:45.
