data_PCOD8066400
_publ_section_title
;
Structure prediction by ZEFSAII (Michael W. Deem and Ramdas Pophale) SiO2 
 PCOD8066400
Probable space group: P 2/M
;
_chemical_formula_sum "Si O2"
_cell_formula_units_Z 32
_cell_length_a 15.486266
_cell_length_b 8.551525
_cell_length_c 27.486618
_cell_angle_alpha 90.000000
_cell_angle_beta 152.098330
_cell_angle_gamma 90.000000
_cell_volume 1703.398322
_symmetry_space_group_name_H-M "P 2/M"
_symmetry_group_IT_number 10
_symmetry_cell_setting 'monoclinic'
loop_
_space_group_symop_operation_xyz
x,y,z
-x,y,-z
-x,-y,-z
x,-y,z
loop_
_atom_site_type_symbol
_atom_site_label
_atom_site_fract_x
_atom_site_fract_y
_atom_site_fract_z
Si Si1 0.557178 0.681241 0.144909
Si Si2 0.800069 0.179799 0.623192
Si Si3 0.195660 0.816462 0.927468
Si Si4 0.221624 0.177680 0.828652
Si Si5 0.207012 0.318026 0.554991
Si Si6 0.180349 0.182093 0.645134
Si Si7 0.799942 0.681974 0.726769
Si Si8 0.442500 0.817272 0.588470
O O1 0.555640 0.500000 0.157398
O O2 0.656863 0.706355 0.142896
O O3 0.659525 0.775537 0.237846
O O4 0.348717 0.744643 0.039075
O O5 0.761441 0.284130 0.650989
O O6 0.665337 0.236569 0.513669
O O7 0.008418 0.200289 0.708147
O O8 0.763411 0.000000 0.619981
O O9 0.253485 0.780471 0.900770
O O10 0.002605 0.735493 0.843745
O O11 0.173892 0.000000 0.925226
O O12 0.285361 0.000000 0.849668
O O13 0.212001 0.500000 0.569873
O O14 0.246736 0.223299 0.624043
O O15 0.365080 0.277632 0.595443
O O16 0.006294 0.273948 0.433716
O O17 0.135833 0.000000 0.626697
O O18 0.775443 0.500000 0.724563
O O19 0.656561 0.776024 0.688881
O O20 0.414257 0.000000 0.583991
#
# Coordination Sequence:
#
# PCOD8066400 Si02
#       8
#     4   4   4   4   4   4   4   4
#     4  12  23  34  53  82 111 140 179 227 273 315
#     4   9  19  34  52  75 107 146 185 222 262 317
#     4  10  21  38  56  74 103 145 187 225 268 322
#     4   9  18  33  52  76 108 145 183 221 265 321
#     4  11  22  38  59  86 115 139 172 223 274 314
#     4  11  22  39  60  82 111 147 180 211 261 328
#     4  11  22  35  52  77 109 143 182 230 275 312
#     4  11  21  35  56  80 108 146 186 219 263 326
#
# _framework density 18.785975000000001
#
# number of rings (size 3 to 8) (size 9 to 14) (size 15 to 20)
#    0.000    1.500    0.000    8.250    0.000    7.500 
#    0.000    0.000    0.000    0.750    0.000    5.250 
#    0.000    0.000    0.000    0.000    0.000    0.000 
#
# Total GULP energy -396995.465473 kJ/mol
# GULP energy per Si atom -12406.108296 kJ/mol
# Density = 1.874322 g / cm^3
# Si number density = 18.785975 Si / 1000 Ang^3
#
#
#
# Elastic Constant Matrix: (Units=GPa)
#
#
# Indices 1 2 3 4 5 6 
#
# 1 73.7874 11.1329 41.7932 0.0000 10.9352 0.0000
# 2 11.1329 72.9084 18.2787 0.0000 -2.0410 0.0000
# 3 41.7932 18.2787 100.2514 0.0000 0.9979 0.0000
# 4 0.0000 0.0000 0.0000 27.9724 0.0000 3.0440
# 5 10.9352 -2.0410 0.9979 0.0000 16.9609 0.0000
# 6 0.0000 0.0000 0.0000 3.0440 0.0000 28.5765
#
#
#
# Elastic Compliance Matrix: (Units=1/GPa)
#
#
# Indices 1 2 3 4 5 6 
#
# 1 0.020206 -0.001427 -0.008037 0.000000 -0.012726 0.000000
# 2 -0.001427 0.014534 -0.002083 0.000000 0.002791 0.000000
# 3 -0.008037 -0.002083 0.013664 0.000000 0.004127 0.000000
# 4 0.000000 0.000000 0.000000 0.036169 0.000000 -0.003853
# 5 -0.012726 0.002791 0.004127 0.000000 0.067257 0.000000
# 6 0.000000 0.000000 0.000000 -0.003853 0.000000 0.035404
#
#
# Mechanical properties :
#
#
# Convention : Reuss Voigt Hill
#
# Bulk Modulus (GPa) = 39.50850 43.26186 41.38518
# Shear Modulus (GPa) = 22.85575 26.41811 24.63693
#
# Velocity S-wave (km/s) = 3.49182 3.75409 3.62533
# Velocity P-wave (km/s) = 6.11012 6.47068 6.29298
#
# Compressibility (1/GPa) = 0.02531101
#
# Stress axis : x y z
#
# Youngs Moduli (GPa) = 49.49113 68.80385 73.18524
#
# Poissons Ratio (x) = 0.09817 0.58816
# Poissons Ratio (y) = 0.07061 0.15244
# Poissons Ratio (z) = 0.39774 0.14332
#
# Static dielectric constant tensor:
#      x y z
#    x 3.267250 0.000000 0.063660 
#    y 0.000000 3.458070 0.000000 
#    z 0.063660 0.000000 3.535780 
# 
# 
# High freq. dielectric constant tensor:
#      x y z
#    x 1.710470 0.000000 0.010180 
#    y 0.000000 1.737940 0.000000 
#    z 0.010180 0.000000 1.729470 
# 
# From -- ./inp_files/71546.got.cif
#   From: 2010.06.25/outbox.cif.g09.slc.cpg/sg10_36_cif.got.tgz:71546.got - 2010.06.27 22:07:45.
