data_PCOD8066687
_publ_section_title
;
Structure prediction by ZEFSAII (Michael W. Deem and Ramdas Pophale) SiO2 
 PCOD8066687
Probable space group: P 2/M
;
_chemical_formula_sum "Si O2"
_cell_formula_units_Z 22
_cell_length_a 14.029630
_cell_length_b 10.393224
_cell_length_c 13.083746
_cell_angle_alpha 90.000000
_cell_angle_beta 34.571601
_cell_angle_gamma 90.000000
_cell_volume 1082.543239
_symmetry_space_group_name_H-M "P 2/M"
_symmetry_group_IT_number 10
_symmetry_cell_setting 'monoclinic'
loop_
_space_group_symop_operation_xyz
x,y,z
-x,y,-z
-x,-y,-z
x,-y,z
loop_
_atom_site_type_symbol
_atom_site_label
_atom_site_fract_x
_atom_site_fract_y
_atom_site_fract_z
Si Si1 0.000000 0.218912 0.500000
Si Si2 0.637363 0.647813 0.101756
Si Si3 0.880373 0.142254 0.815928
Si Si4 0.112976 0.142202 0.800712
Si Si5 0.641507 0.646382 0.798720
Si Si6 0.677691 0.360882 0.298102
O O1 0.024497 0.134957 0.376581
O O2 0.172533 0.296417 0.364184
O O3 0.698354 0.500000 0.031551
O O4 0.441212 0.659360 0.241828
O O5 0.662359 0.692020 0.196190
O O6 0.743580 0.744076 0.935794
O O7 0.011058 0.174674 0.789392
O O8 0.800197 0.000000 0.906171
O O9 0.247065 0.254425 0.693758
O O10 0.196777 0.000000 0.718177
O O11 0.000000 0.148183 0.000000
O O12 0.666654 0.500000 0.810462
O O13 0.500000 0.708361 0.000000
O O14 0.500000 0.391701 0.500000
O O15 0.775434 0.500000 0.212804
#
# Coordination Sequence:
#
# PCOD8066687 Si02
#       6
#     2   4   4   4   4   4
#     4  12  24  40  66  90 125 174 213 266 321 372
#     4  10  21  40  63  89 125 164 207 258 315 381
#     4  11  24  42  62  90 127 165 212 264 315 377
#     4  10  21  39  62  86 118 159 204 252 305 370
#     4  10  21  39  62  93 125 159 211 264 314 377
#     4  10  22  38  59  91 128 161 201 257 315 373
#
# _framework density 20.322514000000002
#
# number of rings (size 3 to 8) (size 9 to 14) (size 15 to 20)
#    0.000    1.636    3.636    0.545    2.545    2.182 
#    0.000    2.727    0.000    0.000    0.000    0.000 
#    0.000    0.000    0.000    0.000    0.000    0.000 
#
# Total GULP energy -272558.486421 kJ/mol
# GULP energy per Si atom -12389.022110 kJ/mol
# Density = 2.027626 g / cm^3
# Si number density = 20.322514 Si / 1000 Ang^3
#
#
#
# Elastic Constant Matrix: (Units=GPa)
#
#
# Indices 1 2 3 4 5 6 
#
# 1 130.0087 53.7254 37.7731 0.0000 -1.5477 0.0000
# 2 53.7254 114.2210 43.8621 0.0000 -23.0296 0.0000
# 3 37.7731 43.8621 85.0763 0.0000 -6.0060 0.0000
# 4 0.0000 0.0000 0.0000 -16.3744 0.0000 44.6996
# 5 -1.5477 -23.0296 -6.0060 0.0000 37.7277 0.0000
# 6 0.0000 0.0000 0.0000 44.6996 0.0000 8.4455
#
#
#
# Elastic Compliance Matrix: (Units=1/GPa)
#
#
# Indices 1 2 3 4 5 6 
#
# 1 0.010183 -0.004383 -0.002448 0.000000 -0.002648 0.000000
# 2 -0.004383 0.014239 -0.004849 0.000000 0.007740 0.000000
# 3 -0.002448 -0.004849 0.015297 0.000000 -0.000625 0.000000
# 4 0.000000 0.000000 0.000000 -0.003953 0.000000 0.020923
# 5 -0.002648 0.007740 -0.000625 0.000000 0.031022 0.000000
# 6 0.000000 0.000000 0.000000 0.020923 0.000000 0.007665
#
#
# Mechanical properties :
#
#
# Convention : Reuss Voigt Hill
#
# Bulk Modulus (GPa) = 61.12969 66.66967 63.89968
# Shear Modulus (GPa) = 48.41861 18.88946 33.65404
#
# Velocity S-wave (km/s) = 4.88639 3.05205 4.07381
# Velocity P-wave (km/s) = 7.87279 6.73031 7.32386
#
# Compressibility (1/GPa) = 0.01635866
#
# Stress axis : x y z
#
# Youngs Moduli (GPa) = 98.20298 70.22818 65.37343
#
# Poissons Ratio (x) = 0.30784 0.16004
# Poissons Ratio (y) = 0.43047 0.31697
# Poissons Ratio (z) = 0.24041 0.34051
#
# Static dielectric constant tensor:
#      x y z
#    x 3.243560 0.000000 -0.017630 
#    y 0.000000 3.819760 0.000000 
#    z -0.017630 0.000000 3.424900 
# 
# 
# High freq. dielectric constant tensor:
#      x y z
#    x 1.815670 0.000000 0.011170 
#    y 0.000000 1.794250 0.000000 
#    z 0.011170 0.000000 1.766770 
# 
# From -- ./inp_files/67057.got.cif
#   From: 2010.06.25/outbox.cif.g09.slc.cpg/sg10_34_cif.got.tgz:67057.got - 2010.06.27 22:07:45.
