data_PCOD8066270
_publ_section_title
;
Structure prediction by ZEFSAII (Michael W. Deem and Ramdas Pophale) SiO2 
 PCOD8066270
Probable space group: P 2/M
;
_chemical_formula_sum "Si O2"
_cell_formula_units_Z 32
_cell_length_a 26.182335
_cell_length_b 8.672745
_cell_length_c 20.917200
_cell_angle_alpha 90.000000
_cell_angle_beta 159.312534
_cell_angle_gamma 90.000000
_cell_volume 1677.936430
_symmetry_space_group_name_H-M "P 2/M"
_symmetry_group_IT_number 10
_symmetry_cell_setting 'monoclinic'
loop_
_space_group_symop_operation_xyz
x,y,z
-x,y,-z
-x,-y,-z
x,-y,z
loop_
_atom_site_type_symbol
_atom_site_label
_atom_site_fract_x
_atom_site_fract_y
_atom_site_fract_z
Si Si1 0.165894 0.818959 0.357964
Si Si2 0.669855 0.821904 0.695285
Si Si3 0.849760 0.182768 0.027267
Si Si4 0.155108 0.321181 0.209606
Si Si5 0.553123 0.821585 0.993629
Si Si6 0.447894 0.320322 0.743999
Si Si7 0.728348 0.183703 0.018650
Si Si8 0.139617 0.178522 0.696828
O O1 0.183791 0.783183 0.304489
O O2 0.286899 0.731506 0.539398
O O3 0.011056 0.757264 0.201736
O O4 0.182361 0.000000 0.388475
O O5 0.500000 0.799191 0.500000
O O6 0.723905 0.717814 0.700579
O O7 0.712134 0.000000 0.732659
O O8 0.742483 0.760646 0.845743
O O9 0.848081 0.000000 0.028744
O O10 0.794599 0.250284 0.030480
O O11 0.164577 0.500000 0.239781
O O12 0.000000 0.276622 0.000000
O O13 0.473506 0.719874 0.847777
O O14 0.512731 0.000000 0.934306
O O15 0.500000 0.763638 0.000000
O O16 0.725285 0.797145 0.192076
O O17 0.464805 0.500000 0.752520
O O18 0.562772 0.236781 0.832198
O O19 0.727246 0.000000 0.018127
O O20 0.823271 0.248677 0.189602
O O21 0.000000 0.258945 0.500000
O O22 0.104276 0.000000 0.666038
#
# Coordination Sequence:
#
# PCOD8066270 Si02
#       8
#     4   4   4   4   4   4   4   4
#     4  11  22  38  61  84 110 147 192 238 282 332
#     4  10  21  37  58  85 111 142 188 235 281 333
#     4   9  19  35  56  83 109 138 184 238 284 327
#     4  11  23  39  58  83 116 151 185 228 285 342
#     4   9  18  34  57  83 110 144 189 234 275 324
#     4  11  23  38  55  82 118 154 190 227 280 340
#     4   9  18  35  57  81 110 145 187 232 278 330
#     4   8  14  26  48  78 107 136 172 221 273 318
#
# _framework density 19.071044000000001
#
# number of rings (size 3 to 8) (size 9 to 14) (size 15 to 20)
#    0.000    2.250    1.250    2.625    1.750    2.000 
#    0.000    5.625    0.000    6.000    0.000    0.000 
#    0.000    0.000    0.000    0.000    0.000    0.000 
#
# Total GULP energy -396840.888826 kJ/mol
# GULP energy per Si atom -12401.277776 kJ/mol
# Density = 1.902764 g / cm^3
# Si number density = 19.071044 Si / 1000 Ang^3
#
#
#
# Elastic Constant Matrix: (Units=GPa)
#
#
# Indices 1 2 3 4 5 6 
#
# 1 153.2700 18.8096 59.5435 0.0000 3.2115 0.0000
# 2 18.8096 35.2669 20.6855 0.0000 -1.5415 0.0000
# 3 59.5435 20.6855 139.6850 0.0000 1.0422 0.0000
# 4 0.0000 0.0000 0.0000 11.8782 0.0000 3.2066
# 5 3.2115 -1.5415 1.0422 0.0000 20.3144 0.0000
# 6 0.0000 0.0000 0.0000 3.2066 0.0000 3.3400
#
#
#
# Elastic Compliance Matrix: (Units=1/GPa)
#
#
# Indices 1 2 3 4 5 6 
#
# 1 0.008048 -0.002566 -0.003041 0.000000 -0.001311 0.000000
# 2 -0.002566 0.032008 -0.003669 0.000000 0.003023 0.000000
# 3 -0.003041 -0.003669 0.009000 0.000000 -0.000259 0.000000
# 4 0.000000 0.000000 0.000000 0.113642 0.000000 -0.109106
# 5 -0.001311 0.003023 -0.000259 0.000000 0.049676 0.000000
# 6 0.000000 0.000000 0.000000 -0.109106 0.000000 0.404156
#
#
# Mechanical properties :
#
#
# Convention : Reuss Voigt Hill
#
# Bulk Modulus (GPa) = 32.78146 58.47769 45.62958
# Shear Modulus (GPa) = 7.74893 22.38538 15.06716
#
# Velocity S-wave (km/s) = 2.01792 3.42978 2.81384
# Velocity P-wave (km/s) = 4.75981 6.81279 5.87665
#
# Compressibility (1/GPa) = 0.03050505
#
# Stress axis : x y z
#
# Youngs Moduli (GPa) = 124.25159 31.24235 111.10597
#
# Poissons Ratio (x) = 0.08017 0.33786
# Poissons Ratio (y) = 0.31885 0.40760
# Poissons Ratio (z) = 0.37784 0.11462
#
# Static dielectric constant tensor:
#      x y z
#    x 3.896700 0.000000 -0.115530 
#    y 0.000000 3.157220 0.000000 
#    z -0.115530 0.000000 3.702180 
# 
# 
# High freq. dielectric constant tensor:
#      x y z
#    x 1.748060 0.000000 -0.000780 
#    y 0.000000 1.709230 0.000000 
#    z -0.000780 0.000000 1.750220 
# 
# From -- ./inp_files/87062.got.cif
#   From: 2010.06.25/outbox.cif.g09.slc.cpg/sg10_44_cif.got.tgz:87062.got - 2010.06.27 22:07:45.
