data_PCOD8066525
_publ_section_title
;
Structure prediction by ZEFSAII (Michael W. Deem and Ramdas Pophale) SiO2 
 PCOD8066525
Probable space group: P 2/M
;
_chemical_formula_sum "Si O2"
_cell_formula_units_Z 28
_cell_length_a 31.502561
_cell_length_b 8.572664
_cell_length_c 31.502545
_cell_angle_alpha 90.000000
_cell_angle_beta 9.494011
_cell_angle_gamma 90.000000
_cell_volume 1403.282699
_symmetry_space_group_name_H-M "P 2/M"
_symmetry_group_IT_number 10
_symmetry_cell_setting 'monoclinic'
loop_
_space_group_symop_operation_xyz
x,y,z
-x,y,-z
-x,-y,-z
x,-y,z
loop_
_atom_site_type_symbol
_atom_site_label
_atom_site_fract_x
_atom_site_fract_y
_atom_site_fract_z
Si Si1 0.736395 0.180237 0.236388
Si Si2 0.975946 0.813948 0.475941
Si Si3 0.690808 0.681781 0.190812
Si Si4 0.168814 0.184785 0.668817
Si Si5 0.879397 0.814180 0.379389
Si Si6 0.403575 0.813955 0.903567
Si Si7 0.548308 0.813978 0.048317
O O1 0.500000 0.220712 0.500000
O O2 0.715922 0.289460 0.215933
O O3 0.729158 0.000000 0.229125
O O4 0.000000 0.220727 0.000000
O O5 0.713827 0.749808 0.713800
O O6 0.000000 0.749468 0.500000
O O7 0.976047 0.000000 0.476046
O O8 0.213810 0.749810 0.213817
O O9 0.686054 0.500000 0.186051
O O10 0.430831 0.757153 0.430598
O O11 0.930600 0.757154 0.930831
O O12 0.144693 0.248944 0.644703
O O13 0.169067 0.000000 0.669065
O O14 0.641256 0.749202 0.641641
O O15 0.879614 0.000000 0.379604
O O16 0.141648 0.749203 0.141248
O O17 0.427635 0.749511 0.927628
O O18 0.403639 0.000000 0.903635
O O19 0.548393 0.000000 0.048396
#
# Coordination Sequence:
#
# PCOD8066525 Si02
#       7
#     4   4   4   4   4   4   4
#     4  10  21  38  61  87 115 150 191 231 273 326
#     4   9  15  21  27  37  56  88 133 179 229 295
#     4  12  25  40  60  89 122 152 186 233 284 328
#     4  11  22  39  61  83 111 150 192 229 276 338
#     4   9  17  28  45  67  89 117 156 204 254 311
#     4   9  15  24  37  57  82 105 140 194 259 315
#     4   9  15  21  30  43  63  93 127 177 245 302
#
# _framework density 19.953213000000002
#
# number of rings (size 3 to 8) (size 9 to 14) (size 15 to 20)
#    0.000    2.143    0.000    4.714    0.000    9.143 
#    0.000    0.000    0.000    0.000    0.000    0.000 
#    0.000    0.000    0.000    0.000    0.000    0.000 
#
# Total GULP energy -347262.032240 kJ/mol
# GULP energy per Si atom -12402.215437 kJ/mol
# Density = 1.990780 g / cm^3
# Si number density = 19.953213 Si / 1000 Ang^3
#
#
#
# Elastic Constant Matrix: (Units=GPa)
#
#
# Indices 1 2 3 4 5 6 
#
# 1 186.9233 23.1452 104.6872 0.0000 -0.5785 0.0000
# 2 23.1452 37.9546 21.1771 0.0000 0.1745 0.0000
# 3 104.6872 21.1771 219.8728 0.0000 -2.3371 0.0000
# 4 0.0000 0.0000 0.0000 10.1192 0.0000 -1.0804
# 5 -0.5785 0.1745 -2.3371 0.0000 44.5203 0.0000
# 6 0.0000 0.0000 0.0000 -1.0804 0.0000 -2.1339
#
#
#
# Elastic Compliance Matrix: (Units=1/GPa)
#
#
# Indices 1 2 3 4 5 6 
#
# 1 0.007557 -0.002748 -0.003334 0.000000 -0.000066 0.000000
# 2 -0.002748 0.028846 -0.001472 0.000000 -0.000226 0.000000
# 3 -0.003334 -0.001472 0.006281 0.000000 0.000292 0.000000
# 4 0.000000 0.000000 0.000000 0.093754 0.000000 -0.047467
# 5 -0.000066 -0.000226 0.000292 0.000000 0.022477 0.000000
# 6 0.000000 0.000000 0.000000 -0.047467 0.000000 -0.444596
#
#
# Mechanical properties :
#
#
# Convention : Reuss Voigt Hill
#
# Bulk Modulus (GPa) = 36.26549 82.52995 59.39772
# Shear Modulus (GPa) = -19.12910 30.21720 5.54405
#
# Velocity S-wave (km/s) = -3.09964 3.89575 1.66870
# Velocity P-wave (km/s) = 2.32472 7.85413 5.79188
#
# Compressibility (1/GPa) = 0.02757442
#
# Stress axis : x y z
#
# Youngs Moduli (GPa) = 132.32482 34.66745 159.22287
#
# Poissons Ratio (x) = 0.09526 0.53088
# Poissons Ratio (y) = 0.36360 0.23443
# Poissons Ratio (z) = 0.44120 0.05104
#
# Static dielectric constant tensor:
#      x y z
#    x 3.882240 0.000000 0.001030 
#    y 0.000000 2.974910 0.000000 
#    z 0.001030 0.000000 3.870350 
# 
# 
# High freq. dielectric constant tensor:
#      x y z
#    x 1.798890 0.000000 -0.000290 
#    y 0.000000 1.711260 0.000000 
#    z -0.000290 0.000000 1.802190 
# 
# From -- ./inp_files/95988.got.cif
#   From: 2010.06.25/outbox.cif.g09.slc.cpg/sg10_48_cif.got.tgz:95988.got - 2010.06.27 22:07:45.
