data_PCOD8066775
_publ_section_title
;
Structure prediction by ZEFSAII (Michael W. Deem and Ramdas Pophale) SiO2 
 PCOD8066775
Probable space group: P 2/M
;
_chemical_formula_sum "Si O2"
_cell_formula_units_Z 20
_cell_length_a 13.089272
_cell_length_b 15.895190
_cell_length_c 15.252927
_cell_angle_alpha 90.000000
_cell_angle_beta 161.333210
_cell_angle_gamma 90.000000
_cell_volume 1015.713245
_symmetry_space_group_name_H-M "P 2/M"
_symmetry_group_IT_number 10
_symmetry_cell_setting 'monoclinic'
loop_
_space_group_symop_operation_xyz
x,y,z
-x,y,-z
-x,-y,-z
x,-y,z
loop_
_atom_site_type_symbol
_atom_site_label
_atom_site_fract_x
_atom_site_fract_y
_atom_site_fract_z
Si Si1 0.634919 0.905179 0.706382
Si Si2 0.886575 0.500000 0.558656
Si Si3 0.865553 0.500000 0.044959
Si Si4 0.064910 0.679237 0.955073
Si Si5 0.123730 0.321139 0.692923
Si Si6 0.717218 0.753064 0.508034
O O1 0.500000 0.900978 0.500000
O O2 0.423208 0.847536 0.599473
O O3 0.617994 0.000000 0.730505
O O4 0.000000 0.873246 0.000000
O O5 0.016812 0.500000 0.761402
O O6 0.009403 0.417072 0.609707
O O7 0.510614 0.500000 0.256941
O O8 0.007104 0.580370 0.109937
O O9 0.439603 0.693833 0.242421
O O10 0.000000 0.713120 0.000000
O O11 0.834241 0.726791 0.699939
O O12 0.000000 0.285454 0.500000
O O13 0.004503 0.258171 0.672970
O O14 0.500000 0.318301 0.000000
#
# Coordination Sequence:
#
# PCOD8066775 Si02
#       6
#     4   2   2   4   4   4
#     4  10  21  39  65  96 124 152 187 230 292 364
#     4  12  22  41  59  77 114 155 209 263 304 328
#     4  12  21  39  54  81 118 159 194 247 287 356
#     4  12  23  37  58  84 120 161 195 235 295 356
#     4  12  24  40  60  83 112 157 205 259 304 340
#     4  12  23  40  60  87 121 152 199 248 293 351
#
# _framework density 19.690595999999999
#
# number of rings (size 3 to 8) (size 9 to 14) (size 15 to 20)
#    0.000    0.400    4.000    6.900    0.000    0.000 
#    0.000    3.000    0.000    1.200    0.000    0.000 
#    0.000    0.000    0.000    0.000    0.000    0.000 
#
# Total GULP energy -248054.318350 kJ/mol
# GULP energy per Si atom -12402.715918 kJ/mol
# Density = 1.964578 g / cm^3
# Si number density = 19.690596 Si / 1000 Ang^3
#
#
#
# Elastic Constant Matrix: (Units=GPa)
#
#
# Indices 1 2 3 4 5 6 
#
# 1 90.6024 56.9041 25.5878 0.0000 0.8743 0.0000
# 2 56.9041 116.2893 36.6446 0.0000 9.6460 0.0000
# 3 25.5878 36.6446 124.0335 0.0000 -7.3953 0.0000
# 4 0.0000 0.0000 0.0000 38.4277 0.0000 12.3169
# 5 0.8743 9.6460 -7.3953 0.0000 42.9510 0.0000
# 6 0.0000 0.0000 0.0000 12.3169 0.0000 37.2619
#
#
#
# Elastic Compliance Matrix: (Units=1/GPa)
#
#
# Indices 1 2 3 4 5 6 
#
# 1 0.016130 -0.007685 -0.000984 0.000000 0.001228 0.000000
# 2 -0.007685 0.013449 -0.002585 0.000000 -0.003309 0.000000
# 3 -0.000984 -0.002585 0.009159 0.000000 0.002178 0.000000
# 4 0.000000 0.000000 0.000000 0.029107 0.000000 -0.009621
# 5 0.001228 -0.003309 0.002178 0.000000 0.024375 0.000000
# 6 0.000000 0.000000 0.000000 -0.009621 0.000000 0.030017
#
#
# Mechanical properties :
#
#
# Convention : Reuss Voigt Hill
#
# Bulk Modulus (GPa) = 61.61537 63.24423 62.42980
# Shear Modulus (GPa) = 33.29907 37.84738 35.57322
#
# Velocity S-wave (km/s) = 4.11678 4.38894 4.25503
# Velocity P-wave (km/s) = 7.34553 7.60739 7.47761
#
# Compressibility (1/GPa) = 0.01622972
#
# Stress axis : x y z
#
# Youngs Moduli (GPa) = 61.99749 74.35662 109.18268
#
# Poissons Ratio (x) = 0.57140 0.10743
# Poissons Ratio (y) = 0.47642 0.28227
# Poissons Ratio (z) = 0.06100 0.19223
#
# Static dielectric constant tensor:
#      x y z
#    x 3.347460 0.000000 -0.108000 
#    y 0.000000 3.760950 0.000000 
#    z -0.108000 0.000000 3.799350 
# 
# 
# High freq. dielectric constant tensor:
#      x y z
#    x 1.755860 0.000000 -0.013770 
#    y 0.000000 1.754610 0.000000 
#    z -0.013770 0.000000 1.793090 
# 
# From -- ./inp_files/6742.got.cif
#   From: 2010.06.25/outbox.cif.g09.slc.cpg/sg10_4_cif.got.tgz:6742.got - 2010.06.27 22:07:45.
