data_PCOD8066675
_publ_section_title
;
Structure prediction by ZEFSAII (Michael W. Deem and Ramdas Pophale) SiO2 
 PCOD8066675
Probable space group: P 2/M
;
_chemical_formula_sum "Si O2"
_cell_formula_units_Z 28
_cell_length_a 12.456871
_cell_length_b 8.857594
_cell_length_c 14.532841
_cell_angle_alpha 90.000000
_cell_angle_beta 60.179031
_cell_angle_gamma 90.000000
_cell_volume 1391.190328
_symmetry_space_group_name_H-M "P 2/M"
_symmetry_group_IT_number 10
_symmetry_cell_setting 'monoclinic'
loop_
_space_group_symop_operation_xyz
x,y,z
-x,y,-z
-x,-y,-z
x,-y,z
loop_
_atom_site_type_symbol
_atom_site_label
_atom_site_fract_x
_atom_site_fract_y
_atom_site_fract_z
Si Si1 0.958163 0.173820 0.916219
Si Si2 0.954914 0.673978 0.617233
Si Si3 0.293961 0.175192 0.207172
Si Si4 0.869523 0.329095 0.291263
Si Si5 0.295954 0.677625 0.016931
Si Si6 0.587413 0.325179 0.380974
Si Si7 0.462296 0.175221 0.791285
O O1 0.074664 0.208647 0.802657
O O2 0.847249 0.281379 0.933728
O O3 0.917789 0.000000 0.923228
O O4 0.000000 0.214011 0.000000
O O5 0.914017 0.500000 0.626820
O O6 0.837862 0.765223 0.703568
O O7 0.000000 0.737650 0.500000
O O8 0.071450 0.695879 0.634122
O O9 0.342718 0.255197 0.093673
O O10 0.395162 0.205739 0.242945
O O11 0.279790 0.000000 0.190445
O O12 0.894714 0.500000 0.245655
O O13 0.724803 0.296401 0.359240
O O14 0.311383 0.500000 0.014532
O O15 0.372437 0.738734 0.898732
O O16 0.500000 0.267587 0.500000
O O17 0.562814 0.500000 0.368246
O O18 0.559617 0.230095 0.302260
O O19 0.428498 0.000000 0.812442
#
# Coordination Sequence:
#
# PCOD8066675 Si02
#       7
#     4   4   4   4   4   4   4
#     4  11  23  38  60  90 125 166 205 249 308 369
#     4  10  22  39  64  95 126 164 206 255 311 369
#     4  11  24  42  64  93 128 165 207 258 312 372
#     4  10  21  39  61  92 126 160 206 257 306 358
#     4  12  24  40  64  94 125 162 207 256 312 374
#     4  10  23  42  66  94 126 166 212 261 309 365
#     4  11  25  43  63  91 128 167 209 258 312 371
#
# _framework density 20.126650000000001
#
# number of rings (size 3 to 8) (size 9 to 14) (size 15 to 20)
#    0.000    1.286    1.429    3.857    2.000    8.571 
#    0.000    0.000    0.000    0.000    0.000    0.000 
#    0.000    0.000    0.000    0.000    0.000    0.000 
#
# Total GULP energy -347366.616014 kJ/mol
# GULP energy per Si atom -12405.950572 kJ/mol
# Density = 2.008084 g / cm^3
# Si number density = 20.126650 Si / 1000 Ang^3
#
#
#
# Elastic Constant Matrix: (Units=GPa)
#
#
# Indices 1 2 3 4 5 6 
#
# 1 125.9165 51.9043 59.4388 0.0000 1.2740 0.0000
# 2 51.9043 103.4362 54.1420 0.0000 4.7573 0.0000
# 3 59.4388 54.1420 143.8401 0.0000 9.0237 0.0000
# 4 0.0000 0.0000 0.0000 8.4648 0.0000 19.2096
# 5 1.2740 4.7573 9.0237 0.0000 34.4225 0.0000
# 6 0.0000 0.0000 0.0000 19.2096 0.0000 68.2439
#
#
#
# Elastic Compliance Matrix: (Units=1/GPa)
#
#
# Indices 1 2 3 4 5 6 
#
# 1 0.011038 -0.003940 -0.003138 0.000000 0.000959 0.000000
# 2 -0.003940 0.013454 -0.003384 0.000000 -0.000826 0.000000
# 3 -0.003138 -0.003384 0.009645 0.000000 -0.001944 0.000000
# 4 0.000000 0.000000 0.000000 0.327051 0.000000 -0.092060
# 5 0.000959 -0.000826 -0.001944 0.000000 0.029639 0.000000
# 6 0.000000 0.000000 0.000000 -0.092060 0.000000 0.040567
#
#
# Mechanical properties :
#
#
# Convention : Reuss Voigt Hill
#
# Bulk Modulus (GPa) = 75.69040 78.24032 76.96536
# Shear Modulus (GPa) = 10.94756 36.07344 23.51050
#
# Velocity S-wave (km/s) = 2.33477 4.23818 3.42150
# Velocity P-wave (km/s) = 6.70499 7.93145 7.34387
#
# Compressibility (1/GPa) = 0.01321171
#
# Stress axis : x y z
#
# Youngs Moduli (GPa) = 90.59947 74.32502 103.68341
#
# Poissons Ratio (x) = 0.29285 0.32537
# Poissons Ratio (y) = 0.35698 0.35089
# Poissons Ratio (z) = 0.28431 0.25154
#
# Static dielectric constant tensor:
#      x y z
#    x 3.816600 0.000000 0.039930 
#    y 0.000000 3.674700 0.000000 
#    z 0.039930 0.000000 3.673590 
# 
# 
# High freq. dielectric constant tensor:
#      x y z
#    x 1.801450 0.000000 0.002590 
#    y 0.000000 1.787080 0.000000 
#    z 0.002590 0.000000 1.792150 
# 
# From -- ./inp_files/63657.got.cif
#   From: 2010.06.25/outbox.cif.g09.slc.cpg/sg10_32_cif.got.tgz:63657.got - 2010.06.27 22:07:45.
