data_PCOD8066423
_publ_section_title
;
Structure prediction by ZEFSAII (Michael W. Deem and Ramdas Pophale) SiO2 
 PCOD8066423
Probable space group: P 2/M
;
_chemical_formula_sum "Si O2"
_cell_formula_units_Z 32
_cell_length_a 12.325023
_cell_length_b 9.109220
_cell_length_c 32.302573
_cell_angle_alpha 90.000000
_cell_angle_beta 153.006921
_cell_angle_gamma 90.000000
_cell_volume 1646.075824
_symmetry_space_group_name_H-M "P 2/M"
_symmetry_group_IT_number 10
_symmetry_cell_setting 'monoclinic'
loop_
_space_group_symop_operation_xyz
x,y,z
-x,y,-z
-x,-y,-z
x,-y,z
loop_
_atom_site_type_symbol
_atom_site_label
_atom_site_fract_x
_atom_site_fract_y
_atom_site_fract_z
Si Si1 0.394492 0.172585 0.791955
Si Si2 0.985764 0.672017 0.390688
Si Si3 0.712253 0.166275 0.824490
Si Si4 0.834310 0.169318 0.068907
Si Si5 0.430651 0.326355 0.587092
Si Si6 0.580132 0.669760 0.113649
Si Si7 0.038445 0.670070 0.217122
Si Si8 0.649107 0.329208 0.350479
O O1 0.144571 0.235463 0.689193
O O2 0.618318 0.212734 0.838069
O O3 0.455812 0.246467 0.855896
O O4 0.365039 0.000000 0.788551
O O5 0.962595 0.500000 0.371283
O O6 0.868709 0.708292 0.395403
O O7 0.262442 0.724967 0.491170
O O8 0.595690 0.264659 0.749857
O O9 0.997524 0.183143 0.915066
O O10 0.629827 0.000000 0.788504
O O11 0.970413 0.230328 0.155159
O O12 0.766885 0.000000 0.053987
O O13 0.594987 0.261790 0.980261
O O14 0.413841 0.500000 0.580978
O O15 0.706719 0.276196 0.677338
O O16 0.315342 0.267240 0.590999
O O17 0.514870 0.500000 0.097574
O O18 0.849770 0.690680 0.189797
O O19 0.050486 0.500000 0.206941
O O20 0.603848 0.500000 0.337690
#
# Coordination Sequence:
#
# PCOD8066423 Si02
#       8
#     4   4   4   4   4   4   4   4
#     4  10  21  39  58  77 109 147 184 223 268 320
#     4   9  17  30  52  82 111 141 179 221 265 317
#     4   9  19  34  53  80 112 144 174 215 270 326
#     4  11  22  37  59  85 112 140 175 220 276 332
#     4   9  16  29  52  81 111 142 177 218 268 318
#     4  11  24  40  58  79 105 142 188 231 270 316
#     4  10  21  38  58  82 112 144 180 224 269 317
#     4   9  15  26  49  79 111 143 176 215 262 317
#
# _framework density 19.440175
#
# number of rings (size 3 to 8) (size 9 to 14) (size 15 to 20)
#    0.000    2.250    1.250    1.875    0.000    5.500 
#    0.000    4.375    0.000    6.750    0.000    0.000 
#    0.000    0.000    0.000    0.000    0.000    0.000 
#
# Total GULP energy -396626.209018 kJ/mol
# GULP energy per Si atom -12394.569032 kJ/mol
# Density = 1.939593 g / cm^3
# Si number density = 19.440175 Si / 1000 Ang^3
#
#
#
# Elastic Constant Matrix: (Units=GPa)
#
#
# Indices 1 2 3 4 5 6 
#
# 1 44.0900 15.3495 15.7505 0.0000 0.1565 0.0000
# 2 15.3495 56.4959 34.0119 0.0000 2.9405 0.0000
# 3 15.7505 34.0119 72.0714 0.0000 14.2861 0.0000
# 4 0.0000 0.0000 0.0000 -32.9645 0.0000 -4.7452
# 5 0.1565 2.9405 14.2861 0.0000 21.6466 0.0000
# 6 0.0000 0.0000 0.0000 -4.7452 0.0000 23.1310
#
#
#
# Elastic Compliance Matrix: (Units=1/GPa)
#
#
# Indices 1 2 3 4 5 6 
#
# 1 0.025753 -0.004749 -0.004001 0.000000 0.003100 0.000000
# 2 -0.004749 0.026079 -0.012166 0.000000 0.004521 0.000000
# 3 -0.004001 -0.012166 0.023191 0.000000 -0.013624 0.000000
# 4 0.000000 0.000000 0.000000 -0.029466 0.000000 -0.006045
# 5 0.003100 0.004521 -0.013624 0.000000 0.054552 0.000000
# 6 0.000000 0.000000 0.000000 -0.006045 0.000000 0.041992
#
#
# Mechanical properties :
#
#
# Convention : Reuss Voigt Hill
#
# Bulk Modulus (GPa) = 30.12836 33.65348 31.89092
# Shear Modulus (GPa) = 25.64138 9.53230 17.58684
#
# Velocity S-wave (km/s) = 3.63573 2.21677 3.01103
# Velocity P-wave (km/s) = 5.75815 4.88886 5.34122
#
# Compressibility (1/GPa) = 0.03319132
#
# Stress axis : x y z
#
# Youngs Moduli (GPa) = 38.83096 38.34439 43.11963
#
# Poissons Ratio (x) = 0.18211 0.17253
# Poissons Ratio (y) = 0.18442 0.52457
# Poissons Ratio (z) = 0.15537 0.46648
#
# Static dielectric constant tensor:
#      x y z
#    x 3.519610 0.000000 0.131840 
#    y 0.000000 3.438860 0.000000 
#    z 0.131840 0.000000 3.860080 
# 
# 
# High freq. dielectric constant tensor:
#      x y z
#    x 1.745940 0.000000 0.009190 
#    y 0.000000 1.740860 0.000000 
#    z 0.009190 0.000000 1.759070 
# 
# From -- ./inp_files/95092.got.cif
#   From: 2010.06.25/outbox.cif.g09.slc.cpg/sg10_48_cif.got.tgz:95092.got - 2010.06.27 22:07:45.
