data_PCOD8066920
_publ_section_title
;
Structure prediction by ZEFSAII (Michael W. Deem and Ramdas Pophale) SiO2 
 PCOD8066920
Probable space group: P 2/M
;
_chemical_formula_sum "Si O2"
_cell_formula_units_Z 22
_cell_length_a 13.240408
_cell_length_b 16.602092
_cell_length_c 5.129634
_cell_angle_alpha 90.000000
_cell_angle_beta 68.110097
_cell_angle_gamma 90.000000
_cell_volume 1046.291410
_symmetry_space_group_name_H-M "P 2/M"
_symmetry_group_IT_number 10
_symmetry_cell_setting 'monoclinic'
loop_
_space_group_symop_operation_xyz
x,y,z
-x,y,-z
-x,-y,-z
x,-y,z
loop_
_atom_site_type_symbol
_atom_site_label
_atom_site_fract_x
_atom_site_fract_y
_atom_site_fract_z
Si Si1 0.339168 0.592425 0.715426
Si Si2 0.000000 0.712850 0.500000
Si Si3 0.616770 0.692430 0.818222
Si Si4 0.893792 0.413622 0.934078
Si Si5 0.187141 0.184003 0.416544
Si Si6 0.126167 0.908037 0.950308
O O1 0.380427 0.500000 0.668327
O O2 0.399962 0.643918 0.436617
O O3 0.210035 0.599407 0.779461
O O4 0.353026 0.627585 0.991380
O O5 0.921186 0.765753 0.391261
O O6 0.907216 0.660148 0.727290
O O7 0.703743 0.763623 0.708067
O O8 0.500000 0.732105 0.000000
O O9 0.879647 0.500000 0.798224
O O10 0.000000 0.417544 0.000000
O O11 0.200508 0.118288 0.631871
O O12 0.160113 0.145341 0.163816
O O13 0.154013 0.000000 0.991535
O O14 0.000000 0.898697 0.000000
#
# Coordination Sequence:
#
# PCOD8066920 Si02
#       6
#     4   2   4   4   4   4
#     4  11  24  42  63  89 123 170 222 272 319 365
#     4  12  21  34  61  86 126 160 204 254 305 372
#     4  12  26  44  64  90 126 167 218 272 316 362
#     4  10  22  36  55  84 126 171 210 257 313 374
#     4  12  24  39  67  96 127 163 204 256 312 373
#     4  11  23  42  66 100 134 162 192 241 314 391
#
# _framework density 21.026646
#
# number of rings (size 3 to 8) (size 9 to 14) (size 15 to 20)
#    0.000    0.727    3.636    4.091    2.545    3.636 
#    0.000    0.000    0.000    3.273    0.000    0.000 
#    0.000    0.000    0.000    0.000    0.000    0.000 
#
# Total GULP energy -272709.005090 kJ/mol
# GULP energy per Si atom -12395.863868 kJ/mol
# Density = 2.097879 g / cm^3
# Si number density = 21.026646 Si / 1000 Ang^3
#
#
#
# Elastic Constant Matrix: (Units=GPa)
#
#
# Indices 1 2 3 4 5 6 
#
# 1 66.0168 33.6070 30.0688 0.0000 -12.5860 0.0000
# 2 33.6070 116.9046 45.3916 0.0000 -3.3848 0.0000
# 3 30.0688 45.3916 109.9964 0.0000 2.3411 0.0000
# 4 0.0000 0.0000 0.0000 27.5779 0.0000 11.1436
# 5 -12.5860 -3.3848 2.3411 0.0000 46.0110 0.0000
# 6 0.0000 0.0000 0.0000 11.1436 0.0000 3.7577
#
#
#
# Elastic Compliance Matrix: (Units=1/GPa)
#
#
# Indices 1 2 3 4 5 6 
#
# 1 0.020031 -0.004087 -0.003904 0.000000 0.005377 0.000000
# 2 -0.004087 0.011063 -0.003445 0.000000 -0.000129 0.000000
# 3 -0.003904 -0.003445 0.011621 0.000000 -0.001913 0.000000
# 4 0.000000 0.000000 0.000000 -0.182846 0.000000 0.542239
# 5 0.005377 -0.000129 -0.001913 0.000000 0.023293 0.000000
# 6 0.000000 0.000000 0.000000 0.542239 0.000000 -1.341919
#
#
# Mechanical properties :
#
#
# Convention : Reuss Voigt Hill
#
# Bulk Modulus (GPa) = 50.39550 56.78361 53.58956
# Shear Modulus (GPa) = -3.49829 27.72602 12.11386
#
# Velocity S-wave (km/s) = -1.29126 3.63521 2.40285
# Velocity P-wave (km/s) = 4.66866 6.68460 5.76542
#
# Compressibility (1/GPa) = 0.01984304
#
# Stress axis : x y z
#
# Youngs Moduli (GPa) = 49.92144 90.39210 86.05278
#
# Poissons Ratio (x) = 0.36944 0.33592
# Poissons Ratio (y) = 0.20403 0.29648
# Poissons Ratio (z) = 0.19488 0.31143
#
# Static dielectric constant tensor:
#      x y z
#    x 3.796900 0.000000 -0.257110 
#    y 0.000000 4.211910 0.000000 
#    z -0.257110 0.000000 2.283230 
# 
# 
# High freq. dielectric constant tensor:
#      x y z
#    x 1.816950 0.000000 -0.003160 
#    y 0.000000 1.823390 0.000000 
#    z -0.003160 0.000000 1.826470 
# 
# From -- ./inp_files/9167.got.cif
#   From: 2010.06.25/outbox.cif.g09.slc.cpg/sg10_5_cif.got.tgz:9167.got - 2010.06.27 22:07:45.
