data_PCOD8066183
_publ_section_title
;
Structure prediction by ZEFSAII (Michael W. Deem and Ramdas Pophale) SiO2 
 PCOD8066183
Probable space group: P 2/M
;
_chemical_formula_sum "Si O2"
_cell_formula_units_Z 32
_cell_length_a 9.212054
_cell_length_b 13.878405
_cell_length_c 27.485149
_cell_angle_alpha 90.000000
_cell_angle_beta 151.948374
_cell_angle_gamma 90.000000
_cell_volume 1652.489019
_symmetry_space_group_name_H-M "P 2/M"
_symmetry_group_IT_number 10
_symmetry_cell_setting 'monoclinic'
loop_
_space_group_symop_operation_xyz
x,y,z
-x,y,-z
-x,-y,-z
x,-y,z
loop_
_atom_site_type_symbol
_atom_site_label
_atom_site_fract_x
_atom_site_fract_y
_atom_site_fract_z
Si Si1 0.361659 0.397510 0.103456
Si Si2 0.365557 0.189740 0.109468
Si Si3 0.329522 0.609517 0.905274
Si Si4 0.410525 0.889936 0.222076
Si Si5 0.298627 0.113328 0.987423
Si Si6 0.821313 0.261939 0.397653
Si Si7 0.659545 0.610146 0.693853
Si Si8 0.683774 0.610852 0.506192
O O1 0.507557 0.500000 0.166869
O O2 0.479162 0.297149 0.161412
O O3 0.434559 0.386459 0.068702
O O4 0.000000 0.405622 0.000000
O O5 0.492914 0.118631 0.188723
O O6 0.466798 0.162911 0.084234
O O7 0.000000 0.184047 0.000000
O O8 0.257430 0.500000 0.899347
O O9 0.999625 0.657874 0.796597
O O10 0.500000 0.664674 0.000000
O O11 0.659787 0.831574 0.327231
O O12 0.057557 0.853026 0.126074
O O13 0.446113 0.000000 0.248937
O O14 0.299708 0.000000 0.998222
O O15 0.500000 0.140623 0.000000
O O16 0.559317 0.337913 0.332960
O O17 0.000000 0.231666 0.500000
O O18 0.038584 0.314642 0.422148
O O19 0.653732 0.500000 0.708474
O O20 0.559157 0.620940 0.608777
O O21 0.500000 0.642381 0.500000
O O22 0.805134 0.500000 0.546208
#
# Coordination Sequence:
#
# PCOD8066183 Si02
#       8
#     4   4   4   4   4   4   4   4
#     4   9  18  31  45  67 105 147 181 210 243 298
#     4   9  18  32  51  74 103 140 176 214 263 315
#     4   9  18  31  46  69 107 150 180 205 245 301
#     4  10  21  37  56  79 107 140 179 222 274 331
#     4   9  18  34  57  84 110 137 178 231 275 314
#     4  10  21  37  57  79 104 138 181 226 276 328
#     4   9  18  33  53  78 107 139 177 219 264 318
#     4   9  18  35  59  84 108 135 174 227 276 316
#
# _framework density 19.364729000000001
#
# number of rings (size 3 to 8) (size 9 to 14) (size 15 to 20)
#    0.000    2.750    0.000    0.750    0.000    8.750 
#    0.000    5.000    0.000    1.125    0.000    0.000 
#    0.000    0.000    0.000    0.000    0.000    0.000 
#
# Total GULP energy -396438.317521 kJ/mol
# GULP energy per Si atom -12388.697423 kJ/mol
# Density = 1.932065 g / cm^3
# Si number density = 19.364729 Si / 1000 Ang^3
#
#
#
# Elastic Constant Matrix: (Units=GPa)
#
#
# Indices 1 2 3 4 5 6 
#
# 1 138.4966 35.9031 55.3376 0.0000 4.3352 0.0000
# 2 35.9031 90.6458 45.1966 0.0000 0.3441 0.0000
# 3 55.3376 45.1966 96.0128 0.0000 8.1846 0.0000
# 4 0.0000 0.0000 0.0000 26.1998 0.0000 -2.4636
# 5 4.3352 0.3441 8.1846 0.0000 20.0707 0.0000
# 6 0.0000 0.0000 0.0000 -2.4636 0.0000 36.1320
#
#
#
# Elastic Compliance Matrix: (Units=1/GPa)
#
#
# Indices 1 2 3 4 5 6 
#
# 1 0.009506 -0.001353 -0.004837 0.000000 -0.000058 0.000000
# 2 -0.001353 0.014741 -0.006385 0.000000 0.002643 0.000000
# 3 -0.004837 -0.006385 0.016690 0.000000 -0.005652 0.000000
# 4 0.000000 0.000000 0.000000 0.038415 0.000000 0.002619
# 5 -0.000058 0.002643 -0.005652 0.000000 0.052096 0.000000
# 6 0.000000 0.000000 0.000000 0.002619 0.000000 0.027855
#
#
# Mechanical properties :
#
#
# Convention : Reuss Voigt Hill
#
# Bulk Modulus (GPa) = 63.33907 66.44777 64.89342
# Shear Modulus (GPa) = 26.35545 29.06168 27.70857
#
# Velocity S-wave (km/s) = 3.69318 3.87816 3.78680
# Velocity P-wave (km/s) = 7.13902 7.37847 7.25973
#
# Compressibility (1/GPa) = 0.01578804
#
# Stress axis : x y z
#
# Youngs Moduli (GPa) = 105.20208 67.83655 59.91527
#
# Poissons Ratio (x) = 0.09179 0.28979
# Poissons Ratio (y) = 0.14235 0.38254
# Poissons Ratio (z) = 0.50883 0.43312
#
# Static dielectric constant tensor:
#      x y z
#    x 3.574170 0.000000 -0.009610 
#    y 0.000000 3.686320 0.000000 
#    z -0.009610 0.000000 3.480100 
# 
# 
# High freq. dielectric constant tensor:
#      x y z
#    x 1.760010 0.000000 -0.003350 
#    y 0.000000 1.746980 0.000000 
#    z -0.003350 0.000000 1.727740 
# 
# From -- ./inp_files/88271.got.cif
#   From: 2010.06.25/outbox.cif.g09.slc.cpg/sg10_45_cif.got.tgz:88271.got - 2010.06.27 22:07:45.
