data_PCOD8066914
_publ_section_title
;
Structure prediction by ZEFSAII (Michael W. Deem and Ramdas Pophale) SiO2 
 PCOD8066914
Probable space group: P 2/M
;
_chemical_formula_sum "Si O2"
_cell_formula_units_Z 24
_cell_length_a 12.347815
_cell_length_b 21.600510
_cell_length_c 9.645974
_cell_angle_alpha 90.000000
_cell_angle_beta 25.763273
_cell_angle_gamma 90.000000
_cell_volume 1118.262564
_symmetry_space_group_name_H-M "P 2/M"
_symmetry_group_IT_number 10
_symmetry_cell_setting 'monoclinic'
loop_
_space_group_symop_operation_xyz
x,y,z
-x,y,-z
-x,-y,-z
x,-y,z
loop_
_atom_site_type_symbol
_atom_site_label
_atom_site_fract_x
_atom_site_fract_y
_atom_site_fract_z
Si Si1 0.585809 0.135383 0.243549
Si Si2 0.585521 0.569229 0.558436
Si Si3 0.083786 0.069195 0.746484
Si Si4 0.515826 0.242270 0.130466
Si Si5 0.204291 0.638187 0.156451
Si Si6 0.088471 0.686036 0.753387
O O1 0.500000 0.147903 0.500000
O O2 0.354433 0.103214 0.426647
O O3 0.648945 0.199121 0.090817
O O4 0.850856 0.099359 0.931089
O O5 0.500000 0.578422 0.500000
O O6 0.693094 0.500000 0.455980
O O7 0.790061 0.619766 0.355781
O O8 0.366932 0.579112 0.923946
O O9 0.122612 0.000000 0.642510
O O10 0.000000 0.065934 0.000000
O O11 0.250948 0.260238 0.499113
O O12 0.500000 0.207066 0.000000
O O13 0.654272 0.306213 0.930711
O O14 0.000000 0.613141 0.500000
O O15 0.130301 0.670851 0.098623
O O16 0.000000 0.715451 0.000000
#
# Coordination Sequence:
#
# PCOD8066914 Si02
#       6
#     4   4   4   4   4   4
#     4  10  22  35  61  95 124 162 215 261 308 370
#     4  10  22  39  60  91 119 149 201 254 306 374
#     4   9  18  36  60  91 128 165 207 261 313 362
#     4  11  25  40  59  87 123 160 201 257 309 374
#     4  11  23  41  61  85 120 161 199 246 314 375
#     4  11  23  39  63  87 116 159 201 249 309 371
#
# _framework density 21.461866000000001
#
# number of rings (size 3 to 8) (size 9 to 14) (size 15 to 20)
#    0.000    1.667    3.333    0.500    4.667    4.000 
#    0.000    0.833    0.000    3.000    0.000    0.000 
#    0.000    0.000    0.000    0.000    0.000    0.000 
#
# Total GULP energy -297383.908830 kJ/mol
# GULP energy per Si atom -12390.996201 kJ/mol
# Density = 2.141302 g / cm^3
# Si number density = 21.461866 Si / 1000 Ang^3
#
#
#
# Elastic Constant Matrix: (Units=GPa)
#
#
# Indices 1 2 3 4 5 6 
#
# 1 94.8060 27.7688 32.7745 0.0000 -0.4695 0.0000
# 2 27.7688 99.7213 23.1472 0.0000 0.5549 0.0000
# 3 32.7745 23.1472 104.6578 0.0000 7.3856 0.0000
# 4 0.0000 0.0000 0.0000 0.0382 0.0000 9.0086
# 5 -0.4695 0.5549 7.3856 0.0000 43.7688 0.0000
# 6 0.0000 0.0000 0.0000 9.0086 0.0000 11.0098
#
#
#
# Elastic Compliance Matrix: (Units=1/GPa)
#
#
# Indices 1 2 3 4 5 6 
#
# 1 0.012509 -0.002705 -0.003371 0.000000 0.000737 0.000000
# 2 -0.002705 0.011159 -0.001628 0.000000 0.000104 0.000000
# 3 -0.003371 -0.001628 0.011104 0.000000 -0.001889 0.000000
# 4 0.000000 0.000000 0.000000 -0.136371 0.000000 0.111583
# 5 0.000737 0.000104 -0.001889 0.000000 0.023173 0.000000
# 6 0.000000 0.000000 0.000000 0.111583 0.000000 -0.000473
#
#
# Mechanical properties :
#
#
# Convention : Reuss Voigt Hill
#
# Bulk Modulus (GPa) = 51.64436 51.84067 51.74252
# Shear Modulus (GPa) = -87.66352 25.32966 -31.16693
#
# Velocity S-wave (km/s) = -6.39804 3.43916 -3.81491
# Velocity P-wave (km/s) = 5.51944 6.32279 2.18098
#
# Compressibility (1/GPa) = 0.01936320
#
# Stress axis : x y z
#
# Youngs Moduli (GPa) = 79.94110 89.61744 90.05691
#
# Poissons Ratio (x) = 0.24241 0.30359
# Poissons Ratio (y) = 0.21624 0.14663
# Poissons Ratio (z) = 0.26949 0.14592
#
# Static dielectric constant tensor:
#      x y z
#    x 3.882230 0.000000 -0.148020 
#    y 0.000000 3.955810 0.000000 
#    z -0.148020 0.000000 3.847720 
# 
# 
# High freq. dielectric constant tensor:
#      x y z
#    x 1.844010 0.000000 -0.005420 
#    y 0.000000 1.831500 0.000000 
#    z -0.005420 0.000000 1.837150 
# 
# From -- ./inp_files/7985.got.cif
#   From: 2010.06.25/outbox.cif.g09.slc.cpg/sg10_4_cif.got.tgz:7985.got - 2010.06.27 22:07:45.
