data_PCOD8066263
_publ_section_title
;
Structure prediction by ZEFSAII (Michael W. Deem and Ramdas Pophale) SiO2 
 PCOD8066263
Probable space group: P 2/M
;
_chemical_formula_sum "Si O2"
_cell_formula_units_Z 24
_cell_length_a 13.287759
_cell_length_b 9.116741
_cell_length_c 10.028128
_cell_angle_alpha 90.000000
_cell_angle_beta 78.509883
_cell_angle_gamma 90.000000
_cell_volume 1190.471956
_symmetry_space_group_name_H-M "P 2/M"
_symmetry_group_IT_number 10
_symmetry_cell_setting 'monoclinic'
loop_
_space_group_symop_operation_xyz
x,y,z
-x,y,-z
-x,-y,-z
x,-y,z
loop_
_atom_site_type_symbol
_atom_site_label
_atom_site_fract_x
_atom_site_fract_y
_atom_site_fract_z
Si Si1 0.925973 0.671810 0.404011
Si Si2 0.027548 0.170353 0.139339
Si Si3 0.373876 0.672244 0.810952
Si Si4 0.584555 0.172246 0.732834
Si Si5 0.737565 0.830238 0.928708
Si Si6 0.308308 0.669958 0.530064
O O1 0.941724 0.500000 0.380759
O O2 0.809128 0.709836 0.472579
O O3 0.000000 0.734082 0.500000
O O4 0.953298 0.745877 0.258343
O O5 0.145656 0.204454 0.141591
O O6 0.001854 0.000000 0.159706
O O7 0.000000 0.227794 0.000000
O O8 0.389783 0.500000 0.826620
O O9 0.480612 0.753215 0.809944
O O10 0.331560 0.710190 0.676201
O O11 0.291617 0.730353 0.938435
O O12 0.670618 0.211641 0.818258
O O13 0.617182 0.234435 0.581100
O O14 0.566468 0.000000 0.724336
O O15 0.723121 0.000000 0.973027
O O16 0.331790 0.500000 0.495056
#
# Coordination Sequence:
#
# PCOD8066263 Si02
#       6
#     4   4   4   4   4   4
#     4  10  21  37  58  84 113 146 184 226 273 326
#     4  10  21  37  58  84 113 146 184 226 273 326
#     4  11  23  38  58  83 111 146 186 228 276 328
#     4  11  23  38  58  83 111 146 186 228 276 328
#     4  10  22  39  57  82 115 146 182 229 275 324
#     4  10  22  39  57  82 115 146 182 229 275 324
#
# _framework density 20.160070999999999
#
# number of rings (size 3 to 8) (size 9 to 14) (size 15 to 20)
#    0.000    1.667    0.000    4.000    0.000    8.667 
#    0.000    0.000    0.000    0.000    0.000    0.000 
#    0.000    0.000    0.000    0.000    0.000    0.000 
#
# Total GULP energy -297774.497914 kJ/mol
# GULP energy per Si atom -12407.270746 kJ/mol
# Density = 2.011419 g / cm^3
# Si number density = 20.160071 Si / 1000 Ang^3
#
#
#
# Elastic Constant Matrix: (Units=GPa)
#
#
# Indices 1 2 3 4 5 6 
#
# 1 53.9822 16.1898 -2.9879 0.0000 10.1866 0.0000
# 2 16.1898 56.0181 30.0862 0.0000 -4.1025 0.0000
# 3 -2.9879 30.0862 76.5034 0.0000 -4.8345 0.0000
# 4 0.0000 0.0000 0.0000 41.6406 0.0000 -5.5301
# 5 10.1866 -4.1025 -4.8345 0.0000 39.6401 0.0000
# 6 0.0000 0.0000 0.0000 -5.5301 0.0000 28.1057
#
#
#
# Elastic Compliance Matrix: (Units=1/GPa)
#
#
# Indices 1 2 3 4 5 6 
#
# 1 0.022710 -0.009238 0.004123 0.000000 -0.006289 0.000000
# 2 -0.009238 0.026453 -0.010522 0.000000 0.003828 0.000000
# 3 0.004123 -0.010522 0.017368 0.000000 -0.000030 0.000000
# 4 0.000000 0.000000 0.000000 0.024659 0.000000 0.004852
# 5 -0.006289 0.003828 -0.000030 0.000000 0.027236 0.000000
# 6 0.000000 0.000000 0.000000 0.004852 0.000000 0.036535
#
#
# Mechanical properties :
#
#
# Convention : Reuss Voigt Hill
#
# Bulk Modulus (GPa) = 28.36368 30.34220 29.35294
# Shear Modulus (GPa) = 25.25402 31.42498 28.33950
#
# Velocity S-wave (km/s) = 3.54315 3.95241 3.75337
# Velocity P-wave (km/s) = 5.55323 5.99267 5.77713
#
# Compressibility (1/GPa) = 0.03525636
#
# Stress axis : x y z
#
# Youngs Moduli (GPa) = 44.03297 37.80322 57.57613
#
# Poissons Ratio (x) = 0.34924 -0.23736
# Poissons Ratio (y) = 0.40679 0.60581
# Poissons Ratio (z) = -0.18153 0.39776
#
# Static dielectric constant tensor:
#      x y z
#    x 3.823860 0.000000 0.149350 
#    y 0.000000 3.585350 0.000000 
#    z 0.149350 0.000000 3.664560 
# 
# 
# High freq. dielectric constant tensor:
#      x y z
#    x 1.802810 0.000000 0.004660 
#    y 0.000000 1.782250 0.000000 
#    z 0.004660 0.000000 1.796560 
# 
# From -- ./inp_files/27334.got.cif
#   From: 2010.06.25/outbox.cif.g09.slc.cpg/sg10_14_cif.got.tgz:27334.got - 2010.06.27 22:07:45.
