data_PCOD8066388
_publ_section_title
;
Structure prediction by ZEFSAII (Michael W. Deem and Ramdas Pophale) SiO2 
 PCOD8066388
Probable space group: P 2/M
;
_chemical_formula_sum "Si O2"
_cell_formula_units_Z 28
_cell_length_a 14.939951
_cell_length_b 8.892927
_cell_length_c 12.543765
_cell_angle_alpha 90.000000
_cell_angle_beta 74.552285
_cell_angle_gamma 90.000000
_cell_volume 1606.356884
_symmetry_space_group_name_H-M "P 2/M"
_symmetry_group_IT_number 10
_symmetry_cell_setting 'monoclinic'
loop_
_space_group_symop_operation_xyz
x,y,z
-x,y,-z
-x,-y,-z
x,-y,z
loop_
_atom_site_type_symbol
_atom_site_label
_atom_site_fract_x
_atom_site_fract_y
_atom_site_fract_z
Si Si1 0.392410 0.174309 0.412893
Si Si2 0.094358 0.322256 0.019803
Si Si3 0.601975 0.174027 0.340825
Si Si4 0.777887 0.323065 0.208257
Si Si5 0.919341 0.325443 0.737767
Si Si6 0.110224 0.822296 0.635569
Si Si7 0.213989 0.673399 0.409871
O O1 0.496683 0.222667 0.347876
O O2 0.375403 0.204339 0.543008
O O3 0.321156 0.275250 0.368335
O O4 0.376319 0.000000 0.391527
O O5 0.085761 0.500000 0.024207
O O6 0.107269 0.263577 0.136382
O O7 0.181830 0.273738 0.919626
O O8 0.000000 0.253023 0.000000
O O9 0.671009 0.271766 0.246755
O O10 0.617016 0.000000 0.309149
O O11 0.784795 0.500000 0.223745
O O12 0.839028 0.245403 0.278761
O O13 0.949026 0.500000 0.731945
O O14 0.830132 0.300453 0.691981
O O15 0.004644 0.232672 0.662963
O O16 0.161028 0.773976 0.512052
O O17 0.113833 0.000000 0.643234
O O18 0.207916 0.500000 0.446745
#
# Coordination Sequence:
#
# PCOD8066388 Si02
#       7
#     4   4   4   4   4   4   4
#     4   9  18  33  53  75 106 140 169 204 258 314
#     4   9  17  33  56  76 100 135 173 215 261 302
#     4   9  18  33  52  77 106 138 168 208 261 307
#     4  11  20  32  55  81 105 135 173 215 259 306
#     4  10  21  38  55  74 103 139 177 216 257 302
#     4  12  23  34  50  75 109 143 173 208 255 310
#     4  11  22  34  53  79 106 136 174 215 255 305
#
# _framework density 17.430747
#
# number of rings (size 3 to 8) (size 9 to 14) (size 15 to 20)
#    0.000    1.857    2.857    3.429    0.000    3.429 
#    0.000    3.571    0.000    0.857    0.000    6.000 
#    0.000    0.000    0.000    0.000    0.000    0.000 
#
# Total GULP energy -347235.124084 kJ/mol
# GULP energy per Si atom -12401.254432 kJ/mol
# Density = 1.739107 g / cm^3
# Si number density = 17.430747 Si / 1000 Ang^3
#
#
#
# Elastic Constant Matrix: (Units=GPa)
#
#
# Indices 1 2 3 4 5 6 
#
# 1 130.0834 51.3008 61.4692 0.0000 -8.8487 0.0000
# 2 51.3008 78.2089 37.6573 0.0000 -4.4311 0.0000
# 3 61.4692 37.6573 76.8995 0.0000 2.2752 0.0000
# 4 0.0000 0.0000 0.0000 5.2155 0.0000 -7.1048
# 5 -8.8487 -4.4311 2.2752 0.0000 26.9512 0.0000
# 6 0.0000 0.0000 0.0000 -7.1048 0.0000 30.3883
#
#
#
# Elastic Compliance Matrix: (Units=1/GPa)
#
#
# Indices 1 2 3 4 5 6 
#
# 1 0.014173 -0.004593 -0.009218 0.000000 0.004676 0.000000
# 2 -0.004593 0.018546 -0.005470 0.000000 0.002003 0.000000
# 3 -0.009218 -0.005470 0.023225 0.000000 -0.005886 0.000000
# 4 0.000000 0.000000 0.000000 0.281343 0.000000 0.065778
# 5 0.004676 0.002003 -0.005886 0.000000 0.039466 0.000000
# 6 0.000000 0.000000 0.000000 0.065778 0.000000 0.048286
#
#
# Mechanical properties :
#
#
# Convention : Reuss Voigt Hill
#
# Bulk Modulus (GPa) = 57.53017 65.11626 61.32322
# Shear Modulus (GPa) = 10.65202 21.49529 16.07366
#
# Velocity S-wave (km/s) = 2.47474 3.51548 3.03998
# Velocity P-wave (km/s) = 6.42202 7.34278 6.89778
#
# Compressibility (1/GPa) = 0.01738218
#
# Stress axis : x y z
#
# Youngs Moduli (GPa) = 70.55820 53.91918 43.05700
#
# Poissons Ratio (x) = 0.24766 0.39690
# Poissons Ratio (y) = 0.32408 0.23551
# Poissons Ratio (z) = 0.65040 0.29493
#
# Static dielectric constant tensor:
#      x y z
#    x 3.337430 0.000000 -0.097290 
#    y 0.000000 3.163900 0.000000 
#    z -0.097290 0.000000 3.312030 
# 
# 
# High freq. dielectric constant tensor:
#      x y z
#    x 1.674840 0.000000 -0.009800 
#    y 0.000000 1.664610 0.000000 
#    z -0.009800 0.000000 1.657340 
# 
# From -- ./inp_files/49136.got.cif
#   From: 2010.06.25/outbox.cif.g09.slc.cpg/sg10_25_cif.got.tgz:49136.got - 2010.06.27 22:07:45.
