data_PCOD8066480
_publ_section_title
;
Structure prediction by ZEFSAII (Michael W. Deem and Ramdas Pophale) SiO2 
 PCOD8066480
Probable space group: P 2/M
;
_chemical_formula_sum "Si O2"
_cell_formula_units_Z 26
_cell_length_a 20.875618
_cell_length_b 7.658017
_cell_length_c 10.392077
_cell_angle_alpha 90.000000
_cell_angle_beta 131.821632
_cell_angle_gamma 90.000000
_cell_volume 1238.069513
_symmetry_space_group_name_H-M "P 2/M"
_symmetry_group_IT_number 10
_symmetry_cell_setting 'monoclinic'
loop_
_space_group_symop_operation_xyz
x,y,z
-x,y,-z
-x,-y,-z
x,-y,z
loop_
_atom_site_type_symbol
_atom_site_label
_atom_site_fract_x
_atom_site_fract_y
_atom_site_fract_z
Si Si1 0.935325 0.792862 0.306260
Si Si2 0.621990 0.192217 0.732243
Si Si3 0.744729 0.200449 0.661433
Si Si4 0.477660 0.500000 0.288605
Si Si5 0.657729 0.500000 0.413814
Si Si6 0.252322 0.196865 0.864705
Si Si7 0.647796 0.500000 0.115622
Si Si8 0.931543 0.793028 0.012128
O O1 0.842292 0.735550 0.230190
O O2 0.000000 0.714541 0.500000
O O3 0.943256 0.000000 0.310920
O O4 0.952043 0.718999 0.183546
O O5 0.668041 0.225247 0.659523
O O6 0.547375 0.330430 0.661605
O O7 0.579125 0.000000 0.679873
O O8 0.697376 0.206717 0.935563
O O9 0.718283 0.329106 0.510359
O O10 0.835558 0.262384 0.842123
O O11 0.750617 0.000000 0.620425
O O12 0.579519 0.500000 0.409875
O O13 0.431438 0.500000 0.088399
O O14 0.613678 0.500000 0.215001
O O15 0.294664 0.326739 0.819919
O O16 0.252479 0.000000 0.807810
O O17 0.938121 0.000000 0.024882
O O18 0.000000 0.717189 0.000000
#
# Coordination Sequence:
#
# PCOD8066480 Si02
#       8
#     4   4   4   2   2   4   2   4
#     4   9  16  28  52  86 117 149 196 246 285 335
#     4   9  17  34  61  87 112 146 192 235 284 345
#     4  10  21  38  60  85 118 158 192 233 286 344
#     4  10  22  40  61  84 111 147 186 242 304 346
#     4  12  26  40  56  85 119 148 192 239 289 360
#     4   9  17  34  59  83 109 147 193 236 281 337
#     4  10  23  40  59  81 109 149 190 236 291 351
#     4   9  17  32  55  85 123 161 194 235 292 349
#
# _framework density 21.000436000000001
#
# number of rings (size 3 to 8) (size 9 to 14) (size 15 to 20)
#    0.000    2.462    1.538    0.692    0.000    3.692 
#    0.000    5.385    0.000    4.615    0.000    0.000 
#    0.000    0.000    0.000    0.000    0.000    0.000 
#
# Total GULP energy -322300.151532 kJ/mol
# GULP energy per Si atom -12396.159674 kJ/mol
# Density = 2.095264 g / cm^3
# Si number density = 21.000436 Si / 1000 Ang^3
#
#
#
# Elastic Constant Matrix: (Units=GPa)
#
#
# Indices 1 2 3 4 5 6 
#
# 1 58.2289 27.0013 35.7085 0.0000 11.1682 0.0000
# 2 27.0013 96.8261 27.7866 0.0000 0.1120 0.0000
# 3 35.7085 27.7866 105.7142 0.0000 0.2767 0.0000
# 4 0.0000 0.0000 0.0000 14.4110 0.0000 -22.2187
# 5 11.1682 0.1120 0.2767 0.0000 28.6439 0.0000
# 6 0.0000 0.0000 0.0000 -22.2187 0.0000 -65.6136
#
#
#
# Elastic Compliance Matrix: (Units=1/GPa)
#
#
# Indices 1 2 3 4 5 6 
#
# 1 0.026025 -0.005117 -0.007420 0.000000 -0.010055 0.000000
# 2 -0.005117 0.012176 -0.001477 0.000000 0.001962 0.000000
# 3 -0.007420 -0.001477 0.012347 0.000000 0.002779 0.000000
# 4 0.000000 0.000000 0.000000 0.045589 0.000000 -0.015438
# 5 -0.010055 0.001962 0.002779 0.000000 0.038797 0.000000
# 6 0.000000 0.000000 0.000000 -0.015438 0.000000 -0.010013
#
#
# Mechanical properties :
#
#
# Convention : Reuss Voigt Hill
#
# Bulk Modulus (GPa) = 44.40315 49.08466 46.74391
# Shear Modulus (GPa) = 31.16125 6.83976 19.00050
#
# Velocity S-wave (km/s) = 3.85624 1.80666 3.01120
# Velocity P-wave (km/s) = 6.40447 5.27029 5.86486
#
# Compressibility (1/GPa) = 0.02252092
#
# Stress axis : x y z
#
# Youngs Moduli (GPa) = 38.42487 82.12672 80.99317
#
# Poissons Ratio (x) = 0.42020 0.60093
# Poissons Ratio (y) = 0.19660 0.11966
# Poissons Ratio (z) = 0.28510 0.12133
#
# Static dielectric constant tensor:
#      x y z
#    x 3.696320 0.000000 -0.027110 
#    y 0.000000 3.917870 0.000000 
#    z -0.027110 0.000000 3.827300 
# 
# 
# High freq. dielectric constant tensor:
#      x y z
#    x 1.812110 0.000000 0.008020 
#    y 0.000000 1.810830 0.000000 
#    z 0.008020 0.000000 1.825120 
# 
# From -- ./inp_files/34335.got.cif
#   From: 2010.06.25/outbox.cif.g09.slc.cpg/sg10_18_cif.got.tgz:34335.got - 2010.06.27 22:07:45.
