data_PCOD8066643
_publ_section_title
;
Structure prediction by ZEFSAII (Michael W. Deem and Ramdas Pophale) SiO2 
 PCOD8066643
Probable space group: P 2/M
;
_chemical_formula_sum "Si O2"
_cell_formula_units_Z 32
_cell_length_a 31.225683
_cell_length_b 9.259325
_cell_length_c 11.954592
_cell_angle_alpha 90.000000
_cell_angle_beta 28.671346
_cell_angle_gamma 90.000000
_cell_volume 1658.335858
_symmetry_space_group_name_H-M "P 2/M"
_symmetry_group_IT_number 10
_symmetry_cell_setting 'monoclinic'
loop_
_space_group_symop_operation_xyz
x,y,z
-x,y,-z
-x,-y,-z
x,-y,z
loop_
_atom_site_type_symbol
_atom_site_label
_atom_site_fract_x
_atom_site_fract_y
_atom_site_fract_z
Si Si1 0.644698 0.665832 0.690745
Si Si2 0.762899 0.831987 0.959615
Si Si3 0.908154 0.333780 0.762533
Si Si4 0.816910 0.832751 0.362438
Si Si5 0.862651 0.164886 0.507317
Si Si6 0.956745 0.333184 0.901944
Si Si7 0.518191 0.334340 0.777880
Si Si8 0.562648 0.171134 0.455646
O O1 0.676420 0.500000 0.625432
O O2 0.729221 0.768525 0.507003
O O3 0.599898 0.697024 0.674098
O O4 0.574903 0.700852 0.948479
O O5 0.662738 0.773207 0.203669
O O6 0.768949 0.000000 0.974158
O O7 0.824756 0.752031 0.906424
O O8 0.791754 0.800060 0.766478
O O9 0.898184 0.500000 0.749563
O O10 0.906739 0.314297 0.898818
O O11 0.000000 0.271117 0.500000
O O12 0.812386 0.809078 0.505748
O O13 0.823573 0.000000 0.314747
O O14 0.904878 0.753764 0.115912
O O15 0.943999 0.273219 0.335959
O O16 0.897755 0.000000 0.435142
O O17 0.961868 0.500000 0.925464
O O18 0.520755 0.500000 0.732977
O O19 0.525265 0.231384 0.656551
O O20 0.500000 0.229123 0.500000
O O21 0.559185 0.000000 0.470426
#
# Coordination Sequence:
#
# PCOD8066643 Si02
#       8
#     4   4   4   4   4   4   4   4
#     4   9  20  40  62  86 115 151 192 241 296 344
#     4  10  22  39  60  87 117 156 198 239 293 349
#     4  10  21  39  60  86 117 152 196 243 291 346
#     4  11  24  38  59  88 118 152 195 242 289 346
#     4  10  22  40  59  82 117 156 196 241 290 344
#     4  11  23  39  60  85 118 156 194 240 294 344
#     4   9  20  40  63  85 116 152 192 241 292 348
#     4  10  23  40  61  89 124 158 194 243 294 350
#
# _framework density 19.296454000000001
#
# number of rings (size 3 to 8) (size 9 to 14) (size 15 to 20)
#    0.000    2.000    1.250    1.875    3.500    5.500 
#    0.000    1.250    0.000    0.000    0.000    0.000 
#    0.000    0.000    0.000    0.000    0.000    0.000 
#
# Total GULP energy -396956.555377 kJ/mol
# GULP energy per Si atom -12404.892356 kJ/mol
# Density = 1.925253 g / cm^3
# Si number density = 19.296454 Si / 1000 Ang^3
#
#
#
# Elastic Constant Matrix: (Units=GPa)
#
#
# Indices 1 2 3 4 5 6 
#
# 1 90.8098 38.0271 37.5034 0.0000 -0.7147 0.0000
# 2 38.0271 70.5112 35.4701 0.0000 -2.8704 0.0000
# 3 37.5034 35.4701 81.3346 0.0000 -5.0600 0.0000
# 4 0.0000 0.0000 0.0000 1.0217 0.0000 27.7806
# 5 -0.7147 -2.8704 -5.0600 0.0000 36.5979 0.0000
# 6 0.0000 0.0000 0.0000 27.7806 0.0000 6.9343
#
#
#
# Elastic Compliance Matrix: (Units=1/GPa)
#
#
# Indices 1 2 3 4 5 6 
#
# 1 0.015411 -0.006078 -0.004505 0.000000 -0.000799 0.000000
# 2 -0.006078 0.020568 -0.006127 0.000000 0.000647 0.000000
# 3 -0.004505 -0.006127 0.017157 0.000000 0.001804 0.000000
# 4 0.000000 0.000000 0.000000 -0.009068 0.000000 0.036330
# 5 -0.000799 0.000647 0.001804 0.000000 0.027608 0.000000
# 6 0.000000 0.000000 0.000000 0.036330 0.000000 -0.001336
#
#
# Mechanical properties :
#
#
# Convention : Reuss Voigt Hill
#
# Bulk Modulus (GPa) = 50.72037 51.62853 51.17445
# Shear Modulus (GPa) = 45.31724 17.68778 31.50251
#
# Velocity S-wave (km/s) = 4.85136 3.03088 4.04487
# Velocity P-wave (km/s) = 7.59756 6.24995 6.95646
#
# Compressibility (1/GPa) = 0.01971595
#
# Stress axis : x y z
#
# Youngs Moduli (GPa) = 64.88685 48.61818 58.28632
#
# Poissons Ratio (x) = 0.29548 0.26261
# Poissons Ratio (y) = 0.39435 0.35714
# Poissons Ratio (z) = 0.29235 0.29790
#
# Static dielectric constant tensor:
#      x y z
#    x 3.531620 0.000000 0.047640 
#    y 0.000000 3.465850 0.000000 
#    z 0.047640 0.000000 3.567750 
# 
# 
# High freq. dielectric constant tensor:
#      x y z
#    x 1.758140 0.000000 0.003580 
#    y 0.000000 1.747490 0.000000 
#    z 0.003580 0.000000 1.757620 
# 
# From -- ./inp_files/58179.got.cif
#   From: 2010.06.25/outbox.cif.g09.slc.cpg/sg10_30_cif.got.tgz:58179.got - 2010.06.27 22:07:45.
