data_PCOD8066845
_publ_section_title
;
Structure prediction by ZEFSAII (Michael W. Deem and Ramdas Pophale) SiO2 
 PCOD8066845
Probable space group: P 2/M
;
_chemical_formula_sum "Si O2"
_cell_formula_units_Z 28
_cell_length_a 8.673382
_cell_length_b 14.816904
_cell_length_c 11.825249
_cell_angle_alpha 90.000000
_cell_angle_beta 122.648809
_cell_angle_gamma 90.000000
_cell_volume 1279.572155
_symmetry_space_group_name_H-M "P 2/M"
_symmetry_group_IT_number 10
_symmetry_cell_setting 'monoclinic'
loop_
_space_group_symop_operation_xyz
x,y,z
-x,y,-z
-x,-y,-z
x,-y,z
loop_
_atom_site_type_symbol
_atom_site_label
_atom_site_fract_x
_atom_site_fract_y
_atom_site_fract_z
Si Si1 0.254018 0.401515 0.374000
Si Si2 0.962078 0.160532 0.858815
Si Si3 0.146884 0.605382 0.695788
Si Si4 0.285552 0.100320 0.437569
Si Si5 0.301278 0.271917 0.935238
Si Si6 0.303525 0.727927 0.576017
Si Si7 0.319557 0.307754 0.188740
O O1 0.309813 0.500000 0.440087
O O2 0.365411 0.327070 0.488647
O O3 0.306860 0.396671 0.261839
O O4 0.040943 0.383088 0.312065
O O5 0.842764 0.098822 0.726152
O O6 0.843929 0.248827 0.827938
O O7 0.152118 0.190844 0.873210
O O8 0.000000 0.116287 0.000000
O O9 0.192011 0.500000 0.687071
O O10 0.293683 0.651930 0.835771
O O11 0.156247 0.663986 0.583385
O O12 0.500000 0.121852 0.500000
O O13 0.217819 0.175583 0.502157
O O14 0.268546 0.000000 0.483911
O O15 0.500000 0.224777 0.000000
O O16 0.283173 0.328568 0.044179
O O17 0.485532 0.743724 0.722183
#
# Coordination Sequence:
#
# PCOD8066845 Si02
#       7
#     4   4   4   4   4   4   4
#     4  11  23  38  59  90 125 171 222 274 330 387
#     4  10  21  40  67  96 133 172 219 270 330 398
#     4  11  24  40  60  90 131 182 232 273 325 388
#     4  11  22  40  71 107 137 169 217 278 337 401
#     4  11  22  41  64  91 125 183 229 267 327 392
#     4  12  21  39  63  92 133 169 215 274 330 397
#     4  11  21  37  62  93 125 171 216 272 327 385
#
# _framework density 21.882313
#
# number of rings (size 3 to 8) (size 9 to 14) (size 15 to 20)
#    0.000    1.000    5.714    1.286    0.000    4.000 
#    0.000    1.429    0.000    7.286    0.000    0.000 
#    0.000    0.000    0.000    0.000    0.000    0.000 
#
# Total GULP energy -346890.162438 kJ/mol
# GULP energy per Si atom -12388.934373 kJ/mol
# Density = 2.183251 g / cm^3
# Si number density = 21.882313 Si / 1000 Ang^3
#
#
#
# Elastic Constant Matrix: (Units=GPa)
#
#
# Indices 1 2 3 4 5 6 
#
# 1 97.6865 26.2409 24.9510 0.0000 11.5139 0.0000
# 2 26.2409 127.6383 42.9342 0.0000 -13.8797 0.0000
# 3 24.9510 42.9342 111.8963 0.0000 0.5426 0.0000
# 4 0.0000 0.0000 0.0000 15.1608 0.0000 -6.6040
# 5 11.5139 -13.8797 0.5426 0.0000 42.6527 0.0000
# 6 0.0000 0.0000 0.0000 -6.6040 0.0000 18.2048
#
#
#
# Elastic Compliance Matrix: (Units=1/GPa)
#
#
# Indices 1 2 3 4 5 6 
#
# 1 0.011743 -0.002252 -0.001735 0.000000 -0.003881 0.000000
# 2 -0.002252 0.009821 -0.003285 0.000000 0.003846 0.000000
# 3 -0.001735 -0.003285 0.010588 0.000000 -0.000735 0.000000
# 4 0.000000 0.000000 0.000000 0.078339 0.000000 0.028418
# 5 -0.003881 0.003846 -0.000735 0.000000 0.025754 0.000000
# 6 0.000000 0.000000 0.000000 0.028418 0.000000 0.065239
#
#
# Mechanical properties :
#
#
# Convention : Reuss Voigt Hill
#
# Bulk Modulus (GPa) = 56.79795 58.38594 57.59195
# Shear Modulus (GPa) = 22.53309 31.41000 26.97155
#
# Velocity S-wave (km/s) = 3.21244 3.79278 3.51461
# Velocity P-wave (km/s) = 6.30651 6.77643 6.54569
#
# Compressibility (1/GPa) = 0.01760627
#
# Stress axis : x y z
#
# Youngs Moduli (GPa) = 85.16064 101.82540 94.44974
#
# Poissons Ratio (x) = 0.22935 0.16390
# Poissons Ratio (y) = 0.19182 0.31023
# Poissons Ratio (z) = 0.14778 0.33445
#
# Static dielectric constant tensor:
#      x y z
#    x 4.028670 0.000000 0.031630 
#    y 0.000000 3.574250 0.000000 
#    z 0.031630 0.000000 4.529870 
# 
# 
# High freq. dielectric constant tensor:
#      x y z
#    x 1.869040 0.000000 0.010090 
#    y 0.000000 1.815710 0.000000 
#    z 0.010090 0.000000 1.877300 
# 
# From -- ./inp_files/43055.got.cif
#   From: 2010.06.25/outbox.cif.g09.slc.cpg/sg10_22_cif.got.tgz:43055.got - 2010.06.27 22:07:45.
