data_PCOD8066152
_publ_section_title
;
Structure prediction by ZEFSAII (Michael W. Deem and Ramdas Pophale) SiO2 
 PCOD8066152
Probable space group: P 2/M
;
_chemical_formula_sum "Si O2"
_cell_formula_units_Z 24
_cell_length_a 22.055894
_cell_length_b 8.951768
_cell_length_c 16.580808
_cell_angle_alpha 90.000000
_cell_angle_beta 155.664132
_cell_angle_gamma 90.000000
_cell_volume 1349.043027
_symmetry_space_group_name_H-M "P 2/M"
_symmetry_group_IT_number 10
_symmetry_cell_setting 'monoclinic'
loop_
_space_group_symop_operation_xyz
x,y,z
-x,y,-z
-x,-y,-z
x,-y,z
loop_
_atom_site_type_symbol
_atom_site_label
_atom_site_fract_x
_atom_site_fract_y
_atom_site_fract_z
Si Si1 0.338992 0.178398 0.567236
Si Si2 0.668290 0.822527 0.949427
Si Si3 0.834051 0.821028 0.306703
Si Si4 0.791281 0.169683 0.428595
Si Si5 0.909038 0.170667 0.119948
Si Si6 0.938027 0.325186 0.837981
O O1 0.306026 0.242639 0.617667
O O2 0.219416 0.244940 0.361334
O O3 0.322128 0.000000 0.545294
O O4 0.500531 0.232262 0.736271
O O5 0.735928 0.757463 0.114473
O O6 0.760974 0.768509 0.983923
O O7 0.676445 0.000000 0.964293
O O8 0.768009 0.757887 0.311777
O O9 0.000000 0.761184 0.500000
O O10 0.834466 0.000000 0.308556
O O11 0.963227 0.181339 0.658773
O O12 0.739560 0.000000 0.359897
O O13 0.943756 0.270816 0.084616
O O14 0.890353 0.000000 0.067989
O O15 0.913954 0.500000 0.798195
O O16 0.000000 0.282452 0.000000
#
# Coordination Sequence:
#
# PCOD8066152 Si02
#       6
#     4   4   4   4   4   4
#     4   9  18  31  48  73 103 129 157 194 240 287
#     4   9  16  26  43  72 107 134 156 193 238 278
#     4   9  13  19  36  65 103 137 163 193 229 264
#     4   8  13  22  38  64  97 133 165 192 224 265
#     4   9  16  29  50  74  99 126 158 194 236 283
#     4  10  21  37  55  72  89 116 158 202 243 293
#
# _framework density 17.790389000000001
#
# number of rings (size 3 to 8) (size 9 to 14) (size 15 to 20)
#    0.000    3.000    1.667    1.500    0.000    2.000 
#    0.000    5.000    0.000    5.000    0.000   18.667 
#    0.000    0.000    0.000    0.000    0.000    0.000 
#
# Total GULP energy -297425.084427 kJ/mol
# GULP energy per Si atom -12392.711851 kJ/mol
# Density = 1.774990 g / cm^3
# Si number density = 17.790389 Si / 1000 Ang^3
#
#
#
# Elastic Constant Matrix: (Units=GPa)
#
#
# Indices 1 2 3 4 5 6 
#
# 1 124.9023 25.8448 82.6782 0.0000 2.8195 0.0000
# 2 25.8448 23.9146 28.2488 0.0000 -4.2284 0.0000
# 3 82.6782 28.2488 122.3184 0.0000 10.7223 0.0000
# 4 0.0000 0.0000 0.0000 2.9963 0.0000 3.9382
# 5 2.8195 -4.2284 10.7223 0.0000 35.6845 0.0000
# 6 0.0000 0.0000 0.0000 3.9382 0.0000 1.8608
#
#
#
# Elastic Compliance Matrix: (Units=1/GPa)
#
#
# Indices 1 2 3 4 5 6 
#
# 1 0.015084 -0.005525 -0.008995 0.000000 0.000856 0.000000
# 2 -0.005525 0.064148 -0.012103 0.000000 0.011674 0.000000
# 3 -0.008995 -0.012103 0.017577 0.000000 -0.006005 0.000000
# 4 0.000000 0.000000 0.000000 -0.187307 0.000000 0.396428
# 5 0.000856 0.011674 -0.006005 0.000000 0.031143 0.000000
# 6 0.000000 0.000000 0.000000 0.396428 0.000000 -0.301609
#
#
# Mechanical properties :
#
#
# Convention : Reuss Voigt Hill
#
# Bulk Modulus (GPa) = 22.95582 60.51988 41.73785
# Shear Modulus (GPa) = -17.05343 17.06588 0.00622
#
# Velocity S-wave (km/s) = -3.09945 3.10058 0.05921
# Velocity P-wave (km/s) = 0.35037 6.84911 4.84938
#
# Compressibility (1/GPa) = 0.04356193
#
# Stress axis : x y z
#
# Youngs Moduli (GPa) = 66.29388 15.58904 56.89300
#
# Poissons Ratio (x) = 0.08613 0.51175
# Poissons Ratio (y) = 0.36629 0.68859
# Poissons Ratio (z) = 0.59631 0.18868
#
# Static dielectric constant tensor:
#      x y z
#    x 3.534790 0.000000 0.096780 
#    y 0.000000 2.728100 0.000000 
#    z 0.096780 0.000000 3.245730 
# 
# 
# High freq. dielectric constant tensor:
#      x y z
#    x 1.700270 0.000000 0.006010 
#    y 0.000000 1.624970 0.000000 
#    z 0.006010 0.000000 1.675130 
# 
# From -- ./inp_files/35944.got.cif
#   From: 2010.06.25/outbox.cif.g09.slc.cpg/sg10_18_cif.got.tgz:35944.got - 2010.06.27 22:07:45.
