data_PCOD8066628
_publ_section_title
;
Structure prediction by ZEFSAII (Michael W. Deem and Ramdas Pophale) SiO2 
 PCOD8066628
Probable space group: P 2/M
;
_chemical_formula_sum "Si O2"
_cell_formula_units_Z 28
_cell_length_a 9.278360
_cell_length_b 13.065266
_cell_length_c 11.939762
_cell_angle_alpha 90.000000
_cell_angle_beta 116.042050
_cell_angle_gamma 90.000000
_cell_volume 1300.438237
_symmetry_space_group_name_H-M "P 2/M"
_symmetry_group_IT_number 10
_symmetry_cell_setting 'monoclinic'
loop_
_space_group_symop_operation_xyz
x,y,z
-x,y,-z
-x,-y,-z
x,-y,z
loop_
_atom_site_type_symbol
_atom_site_label
_atom_site_fract_x
_atom_site_fract_y
_atom_site_fract_z
Si Si1 0.467822 0.117175 0.727021
Si Si2 0.384007 0.241730 0.055875
Si Si3 0.407071 0.617242 0.284550
Si Si4 0.759514 0.883587 0.684062
Si Si5 0.923614 0.116312 0.094582
Si Si6 0.263066 0.615130 0.470164
Si Si7 0.831162 0.813161 0.476773
O O1 0.533041 0.136145 0.873969
O O2 0.602512 0.167640 0.688633
O O3 0.299418 0.178194 0.665803
O O4 0.434531 0.000000 0.690470
O O5 0.373698 0.318304 0.159490
O O6 0.500000 0.290659 0.000000
O O7 0.213479 0.204220 0.948366
O O8 0.375133 0.500000 0.239394
O O9 0.291256 0.646861 0.349694
O O10 0.583878 0.627700 0.396981
O O11 0.744527 0.876622 0.545917
O O12 0.934055 0.839590 0.777757
O O13 0.753849 0.000000 0.724978
O O14 0.866716 0.000000 0.110890
O O15 0.000000 0.108692 0.000000
O O16 0.195421 0.500000 0.453939
O O17 0.134561 0.696181 0.473432
O O18 0.000000 0.863373 0.500000
#
# Coordination Sequence:
#
# PCOD8066628 Si02
#       7
#     4   4   4   4   4   4   4
#     4  11  23  41  61  86 120 164 212 253 296 357
#     4  12  24  37  61  92 128 165 202 249 311 366
#     4   9  19  39  67  94 117 153 207 255 303 365
#     4  10  22  40  62  84 116 165 213 256 298 353
#     4  10  21  39  59  84 116 161 216 252 285 348
#     4   9  19  38  66  92 117 153 201 257 307 363
#     4  12  25  37  59  93 128 155 194 253 323 370
#
# _framework density 21.531203000000001
#
# number of rings (size 3 to 8) (size 9 to 14) (size 15 to 20)
#    0.000    1.571    2.857    3.000    4.000    4.000 
#    0.000    0.000    0.000    1.286    0.000    0.000 
#    0.000    0.000    0.000    0.000    0.000    0.000 
#
# Total GULP energy -346891.075447 kJ/mol
# GULP energy per Si atom -12388.966980 kJ/mol
# Density = 2.148220 g / cm^3
# Si number density = 21.531203 Si / 1000 Ang^3
#
#
#
# Elastic Constant Matrix: (Units=GPa)
#
#
# Indices 1 2 3 4 5 6 
#
# 1 94.2955 22.8432 28.7613 0.0000 14.5233 0.0000
# 2 22.8432 69.2908 16.8501 0.0000 0.5154 0.0000
# 3 28.7613 16.8501 62.3297 0.0000 13.7069 0.0000
# 4 0.0000 0.0000 0.0000 8.4753 0.0000 17.5906
# 5 14.5233 0.5154 13.7069 0.0000 31.9291 0.0000
# 6 0.0000 0.0000 0.0000 17.5906 0.0000 2.7051
#
#
#
# Elastic Compliance Matrix: (Units=1/GPa)
#
#
# Indices 1 2 3 4 5 6 
#
# 1 0.013380 -0.003319 -0.004362 0.000000 -0.004160 0.000000
# 2 -0.003319 0.016355 -0.003494 0.000000 0.002746 0.000000
# 3 -0.004362 -0.003494 0.020486 0.000000 -0.006754 0.000000
# 4 0.000000 0.000000 0.000000 -0.009442 0.000000 0.061398
# 5 -0.004160 0.002746 -0.006754 0.000000 0.036067 0.000000
# 6 0.000000 0.000000 0.000000 0.061398 0.000000 -0.029582
#
#
# Mechanical properties :
#
#
# Convention : Reuss Voigt Hill
#
# Bulk Modulus (GPa) = 35.87833 40.31391 38.09612
# Shear Modulus (GPa) = 63.36721 19.11933 41.24327
#
# Velocity S-wave (km/s) = 5.43087 2.98314 4.38140
# Velocity P-wave (km/s) = 7.48501 5.53440 6.58236
#
# Compressibility (1/GPa) = 0.02787198
#
# Stress axis : x y z
#
# Youngs Moduli (GPa) = 74.73695 61.14193 48.81324
#
# Poissons Ratio (x) = 0.20295 0.21292
# Poissons Ratio (y) = 0.24808 0.17053
# Poissons Ratio (z) = 0.32600 0.21360
#
# Static dielectric constant tensor:
#      x y z
#    x 3.880560 0.000000 0.448190 
#    y 0.000000 3.926790 0.000000 
#    z 0.448190 0.000000 4.830070 
# 
# 
# High freq. dielectric constant tensor:
#      x y z
#    x 1.825370 0.000000 -0.000290 
#    y 0.000000 1.839060 0.000000 
#    z -0.000290 0.000000 1.843110 
# 
# From -- ./inp_files/43024.got.cif
#   From: 2010.06.25/outbox.cif.g09.slc.cpg/sg10_22_cif.got.tgz:43024.got - 2010.06.27 22:07:45.
