data_PCOD8066199
_publ_section_title
;
Structure prediction by ZEFSAII (Michael W. Deem and Ramdas Pophale) SiO2 
 PCOD8066199
Probable space group: P 2/M
;
_chemical_formula_sum "Si O2"
_cell_formula_units_Z 32
_cell_length_a 12.246183
_cell_length_b 8.570223
_cell_length_c 15.252180
_cell_angle_alpha 90.000000
_cell_angle_beta 93.030061
_cell_angle_gamma 90.000000
_cell_volume 1598.516761
_symmetry_space_group_name_H-M "P 2/M"
_symmetry_group_IT_number 10
_symmetry_cell_setting 'monoclinic'
loop_
_space_group_symop_operation_xyz
x,y,z
-x,y,-z
-x,-y,-z
x,-y,z
loop_
_atom_site_type_symbol
_atom_site_label
_atom_site_fract_x
_atom_site_fract_y
_atom_site_fract_z
Si Si1 0.050163 0.681835 0.590805
Si Si2 0.541939 0.815193 0.137510
Si Si3 0.293836 0.820105 0.356120
Si Si4 0.478523 0.681571 0.680905
Si Si5 0.714636 0.319512 0.456086
Si Si6 0.905883 0.815284 0.932013
Si Si7 0.330546 0.184647 0.025762
Si Si8 0.091575 0.317185 0.256358
O O1 0.020741 0.500000 0.588815
O O2 0.179563 0.713123 0.599755
O O3 0.000000 0.757810 0.500000
O O4 0.992774 0.752588 0.674766
O O5 0.571405 0.722719 0.226758
O O6 0.420906 0.762499 0.100727
O O7 0.546523 0.000000 0.153871
O O8 0.631496 0.761972 0.069422
O O9 0.416268 0.785700 0.331638
O O10 0.278590 0.784486 0.457537
O O11 0.214253 0.716782 0.293245
O O12 0.267428 0.000000 0.337127
O O13 0.508168 0.500000 0.675911
O O14 0.390780 0.727889 0.603690
O O15 0.710677 0.500000 0.485200
O O16 0.787919 0.743305 0.955475
O O17 0.935462 0.768304 0.834968
O O18 0.900749 0.000000 0.938813
O O19 0.000000 0.748587 0.000000
O O20 0.325027 0.000000 0.027008
O O21 0.076467 0.500000 0.240857
#
# Coordination Sequence:
#
# PCOD8066199 Si02
#       8
#     4   4   4   4   4   4   4   4
#     4   9  17  35  62  84 109 148 192 236 287 344
#     4   9  17  33  57  79 103 141 190 235 277 335
#     4  12  24  38  58  83 114 149 191 238 286 342
#     4  11  23  36  54  83 118 150 186 232 286 343
#     4  10  21  39  59  81 112 152 191 232 284 342
#     4  10  21  37  56  82 119 157 191 233 287 343
#     4   8  16  33  56  78 103 144 190 230 280 336
#     4  11  22  38  63  89 114 151 198 242 289 344
#
# _framework density 20.018557000000001
#
# number of rings (size 3 to 8) (size 9 to 14) (size 15 to 20)
#    0.000    2.000    1.250    3.750    0.000    4.750 
#    0.000    3.750    0.000    0.000    0.000    0.000 
#    0.000    0.000    0.000    0.000    0.000    0.000 
#
# Total GULP energy -396848.572062 kJ/mol
# GULP energy per Si atom -12401.517877 kJ/mol
# Density = 1.997299 g / cm^3
# Si number density = 20.018557 Si / 1000 Ang^3
#
#
#
# Elastic Constant Matrix: (Units=GPa)
#
#
# Indices 1 2 3 4 5 6 
#
# 1 83.4215 7.0086 55.1749 0.0000 -15.1273 0.0000
# 2 7.0086 22.6072 12.0065 0.0000 -0.8565 0.0000
# 3 55.1749 12.0065 136.7488 0.0000 -0.8335 0.0000
# 4 0.0000 0.0000 0.0000 26.2545 0.0000 -8.1689
# 5 -15.1273 -0.8565 -0.8335 0.0000 31.4831 0.0000
# 6 0.0000 0.0000 0.0000 -8.1689 0.0000 13.1997
#
#
#
# Elastic Compliance Matrix: (Units=1/GPa)
#
#
# Indices 1 2 3 4 5 6 
#
# 1 0.018498 -0.001543 -0.007275 0.000000 0.008654 0.000000
# 2 -0.001543 0.046568 -0.003463 0.000000 0.000434 0.000000
# 3 -0.007275 -0.003463 0.010532 0.000000 -0.003311 0.000000
# 4 0.000000 0.000000 0.000000 0.047172 0.000000 0.029193
# 5 0.008654 0.000434 -0.003311 0.000000 0.035845 0.000000
# 6 0.000000 0.000000 0.000000 0.029193 0.000000 0.093826
#
#
# Mechanical properties :
#
#
# Convention : Reuss Voigt Hill
#
# Bulk Modulus (GPa) = 19.59462 43.46196 31.52829
# Shear Modulus (GPa) = 17.00590 25.42663 21.21627
#
# Velocity S-wave (km/s) = 2.91779 3.56779 3.25903
# Velocity P-wave (km/s) = 4.60009 6.22335 5.47225
#
# Compressibility (1/GPa) = 0.05103442
#
# Stress axis : x y z
#
# Youngs Moduli (GPa) = 54.05983 21.47406 94.94873
#
# Poissons Ratio (x) = 0.03313 0.69078
# Poissons Ratio (y) = 0.08341 0.32885
# Poissons Ratio (z) = 0.39330 0.07437
#
# Static dielectric constant tensor:
#      x y z
#    x 3.907150 0.000000 -0.120440 
#    y 0.000000 3.256830 0.000000 
#    z -0.120440 0.000000 3.744640 
# 
# 
# High freq. dielectric constant tensor:
#      x y z
#    x 1.787260 0.000000 -0.007500 
#    y 0.000000 1.748060 0.000000 
#    z -0.007500 0.000000 1.790340 
# 
# From -- ./inp_files/63772.got.cif
#   From: 2010.06.25/outbox.cif.g09.slc.cpg/sg10_32_cif.got.tgz:63772.got - 2010.06.27 22:07:45.
