data_PCOD8066274
_publ_section_title
;
Structure prediction by ZEFSAII (Michael W. Deem and Ramdas Pophale) SiO2 
 PCOD8066274
Probable space group: P 2/M
;
_chemical_formula_sum "Si O2"
_cell_formula_units_Z 32
_cell_length_a 25.445992
_cell_length_b 8.631698
_cell_length_c 14.772340
_cell_angle_alpha 90.000000
_cell_angle_beta 149.782290
_cell_angle_gamma 90.000000
_cell_volume 1632.979338
_symmetry_space_group_name_H-M "P 2/M"
_symmetry_group_IT_number 10
_symmetry_cell_setting 'monoclinic'
loop_
_space_group_symop_operation_xyz
x,y,z
-x,y,-z
-x,-y,-z
x,-y,z
loop_
_atom_site_type_symbol
_atom_site_label
_atom_site_fract_x
_atom_site_fract_y
_atom_site_fract_z
Si Si1 0.711537 0.178339 0.645594
Si Si2 0.268079 0.317969 0.971404
Si Si3 0.101037 0.182173 0.592763
Si Si4 0.939218 0.683383 0.660184
Si Si5 0.443662 0.322026 0.822791
Si Si6 0.826337 0.681524 0.983231
Si Si7 0.231816 0.818940 0.471172
Si Si8 0.482549 0.178938 0.245732
O O1 0.761880 0.279805 0.798332
O O2 0.768344 0.219855 0.635870
O O3 0.588695 0.218283 0.457688
O O4 0.728509 0.000000 0.695513
O O5 0.247224 0.500000 0.929214
O O6 0.230008 0.251978 0.011417
O O7 0.390881 0.284659 0.148316
O O8 0.206295 0.227425 0.801515
O O9 0.103623 0.271236 0.501823
O O10 0.000000 0.235356 0.500000
O O11 0.099039 0.000000 0.570998
O O12 0.930792 0.500000 0.659965
O O13 0.876501 0.766721 0.646817
O O14 0.056568 0.747978 0.846676
O O15 0.452476 0.500000 0.805039
O O16 0.323243 0.276028 0.656473
O O17 0.499693 0.213831 0.833140
O O18 0.500000 0.290964 0.000000
O O19 0.833008 0.500000 0.003184
O O20 0.251906 0.000000 0.516536
O O21 0.452000 0.000000 0.211158
#
# Coordination Sequence:
#
# PCOD8066274 Si02
#       8
#     4   4   4   4   4   4   4   4
#     4   9  21  41  63  85 117 157 196 248 304 351
#     4  11  23  40  61  88 122 160 200 245 297 356
#     4  11  23  39  61  88 119 158 199 245 299 354
#     4  11  23  40  61  88 122 160 200 245 297 356
#     4  10  21  37  58  85 116 155 198 241 297 356
#     4  10  23  40  61  88 118 156 201 249 300 351
#     4  10  22  40  60  87 120 156 199 246 298 352
#     4  10  22  40  60  87 120 156 199 246 298 352
#
# _framework density 19.596084000000001
#
# number of rings (size 3 to 8) (size 9 to 14) (size 15 to 20)
#    0.000    1.750    1.250    3.000    1.750    7.500 
#    0.000    5.000    0.000    0.000    0.000    0.000 
#    0.000    0.000    0.000    0.000    0.000    0.000 
#
# Total GULP energy -396954.380088 kJ/mol
# GULP energy per Si atom -12404.824378 kJ/mol
# Density = 1.955148 g / cm^3
# Si number density = 19.596084 Si / 1000 Ang^3
#
#
#
# Elastic Constant Matrix: (Units=GPa)
#
#
# Indices 1 2 3 4 5 6 
#
# 1 89.9183 14.3138 64.9960 0.0000 12.9612 0.0000
# 2 14.3138 27.3161 20.8174 0.0000 -8.7892 0.0000
# 3 64.9960 20.8174 116.5207 0.0000 -2.4705 0.0000
# 4 0.0000 0.0000 0.0000 23.6020 0.0000 5.6628
# 5 12.9612 -8.7892 -2.4705 0.0000 34.5562 0.0000
# 6 0.0000 0.0000 0.0000 5.6628 0.0000 29.0673
#
#
#
# Elastic Compliance Matrix: (Units=1/GPa)
#
#
# Indices 1 2 3 4 5 6 
#
# 1 0.021768 -0.006225 -0.011254 0.000000 -0.010553 0.000000
# 2 -0.006225 0.048126 -0.004824 0.000000 0.014231 0.000000
# 3 -0.011254 -0.004824 0.015809 0.000000 0.004124 0.000000
# 4 0.000000 0.000000 0.000000 0.044447 0.000000 -0.008659
# 5 -0.010553 0.014231 0.004124 0.000000 0.036811 0.000000
# 6 0.000000 0.000000 0.000000 -0.008659 0.000000 0.036090
#
#
# Mechanical properties :
#
#
# Convention : Reuss Voigt Hill
#
# Bulk Modulus (GPa) = 24.33302 48.22328 36.27815
# Shear Modulus (GPa) = 19.13111 26.35364 22.74237
#
# Velocity S-wave (km/s) = 3.12792 3.67119 3.41039
# Velocity P-wave (km/s) = 5.04871 6.52933 5.83617
#
# Compressibility (1/GPa) = 0.04109641
#
# Stress axis : x y z
#
# Youngs Moduli (GPa) = 45.93915 20.77896 63.25575
#
# Poissons Ratio (x) = 0.12936 0.71187
# Poissons Ratio (y) = 0.28599 0.30513
# Poissons Ratio (z) = 0.51699 0.10023
#
# Static dielectric constant tensor:
#      x y z
#    x 3.639860 0.000000 0.150430 
#    y 0.000000 3.527570 0.000000 
#    z 0.150430 0.000000 3.579960 
# 
# 
# High freq. dielectric constant tensor:
#      x y z
#    x 1.768580 0.000000 0.004630 
#    y 0.000000 1.767580 0.000000 
#    z 0.004630 0.000000 1.767200 
# 
# From -- ./inp_files/71654.got.cif
#   From: 2010.06.25/outbox.cif.g09.slc.cpg/sg10_36_cif.got.tgz:71654.got - 2010.06.27 22:07:45.
