data_PCOD8066862
_publ_section_title
;
Structure prediction by ZEFSAII (Michael W. Deem and Ramdas Pophale) SiO2 
 PCOD8066862
Probable space group: P 2/M
;
_chemical_formula_sum "Si O2"
_cell_formula_units_Z 28
_cell_length_a 8.662715
_cell_length_b 15.365229
_cell_length_c 13.971564
_cell_angle_alpha 90.000000
_cell_angle_beta 47.719405
_cell_angle_gamma 90.000000
_cell_volume 1375.900546
_symmetry_space_group_name_H-M "P 2/M"
_symmetry_group_IT_number 10
_symmetry_cell_setting 'monoclinic'
loop_
_space_group_symop_operation_xyz
x,y,z
-x,y,-z
-x,-y,-z
x,-y,z
loop_
_atom_site_type_symbol
_atom_site_label
_atom_site_fract_x
_atom_site_fract_y
_atom_site_fract_z
Si Si1 0.561884 0.500000 0.613394
Si Si2 0.150322 0.900770 0.725262
Si Si3 0.705336 0.767977 0.464852
Si Si4 0.107646 0.674060 0.232484
Si Si5 0.225049 0.784841 0.878507
Si Si6 0.722239 0.168368 0.942062
Si Si7 0.620590 0.320837 0.689896
Si Si8 0.129737 0.500000 0.695571
O O1 0.625549 0.416364 0.646223
O O2 0.310835 0.500000 0.700989
O O3 0.723721 0.500000 0.458542
O O4 0.265087 0.869496 0.578753
O O5 0.232627 0.840399 0.778043
O O6 0.900295 0.891146 0.819329
O O7 0.211755 0.000000 0.718874
O O8 0.500000 0.727739 0.500000
O O9 0.709021 0.750695 0.576985
O O10 0.891093 0.721266 0.334675
O O11 0.238743 0.728536 0.098769
O O12 0.237180 0.676979 0.276280
O O13 0.037497 0.578657 0.227286
O O14 0.383711 0.704607 0.810887
O O15 0.282802 0.848293 0.942145
O O16 0.000000 0.744833 0.000000
O O17 0.500000 0.135239 0.000000
#
# Coordination Sequence:
#
# PCOD8066862 Si02
#       8
#     2   4   4   4   4   4   4   2
#     4  11  25  35  63  91 130 163 216 257 301 354
#     4  10  23  41  65  95 122 155 205 260 313 373
#     4  11  21  37  63  90 124 163 202 251 314 372
#     4  11  23  38  64  88 128 161 214 256 308 358
#     4  10  22  39  66  87 123 162 210 251 305 371
#     4  10  21  41  65  91 118 167 205 253 310 368
#     4  12  22  40  61  95 124 168 208 256 307 368
#     4  11  23  39  57  93 124 166 210 266 301 357
#
# _framework density 20.350308999999999
#
# number of rings (size 3 to 8) (size 9 to 14) (size 15 to 20)
#    0.000    1.286    4.286    1.714    4.000    3.714 
#    0.000    1.429    0.000    6.857    0.000    0.000 
#    0.000    0.000    0.000    0.000    0.000    0.000 
#
# Total GULP energy -346948.647138 kJ/mol
# GULP energy per Si atom -12391.023112 kJ/mol
# Density = 2.030399 g / cm^3
# Si number density = 20.350309 Si / 1000 Ang^3
#
#
#
# Elastic Constant Matrix: (Units=GPa)
#
#
# Indices 1 2 3 4 5 6 
#
# 1 126.8309 31.1619 23.7946 0.0000 -4.8303 0.0000
# 2 31.1619 95.0094 24.9761 0.0000 1.1029 0.0000
# 3 23.7946 24.9761 62.2654 0.0000 4.2834 0.0000
# 4 0.0000 0.0000 0.0000 15.4429 0.0000 7.6569
# 5 -4.8303 1.1029 4.2834 0.0000 34.1679 0.0000
# 6 0.0000 0.0000 0.0000 7.6569 0.0000 64.8051
#
#
#
# Elastic Compliance Matrix: (Units=1/GPa)
#
#
# Indices 1 2 3 4 5 6 
#
# 1 0.009004 -0.002278 -0.002642 0.000000 0.001678 0.000000
# 2 -0.002278 0.012344 -0.004066 0.000000 -0.000211 0.000000
# 3 -0.002642 -0.004066 0.018881 0.000000 -0.002609 0.000000
# 4 0.000000 0.000000 0.000000 0.068784 0.000000 -0.008127
# 5 0.001678 -0.000211 -0.002609 0.000000 0.029838 0.000000
# 6 0.000000 0.000000 0.000000 -0.008127 0.000000 0.016391
#
#
# Mechanical properties :
#
#
# Convention : Reuss Voigt Hill
#
# Bulk Modulus (GPa) = 44.93421 49.33011 47.13216
# Shear Modulus (GPa) = 27.68029 36.49473 32.08751
#
# Velocity S-wave (km/s) = 3.69208 4.23936 3.97515
# Velocity P-wave (km/s) = 6.34851 6.94665 6.65430
#
# Compressibility (1/GPa) = 0.02225476
#
# Stress axis : x y z
#
# Youngs Moduli (GPa) = 111.06358 81.01213 52.96409
#
# Poissons Ratio (x) = 0.18454 0.13996
# Poissons Ratio (y) = 0.25300 0.21537
# Poissons Ratio (z) = 0.29348 0.32943
#
# Static dielectric constant tensor:
#      x y z
#    x 3.934480 0.000000 -0.077090 
#    y 0.000000 3.663230 0.000000 
#    z -0.077090 0.000000 3.947000 
# 
# 
# High freq. dielectric constant tensor:
#      x y z
#    x 1.809680 0.000000 -0.010080 
#    y 0.000000 1.770410 0.000000 
#    z -0.010080 0.000000 1.797100 
# 
# From -- ./inp_files/29644.got.cif
#   From: 2010.06.25/outbox.cif.g09.slc.cpg/sg10_15_cif.got.tgz:29644.got - 2010.06.27 22:07:45.
