data_PCOD8066397
_publ_section_title
;
Structure prediction by ZEFSAII (Michael W. Deem and Ramdas Pophale) SiO2 
 PCOD8066397
Probable space group: P 2/M
;
_chemical_formula_sum "Si O2"
_cell_formula_units_Z 22
_cell_length_a 21.370957
_cell_length_b 12.271499
_cell_length_c 21.370951
_cell_angle_alpha 90.000000
_cell_angle_beta 13.971045
_cell_angle_gamma 90.000000
_cell_volume 1353.129607
_symmetry_space_group_name_H-M "P 2/M"
_symmetry_group_IT_number 10
_symmetry_cell_setting 'monoclinic'
loop_
_space_group_symop_operation_xyz
x,y,z
-x,y,-z
-x,-y,-z
x,-y,z
loop_
_atom_site_type_symbol
_atom_site_label
_atom_site_fract_x
_atom_site_fract_y
_atom_site_fract_z
Si Si1 0.571261 0.870735 0.071243
Si Si2 0.964283 0.130106 0.464297
Si Si3 0.819442 0.194201 0.319436
Si Si4 0.643597 0.129941 0.143601
Si Si5 0.769808 0.372716 0.269807
Si Si6 0.228857 0.000000 0.728855
O O1 0.303206 0.823721 0.304149
O O2 0.607352 0.833637 0.107349
O O3 0.569160 0.000000 0.069147
O O4 0.804172 0.823719 0.803186
O O5 0.000000 0.173890 0.500000
O O6 0.963999 0.000000 0.464015
O O7 0.591493 0.181389 0.590292
O O8 0.803427 0.312656 0.303437
O O9 0.791891 0.106883 0.291886
O O10 0.090311 0.181395 0.091470
O O11 0.647955 0.000000 0.147944
O O12 0.500000 0.337874 0.500000
O O13 0.777635 0.500000 0.277637
O O14 0.000000 0.337872 0.000000
O O15 0.500000 0.000000 0.500000
O O16 0.000000 0.000000 0.000000
#
# Coordination Sequence:
#
# PCOD8066397 Si02
#       6
#     4   4   4   4   4   2
#     4   9  17  26  39  55  81 117 151 188 223 258
#     4   9  15  24  37  56  78 109 155 199 225 247
#     4  12  21  34  50  69  93 121 154 190 232 280
#     4  11  20  33  45  66  95 126 158 187 225 278
#     4  10  21  38  56  72  90 115 151 195 240 287
#     4  12  22  32  46  66  92 114 141 184 231 270
#
# _framework density 16.258604999999999
#
# number of rings (size 3 to 8) (size 9 to 14) (size 15 to 20)
#    0.000    1.636    1.818    4.909    0.000    5.091 
#    0.000    0.000    0.000    0.000    0.000    0.000 
#    0.000    0.000    0.000    0.000    0.000   63.636 
#
# Total GULP energy -272864.380289 kJ/mol
# GULP energy per Si atom -12402.926377 kJ/mol
# Density = 1.622160 g / cm^3
# Si number density = 16.258605 Si / 1000 Ang^3
#
#
#
# Elastic Constant Matrix: (Units=GPa)
#
#
# Indices 1 2 3 4 5 6 
#
# 1 160.8916 37.2774 98.2310 0.0000 -2.1350 0.0000
# 2 37.2774 39.1597 25.8314 0.0000 1.0079 0.0000
# 3 98.2310 25.8314 188.7359 0.0000 -0.3255 0.0000
# 4 0.0000 0.0000 0.0000 10.7052 0.0000 -0.0328
# 5 -2.1350 1.0079 -0.3255 0.0000 43.2653 0.0000
# 6 0.0000 0.0000 0.0000 -0.0328 0.0000 10.2960
#
#
#
# Elastic Compliance Matrix: (Units=1/GPa)
#
#
# Indices 1 2 3 4 5 6 
#
# 1 0.010677 -0.007163 -0.004576 0.000000 0.000659 0.000000
# 2 -0.007163 0.032896 -0.000776 0.000000 -0.001126 0.000000
# 3 -0.004576 -0.000776 0.007786 0.000000 -0.000149 0.000000
# 4 0.000000 0.000000 0.000000 0.093413 0.000000 0.000297
# 5 0.000659 -0.001126 -0.000149 0.000000 0.023171 0.000000
# 6 0.000000 0.000000 0.000000 0.000297 0.000000 0.097126
#
#
# Mechanical properties :
#
#
# Convention : Reuss Voigt Hill
#
# Bulk Modulus (GPa) = 37.97995 79.05186 58.51590
# Shear Modulus (GPa) = 16.72934 28.01646 22.37290
#
# Velocity S-wave (km/s) = 3.21121 4.15562 3.71356
# Velocity P-wave (km/s) = 6.09588 8.47070 7.37945
#
# Compressibility (1/GPa) = 0.02632968
#
# Stress axis : x y z
#
# Youngs Moduli (GPa) = 93.65625 30.39890 128.43680
#
# Poissons Ratio (x) = 0.21774 0.58769
# Poissons Ratio (y) = 0.67083 0.09970
# Poissons Ratio (z) = 0.42855 0.02360
#
# Static dielectric constant tensor:
#      x y z
#    x 3.238400 0.000000 -0.012060 
#    y 0.000000 2.603440 0.000000 
#    z -0.012060 0.000000 3.375060 
# 
# 
# High freq. dielectric constant tensor:
#      x y z
#    x 1.637610 0.000000 -0.001500 
#    y 0.000000 1.558450 0.000000 
#    z -0.001500 0.000000 1.654620 
# 
# From -- ./inp_files/11018.got.cif
#   From: 2010.06.25/outbox.cif.g09.slc.cpg/sg10_6_cif.got.tgz:11018.got - 2010.06.27 22:07:45.
