data_PCOD8066369
_publ_section_title
;
Structure prediction by ZEFSAII (Michael W. Deem and Ramdas Pophale) SiO2 
 PCOD8066369
Probable space group: P 2/M
;
_chemical_formula_sum "Si O2"
_cell_formula_units_Z 24
_cell_length_a 8.199057
_cell_length_b 16.636605
_cell_length_c 13.859258
_cell_angle_alpha 90.000000
_cell_angle_beta 139.333329
_cell_angle_gamma 90.000000
_cell_volume 1231.935148
_symmetry_space_group_name_H-M "P 2/M"
_symmetry_group_IT_number 10
_symmetry_cell_setting 'monoclinic'
loop_
_space_group_symop_operation_xyz
x,y,z
-x,y,-z
-x,-y,-z
x,-y,z
loop_
_atom_site_type_symbol
_atom_site_label
_atom_site_fract_x
_atom_site_fract_y
_atom_site_fract_z
Si Si1 0.758113 0.094345 0.063524
Si Si2 0.123301 0.341606 0.400240
Si Si3 0.731892 0.793142 0.873199
Si Si4 0.290477 0.500000 0.151085
Si Si5 0.774216 0.500000 0.656250
Si Si6 0.386811 0.652524 0.714214
Si Si7 0.752757 0.819157 0.662084
O O1 0.995877 0.126600 0.232776
O O2 0.791019 0.000000 0.067251
O O3 0.500000 0.117431 0.000000
O O4 0.743700 0.130247 0.949325
O O5 0.089198 0.420171 0.319572
O O6 0.345110 0.348728 0.579278
O O7 0.180498 0.266427 0.356611
O O8 0.868649 0.338756 0.344049
O O9 0.526023 0.731042 0.815096
O O10 0.674002 0.816737 0.737961
O O11 0.000000 0.748765 0.000000
O O12 0.267061 0.500000 0.251921
O O13 0.445914 0.576155 0.180820
O O14 0.000000 0.500000 0.000000
O O15 0.500000 0.500000 0.500000
O O16 0.500000 0.855995 0.500000
#
# Coordination Sequence:
#
# PCOD8066369 Si02
#       7
#     4   4   4   2   2   4   4
#     4  10  23  44  66  90 124 165 202 242 306 377
#     4  11  22  36  62  88 119 159 206 252 304 362
#     4  10  21  37  62  88 120 161 198 246 301 365
#     4  12  25  39  57  85 122 159 207 260 303 349
#     4  12  21  39  59  81 114 160 205 248 292 355
#     4  11  21  38  58  88 121 158 205 253 305 358
#     4  11  21  38  63  95 125 154 206 256 302 359
#
# _framework density 19.481544
#
# number of rings (size 3 to 8) (size 9 to 14) (size 15 to 20)
#    0.000    1.167    3.333    3.500    0.000    6.000 
#    0.000    5.000    0.000    2.000    0.000    0.000 
#    0.000    0.000    0.000    0.000    0.000    0.000 
#
# Total GULP energy -297373.965513 kJ/mol
# GULP energy per Si atom -12390.581896 kJ/mol
# Density = 1.943720 g / cm^3
# Si number density = 19.481544 Si / 1000 Ang^3
#
#
#
# Elastic Constant Matrix: (Units=GPa)
#
#
# Indices 1 2 3 4 5 6 
#
# 1 95.0275 43.1360 46.5295 0.0000 7.0698 0.0000
# 2 43.1360 110.1815 44.5331 0.0000 13.9039 0.0000
# 3 46.5295 44.5331 127.6058 0.0000 18.6573 0.0000
# 4 0.0000 0.0000 0.0000 34.3170 0.0000 -0.0378
# 5 7.0698 13.9039 18.6573 0.0000 34.2617 0.0000
# 6 0.0000 0.0000 0.0000 -0.0378 0.0000 35.9562
#
#
#
# Elastic Compliance Matrix: (Units=1/GPa)
#
#
# Indices 1 2 3 4 5 6 
#
# 1 0.014223 -0.004108 -0.003876 0.000000 0.000843 0.000000
# 2 -0.004108 0.011950 -0.002268 0.000000 -0.002767 0.000000
# 3 -0.003876 -0.002268 0.010637 0.000000 -0.004072 0.000000
# 4 0.000000 0.000000 0.000000 0.029140 0.000000 0.000031
# 5 0.000843 -0.002767 -0.004072 0.000000 0.032354 0.000000
# 6 0.000000 0.000000 0.000000 0.000031 0.000000 0.027812
#
#
# Mechanical properties :
#
#
# Convention : Reuss Voigt Hill
#
# Bulk Modulus (GPa) = 61.32640 66.80134 64.06387
# Shear Modulus (GPa) = 32.88296 34.14806 33.51551
#
# Velocity S-wave (km/s) = 4.11287 4.19124 4.15224
# Velocity P-wave (km/s) = 7.35539 7.60171 7.47956
#
# Compressibility (1/GPa) = 0.01630619
#
# Stress axis : x y z
#
# Youngs Moduli (GPa) = 70.30794 83.68136 94.01376
#
# Poissons Ratio (x) = 0.34378 0.36437
# Poissons Ratio (y) = 0.28884 0.21322
# Poissons Ratio (z) = 0.27250 0.18978
#
# Static dielectric constant tensor:
#      x y z
#    x 3.766740 0.000000 0.072310 
#    y 0.000000 4.600060 0.000000 
#    z 0.072310 0.000000 3.840140 
# 
# 
# High freq. dielectric constant tensor:
#      x y z
#    x 1.774650 0.000000 0.010260 
#    y 0.000000 1.748400 0.000000 
#    z 0.010260 0.000000 1.768680 
# 
# From -- ./inp_files/61978.got.cif
#   From: 2010.06.25/outbox.cif.g09.slc.cpg/sg10_31_cif.got.tgz:61978.got - 2010.06.27 22:07:45.
