data_PCOD8066141
_publ_section_title
;
Structure prediction by ZEFSAII (Michael W. Deem and Ramdas Pophale) SiO2 
 PCOD8066141
Probable space group: P 2/M
;
_chemical_formula_sum "Si O2"
_cell_formula_units_Z 32
_cell_length_a 15.719912
_cell_length_b 8.840142
_cell_length_c 15.631468
_cell_angle_alpha 90.000000
_cell_angle_beta 55.078860
_cell_angle_gamma 90.000000
_cell_volume 1781.113405
_symmetry_space_group_name_H-M "P 2/M"
_symmetry_group_IT_number 10
_symmetry_cell_setting 'monoclinic'
loop_
_space_group_symop_operation_xyz
x,y,z
-x,y,-z
-x,-y,-z
x,-y,z
loop_
_atom_site_type_symbol
_atom_site_label
_atom_site_fract_x
_atom_site_fract_y
_atom_site_fract_z
Si Si1 0.134065 0.677913 0.088519
Si Si2 0.924209 0.824770 0.233097
Si Si3 0.723970 0.678586 0.421109
Si Si4 0.622180 0.824449 0.321267
Si Si5 0.443176 0.678894 0.163217
Si Si6 0.170893 0.828129 0.893471
Si Si7 0.347584 0.678463 0.041671
Si Si8 0.406443 0.178493 0.362938
O O1 0.123067 0.500000 0.108264
O O2 0.237914 0.744902 0.073038
O O3 0.036904 0.758290 0.189852
O O4 0.137210 0.713289 0.986130
O O5 0.839206 0.738975 0.338118
O O6 0.903090 0.799917 0.144789
O O7 0.918971 0.000000 0.260684
O O8 0.726900 0.500000 0.422338
O O9 0.643439 0.730936 0.394703
O O10 0.687206 0.742304 0.533258
O O11 0.710631 0.794038 0.200217
O O12 0.514759 0.769764 0.342800
O O13 0.620854 0.000000 0.348926
O O14 0.441770 0.500000 0.181930
O O15 0.366979 0.722971 0.128950
O O16 0.401795 0.768381 0.268278
O O17 0.558903 0.737032 0.072602
O O18 0.158306 0.000000 0.934091
O O19 0.346616 0.500000 0.033396
O O20 0.392650 0.000000 0.375369
#
# Coordination Sequence:
#
# PCOD8066141 Si02
#       8
#     4   4   4   4   4   4   4   4
#     4  11  20  30  49  77 103 130 169 212 251 295
#     4  10  21  37  52  68  98 138 172 207 254 301
#     4  11  22  35  52  74  99 131 173 215 250 291
#     4   9  19  34  50  71 105 142 169 201 249 299
#     4   9  17  34  56  76 102 137 171 202 245 299
#     4   9  18  32  48  69 100 137 171 202 244 297
#     4   8  17  33  53  77 106 135 163 204 255 299
#     4  11  21  33  51  76 105 136 169 206 251 299
#
# _framework density 17.966290000000001
#
# number of rings (size 3 to 8) (size 9 to 14) (size 15 to 20)
#    0.000    2.250    0.000    5.250    0.000    6.500 
#    0.000    3.125    0.000    0.750    0.000    5.250 
#    0.000    0.000    0.000    0.000    0.000    0.000 
#
# Total GULP energy -396871.746526 kJ/mol
# GULP energy per Si atom -12402.242079 kJ/mol
# Density = 1.792540 g / cm^3
# Si number density = 17.966290 Si / 1000 Ang^3
#
#
#
# Elastic Constant Matrix: (Units=GPa)
#
#
# Indices 1 2 3 4 5 6 
#
# 1 93.1041 33.8817 53.3189 0.0000 -10.6754 0.0000
# 2 33.8817 80.4307 45.8663 0.0000 -0.4350 0.0000
# 3 53.3189 45.8663 114.6412 0.0000 2.6501 0.0000
# 4 0.0000 0.0000 0.0000 21.4131 0.0000 -6.3518
# 5 -10.6754 -0.4350 2.6501 0.0000 17.5202 0.0000
# 6 0.0000 0.0000 0.0000 -6.3518 0.0000 21.1921
#
#
#
# Elastic Compliance Matrix: (Units=1/GPa)
#
#
# Indices 1 2 3 4 5 6 
#
# 1 0.017230 -0.003207 -0.006996 0.000000 0.011477 0.000000
# 2 -0.003207 0.016738 -0.005188 0.000000 -0.000754 0.000000
# 3 -0.006996 -0.005188 0.014203 0.000000 -0.006540 0.000000
# 4 0.000000 0.000000 0.000000 0.051258 0.000000 0.015363
# 5 0.011477 -0.000754 -0.006540 0.000000 0.065041 0.000000
# 6 0.000000 0.000000 0.000000 0.015363 0.000000 0.051792
#
#
# Mechanical properties :
#
#
# Convention : Reuss Voigt Hill
#
# Bulk Modulus (GPa) = 57.50202 61.58996 59.54599
# Shear Modulus (GPa) = 19.77531 22.36569 21.07050
#
# Velocity S-wave (km/s) = 3.32126 3.53210 3.42830
# Velocity P-wave (km/s) = 6.83979 7.14070 6.99186
#
# Compressibility (1/GPa) = 0.01739069
#
# Stress axis : x y z
#
# Youngs Moduli (GPa) = 58.03813 59.74338 70.40542
#
# Poissons Ratio (x) = 0.19157 0.49255
# Poissons Ratio (y) = 0.18611 0.36526
# Poissons Ratio (z) = 0.40603 0.30995
#
# Static dielectric constant tensor:
#      x y z
#    x 3.489200 0.000000 -0.171900 
#    y 0.000000 3.170240 0.000000 
#    z -0.171900 0.000000 3.274640 
# 
# 
# High freq. dielectric constant tensor:
#      x y z
#    x 1.682870 0.000000 -0.013810 
#    y 0.000000 1.688550 0.000000 
#    z -0.013810 0.000000 1.692540 
# 
# From -- ./inp_files/66523.got.cif
#   From: 2010.06.25/outbox.cif.g09.slc.cpg/sg10_34_cif.got.tgz:66523.got - 2010.06.27 22:07:45.
