data_PCOD8066215
_publ_section_title
;
Structure prediction by ZEFSAII (Michael W. Deem and Ramdas Pophale) SiO2 
 PCOD8066215
Probable space group: P 2/M
;
_chemical_formula_sum "Si O2"
_cell_formula_units_Z 32
_cell_length_a 9.869239
_cell_length_b 13.623122
_cell_length_c 16.609000
_cell_angle_alpha 90.000000
_cell_angle_beta 126.456435
_cell_angle_gamma 90.000000
_cell_volume 1796.084121
_symmetry_space_group_name_H-M "P 2/M"
_symmetry_group_IT_number 10
_symmetry_cell_setting 'monoclinic'
loop_
_space_group_symop_operation_xyz
x,y,z
-x,y,-z
-x,-y,-z
x,-y,z
loop_
_atom_site_type_symbol
_atom_site_label
_atom_site_fract_x
_atom_site_fract_y
_atom_site_fract_z
Si Si1 0.407439 0.615558 0.657439
Si Si2 0.314973 0.388342 0.912851
Si Si3 0.997142 0.887216 0.404581
Si Si4 0.825608 0.613664 0.575608
Si Si5 0.312020 0.112784 0.404581
Si Si6 0.738481 0.706269 0.710111
Si Si7 0.818259 0.706269 0.289889
Si Si8 0.989270 0.388342 0.087149
O O1 0.429882 0.500000 0.679882
O O2 0.290612 0.638549 0.540612
O O3 0.586598 0.665941 0.709279
O O4 0.331960 0.665941 0.709279
O O5 0.322525 0.500000 0.881415
O O6 0.228093 0.316863 0.818073
O O7 0.205267 0.384746 0.955267
O O8 0.500000 0.349415 0.000000
O O9 0.849349 0.822964 0.310951
O O10 0.000000 0.862162 0.500000
O O11 0.179541 0.862329 0.429541
O O12 0.948511 0.000000 0.372588
O O13 0.848698 0.500000 0.598697
O O14 0.735587 0.655996 0.622051
O O15 0.008514 0.655997 0.622051
O O16 0.500000 0.137838 0.500000
O O17 0.272553 0.177036 0.310951
O O18 0.296665 0.000000 0.372588
O O19 0.908053 0.683137 0.818073
O O20 0.059696 0.500000 0.118585
O O21 0.000000 0.349415 0.000000
#
# Coordination Sequence:
#
# PCOD8066215 Si02
#       8
#     4   4   4   4   4   4   4   4
#     4  11  24  34  50  82 118 151 186 224 270 341
#     4  10  21  37  57  80 108 144 189 237 284 337
#     4  10  21  37  58  84 113 148 191 236 282 335
#     4  11  20  34  52  76 112 149 184 218 270 341
#     4  10  21  37  58  84 113 148 191 236 282 335
#     4  12  22  36  56  80 111 153 188 230 284 334
#     4  12  22  36  56  80 111 153 188 230 284 334
#     4  10  21  37  57  80 108 144 189 237 284 337
#
# _framework density 17.816538000000001
#
# number of rings (size 3 to 8) (size 9 to 14) (size 15 to 20)
#    0.000    1.250    2.500    4.500    3.500    2.000 
#    0.000    0.000    0.000    0.750    0.000    0.000 
#    0.000    0.000    0.000    0.000    0.000    0.000 
#
# Total GULP energy -396916.527170 kJ/mol
# GULP energy per Si atom -12403.641474 kJ/mol
# Density = 1.777599 g / cm^3
# Si number density = 17.816538 Si / 1000 Ang^3
#
#
#
# Elastic Constant Matrix: (Units=GPa)
#
#
# Indices 1 2 3 4 5 6 
#
# 1 122.5660 27.9633 32.1541 0.0000 -1.8704 0.0000
# 2 27.9633 77.5924 54.3286 0.0000 1.5769 0.0000
# 3 32.1541 54.3286 68.0981 0.0000 -1.3870 0.0000
# 4 0.0000 0.0000 0.0000 25.8113 0.0000 -0.0281
# 5 -1.8704 1.5769 -1.3870 0.0000 29.5957 0.0000
# 6 0.0000 0.0000 0.0000 -0.0281 0.0000 26.2803
#
#
#
# Elastic Compliance Matrix: (Units=1/GPa)
#
#
# Indices 1 2 3 4 5 6 
#
# 1 0.009332 -0.000664 -0.003867 0.000000 0.000444 0.000000
# 2 -0.000664 0.029454 -0.023240 0.000000 -0.002700 0.000000
# 3 -0.003867 -0.023240 0.035105 0.000000 0.002639 0.000000
# 4 0.000000 0.000000 0.000000 0.038743 0.000000 0.000041
# 5 0.000444 -0.002700 0.002639 0.000000 0.034084 0.000000
# 6 0.000000 0.000000 0.000000 0.000041 0.000000 0.038051
#
#
# Mechanical properties :
#
#
# Convention : Reuss Voigt Hill
#
# Bulk Modulus (GPa) = 54.50067 55.23872 54.86970
# Shear Modulus (GPa) = 20.28988 26.59149 23.44069
#
# Velocity S-wave (km/s) = 3.37831 3.86750 3.63115
# Velocity P-wave (km/s) = 6.77301 7.14247 6.96019
#
# Compressibility (1/GPa) = 0.01834840
#
# Stress axis : x y z
#
# Youngs Moduli (GPa) = 107.16138 33.95100 28.48591
#
# Poissons Ratio (x) = 0.02256 0.11016
# Poissons Ratio (y) = 0.07120 0.66201
# Poissons Ratio (z) = 0.41440 0.78902
#
# Static dielectric constant tensor:
#      x y z
#    x 3.424890 0.000000 -0.021360 
#    y 0.000000 3.400670 0.000000 
#    z -0.021360 0.000000 3.067780 
# 
# 
# High freq. dielectric constant tensor:
#      x y z
#    x 1.710710 0.000000 -0.002740 
#    y 0.000000 1.680030 0.000000 
#    z -0.002740 0.000000 1.664870 
# 
# From -- ./inp_files/51646.got.cif
#   From: 2010.06.25/outbox.cif.g09.slc.cpg/sg10_26_cif.got.tgz:51646.got - 2010.06.27 22:07:45.
