data_PCOD8066260
_publ_section_title
;
Structure prediction by ZEFSAII (Michael W. Deem and Ramdas Pophale) SiO2 
 PCOD8066260
Probable space group: P 2/M
;
_chemical_formula_sum "Si O2"
_cell_formula_units_Z 24
_cell_length_a 8.895099
_cell_length_b 8.996773
_cell_length_c 30.796579
_cell_angle_alpha 90.000000
_cell_angle_beta 149.976585
_cell_angle_gamma 90.000000
_cell_volume 1233.153935
_symmetry_space_group_name_H-M "P 2/M"
_symmetry_group_IT_number 10
_symmetry_cell_setting 'monoclinic'
loop_
_space_group_symop_operation_xyz
x,y,z
-x,y,-z
-x,-y,-z
x,-y,z
loop_
_atom_site_type_symbol
_atom_site_label
_atom_site_fract_x
_atom_site_fract_y
_atom_site_fract_z
Si Si1 0.837776 0.675863 0.086049
Si Si2 0.167937 0.175148 0.747852
Si Si3 0.855334 0.171095 0.417832
Si Si4 0.155765 0.827835 0.245120
Si Si5 0.801938 0.672908 0.908389
Si Si6 0.845161 0.325155 0.586749
O O1 0.829074 0.500000 0.086526
O O2 0.002259 0.733969 0.169435
O O3 0.013521 0.728838 0.087222
O O4 0.500000 0.740384 0.000000
O O5 0.504403 0.231166 0.837859
O O6 0.978178 0.222561 0.742389
O O7 0.017028 0.246572 0.668482
O O8 0.171518 0.000000 0.741935
O O9 0.505837 0.208497 0.333106
O O10 0.000000 0.207821 0.500000
O O11 0.006233 0.278789 0.421095
O O12 0.911885 0.000000 0.418716
O O13 0.091202 0.000000 0.220048
O O14 0.715321 0.500000 0.882820
O O15 0.000000 0.704159 0.000000
O O16 0.500000 0.273884 0.500000
O O17 0.877225 0.500000 0.601029
#
# Coordination Sequence:
#
# PCOD8066260 Si02
#       6
#     4   4   4   4   4   4
#     4  10  21  37  58  83 111 148 190 231 281 337
#     4  11  23  39  60  85 115 152 193 236 285 341
#     4  10  21  39  62  86 115 151 190 232 281 339
#     4  10  22  38  57  84 114 147 188 233 281 333
#     4  10  21  38  60  86 117 152 191 236 286 341
#     4  11  24  40  59  86 118 151 190 236 286 341
#
# _framework density 19.462291
#
# number of rings (size 3 to 8) (size 9 to 14) (size 15 to 20)
#    0.000    1.667    0.000    4.000    0.000   10.333 
#    0.000    0.000    0.000    0.000    0.000    0.000 
#    0.000    0.000    0.000    0.000    0.000    0.000 
#
# Total GULP energy -297739.944469 kJ/mol
# GULP energy per Si atom -12405.831020 kJ/mol
# Density = 1.941799 g / cm^3
# Si number density = 19.462291 Si / 1000 Ang^3
#
#
#
# Elastic Constant Matrix: (Units=GPa)
#
#
# Indices 1 2 3 4 5 6 
#
# 1 137.4269 40.0583 53.5950 0.0000 11.7776 0.0000
# 2 40.0583 45.1880 34.6722 0.0000 3.3031 0.0000
# 3 53.5950 34.6722 123.8816 -0.0002 2.1482 -0.0001
# 4 0.0000 0.0000 -0.0002 32.9429 0.0000 -5.0494
# 5 11.7776 3.3031 2.1482 0.0000 36.6855 0.0000
# 6 0.0000 0.0000 -0.0001 -5.0494 0.0000 35.8772
#
#
#
# Elastic Compliance Matrix: (Units=1/GPa)
#
#
# Indices 1 2 3 4 5 6 
#
# 1 0.010599 -0.007287 -0.002501 0.000000 -0.002600 0.000000
# 2 -0.007287 0.033350 -0.006177 0.000000 -0.000302 0.000000
# 3 -0.002501 -0.006177 0.010870 0.000000 0.000722 0.000000
# 4 0.000000 0.000000 0.000000 0.031025 0.000000 0.004366
# 5 -0.002600 -0.000302 0.000722 0.000000 0.028078 0.000000
# 6 0.000000 0.000000 0.000000 0.004366 0.000000 0.028487
#
#
# Mechanical properties :
#
#
# Convention : Reuss Voigt Hill
#
# Bulk Modulus (GPa) = 43.68432 62.57195 53.12814
# Shear Modulus (GPa) = 27.47726 32.97917 30.22821
#
# Velocity S-wave (km/s) = 3.76150 4.12092 3.94530
# Velocity P-wave (km/s) = 6.43113 7.40694 6.93622
#
# Compressibility (1/GPa) = 0.02289151
#
# Stress axis : x y z
#
# Youngs Moduli (GPa) = 94.35130 29.98456 91.99339
#
# Poissons Ratio (x) = 0.21849 0.23006
# Poissons Ratio (y) = 0.68750 0.56820
# Poissons Ratio (z) = 0.23596 0.18520
#
# Static dielectric constant tensor:
#      x y z
#    x 3.779350 0.000000 0.074390 
#    y 0.000000 3.489050 0.000000 
#    z 0.074390 0.000000 3.658220 
# 
# 
# High freq. dielectric constant tensor:
#      x y z
#    x 1.777700 0.000000 0.000980 
#    y 0.000000 1.752660 0.000000 
#    z 0.000980 0.000000 1.777560 
# 
# From -- ./inp_files/60291.got.cif
#   From: 2010.06.25/outbox.cif.g09.slc.cpg/sg10_31_cif.got.tgz:60291.got - 2010.06.27 22:07:45.
