data_PCOD8066543
_publ_section_title
;
Structure prediction by ZEFSAII (Michael W. Deem and Ramdas Pophale) SiO2 
 PCOD8066543
Probable space group: P 2/M
;
_chemical_formula_sum "Si O2"
_cell_formula_units_Z 28
_cell_length_a 21.467686
_cell_length_b 8.615694
_cell_length_c 14.438423
_cell_angle_alpha 90.000000
_cell_angle_beta 149.770404
_cell_angle_gamma 90.000000
_cell_volume 1344.515098
_symmetry_space_group_name_H-M "P 2/M"
_symmetry_group_IT_number 10
_symmetry_cell_setting 'monoclinic'
loop_
_space_group_symop_operation_xyz
x,y,z
-x,y,-z
-x,-y,-z
x,-y,z
loop_
_atom_site_type_symbol
_atom_site_label
_atom_site_fract_x
_atom_site_fract_y
_atom_site_fract_z
Si Si1 0.435760 0.321344 0.820938
Si Si2 0.875200 0.181065 0.789218
Si Si3 0.827321 0.821276 0.520651
Si Si4 0.616116 0.178720 0.749477
Si Si5 0.351548 0.680470 0.395798
Si Si6 0.877660 0.319403 0.396858
Si Si7 0.652952 0.821206 0.000323
O O1 0.394358 0.500000 0.761515
O O2 0.317508 0.213689 0.657440
O O3 0.500000 0.282047 0.000000
O O4 0.532654 0.282887 0.864983
O O5 0.891293 0.217381 0.700952
O O6 0.760919 0.277761 0.681830
O O7 0.848884 0.000000 0.772935
O O8 0.000000 0.235815 0.000000
O O9 0.892241 0.719363 0.524168
O O10 0.845792 0.000000 0.518141
O O11 0.681868 0.280080 0.754127
O O12 0.472649 0.222972 0.579214
O O13 0.623967 0.000000 0.729688
O O14 0.688993 0.207302 0.939320
O O15 0.381547 0.500000 0.444206
O O16 0.849107 0.500000 0.347291
O O17 0.764441 0.224024 0.210069
O O18 0.000000 0.268488 0.500000
O O19 0.618906 0.000000 0.974497
#
# Coordination Sequence:
#
# PCOD8066543 Si02
#       7
#     4   4   4   4   4   4   4
#     4  11  22  36  59  90 125 161 193 239 304 361
#     4  10  23  43  64  87 119 160 204 250 301 356
#     4  11  23  40  65  92 119 156 203 253 299 352
#     4  10  21  38  61  88 121 159 197 243 300 357
#     4  11  22  37  60  91 122 155 198 248 301 356
#     4  11  25  43  61  84 120 161 197 241 298 358
#     4  11  23  38  61  91 119 155 203 248 292 352
#
# _framework density 20.825351999999999
#
# number of rings (size 3 to 8) (size 9 to 14) (size 15 to 20)
#    0.000    1.286    1.429    5.143    0.000   10.000 
#    0.000    4.286    0.000    0.000    0.000    0.000 
#    0.000    0.000    0.000    0.000    0.000    0.000 
#
# Total GULP energy -347338.106682 kJ/mol
# GULP energy per Si atom -12404.932382 kJ/mol
# Density = 2.077795 g / cm^3
# Si number density = 20.825352 Si / 1000 Ang^3
#
#
#
# Elastic Constant Matrix: (Units=GPa)
#
#
# Indices 1 2 3 4 5 6 
#
# 1 113.6391 17.3567 38.5668 0.0000 -6.9288 0.0000
# 2 17.3567 44.0216 14.2494 0.0000 -7.6593 0.0000
# 3 38.5668 14.2494 70.1589 0.0000 -12.2324 0.0000
# 4 0.0000 0.0000 0.0000 11.3085 0.0000 0.9300
# 5 -6.9288 -7.6593 -12.2324 0.0000 36.3707 0.0000
# 6 0.0000 0.0000 0.0000 0.9300 0.0000 22.9049
#
#
#
# Elastic Compliance Matrix: (Units=1/GPa)
#
#
# Indices 1 2 3 4 5 6 
#
# 1 0.011086 -0.002608 -0.005621 0.000000 -0.000328 0.000000
# 2 -0.002608 0.025400 -0.003058 0.000000 0.003823 0.000000
# 3 -0.005621 -0.003058 0.018766 0.000000 0.004597 0.000000
# 4 0.000000 0.000000 0.000000 0.088725 0.000000 -0.003602
# 5 -0.000328 0.003823 0.004597 0.000000 0.029783 0.000000
# 6 0.000000 0.000000 0.000000 -0.003602 0.000000 0.043805
#
#
# Mechanical properties :
#
#
# Convention : Reuss Voigt Hill
#
# Bulk Modulus (GPa) = 30.60388 40.90725 35.75556
# Shear Modulus (GPa) = 19.91765 24.62659 22.27212
#
# Velocity S-wave (km/s) = 3.09595 3.44252 3.27383
# Velocity P-wave (km/s) = 5.24474 5.95709 5.61223
#
# Compressibility (1/GPa) = 0.03267559
#
# Stress axis : x y z
#
# Youngs Moduli (GPa) = 90.20384 39.37050 53.28762
#
# Poissons Ratio (x) = 0.10269 0.29956
# Poissons Ratio (y) = 0.23529 0.16297
# Poissons Ratio (z) = 0.50708 0.12040
#
# Static dielectric constant tensor:
#      x y z
#    x 3.964490 0.000000 -0.238580 
#    y 0.000000 3.734590 0.000000 
#    z -0.238580 0.000000 3.673210 
# 
# 
# High freq. dielectric constant tensor:
#      x y z
#    x 1.827090 0.000000 -0.015840 
#    y 0.000000 1.820040 0.000000 
#    z -0.015840 0.000000 1.802990 
# 
# From -- ./inp_files/70288.got.cif
#   From: 2010.06.25/outbox.cif.g09.slc.cpg/sg10_36_cif.got.tgz:70288.got - 2010.06.27 22:07:45.
