data_PCOD8066120
_publ_section_title
;
Structure prediction by ZEFSAII (Michael W. Deem and Ramdas Pophale) SiO2 
 PCOD8066120
Probable space group: P 2/M
;
_chemical_formula_sum "Si O2"
_cell_formula_units_Z 28
_cell_length_a 9.409642
_cell_length_b 14.007800
_cell_length_c 21.588007
_cell_angle_alpha 90.000000
_cell_angle_beta 148.841887
_cell_angle_gamma 90.000000
_cell_volume 1472.255898
_symmetry_space_group_name_H-M "P 2/M"
_symmetry_group_IT_number 10
_symmetry_cell_setting 'monoclinic'
loop_
_space_group_symop_operation_xyz
x,y,z
-x,y,-z
-x,-y,-z
x,-y,z
loop_
_atom_site_type_symbol
_atom_site_label
_atom_site_fract_x
_atom_site_fract_y
_atom_site_fract_z
Si Si1 0.731604 0.888686 0.365229
Si Si2 0.211220 0.888540 0.254097
Si Si3 0.726049 0.391609 0.864789
Si Si4 0.778285 0.731784 0.641761
Si Si5 0.699465 0.216447 0.021878
Si Si6 0.044221 0.608880 0.181544
Si Si7 0.324799 0.753633 0.768980
O O1 0.479777 0.863285 0.315480
O O2 0.715783 0.838928 0.293499
O O3 0.000000 0.850700 0.500000
O O4 0.749874 0.000000 0.357714
O O5 0.218043 0.833809 0.322187
O O6 0.963510 0.851925 0.118656
O O7 0.183552 0.000000 0.258548
O O8 0.692180 0.500000 0.874892
O O9 0.749557 0.383977 0.799542
O O10 0.449566 0.338070 0.781159
O O11 0.000000 0.348179 0.000000
O O12 0.500000 0.718924 0.500000
O O13 0.796524 0.646590 0.698551
O O14 0.037752 0.724920 0.692963
O O15 0.778820 0.325790 0.068527
O O16 0.500000 0.176055 0.000000
O O17 0.547276 0.208901 0.900503
O O18 0.946259 0.500000 0.155435
#
# Coordination Sequence:
#
# PCOD8066120 Si02
#       7
#     4   4   4   4   4   4   4
#     4  10  23  42  62  86 116 157 205 243 286 345
#     4  10  22  40  61  84 120 158 191 243 297 348
#     4  10  21  36  59  90 119 151 189 233 290 354
#     4  11  24  41  60  86 117 156 204 242 288 346
#     4  11  21  38  55  94 123 153 191 235 302 358
#     4  10  21  39  61  85 121 158 192 239 294 348
#     4  12  22  36  63  91 118 154 193 248 295 345
#
# _framework density 19.018433000000002
#
# number of rings (size 3 to 8) (size 9 to 14) (size 15 to 20)
#    0.000    1.429    4.286    2.571    0.000    2.857 
#    0.000    1.429    0.000    2.143    0.000    0.000 
#    0.000    0.000    0.000    0.000    0.000    0.000 
#
# Total GULP energy -347277.433434 kJ/mol
# GULP energy per Si atom -12402.765480 kJ/mol
# Density = 1.897515 g / cm^3
# Si number density = 19.018433 Si / 1000 Ang^3
#
#
#
# Elastic Constant Matrix: (Units=GPa)
#
#
# Indices 1 2 3 4 5 6 
#
# 1 120.5385 57.6511 65.7199 0.0000 10.5855 0.0000
# 2 57.6511 85.0589 49.2048 0.0000 0.4641 0.0000
# 3 65.7199 49.2048 156.8264 0.0000 2.1668 0.0000
# 4 0.0000 0.0000 0.0000 20.0994 0.0000 -0.5254
# 5 10.5855 0.4641 2.1668 0.0000 35.3081 0.0000
# 6 0.0000 0.0000 0.0000 -0.5254 0.0000 23.1022
#
#
#
# Elastic Compliance Matrix: (Units=1/GPa)
#
#
# Indices 1 2 3 4 5 6 
#
# 1 0.014168 -0.007548 -0.003515 0.000000 -0.003933 0.000000
# 2 -0.007548 0.018385 -0.002635 0.000000 0.002183 0.000000
# 3 -0.003515 -0.002635 0.008669 0.000000 0.000556 0.000000
# 4 0.000000 0.000000 0.000000 0.049782 0.000000 0.001132
# 5 -0.003933 0.002183 0.000556 0.000000 0.029438 0.000000
# 6 0.000000 0.000000 0.000000 0.001132 0.000000 0.043312
#
#
# Mechanical properties :
#
#
# Convention : Reuss Voigt Hill
#
# Bulk Modulus (GPa) = 72.33177 78.61950 75.47563
# Shear Modulus (GPa) = 25.54169 28.35847 26.95008
#
# Velocity S-wave (km/s) = 3.66867 3.86567 3.76846
# Velocity P-wave (km/s) = 7.48736 7.83281 7.66203
#
# Compressibility (1/GPa) = 0.01382518
#
# Stress axis : x y z
#
# Youngs Moduli (GPa) = 70.58277 54.39188 115.36002
#
# Poissons Ratio (x) = 0.41055 0.40545
# Poissons Ratio (y) = 0.53276 0.30403
# Poissons Ratio (z) = 0.24807 0.14335
#
# Static dielectric constant tensor:
#      x y z
#    x 3.626690 0.000000 0.026400 
#    y 0.000000 3.459860 0.000000 
#    z 0.026400 0.000000 3.538080 
# 
# 
# High freq. dielectric constant tensor:
#      x y z
#    x 1.752570 0.000000 -0.000260 
#    y 0.000000 1.734890 0.000000 
#    z -0.000260 0.000000 1.738180 
# 
# From -- ./inp_files/29602.got.cif
#   From: 2010.06.25/outbox.cif.g09.slc.cpg/sg10_15_cif.got.tgz:29602.got - 2010.06.27 22:07:45.
