data_PCOD8066703
_publ_section_title
;
Structure prediction by ZEFSAII (Michael W. Deem and Ramdas Pophale) SiO2 
 PCOD8066703
Probable space group: P 2/M
;
_chemical_formula_sum "Si O2"
_cell_formula_units_Z 24
_cell_length_a 12.401193
_cell_length_b 8.529534
_cell_length_c 12.295413
_cell_angle_alpha 90.000000
_cell_angle_beta 108.941813
_cell_angle_gamma 90.000000
_cell_volume 1230.137259
_symmetry_space_group_name_H-M "P 2/M"
_symmetry_group_IT_number 10
_symmetry_cell_setting 'monoclinic'
loop_
_space_group_symop_operation_xyz
x,y,z
-x,y,-z
-x,-y,-z
x,-y,z
loop_
_atom_site_type_symbol
_atom_site_label
_atom_site_fract_x
_atom_site_fract_y
_atom_site_fract_z
Si Si1 0.878233 0.817466 0.005807
Si Si2 0.744181 0.680993 0.776784
Si Si3 0.506578 0.682587 0.377529
Si Si4 0.116787 0.318860 0.757788
Si Si5 0.882307 0.182380 0.628852
Si Si6 0.265466 0.182654 0.625069
O O1 0.779886 0.720895 0.911497
O O2 0.859024 0.000000 0.977868
O O3 0.870126 0.784084 0.130297
O O4 0.000000 0.761214 0.000000
O O5 0.767295 0.500000 0.756575
O O6 0.611672 0.721412 0.720300
O O7 0.819889 0.786219 0.721887
O O8 0.500000 0.738444 0.500000
O O9 0.538757 0.500000 0.381855
O O10 0.601527 0.782284 0.346464
O O11 0.118716 0.500000 0.790952
O O12 0.221463 0.280805 0.713017
O O13 0.999447 0.277685 0.658194
O O14 0.801411 0.238004 0.504595
O O15 0.912352 0.000000 0.630538
O O16 0.246397 0.000000 0.641429
#
# Coordination Sequence:
#
# PCOD8066703 Si02
#       6
#     4   4   4   4   4   4
#     4  11  23  40  63  89 122 159 199 250 302 357
#     4  11  22  37  62  93 123 157 202 250 296 352
#     4  10  21  39  62  90 124 160 201 249 298 353
#     4  12  25  40  62  89 122 161 203 250 304 363
#     4  11  22  37  59  90 126 160 198 247 301 359
#     4  11  24  40  61  89 125 164 203 247 301 362
#
# _framework density 19.510017999999999
#
# number of rings (size 3 to 8) (size 9 to 14) (size 15 to 20)
#    0.000    1.000    3.333    4.000    0.000    6.333 
#    0.000    0.833    0.000    5.000    0.000    0.000 
#    0.000    0.000    0.000    0.000    0.000    0.000 
#
# Total GULP energy -297813.880484 kJ/mol
# GULP energy per Si atom -12408.911687 kJ/mol
# Density = 1.946561 g / cm^3
# Si number density = 19.510018 Si / 1000 Ang^3
#
#
#
# Elastic Constant Matrix: (Units=GPa)
#
#
# Indices 1 2 3 4 5 6 
#
# 1 119.0683 27.7951 47.9456 0.0000 2.2392 0.0000
# 2 27.7951 56.1956 21.3494 0.0000 6.9284 0.0000
# 3 47.9456 21.3494 99.5464 0.0000 10.8562 0.0000
# 4 0.0000 0.0000 0.0000 31.7166 0.0000 1.2848
# 5 2.2392 6.9284 10.8562 0.0000 34.1467 0.0000
# 6 0.0000 0.0000 0.0000 1.2848 0.0000 32.1587
#
#
#
# Elastic Compliance Matrix: (Units=1/GPa)
#
#
# Indices 1 2 3 4 5 6 
#
# 1 0.011186 -0.003934 -0.004714 0.000000 0.001564 0.000000
# 2 -0.003934 0.021001 -0.002251 0.000000 -0.003288 0.000000
# 3 -0.004714 -0.002251 0.013172 0.000000 -0.003422 0.000000
# 4 0.000000 0.000000 0.000000 0.031580 0.000000 -0.001262
# 5 0.001564 -0.003288 -0.003422 0.000000 0.030938 0.000000
# 6 0.000000 0.000000 0.000000 -0.001262 0.000000 0.031146
#
#
# Mechanical properties :
#
#
# Convention : Reuss Voigt Hill
#
# Bulk Modulus (GPa) = 42.44361 52.11006 47.27683
# Shear Modulus (GPa) = 29.64265 31.45242 30.54754
#
# Velocity S-wave (km/s) = 3.90212 4.01947 3.96123
# Velocity P-wave (km/s) = 6.48876 6.95046 6.72358
#
# Compressibility (1/GPa) = 0.02356067
#
# Stress axis : x y z
#
# Youngs Moduli (GPa) = 89.39824 47.61593 75.91853
#
# Poissons Ratio (x) = 0.18734 0.35790
# Poissons Ratio (y) = 0.35173 0.17086
# Poissons Ratio (z) = 0.42145 0.10716
#
# Static dielectric constant tensor:
#      x y z
#    x 3.491430 0.000000 0.084170 
#    y 0.000000 3.505130 0.000000 
#    z 0.084170 0.000000 3.570320 
# 
# 
# High freq. dielectric constant tensor:
#      x y z
#    x 1.756250 0.000000 0.003850 
#    y 0.000000 1.766100 0.000000 
#    z 0.003850 0.000000 1.760440 
# 
# From -- ./inp_files/44993.got.cif
#   From: 2010.06.25/outbox.cif.g09.slc.cpg/sg10_23_cif.got.tgz:44993.got - 2010.06.27 22:07:45.
