data_PCOD8066734
_publ_section_title
;
Structure prediction by ZEFSAII (Michael W. Deem and Ramdas Pophale) SiO2 
 PCOD8066734
Probable space group: P 2/M
;
_chemical_formula_sum "Si O2"
_cell_formula_units_Z 32
_cell_length_a 14.521725
_cell_length_b 8.368463
_cell_length_c 14.907358
_cell_angle_alpha 90.000000
_cell_angle_beta 121.345538
_cell_angle_gamma 90.000000
_cell_volume 1547.197219
_symmetry_space_group_name_H-M "P 2/M"
_symmetry_group_IT_number 10
_symmetry_cell_setting 'monoclinic'
loop_
_space_group_symop_operation_xyz
x,y,z
-x,y,-z
-x,-y,-z
x,-y,z
loop_
_atom_site_type_symbol
_atom_site_label
_atom_site_fract_x
_atom_site_fract_y
_atom_site_fract_z
Si Si1 0.178593 0.816712 0.851863
Si Si2 0.436862 0.811334 0.384765
Si Si3 0.284933 0.314606 0.735346
Si Si4 0.200562 0.811224 0.224338
Si Si5 0.049020 0.684947 0.295309
Si Si6 0.265503 0.685340 0.073047
Si Si7 0.503325 0.186959 0.780591
Si Si8 0.111330 0.188764 0.510366
O O1 0.262370 0.776035 0.816265
O O2 0.059581 0.787373 0.753363
O O3 0.192489 0.000000 0.887049
O O4 0.198568 0.706510 0.948173
O O5 0.500000 0.731635 0.500000
O O6 0.314547 0.748766 0.321056
O O7 0.497748 0.764734 0.324579
O O8 0.433002 0.000000 0.393370
O O9 0.258385 0.500000 0.733514
O O10 0.410994 0.290019 0.780337
O O11 0.213574 0.244138 0.619056
O O12 0.108149 0.721557 0.231985
O O13 0.195537 0.764915 0.117107
O O14 0.185313 0.000000 0.226997
O O15 0.019083 0.500000 0.284413
O O16 0.122195 0.733655 0.417390
O O17 0.283214 0.500000 0.102931
O O18 0.380756 0.771014 0.118844
O O19 0.480581 0.000000 0.783092
O O20 0.000000 0.246068 0.500000
O O21 0.114942 0.000000 0.501973
#
# Coordination Sequence:
#
# PCOD8066734 Si02
#       8
#     4   4   4   4   4   4   4   4
#     4  12  25  44  67  92 121 162 214 259 312 382
#     4   8  16  32  56  87 118 157 205 252 295 351
#     4  12  25  41  63  95 130 164 207 261 318 370
#     4  10  21  39  63  91 126 167 211 254 307 375
#     4  12  25  41  63  95 130 164 207 261 318 370
#     4  11  23  43  67  93 127 163 205 264 322 365
#     4  10  21  39  63  91 126 167 211 254 307 375
#     4  11  23  41  65  90 124 171 214 254 308 373
#
# _framework density 20.682559000000001
#
# number of rings (size 3 to 8) (size 9 to 14) (size 15 to 20)
#    0.000    1.250    1.250    6.375    1.750    1.500 
#    0.000    5.000    0.000    2.250    0.000    0.000 
#    0.000    0.000    0.000    0.000    0.000    0.000 
#
# Total GULP energy -396996.647692 kJ/mol
# GULP energy per Si atom -12406.145240 kJ/mol
# Density = 2.063548 g / cm^3
# Si number density = 20.682559 Si / 1000 Ang^3
#
#
#
# Elastic Constant Matrix: (Units=GPa)
#
#
# Indices 1 2 3 4 5 6 
#
# 1 93.5373 28.6453 12.1738 0.0000 -10.4789 0.0000
# 2 28.6453 82.4170 17.7872 0.0000 -1.4149 0.0000
# 3 12.1738 17.7872 99.4287 0.0000 -15.6558 0.0000
# 4 0.0000 0.0000 0.0000 29.9721 0.0000 0.4631
# 5 -10.4789 -1.4149 -15.6558 0.0000 14.5673 0.0000
# 6 0.0000 0.0000 0.0000 0.4631 0.0000 29.5707
#
#
#
# Elastic Compliance Matrix: (Units=1/GPa)
#
#
# Indices 1 2 3 4 5 6 
#
# 1 0.013078 -0.004540 0.000750 0.000000 0.009773 0.000000
# 2 -0.004540 0.014222 -0.002750 0.000000 -0.004840 0.000000
# 3 0.000750 -0.002750 0.012639 0.000000 0.013856 0.000000
# 4 0.000000 0.000000 0.000000 0.033372 0.000000 -0.000523
# 5 0.009773 -0.004840 0.013856 0.000000 0.090098 0.000000
# 6 0.000000 0.000000 0.000000 -0.000523 0.000000 0.033825
#
#
# Mechanical properties :
#
#
# Convention : Reuss Voigt Hill
#
# Bulk Modulus (GPa) = 37.23206 43.62172 40.42689
# Shear Modulus (GPa) = 22.80305 29.27381 26.03843
#
# Velocity S-wave (km/s) = 3.32403 3.76624 3.55203
# Velocity P-wave (km/s) = 5.72477 6.32848 6.03418
#
# Compressibility (1/GPa) = 0.02685857
#
# Stress axis : x y z
#
# Youngs Moduli (GPa) = 76.46194 70.31487 79.11740
#
# Poissons Ratio (x) = 0.31920 -0.05930
# Poissons Ratio (y) = 0.34711 0.21761
# Poissons Ratio (z) = -0.05731 0.19340
#
# Static dielectric constant tensor:
#      x y z
#    x 3.750650 0.000000 -0.038910 
#    y 0.000000 3.628720 0.000000 
#    z -0.038910 0.000000 3.820340 
# 
# 
# High freq. dielectric constant tensor:
#      x y z
#    x 1.811120 0.000000 -0.005830 
#    y 0.000000 1.809740 0.000000 
#    z -0.005830 0.000000 1.812710 
# 
# From -- ./inp_files/66628.got.cif
#   From: 2010.06.25/outbox.cif.g09.slc.cpg/sg10_34_cif.got.tgz:66628.got - 2010.06.27 22:07:45.
