data_PCOD8066624
_publ_section_title
;
Structure prediction by ZEFSAII (Michael W. Deem and Ramdas Pophale) SiO2 
 PCOD8066624
Probable space group: P 2/M
;
_chemical_formula_sum "Si O2"
_cell_formula_units_Z 28
_cell_length_a 9.215685
_cell_length_b 8.893121
_cell_length_c 27.051145
_cell_angle_alpha 90.000000
_cell_angle_beta 141.105663
_cell_angle_gamma 90.000000
_cell_volume 1392.029273
_symmetry_space_group_name_H-M "P 2/M"
_symmetry_group_IT_number 10
_symmetry_cell_setting 'monoclinic'
loop_
_space_group_symop_operation_xyz
x,y,z
-x,y,-z
-x,-y,-z
x,-y,z
loop_
_atom_site_type_symbol
_atom_site_label
_atom_site_fract_x
_atom_site_fract_y
_atom_site_fract_z
Si Si1 0.193214 0.322862 0.011028
Si Si2 0.460463 0.321633 0.267714
Si Si3 0.256327 0.676976 0.564196
Si Si4 0.669316 0.826152 0.148329
Si Si5 0.273904 0.166342 0.471714
Si Si6 0.038109 0.822114 0.869544
Si Si7 0.819479 0.173954 0.295080
O O1 0.182892 0.500000 0.998161
O O2 0.159361 0.234765 0.951119
O O3 0.443560 0.275328 0.097296
O O4 0.000000 0.275800 0.000000
O O5 0.438151 0.500000 0.260954
O O6 0.586143 0.258643 0.350166
O O7 0.606096 0.270233 0.258973
O O8 0.209500 0.252262 0.200370
O O9 0.250283 0.500000 0.567089
O O10 0.350197 0.725119 0.536129
O O11 0.000000 0.746172 0.500000
O O12 0.808154 0.772734 0.136691
O O13 0.833274 0.802637 0.239601
O O14 0.593826 0.000000 0.122987
O O15 0.500000 0.156191 0.500000
O O16 0.058869 0.231692 0.382961
O O17 0.209544 0.000000 0.474435
O O18 0.009556 0.000000 0.864012
O O19 0.775632 0.000000 0.296107
#
# Coordination Sequence:
#
# PCOD8066624 Si02
#       7
#     4   4   4   4   4   4   4
#     4  11  24  42  65  93 124 157 196 240 289 348
#     4  11  23  39  60  87 120 157 202 250 296 353
#     4  10  21  39  59  83 118 159 201 248 300 354
#     4  10  23  41  62  89 123 158 197 242 294 353
#     4  10  22  37  59  88 119 155 201 253 301 352
#     4  11  24  41  64  92 122 157 196 243 297 352
#     4  10  21  39  60  86 119 158 199 246 300 353
#
# _framework density 20.114519999999999
#
# number of rings (size 3 to 8) (size 9 to 14) (size 15 to 20)
#    0.000    1.571    1.429    2.571    2.000    8.571 
#    0.000    0.000    0.000    0.000    0.000    0.000 
#    0.000    0.000    0.000    0.000    0.000    0.000 
#
# Total GULP energy -347268.985828 kJ/mol
# GULP energy per Si atom -12402.463780 kJ/mol
# Density = 2.006874 g / cm^3
# Si number density = 20.114520 Si / 1000 Ang^3
#
#
#
# Elastic Constant Matrix: (Units=GPa)
#
#
# Indices 1 2 3 4 5 6 
#
# 1 119.8517 32.4190 38.6571 0.0000 -5.8724 0.0000
# 2 32.4190 47.9048 24.2064 0.0000 0.9122 0.0000
# 3 38.6571 24.2064 98.4259 0.0000 -7.8465 0.0000
# 4 0.0000 0.0000 0.0000 27.8509 0.0000 3.8602
# 5 -5.8724 0.9122 -7.8465 0.0000 42.1944 0.0000
# 6 0.0000 0.0000 0.0000 3.8602 0.0000 123.0899
#
#
#
# Elastic Compliance Matrix: (Units=1/GPa)
#
#
# Indices 1 2 3 4 5 6 
#
# 1 0.010905 -0.006033 -0.002708 0.000000 0.001145 0.000000
# 2 -0.006033 0.027286 -0.004522 0.000000 -0.002271 0.000000
# 3 -0.002708 -0.004522 0.012499 0.000000 0.002045 0.000000
# 4 0.000000 0.000000 0.000000 0.036062 0.000000 -0.001131
# 5 0.001145 -0.002271 0.002045 0.000000 0.024288 0.000000
# 6 0.000000 0.000000 0.000000 -0.001131 0.000000 0.008160
#
#
# Mechanical properties :
#
#
# Convention : Reuss Voigt Hill
#
# Bulk Modulus (GPa) = 41.38536 50.74971 46.06754
# Shear Modulus (GPa) = 32.51375 50.02037 41.26706
#
# Velocity S-wave (km/s) = 4.02485 4.99217 4.53438
# Velocity P-wave (km/s) = 6.49760 7.64946 7.09693
#
# Compressibility (1/GPa) = 0.02416314
#
# Stress axis : x y z
#
# Youngs Moduli (GPa) = 91.69991 36.64886 80.00867
#
# Poissons Ratio (x) = 0.22112 0.21666
# Poissons Ratio (y) = 0.55326 0.36180
# Poissons Ratio (z) = 0.24832 0.16573
#
# Static dielectric constant tensor:
#      x y z
#    x 3.617080 0.000000 0.020920 
#    y 0.000000 3.597790 0.000000 
#    z 0.020920 0.000000 3.693820 
# 
# 
# High freq. dielectric constant tensor:
#      x y z
#    x 1.789990 0.000000 -0.004540 
#    y 0.000000 1.779540 0.000000 
#    z -0.004540 0.000000 1.801070 
# 
# From -- ./inp_files/34309.got.cif
#   From: 2010.06.25/outbox.cif.g09.slc.cpg/sg10_18_cif.got.tgz:34309.got - 2010.06.27 22:07:45.
