data_PCOD8066230
_publ_section_title
;
Structure prediction by ZEFSAII (Michael W. Deem and Ramdas Pophale) SiO2 
 PCOD8066230
Probable space group: P 2/M
;
_chemical_formula_sum "Si O2"
_cell_formula_units_Z 30
_cell_length_a 12.703812
_cell_length_b 17.898957
_cell_length_c 14.537126
_cell_angle_alpha 90.000000
_cell_angle_beta 29.456282
_cell_angle_gamma 90.000000
_cell_volume 1625.522304
_symmetry_space_group_name_H-M "P 2/M"
_symmetry_group_IT_number 10
_symmetry_cell_setting 'monoclinic'
loop_
_space_group_symop_operation_xyz
x,y,z
-x,y,-z
-x,-y,-z
x,-y,z
loop_
_atom_site_type_symbol
_atom_site_label
_atom_site_fract_x
_atom_site_fract_y
_atom_site_fract_z
Si Si1 0.970665 0.082450 0.253900
Si Si2 0.658695 0.310579 0.634396
Si Si3 0.575664 0.809217 0.543951
Si Si4 0.210022 0.915455 0.891487
Si Si5 0.005845 0.413786 0.605822
Si Si6 0.000000 0.231228 0.500000
Si Si7 0.336194 0.693044 0.041890
Si Si8 0.263752 0.152393 0.161996
O O1 0.796368 0.145882 0.368337
O O2 0.094470 0.091009 0.256235
O O3 0.862468 0.000000 0.332732
O O4 0.163508 0.087997 0.034550
O O5 0.598371 0.264421 0.589316
O O6 0.876702 0.277551 0.515365
O O7 0.453725 0.322801 0.855691
O O8 0.755438 0.392561 0.537067
O O9 0.500000 0.784406 0.500000
O O10 0.408735 0.863696 0.718772
O O11 0.261984 0.000000 0.818800
O O12 0.000000 0.885062 0.000000
O O13 0.958612 0.500000 0.660373
O O14 0.000000 0.396522 0.500000
O O15 0.834708 0.369342 0.799619
O O16 0.811319 0.180197 0.681856
O O17 0.500000 0.696028 0.000000
O O18 0.247042 0.777736 0.102939
O O19 0.500000 0.118836 0.000000
#
# Coordination Sequence:
#
# PCOD8066230 Si02
#       8
#     4   4   4   4   4   2   4   4
#     4  11  23  38  56  80 114 154 195 246 303 358
#     4  12  21  37  59  85 117 152 195 240 288 346
#     4  12  24  39  62  87 113 153 204 252 297 343
#     4  10  21  37  57  82 113 146 189 247 309 356
#     4  11  21  34  56  89 126 154 182 226 283 350
#     4  12  18  34  56  80 110 150 192 234 288 344
#     4  11  18  32  55  84 114 154 187 227 281 344
#     4  11  21  34  55  78 111 153 195 235 286 347
#
# _framework density 18.455606
#
# number of rings (size 3 to 8) (size 9 to 14) (size 15 to 20)
#    0.000    0.800    8.667    1.200    0.000    1.600 
#    0.000    0.333    0.000    0.400    0.000    0.933 
#    0.000    0.000    0.000    0.000    0.000    0.000 
#
# Total GULP energy -371731.932999 kJ/mol
# GULP energy per Si atom -12391.064433 kJ/mol
# Density = 1.841360 g / cm^3
# Si number density = 18.455606 Si / 1000 Ang^3
#
#
#
# Elastic Constant Matrix: (Units=GPa)
#
#
# Indices 1 2 3 4 5 6 
#
# 1 85.6011 39.1559 29.1367 0.0000 -3.6807 0.0000
# 2 39.1559 75.8392 38.0833 0.0000 4.9683 0.0000
# 3 29.1367 38.0833 104.3884 0.0000 5.3506 0.0000
# 4 0.0000 0.0000 0.0000 28.6125 0.0000 -1.5545
# 5 -3.6807 4.9683 5.3506 0.0000 23.9613 0.0000
# 6 0.0000 0.0000 0.0000 -1.5545 0.0000 20.8164
#
#
#
# Elastic Compliance Matrix: (Units=1/GPa)
#
#
# Indices 1 2 3 4 5 6 
#
# 1 0.015999 -0.007585 -0.001927 0.000000 0.004461 0.000000
# 2 -0.007585 0.019840 -0.004907 0.000000 -0.004183 0.000000
# 3 -0.001927 -0.004907 0.012008 0.000000 -0.001960 0.000000
# 4 0.000000 0.000000 0.000000 0.035092 0.000000 0.002621
# 5 0.004461 -0.004183 -0.001960 0.000000 0.043724 0.000000
# 6 0.000000 0.000000 0.000000 0.002621 0.000000 0.048235
#
#
# Mechanical properties :
#
#
# Convention : Reuss Voigt Hill
#
# Bulk Modulus (GPa) = 52.60426 53.17562 52.88994
# Shear Modulus (GPa) = 23.80133 25.30823 24.55478
#
# Velocity S-wave (km/s) = 3.59507 3.70713 3.65153
# Velocity P-wave (km/s) = 6.76740 6.87015 6.81897
#
# Compressibility (1/GPa) = 0.01900987
#
# Stress axis : x y z
#
# Youngs Moduli (GPa) = 62.50226 50.40366 83.27779
#
# Poissons Ratio (x) = 0.38231 0.16049
# Poissons Ratio (y) = 0.47408 0.40860
# Poissons Ratio (z) = 0.12045 0.24731
#
# Static dielectric constant tensor:
#      x y z
#    x 3.410250 0.000000 -0.879220 
#    y 0.000000 3.490120 0.000000 
#    z -0.879220 0.000000 8.846840 
# 
# 
# High freq. dielectric constant tensor:
#      x y z
#    x 1.685540 0.000000 0.003690 
#    y 0.000000 1.696980 0.000000 
#    z 0.003690 0.000000 1.735890 
# 
# From -- ./inp_files/65327.got.cif
#   From: 2010.06.25/outbox.cif.g09.slc.cpg/sg10_33_cif.got.tgz:65327.got - 2010.06.27 22:07:45.
