data_PCOD8066189
_publ_section_title
;
Structure prediction by ZEFSAII (Michael W. Deem and Ramdas Pophale) SiO2 
 PCOD8066189
Probable space group: P 2/M
;
_chemical_formula_sum "Si O2"
_cell_formula_units_Z 32
_cell_length_a 27.661026
_cell_length_b 9.127166
_cell_length_c 10.873032
_cell_angle_alpha 90.000000
_cell_angle_beta 144.768480
_cell_angle_gamma 90.000000
_cell_volume 1583.586206
_symmetry_space_group_name_H-M "P 2/M"
_symmetry_group_IT_number 10
_symmetry_cell_setting 'monoclinic'
loop_
_space_group_symop_operation_xyz
x,y,z
-x,y,-z
-x,-y,-z
x,-y,z
loop_
_atom_site_type_symbol
_atom_site_label
_atom_site_fract_x
_atom_site_fract_y
_atom_site_fract_z
Si Si1 0.679900 0.330870 0.458185
Si Si2 0.538421 0.172709 0.292191
Si Si3 0.210794 0.335688 0.078589
Si Si4 0.615907 0.332074 0.953034
Si Si5 0.042549 0.826876 0.713167
Si Si6 0.380220 0.666092 0.317959
Si Si7 0.778300 0.669961 0.421346
Si Si8 0.954113 0.825923 0.779448
O O1 0.653157 0.500000 0.398156
O O2 0.595392 0.237148 0.301094
O O3 0.726771 0.280530 0.433666
O O4 0.744647 0.299218 0.701176
O O5 0.443565 0.233264 0.084419
O O6 0.575169 0.219775 0.500448
O O7 0.537072 0.000000 0.277721
O O8 0.173014 0.500000 0.000670
O O9 0.138513 0.219465 0.907172
O O10 0.279451 0.317563 0.113731
O O11 0.600129 0.500000 0.958028
O O12 0.590671 0.302577 0.759689
O O13 0.714443 0.296508 0.176644
O O14 0.000000 0.763840 0.500000
O O15 0.000802 0.766965 0.753187
O O16 0.037019 0.000000 0.701926
O O17 0.404682 0.500000 0.409799
O O18 0.805156 0.500000 0.483563
O O19 0.860282 0.766865 0.578805
O O20 0.950701 0.000000 0.772957
O O21 0.000000 0.769635 0.000000
#
# Coordination Sequence:
#
# PCOD8066189 Si02
#       8
#     4   4   4   4   4   4   4   4
#     4   9  19  38  59  81 111 144 183 231 282 334
#     4  11  22  35  55  84 112 146 193 234 273 330
#     4   9  18  33  56  82 106 139 182 229 277 326
#     4  10  21  37  56  80 114 151 184 228 288 341
#     4  10  22  37  53  79 115 151 185 227 285 346
#     4   9  19  36  57  80 112 150 186 229 284 339
#     4  10  22  38  61  88 110 142 190 237 281 335
#     4  10  22  40  60  82 114 156 194 232 287 350
#
# _framework density 20.207298000000002
#
# number of rings (size 3 to 8) (size 9 to 14) (size 15 to 20)
#    0.000    2.250    0.000    3.000    1.750    6.500 
#    0.000    2.500    0.000    0.000    0.000    0.000 
#    0.000    0.000    0.000    0.000    0.000    0.000 
#
# Total GULP energy -396774.969027 kJ/mol
# GULP energy per Si atom -12399.217782 kJ/mol
# Density = 2.016130 g / cm^3
# Si number density = 20.207298 Si / 1000 Ang^3
#
#
#
# Elastic Constant Matrix: (Units=GPa)
#
#
# Indices 1 2 3 4 5 6 
#
# 1 67.6501 21.2968 27.1342 0.0000 -1.8336 0.0000
# 2 21.2968 52.4623 25.0382 0.0000 7.1319 0.0000
# 3 27.1342 25.0382 73.0336 0.0000 15.3204 0.0000
# 4 0.0000 0.0000 0.0000 26.0091 0.0000 9.3802
# 5 -1.8336 7.1319 15.3204 0.0000 29.7270 0.0000
# 6 0.0000 0.0000 0.0000 9.3802 0.0000 21.0456
#
#
#
# Elastic Compliance Matrix: (Units=1/GPa)
#
#
# Indices 1 2 3 4 5 6 
#
# 1 0.019288 -0.005524 -0.006503 0.000000 0.005866 0.000000
# 2 -0.005524 0.024442 -0.005635 0.000000 -0.003301 0.000000
# 3 -0.006503 -0.005635 0.020003 0.000000 -0.009358 0.000000
# 4 0.000000 0.000000 0.000000 0.045812 0.000000 -0.020419
# 5 0.005866 -0.003301 -0.009358 0.000000 0.039616 0.000000
# 6 0.000000 0.000000 0.000000 -0.020419 0.000000 0.056617
#
#
# Mechanical properties :
#
#
# Convention : Reuss Voigt Hill
#
# Bulk Modulus (GPa) = 35.19887 37.78714 36.49301
# Shear Modulus (GPa) = 19.95441 23.33480 21.64461
#
# Velocity S-wave (km/s) = 3.14584 3.40188 3.27636
# Velocity P-wave (km/s) = 5.53640 5.84557 5.69309
#
# Compressibility (1/GPa) = 0.02841000
#
# Stress axis : x y z
#
# Youngs Moduli (GPa) = 51.84506 40.91390 49.99185
#
# Poissons Ratio (x) = 0.22600 0.32510
# Poissons Ratio (y) = 0.28638 0.28169
# Poissons Ratio (z) = 0.33715 0.23054
#
# Static dielectric constant tensor:
#      x y z
#    x 4.038190 0.000000 -0.126350 
#    y 0.000000 3.385510 0.000000 
#    z -0.126350 0.000000 3.672420 
# 
# 
# High freq. dielectric constant tensor:
#      x y z
#    x 1.800740 0.000000 0.002900 
#    y 0.000000 1.765160 0.000000 
#    z 0.002900 0.000000 1.791340 
# 
# From -- ./inp_files/49875.got.cif
#   From: 2010.06.25/outbox.cif.g09.slc.cpg/sg10_25_cif.got.tgz:49875.got - 2010.06.27 22:07:45.
