data_PCOD8066444
_publ_section_title
;
Structure prediction by ZEFSAII (Michael W. Deem and Ramdas Pophale) SiO2 
 PCOD8066444
Probable space group: P 2/M
;
_chemical_formula_sum "Si O2"
_cell_formula_units_Z 28
_cell_length_a 8.693731
_cell_length_b 12.536050
_cell_length_c 14.954276
_cell_angle_alpha 90.000000
_cell_angle_beta 106.898524
_cell_angle_gamma 90.000000
_cell_volume 1559.419775
_symmetry_space_group_name_H-M "P 2/M"
_symmetry_group_IT_number 10
_symmetry_cell_setting 'monoclinic'
loop_
_space_group_symop_operation_xyz
x,y,z
-x,y,-z
-x,-y,-z
x,-y,z
loop_
_atom_site_type_symbol
_atom_site_label
_atom_site_fract_x
_atom_site_fract_y
_atom_site_fract_z
Si Si1 0.619947 0.000000 0.602607
Si Si2 0.124960 0.124611 0.894806
Si Si3 0.017340 0.000000 0.397393
Si Si4 0.536180 0.804092 0.713348
Si Si5 0.021011 0.376361 0.401309
Si Si6 0.177168 0.804092 0.713348
Si Si7 0.380298 0.623639 0.401309
Si Si8 0.769846 0.875389 0.894806
O O1 0.500000 0.000000 0.500000
O O2 0.597058 0.104655 0.657677
O O3 0.797148 0.000000 0.594297
O O4 0.195945 0.189321 0.823510
O O5 0.936366 0.149122 0.872731
O O6 0.152407 0.000000 0.882593
O O7 0.218869 0.161007 0.000000
O O8 0.939381 0.104656 0.342323
O O9 0.000000 0.000000 0.500000
O O10 0.347750 0.817913 0.695499
O O11 0.575699 0.688835 0.679579
O O12 0.627566 0.810678 0.823510
O O13 0.978294 0.500000 0.381213
O O14 0.201112 0.349793 0.402225
O O15 0.000000 0.340873 0.500000
O O16 0.896120 0.311165 0.320421
O O17 0.500000 0.659128 0.500000
O O18 0.402920 0.500000 0.381214
O O19 0.730185 0.000000 0.882592
#
# Coordination Sequence:
#
# PCOD8066444 Si02
#       8
#     2   4   2   4   4   4   4   4
#     4  12  24  38  53  74 109 146 182 221 267 323
#     4   9  18  34  56  80 108 144 183 223 268 321
#     4  12  24  38  53  74 109 146 182 221 267 323
#     4  12  23  35  54  82 113 144 179 221 273 325
#     4  10  21  38  59  81 107 143 186 228 270 319
#     4  12  23  35  54  82 113 144 179 221 273 325
#     4  10  21  38  59  81 107 143 186 228 270 319
#     4   9  18  34  56  80 108 144 183 223 268 321
#
# _framework density 17.955397000000001
#
# number of rings (size 3 to 8) (size 9 to 14) (size 15 to 20)
#    0.000    1.429    1.429    6.429    0.000    2.286 
#    0.000    1.429    0.000    0.857    0.000    6.000 
#    0.000    0.000    0.000    0.000    0.000    0.000 
#
# Total GULP energy -347338.182014 kJ/mol
# GULP energy per Si atom -12404.935072 kJ/mol
# Density = 1.791453 g / cm^3
# Si number density = 17.955397 Si / 1000 Ang^3
#
#
#
# Elastic Constant Matrix: (Units=GPa)
#
#
# Indices 1 2 3 4 5 6 
#
# 1 131.1481 44.1598 57.1984 0.0000 0.0319 0.0000
# 2 44.1598 72.1695 51.5816 0.0000 -0.1618 0.0000
# 3 57.1984 51.5816 130.7522 0.0000 -0.0230 0.0000
# 4 0.0000 0.0000 0.0000 31.3259 0.0000 -0.0996
# 5 0.0319 -0.1618 -0.0230 0.0000 36.2425 0.0000
# 6 0.0000 0.0000 0.0000 -0.0996 0.0000 26.7550
#
#
#
# Elastic Compliance Matrix: (Units=1/GPa)
#
#
# Indices 1 2 3 4 5 6 
#
# 1 0.010296 -0.004291 -0.002811 0.000000 -0.000030 0.000000
# 2 -0.004291 0.021086 -0.006441 0.000000 0.000094 0.000000
# 3 -0.002811 -0.006441 0.011419 0.000000 -0.000019 0.000000
# 4 0.000000 0.000000 0.000000 0.031923 0.000000 0.000119
# 5 -0.000030 0.000094 -0.000019 0.000000 0.027592 0.000000
# 6 0.000000 0.000000 0.000000 0.000119 0.000000 0.037377
#
#
# Mechanical properties :
#
#
# Convention : Reuss Voigt Hill
#
# Bulk Modulus (GPa) = 63.63776 71.10549 67.37162
# Shear Modulus (GPa) = 29.06694 30.94002 30.00348
#
# Velocity S-wave (km/s) = 4.02785 4.15560 4.09222
# Velocity P-wave (km/s) = 7.55979 7.91912 7.74154
#
# Compressibility (1/GPa) = 0.01571394
#
# Stress axis : x y z
#
# Youngs Moduli (GPa) = 97.12670 47.42558 87.57366
#
# Poissons Ratio (x) = 0.20349 0.24620
# Poissons Ratio (y) = 0.41674 0.56409
# Poissons Ratio (z) = 0.27305 0.30548
#
# Static dielectric constant tensor:
#      x y z
#    x 3.396660 0.000000 -0.001910 
#    y 0.000000 3.226090 0.000000 
#    z -0.001910 0.000000 3.484260 
# 
# 
# High freq. dielectric constant tensor:
#      x y z
#    x 1.707190 0.000000 0.000150 
#    y 0.000000 1.676210 0.000000 
#    z 0.000150 0.000000 1.700290 
# 
# From -- ./inp_files/61032.got.cif
#   From: 2010.06.25/outbox.cif.g09.slc.cpg/sg10_31_cif.got.tgz:61032.got - 2010.06.27 22:07:45.
