data_PCOD8066013
_publ_section_title
;
Structure prediction by ZEFSAII (Michael W. Deem and Ramdas Pophale) SiO2 
 PCOD8066013
Probable space group: P 2/M
;
_chemical_formula_sum "Si O2"
_cell_formula_units_Z 28
_cell_length_a 9.341350
_cell_length_b 32.990126
_cell_length_c 5.069673
_cell_angle_alpha 90.000000
_cell_angle_beta 63.462617
_cell_angle_gamma 90.000000
_cell_volume 1397.730227
_symmetry_space_group_name_H-M "P 2/M"
_symmetry_group_IT_number 10
_symmetry_cell_setting 'monoclinic'
loop_
_space_group_symop_operation_xyz
x,y,z
-x,y,-z
-x,-y,-z
x,-y,z
loop_
_atom_site_type_symbol
_atom_site_label
_atom_site_fract_x
_atom_site_fract_y
_atom_site_fract_z
Si Si1 0.103000 0.952486 0.669026
Si Si2 0.895725 0.455165 0.829788
Si Si3 0.605543 0.695057 0.158220
Si Si4 0.607821 0.104464 0.662799
Si Si5 0.810408 0.817682 0.647296
Si Si6 0.392990 0.603836 0.847333
Si Si7 0.186950 0.231512 0.857108
O O1 0.276576 0.932133 0.515753
O O2 0.000000 0.941225 0.500000
O O3 0.135448 0.000000 0.669088
O O4 0.000000 0.936008 0.000000
O O5 0.829251 0.500000 0.804700
O O6 0.000000 0.437423 0.500000
O O7 0.757296 0.425165 0.031527
O O8 0.000000 0.459904 0.000000
O O9 0.500000 0.693692 0.500000
O O10 0.671252 0.649744 0.052612
O O11 0.749307 0.725232 0.102332
O O12 0.500000 0.710726 0.000000
O O13 0.500000 0.116031 0.500000
O O14 0.716553 0.141891 0.659466
O O15 0.500000 0.090835 0.000000
O O16 0.758457 0.783467 0.476405
O O17 0.000000 0.826632 0.500000
O O18 0.756820 0.802223 0.978385
O O19 0.500000 0.599289 0.500000
O O20 0.500000 0.589508 0.000000
O O21 0.000000 0.237066 0.000000
#
# Coordination Sequence:
#
# PCOD8066013 Si02
#       7
#     4   4   4   4   4   4   4
#     4  10  22  42  66  88 115 157 198 229 277 344
#     4  10  21  37  57  83 113 145 184 232 284 332
#     4  10  21  36  55  79 110 145 181 229 282 332
#     4  12  25  38  59  92 122 150 189 239 290 333
#     4  10  22  39  57  79 113 152 190 231 276 336
#     4  10  21  37  56  82 113 148 189 227 276 340
#     4  10  21  37  57  81 107 144 192 235 276 327
#
# _framework density 20.032475999999999
#
# number of rings (size 3 to 8) (size 9 to 14) (size 15 to 20)
#    0.000    1.714    0.000    3.857    0.000    6.857 
#    0.000    2.143    0.000    0.000    0.000    0.000 
#    0.000    0.000    0.000    0.000    0.000    0.000 
#
# Total GULP energy -347189.161270 kJ/mol
# GULP energy per Si atom -12399.612902 kJ/mol
# Density = 1.998688 g / cm^3
# Si number density = 20.032476 Si / 1000 Ang^3
#
#
#
# Elastic Constant Matrix: (Units=GPa)
#
#
# Indices 1 2 3 4 5 6 
#
# 1 106.9264 60.6265 49.1973 0.0000 15.0748 0.0000
# 2 60.6265 95.2615 34.7937 0.0000 -11.8363 0.0000
# 3 49.1973 34.7937 119.7753 0.0000 8.4239 0.0000
# 4 0.0000 0.0000 0.0000 27.4051 0.0000 -11.2501
# 5 15.0748 -11.8363 8.4239 0.0000 32.6152 0.0000
# 6 0.0000 0.0000 0.0000 -11.2501 0.0000 21.1489
#
#
#
# Elastic Compliance Matrix: (Units=1/GPa)
#
#
# Indices 1 2 3 4 5 6 
#
# 1 0.020483 -0.013394 -0.003580 0.000000 -0.013403 0.000000
# 2 -0.013394 0.021451 -0.001744 0.000000 0.014426 0.000000
# 3 -0.003580 -0.001744 0.010444 0.000000 -0.001676 0.000000
# 4 0.000000 0.000000 0.000000 0.046684 0.000000 0.024833
# 5 -0.013403 0.014426 -0.001676 0.000000 0.042524 0.000000
# 6 0.000000 0.000000 0.000000 0.024833 0.000000 0.060494
#
#
# Mechanical properties :
#
#
# Convention : Reuss Voigt Hill
#
# Bulk Modulus (GPa) = 66.92591 67.91091 67.41841
# Shear Modulus (GPa) = 20.45015 28.05691 24.25353
#
# Velocity S-wave (km/s) = 3.19854 3.74648 3.48330
# Velocity P-wave (km/s) = 6.86455 7.25871 7.06438
#
# Compressibility (1/GPa) = 0.01494190
#
# Stress axis : x y z
#
# Youngs Moduli (GPa) = 48.82043 46.61766 95.74825
#
# Poissons Ratio (x) = 0.62439 0.34278
# Poissons Ratio (y) = 0.65389 0.16703
# Poissons Ratio (z) = 0.17478 0.08132
#
# Static dielectric constant tensor:
#      x y z
#    x 3.687600 0.000000 0.278620 
#    y 0.000000 3.901010 0.000000 
#    z 0.278620 0.000000 3.931890 
# 
# 
# High freq. dielectric constant tensor:
#      x y z
#    x 1.787510 0.000000 0.017270 
#    y 0.000000 1.782240 0.000000 
#    z 0.017270 0.000000 1.794170 
# 
# From -- ./inp_files/5497.got.cif
#   From: 2010.06.25/outbox.cif.g09.slc.cpg/sg10_3_cif.got.tgz:5497.got - 2010.06.27 22:07:45.
