data_PCOD8066605
_publ_section_title
;
Structure prediction by ZEFSAII (Michael W. Deem and Ramdas Pophale) SiO2 
 PCOD8066605
Probable space group: P 2/M
;
_chemical_formula_sum "Si O2"
_cell_formula_units_Z 20
_cell_length_a 21.615655
_cell_length_b 7.408899
_cell_length_c 9.356371
_cell_angle_alpha 90.000000
_cell_angle_beta 40.341487
_cell_angle_gamma 90.000000
_cell_volume 969.980919
_symmetry_space_group_name_H-M "P 2/M"
_symmetry_group_IT_number 10
_symmetry_cell_setting 'monoclinic'
loop_
_space_group_symop_operation_xyz
x,y,z
-x,y,-z
-x,-y,-z
x,-y,z
loop_
_atom_site_type_symbol
_atom_site_label
_atom_site_fract_x
_atom_site_fract_y
_atom_site_fract_z
Si Si1 0.580351 0.500000 0.744892
Si Si2 0.911853 0.786111 0.065313
Si Si3 0.279546 0.210943 0.090231
Si Si4 0.562373 0.500000 0.251809
Si Si5 0.272041 0.209090 0.435419
Si Si6 0.091431 0.785672 0.252366
O O1 0.527966 0.500000 0.689882
O O2 0.640024 0.318217 0.657461
O O3 0.500000 0.500000 0.000000
O O4 0.818648 0.725051 0.314977
O O5 0.920119 0.000000 0.043132
O O6 0.910331 0.708217 0.906369
O O7 0.000000 0.705310 0.000000
O O8 0.254777 0.250299 0.298977
O O9 0.188858 0.277526 0.157641
O O10 0.301390 0.000000 0.026114
O O11 0.372583 0.321949 0.878975
O O12 0.500000 0.500000 0.500000
O O13 0.294250 0.000000 0.421994
O O14 0.000000 0.708861 0.500000
O O15 0.086847 0.000000 0.258969
#
# Coordination Sequence:
#
# PCOD8066605 Si02
#       6
#     2   4   4   2   4   4
#     4  12  24  44  63  86 117 154 201 252 301 352
#     4   9  17  31  55  89 123 156 196 240 288 348
#     4  10  21  40  63  89 120 157 198 242 297 356
#     4  12  28  44  61  86 119 156 199 254 303 350
#     4  10  21  38  64  91 119 155 198 246 295 352
#     4   9  17  31  55  87 124 160 194 236 289 352
#
# _framework density 20.618962
#
# number of rings (size 3 to 8) (size 9 to 14) (size 15 to 20)
#    0.000    2.000    2.000    1.200    2.800    6.400 
#    0.000    1.000    0.000    0.000    0.000    0.000 
#    0.000    0.000    0.000    0.000    0.000    0.000 
#
# Total GULP energy -247951.594507 kJ/mol
# GULP energy per Si atom -12397.579725 kJ/mol
# Density = 2.057203 g / cm^3
# Si number density = 20.618962 Si / 1000 Ang^3
#
#
#
# Elastic Constant Matrix: (Units=GPa)
#
#
# Indices 1 2 3 4 5 6 
#
# 1 216.9658 47.3984 105.8067 0.0000 -1.1623 0.0000
# 2 47.3984 74.4882 51.2132 0.0000 -8.9940 0.0000
# 3 105.8067 51.2132 210.3021 0.0000 7.8147 0.0000
# 4 0.0000 0.0000 0.0000 125.6556 0.0000 -75.2880
# 5 -1.1623 -8.9940 7.8147 0.0000 41.5720 0.0000
# 6 0.0000 0.0000 0.0000 -75.2880 0.0000 59.0698
#
#
#
# Elastic Compliance Matrix: (Units=1/GPa)
#
#
# Indices 1 2 3 4 5 6 
#
# 1 0.006404 -0.002197 -0.002695 0.000000 0.000210 0.000000
# 2 -0.002197 0.017663 -0.003359 0.000000 0.004391 0.000000
# 3 -0.002695 -0.003359 0.007008 0.000000 -0.002119 0.000000
# 4 0.000000 0.000000 0.000000 0.033674 0.000000 0.042919
# 5 0.000210 0.004391 -0.002119 0.000000 0.025409 0.000000
# 6 0.000000 0.000000 0.000000 0.042919 0.000000 0.071632
#
#
# Mechanical properties :
#
#
# Convention : Reuss Voigt Hill
#
# Bulk Modulus (GPa) = 68.62150 101.17697 84.89923
# Shear Modulus (GPa) = 27.30010 65.08200 46.19105
#
# Velocity S-wave (km/s) = 3.64267 5.62429 4.73823
# Velocity P-wave (km/s) = 7.14458 9.55789 8.43796
#
# Compressibility (1/GPa) = 0.01457269
#
# Stress axis : x y z
#
# Youngs Moduli (GPa) = 156.14465 56.61673 142.70007
#
# Poissons Ratio (x) = 0.12438 0.38457
# Poissons Ratio (y) = 0.34304 0.47934
# Poissons Ratio (z) = 0.42080 0.19018
#
# Static dielectric constant tensor:
#      x y z
#    x 3.913310 0.000000 0.083380 
#    y 0.000000 3.526690 0.000000 
#    z 0.083380 0.000000 3.850790 
# 
# 
# High freq. dielectric constant tensor:
#      x y z
#    x 1.819250 0.000000 0.003800 
#    y 0.000000 1.795890 0.000000 
#    z 0.003800 0.000000 1.815590 
# 
# From -- ./inp_files/31704.got.cif
#   From: 2010.06.25/outbox.cif.g09.slc.cpg/sg10_16_cif.got.tgz:31704.got - 2010.06.27 22:07:45.
