data_PCOD8066201
_publ_section_title
;
Structure prediction by ZEFSAII (Michael W. Deem and Ramdas Pophale) SiO2 
 PCOD8066201
Probable space group: P 2/M
;
_chemical_formula_sum "Si O2"
_cell_formula_units_Z 32
_cell_length_a 15.437945
_cell_length_b 9.065342
_cell_length_c 23.070407
_cell_angle_alpha 90.000000
_cell_angle_beta 149.996039
_cell_angle_gamma 90.000000
_cell_volume 1614.547928
_symmetry_space_group_name_H-M "P 2/M"
_symmetry_group_IT_number 10
_symmetry_cell_setting 'monoclinic'
loop_
_space_group_symop_operation_xyz
x,y,z
-x,y,-z
-x,-y,-z
x,-y,z
loop_
_atom_site_type_symbol
_atom_site_label
_atom_site_fract_x
_atom_site_fract_y
_atom_site_fract_z
Si Si1 0.670965 0.827157 0.431764
Si Si2 0.827510 0.826655 0.021836
Si Si3 0.969036 0.172176 0.417373
Si Si4 0.151036 0.665392 0.165290
Si Si5 0.498787 0.670531 0.564928
Si Si6 0.382092 0.329778 0.191484
Si Si7 0.706808 0.327937 0.058833
Si Si8 0.691860 0.328517 0.180957
O O1 0.638164 0.764701 0.477198
O O2 0.549265 0.747342 0.314925
O O3 0.867678 0.792089 0.528741
O O4 0.629706 0.000000 0.406520
O O5 0.830953 0.768644 0.089783
O O6 0.006798 0.785903 0.094834
O O7 0.801661 0.000000 0.004881
O O8 0.665917 0.749070 0.896224
O O9 0.798539 0.242707 0.291146
O O10 0.000000 0.236156 0.500000
O O11 0.932580 0.000000 0.400564
O O12 0.075551 0.500000 0.130286
O O13 0.309568 0.693543 0.300104
O O14 0.216123 0.685000 0.137357
O O15 0.500000 0.728641 0.500000
O O16 0.441604 0.500000 0.535601
O O17 0.428223 0.500000 0.206790
O O18 0.739084 0.500000 0.065617
O O19 0.756178 0.288068 0.153456
O O20 0.508878 0.285174 0.930485
O O21 0.718193 0.500000 0.207859
#
# Coordination Sequence:
#
# PCOD8066201 Si02
#       8
#     4   4   4   4   4   4   4   4
#     4  10  21  37  56  83 117 152 190 234 287 344
#     4  12  24  34  53  85 115 147 188 228 276 342
#     4  10  23  40  58  85 124 160 189 233 293 351
#     4   9  19  36  55  78 110 148 187 230 281 329
#     4   9  19  37  60  83 110 149 193 235 284 340
#     4  10  21  38  59  80 110 149 188 234 284 334
#     4   9  20  40  61  84 114 147 188 241 294 336
#     4   9  20  40  64  86 110 145 194 245 286 335
#
# _framework density 19.819789
#
# number of rings (size 3 to 8) (size 9 to 14) (size 15 to 20)
#    0.000    2.250    0.000    3.750    1.750    7.500 
#    0.000    5.000    0.000    0.000    0.000    0.000 
#    0.000    0.000    0.000    0.000    0.000    0.000 
#
# Total GULP energy -396894.459750 kJ/mol
# GULP energy per Si atom -12402.951867 kJ/mol
# Density = 1.977468 g / cm^3
# Si number density = 19.819789 Si / 1000 Ang^3
#
#
#
# Elastic Constant Matrix: (Units=GPa)
#
#
# Indices 1 2 3 4 5 6 
#
# 1 75.1691 38.4822 32.9290 0.0000 -19.6311 0.0000
# 2 38.4822 92.6385 33.4461 0.0000 -3.4005 0.0000
# 3 32.9290 33.4461 69.4020 0.0000 -13.3566 0.0000
# 4 0.0000 0.0000 0.0000 22.2320 0.0000 -4.0044
# 5 -19.6311 -3.4005 -13.3566 0.0000 28.5701 0.0000
# 6 0.0000 0.0000 0.0000 -4.0044 0.0000 27.6829
#
#
#
# Elastic Compliance Matrix: (Units=1/GPa)
#
#
# Indices 1 2 3 4 5 6 
#
# 1 0.022182 -0.007038 -0.004792 0.000000 0.012164 0.000000
# 2 -0.007038 0.015362 -0.005102 0.000000 -0.005393 0.000000
# 3 -0.004792 -0.005102 0.020209 0.000000 0.005548 0.000000
# 4 0.000000 0.000000 0.000000 0.046184 0.000000 0.006681
# 5 0.012164 -0.005393 0.005548 0.000000 0.045311 0.000000
# 6 0.000000 0.000000 0.000000 0.006681 0.000000 0.037090
#
#
# Mechanical properties :
#
#
# Convention : Reuss Voigt Hill
#
# Bulk Modulus (GPa) = 41.85923 49.65823 45.75873
# Shear Modulus (GPa) = 21.91395 24.52048 23.21722
#
# Velocity S-wave (km/s) = 3.32875 3.52116 3.42631
# Velocity P-wave (km/s) = 5.99499 6.45296 6.22819
#
# Compressibility (1/GPa) = 0.02388959
#
# Stress axis : x y z
#
# Youngs Moduli (GPa) = 45.08102 65.09468 49.48322
#
# Poissons Ratio (x) = 0.45813 0.23713
# Poissons Ratio (y) = 0.31728 0.25246
# Poissons Ratio (z) = 0.21603 0.33211
#
# Static dielectric constant tensor:
#      x y z
#    x 3.701040 0.000000 -0.136720 
#    y 0.000000 3.472800 0.000000 
#    z -0.136720 0.000000 3.481000 
# 
# 
# High freq. dielectric constant tensor:
#      x y z
#    x 1.780780 0.000000 -0.007640 
#    y 0.000000 1.764510 0.000000 
#    z -0.007640 0.000000 1.768250 
# 
# From -- ./inp_files/89557.got.cif
#   From: 2010.06.25/outbox.cif.g09.slc.cpg/sg10_45_cif.got.tgz:89557.got - 2010.06.27 22:07:45.
