data_PCOD8066922
_publ_section_title
;
Structure prediction by ZEFSAII (Michael W. Deem and Ramdas Pophale) SiO2 
 PCOD8066922
Probable space group: P 2/M
;
_chemical_formula_sum "Si O2"
_cell_formula_units_Z 32
_cell_length_a 23.869955
_cell_length_b 8.768965
_cell_length_c 14.314270
_cell_angle_alpha 90.000000
_cell_angle_beta 32.805474
_cell_angle_gamma 90.000000
_cell_volume 1623.300551
_symmetry_space_group_name_H-M "P 2/M"
_symmetry_group_IT_number 10
_symmetry_cell_setting 'monoclinic'
loop_
_space_group_symop_operation_xyz
x,y,z
-x,y,-z
-x,-y,-z
x,-y,z
loop_
_atom_site_type_symbol
_atom_site_label
_atom_site_fract_x
_atom_site_fract_y
_atom_site_fract_z
Si Si1 0.886503 0.175901 0.189574
Si Si2 0.489462 0.678821 0.295654
Si Si3 0.692567 0.824196 0.340833
Si Si4 0.553818 0.819696 0.830066
Si Si5 0.902608 0.318792 0.517906
Si Si6 0.869596 0.318755 0.769731
Si Si7 0.680242 0.680398 0.156769
Si Si8 0.779179 0.680152 0.513069
O O1 0.810664 0.199224 0.207594
O O2 0.850940 0.279363 0.325196
O O3 0.887361 0.000000 0.220709
O O4 0.000000 0.230868 0.000000
O O5 0.488646 0.500000 0.279132
O O6 0.378680 0.730029 0.488850
O O7 0.512820 0.758810 0.163918
O O8 0.577048 0.726006 0.246382
O O9 0.677834 0.764073 0.257935
O O10 0.659216 0.000000 0.392238
O O11 0.669281 0.758953 0.658945
O O12 0.556833 0.000000 0.823110
O O13 0.500000 0.759395 0.000000
O O14 0.903176 0.500000 0.514459
O O15 0.855777 0.260985 0.682260
O O16 0.834385 0.254545 0.528860
O O17 0.021028 0.260426 0.342404
O O18 0.865702 0.500000 0.775282
O O19 0.777342 0.254623 0.962446
O O20 0.687034 0.500000 0.164218
O O21 0.763210 0.500000 0.539964
#
# Coordination Sequence:
#
# PCOD8066922 Si02
#       8
#     4   4   4   4   4   4   4   4
#     4  10  23  42  61  83 119 166 205 242 296 358
#     4  11  23  40  62  89 117 149 193 249 302 348
#     4  11  23  40  61  83 115 158 198 239 293 356
#     4  11  25  43  62  86 120 164 203 240 296 364
#     4   8  16  30  53  83 117 151 186 225 285 347
#     4   8  15  32  53  80 118 154 183 229 284 343
#     4  10  22  36  59  88 116 149 192 245 298 345
#     4  11  22  36  62  96 121 151 197 252 302 352
#
# _framework density 19.712924000000001
#
# number of rings (size 3 to 8) (size 9 to 14) (size 15 to 20)
#    0.000    2.000    1.250    2.625    3.500    4.250 
#    0.000    0.000    0.000    0.000    0.000    4.375 
#    0.000    0.000    0.000    0.000    0.000    0.000 
#
# Total GULP energy -396857.570038 kJ/mol
# GULP energy per Si atom -12401.799064 kJ/mol
# Density = 1.966806 g / cm^3
# Si number density = 19.712924 Si / 1000 Ang^3
#
#
#
# Elastic Constant Matrix: (Units=GPa)
#
#
# Indices 1 2 3 4 5 6 
#
# 1 131.3006 29.3967 35.7230 0.0000 14.6152 0.0000
# 2 29.3967 41.4014 19.9324 0.0000 5.7810 0.0000
# 3 35.7230 19.9324 106.5620 0.0000 13.9505 0.0000
# 4 0.0000 0.0000 0.0000 17.7328 0.0000 3.9210
# 5 14.6152 5.7810 13.9505 0.0000 31.8402 0.0000
# 6 0.0000 0.0000 0.0000 3.9210 0.0000 24.2781
#
#
#
# Elastic Compliance Matrix: (Units=1/GPa)
#
#
# Indices 1 2 3 4 5 6 
#
# 1 0.009665 -0.005608 -0.001850 0.000000 -0.002608 0.000000
# 2 -0.005608 0.030036 -0.003566 0.000000 -0.001317 0.000000
# 3 -0.001850 -0.003566 0.011113 0.000000 -0.003372 0.000000
# 4 0.000000 0.000000 0.000000 0.058481 0.000000 -0.009445
# 5 -0.002608 -0.001317 -0.003372 0.000000 0.034321 0.000000
# 6 0.000000 0.000000 0.000000 -0.009445 0.000000 0.042715
#
#
# Mechanical properties :
#
#
# Convention : Reuss Voigt Hill
#
# Bulk Modulus (GPa) = 34.76191 49.92980 42.34585
# Shear Modulus (GPa) = 22.93925 27.71769 25.32847
#
# Velocity S-wave (km/s) = 3.41495 3.75382 3.58839
# Velocity P-wave (km/s) = 5.76382 6.64618 6.22066
#
# Compressibility (1/GPa) = 0.02876712
#
# Stress axis : x y z
#
# Youngs Moduli (GPa) = 103.46374 33.29300 89.98637
#
# Poissons Ratio (x) = 0.18671 0.16645
# Poissons Ratio (y) = 0.58023 0.32088
# Poissons Ratio (z) = 0.19138 0.11872
#
# Static dielectric constant tensor:
#      x y z
#    x 3.949770 0.000000 0.031530 
#    y 0.000000 3.333220 0.000000 
#    z 0.031530 0.000000 3.830870 
# 
# 
# High freq. dielectric constant tensor:
#      x y z
#    x 1.785330 0.000000 0.000740 
#    y 0.000000 1.743550 0.000000 
#    z 0.000740 0.000000 1.774900 
# 
# From -- ./inp_files/71413.got.cif
#   From: 2010.06.25/outbox.cif.g09.slc.cpg/sg10_36_cif.got.tgz:71413.got - 2010.06.27 22:07:45.
