data_PCOD8066265
_publ_section_title
;
Structure prediction by ZEFSAII (Michael W. Deem and Ramdas Pophale) SiO2 
 PCOD8066265
Probable space group: P 2/M
;
_chemical_formula_sum "Si O2"
_cell_formula_units_Z 32
_cell_length_a 24.175595
_cell_length_b 9.093281
_cell_length_c 14.143969
_cell_angle_alpha 90.000000
_cell_angle_beta 31.906231
_cell_angle_gamma 90.000000
_cell_volume 1643.384792
_symmetry_space_group_name_H-M "P 2/M"
_symmetry_group_IT_number 10
_symmetry_cell_setting 'monoclinic'
loop_
_space_group_symop_operation_xyz
x,y,z
-x,y,-z
-x,-y,-z
x,-y,z
loop_
_atom_site_type_symbol
_atom_site_label
_atom_site_fract_x
_atom_site_fract_y
_atom_site_fract_z
Si Si1 0.267054 0.828714 0.962148
Si Si2 0.660236 0.168579 0.500737
Si Si3 0.930514 0.330497 0.688131
Si Si4 0.448141 0.327017 0.802356
Si Si5 0.239010 0.170147 0.445976
Si Si6 0.023673 0.329812 0.755932
Si Si7 0.398722 0.327223 0.088112
Si Si8 0.825271 0.829981 0.105453
O O1 0.173523 0.766731 0.162231
O O2 0.279280 0.000000 0.965033
O O3 0.373882 0.748329 0.833584
O O4 0.244194 0.794474 0.885863
O O5 0.564806 0.272966 0.612168
O O6 0.688033 0.192889 0.569263
O O7 0.758981 0.213492 0.293460
O O8 0.628602 0.000000 0.526391
O O9 0.896417 0.500000 0.727202
O O10 0.000000 0.277567 0.500000
O O11 0.998133 0.303859 0.683399
O O12 0.443888 0.500000 0.794051
O O13 0.413631 0.281833 0.957899
O O14 0.129010 0.245115 0.627557
O O15 0.295819 0.244617 0.274447
O O16 0.219802 0.000000 0.451015
O O17 0.038469 0.500000 0.758995
O O18 0.930138 0.266592 0.955752
O O19 0.380004 0.500000 0.127935
O O20 0.500000 0.275407 0.000000
O O21 0.859080 0.000000 0.057153
#
# Coordination Sequence:
#
# PCOD8066265 Si02
#       8
#     4   4   4   4   4   4   4   4
#     4  10  21  37  58  84 114 147 187 235 282 334
#     4  10  22  40  61  84 112 150 194 237 284 336
#     4   9  19  36  56  79 109 148 190 230 278 335
#     4  11  23  38  59  85 116 152 189 233 283 340
#     4  11  23  37  58  87 117 149 189 237 283 336
#     4  10  21  37  58  84 116 151 189 234 282 337
#     4  10  21  39  59  80 113 154 190 229 282 340
#     4   9  20  41  63  82 112 152 191 236 286 334
#
# _framework density 19.472007999999999
#
# number of rings (size 3 to 8) (size 9 to 14) (size 15 to 20)
#    0.000    2.000    1.250    1.500    1.750    4.500 
#    0.000    5.000    0.000    0.000    0.000    0.000 
#    0.000    0.000    0.000    0.000    0.000    0.000 
#
# Total GULP energy -396994.109463 kJ/mol
# GULP energy per Si atom -12406.065921 kJ/mol
# Density = 1.942769 g / cm^3
# Si number density = 19.472008 Si / 1000 Ang^3
#
#
#
# Elastic Constant Matrix: (Units=GPa)
#
#
# Indices 1 2 3 4 5 6 
#
# 1 28.8503 25.2168 18.9317 0.0000 -10.0155 0.0000
# 2 25.2168 85.3964 50.2849 0.0000 -11.9942 0.0000
# 3 18.9317 50.2849 107.4854 0.0000 -2.4334 0.0000
# 4 0.0000 0.0000 0.0000 41.7139 0.0000 -5.8369
# 5 -10.0155 -11.9942 -2.4334 0.0000 36.1093 0.0000
# 6 0.0000 0.0000 0.0000 -5.8369 0.0000 27.9896
#
#
#
# Elastic Compliance Matrix: (Units=1/GPa)
#
#
# Indices 1 2 3 4 5 6 
#
# 1 0.050330 -0.011571 -0.003227 0.000000 0.009899 0.000000
# 2 -0.011571 0.019724 -0.007125 0.000000 0.002862 0.000000
# 3 -0.003227 -0.007125 0.013151 0.000000 -0.002375 0.000000
# 4 0.000000 0.000000 0.000000 0.024693 0.000000 0.005150
# 5 0.009899 0.002862 -0.002375 0.000000 0.031230 0.000000
# 6 0.000000 0.000000 0.000000 0.005150 0.000000 0.036801
#
#
# Mechanical properties :
#
#
# Convention : Reuss Voigt Hill
#
# Bulk Modulus (GPa) = 25.40718 45.62209 35.51464
# Shear Modulus (GPa) = 21.46877 29.64914 25.55896
#
# Velocity S-wave (km/s) = 3.32406 3.90635 3.62691
# Velocity P-wave (km/s) = 5.27341 6.62016 5.98479
#
# Compressibility (1/GPa) = 0.03935895
#
# Stress axis : x y z
#
# Youngs Moduli (GPa) = 19.86897 50.69881 76.03752
#
# Poissons Ratio (x) = 0.58665 0.24539
# Poissons Ratio (y) = 0.22991 0.54175
# Poissons Ratio (z) = 0.06412 0.36122
#
# Static dielectric constant tensor:
#      x y z
#    x 3.502670 0.000000 0.033560 
#    y 0.000000 3.560080 0.000000 
#    z 0.033560 0.000000 3.526940 
# 
# 
# High freq. dielectric constant tensor:
#      x y z
#    x 1.754610 0.000000 -0.001720 
#    y 0.000000 1.761240 0.000000 
#    z -0.001720 0.000000 1.764910 
# 
# From -- ./inp_files/66492.got.cif
#   From: 2010.06.25/outbox.cif.g09.slc.cpg/sg10_34_cif.got.tgz:66492.got - 2010.06.27 22:07:45.
