data_PCOD8066073
_publ_section_title
;
Structure prediction by ZEFSAII (Michael W. Deem and Ramdas Pophale) SiO2 
 PCOD8066073
Probable space group: P 2/M
;
_chemical_formula_sum "Si O2"
_cell_formula_units_Z 28
_cell_length_a 15.264196
_cell_length_b 21.415721
_cell_length_c 8.965199
_cell_angle_alpha 90.000000
_cell_angle_beta 150.458663
_cell_angle_gamma 90.000000
_cell_volume 1444.969677
_symmetry_space_group_name_H-M "P 2/M"
_symmetry_group_IT_number 10
_symmetry_cell_setting 'monoclinic'
loop_
_space_group_symop_operation_xyz
x,y,z
-x,y,-z
-x,-y,-z
x,-y,z
loop_
_atom_site_type_symbol
_atom_site_label
_atom_site_fract_x
_atom_site_fract_y
_atom_site_fract_z
Si Si1 0.716566 0.500000 0.011144
Si Si2 0.477661 0.371233 0.298380
Si Si3 0.469731 0.927971 0.287319
Si Si4 0.305364 0.068119 0.638857
Si Si5 0.185824 0.846984 0.698517
Si Si6 0.817301 0.702693 0.316334
Si Si7 0.842447 0.370562 0.659363
Si Si8 0.918227 0.500000 0.617440
O O1 0.784465 0.500000 0.280791
O O2 0.878975 0.500000 0.136182
O O3 0.593660 0.441167 0.799697
O O4 0.500000 0.345757 0.500000
O O5 0.661405 0.368854 0.482875
O O6 0.338553 0.328636 0.006727
O O7 0.500000 0.908114 0.500000
O O8 0.659771 0.919154 0.484754
O O9 0.403907 0.000000 0.173694
O O10 0.327244 0.880478 0.012152
O O11 0.180811 0.120486 0.527917
O O12 0.216703 0.000000 0.531838
O O13 0.500000 0.069422 0.000000
O O14 0.232506 0.775029 0.744457
O O15 0.000000 0.856252 0.500000
O O16 0.831029 0.675115 0.501726
O O17 0.000000 0.690243 0.500000
O O18 0.882256 0.440318 0.665056
O O19 0.000000 0.346939 0.000000
#
# Coordination Sequence:
#
# PCOD8066073 Si02
#       8
#     2   4   4   4   4   4   4   2
#     4  11  22  39  64  92 123 157 191 241 302 358
#     4  12  25  41  64  90 119 157 200 244 299 363
#     4   9  18  34  57  85 117 152 192 240 289 341
#     4   8  15  30  53  80 110 146 186 227 274 335
#     4  10  21  36  57  83 113 152 193 240 289 347
#     4  11  24  43  60  84 121 157 204 252 300 354
#     4  12  25  42  65  91 120 155 199 249 303 360
#     4  11  22  39  66  92 123 157 189 247 306 352
#
# _framework density 19.377569999999999
#
# number of rings (size 3 to 8) (size 9 to 14) (size 15 to 20)
#    0.000    1.571    1.429    5.143    0.000    5.714 
#    0.000    3.571    0.000    2.571    0.000    0.000 
#    0.000    0.000    0.000    0.000    0.000    0.000 
#
# Total GULP energy -347193.398646 kJ/mol
# GULP energy per Si atom -12399.764237 kJ/mol
# Density = 1.933347 g / cm^3
# Si number density = 19.377570 Si / 1000 Ang^3
#
#
#
# Elastic Constant Matrix: (Units=GPa)
#
#
# Indices 1 2 3 4 5 6 
#
# 1 161.1364 88.8998 68.2291 0.0000 -15.8040 0.0000
# 2 88.8998 147.3889 66.1577 0.0000 4.5573 0.0000
# 3 68.2291 66.1577 113.3375 0.0000 -8.1704 0.0000
# 4 0.0000 0.0000 0.0000 17.0990 0.0000 13.0643
# 5 -15.8040 4.5573 -8.1704 0.0000 34.3168 0.0000
# 6 0.0000 0.0000 0.0000 13.0643 0.0000 31.3531
#
#
#
# Elastic Compliance Matrix: (Units=1/GPa)
#
#
# Indices 1 2 3 4 5 6 
#
# 1 0.010988 -0.005389 -0.003106 0.000000 0.005037 0.000000
# 2 -0.005389 0.012060 -0.004161 0.000000 -0.005074 0.000000
# 3 -0.003106 -0.004161 0.013287 0.000000 0.002286 0.000000
# 4 0.000000 0.000000 0.000000 0.085797 0.000000 -0.035750
# 5 0.005037 -0.005074 0.002286 0.000000 0.032678 0.000000
# 6 0.000000 0.000000 0.000000 -0.035750 0.000000 0.046791
#
#
# Mechanical properties :
#
#
# Convention : Reuss Voigt Hill
#
# Bulk Modulus (GPa) = 90.72624 96.49290 93.60957
# Shear Modulus (GPa) = 21.68359 29.79220 25.73789
#
# Velocity S-wave (km/s) = 3.34878 3.92530 3.64844
# Velocity P-wave (km/s) = 7.86602 8.39334 8.13396
#
# Compressibility (1/GPa) = 0.01102217
#
# Stress axis : x y z
#
# Youngs Moduli (GPa) = 91.00473 82.91756 75.26280
#
# Poissons Ratio (x) = 0.44688 0.23377
# Poissons Ratio (y) = 0.49046 0.31318
# Poissons Ratio (z) = 0.28266 0.34504
#
# Static dielectric constant tensor:
#      x y z
#    x 4.118420 0.000000 -0.119830 
#    y 0.000000 3.567460 0.000000 
#    z -0.119830 0.000000 3.456410 
# 
# 
# High freq. dielectric constant tensor:
#      x y z
#    x 1.779910 0.000000 -0.003330 
#    y 0.000000 1.755570 0.000000 
#    z -0.003330 0.000000 1.740460 
# 
# From -- ./inp_files/30525.got.cif
#   From: 2010.06.25/outbox.cif.g09.slc.cpg/sg10_16_cif.got.tgz:30525.got - 2010.06.27 22:07:45.
