data_PCOD8066622
_publ_section_title
;
Structure prediction by ZEFSAII (Michael W. Deem and Ramdas Pophale) SiO2 
 PCOD8066622
Probable space group: P 2/M
;
_chemical_formula_sum "Si O2"
_cell_formula_units_Z 32
_cell_length_a 30.520975
_cell_length_b 9.013170
_cell_length_c 11.934450
_cell_angle_alpha 90.000000
_cell_angle_beta 28.832916
_cell_angle_gamma 90.000000
_cell_volume 1583.277131
_symmetry_space_group_name_H-M "P 2/M"
_symmetry_group_IT_number 10
_symmetry_cell_setting 'monoclinic'
loop_
_space_group_symop_operation_xyz
x,y,z
-x,y,-z
-x,-y,-z
x,-y,z
loop_
_atom_site_type_symbol
_atom_site_label
_atom_site_fract_x
_atom_site_fract_y
_atom_site_fract_z
Si Si1 0.507464 0.834614 0.671364
Si Si2 0.104730 0.172578 0.600972
Si Si3 0.184852 0.667611 0.223287
Si Si4 0.227279 0.676560 0.512500
Si Si5 0.099129 0.827759 0.970386
Si Si6 0.359261 0.165291 0.812212
Si Si7 0.084023 0.668397 0.234067
Si Si8 0.563611 0.324889 0.957415
O O1 0.601168 0.790413 0.398872
O O2 0.433690 0.832612 0.740423
O O3 0.514151 0.000000 0.708384
O O4 0.484127 0.719433 0.820167
O O5 0.116483 0.230278 0.447807
O O6 0.174259 0.259467 0.524428
O O7 0.998867 0.199192 0.869447
O O8 0.129387 0.000000 0.553409
O O9 0.170143 0.500000 0.297685
O O10 0.170148 0.682860 0.123035
O O11 0.287281 0.715549 0.015315
O O12 0.223520 0.500000 0.515576
O O13 0.332015 0.734303 0.281669
O O14 0.176680 0.732123 0.737031
O O15 0.095879 0.782014 0.106900
O O16 0.125453 0.000000 0.903106
O O17 0.316454 0.000000 0.900032
O O18 0.072289 0.500000 0.214312
O O19 0.000000 0.713438 0.500000
O O20 0.566283 0.500000 0.944011
O O21 0.500000 0.260719 0.000000
#
# Coordination Sequence:
#
# PCOD8066622 Si02
#       8
#     4   4   4   4   4   4   4   4
#     4   9  19  37  60  84 113 150 189 232 288 350
#     4  11  23  39  60  87 122 158 195 244 297 346
#     4  11  22  35  57  88 118 154 199 239 286 345
#     4  11  24  41  63  89 117 154 198 244 295 350
#     4  11  24  40  61  88 120 158 199 244 294 346
#     4   9  19  36  57  85 119 150 185 236 293 344
#     4  10  21  39  59  80 114 156 194 235 281 337
#     4  10  23  42  61  83 115 152 192 241 293 344
#
# _framework density 20.211243
#
# number of rings (size 3 to 8) (size 9 to 14) (size 15 to 20)
#    0.000    1.750    1.250    3.375    0.000    9.500 
#    0.000    5.000    0.000    0.000    0.000    0.000 
#    0.000    0.000    0.000    0.000    0.000    0.000 
#
# Total GULP energy -396742.908248 kJ/mol
# GULP energy per Si atom -12398.215883 kJ/mol
# Density = 2.016524 g / cm^3
# Si number density = 20.211243 Si / 1000 Ang^3
#
#
#
# Elastic Constant Matrix: (Units=GPa)
#
#
# Indices 1 2 3 4 5 6 
#
# 1 81.6917 32.4418 29.3745 0.0000 12.3850 0.0000
# 2 32.4418 68.8722 29.8331 0.0000 1.0854 0.0000
# 3 29.3745 29.8331 79.7636 0.0000 9.1338 0.0000
# 4 0.0000 0.0000 0.0000 33.2908 0.0000 9.2177
# 5 12.3850 1.0854 9.1338 0.0000 25.8935 0.0000
# 6 0.0000 0.0000 0.0000 9.2177 0.0000 22.8809
#
#
#
# Elastic Compliance Matrix: (Units=1/GPa)
#
#
# Indices 1 2 3 4 5 6 
#
# 1 0.016964 -0.006580 -0.003010 0.000000 -0.006776 0.000000
# 2 -0.006580 0.019945 -0.005524 0.000000 0.004260 0.000000
# 3 -0.003010 -0.005524 0.016174 0.000000 -0.004034 0.000000
# 4 0.000000 0.000000 0.000000 0.033810 0.000000 -0.013620
# 5 -0.006776 0.004260 -0.004034 0.000000 0.043105 0.000000
# 6 0.000000 0.000000 0.000000 -0.013620 0.000000 0.049192
#
#
# Mechanical properties :
#
#
# Convention : Reuss Voigt Hill
#
# Bulk Modulus (GPa) = 43.75733 45.95850 44.85791
# Shear Modulus (GPa) = 23.03761 25.65823 24.34792
#
# Velocity S-wave (km/s) = 3.37982 3.56687 3.47460
# Velocity P-wave (km/s) = 6.07683 6.30491 6.19192
#
# Compressibility (1/GPa) = 0.02285332
#
# Stress axis : x y z
#
# Youngs Moduli (GPa) = 58.94837 50.13798 61.82836
#
# Poissons Ratio (x) = 0.32991 0.18612
# Poissons Ratio (y) = 0.38788 0.34156
# Poissons Ratio (z) = 0.17745 0.27698
#
# Static dielectric constant tensor:
#      x y z
#    x 3.764240 0.000000 0.018110 
#    y 0.000000 3.644950 0.000000 
#    z 0.018110 0.000000 3.980670 
# 
# 
# High freq. dielectric constant tensor:
#      x y z
#    x 1.788820 0.000000 0.001220 
#    y 0.000000 1.786070 0.000000 
#    z 0.001220 0.000000 1.794930 
# 
# From -- ./inp_files/58130.got.cif
#   From: 2010.06.25/outbox.cif.g09.slc.cpg/sg10_30_cif.got.tgz:58130.got - 2010.06.27 22:07:45.
