data_PCOD8066026
_publ_section_title
;
Structure prediction by ZEFSAII (Michael W. Deem and Ramdas Pophale) SiO2 
 PCOD8066026
Probable space group: P 2/M
;
_chemical_formula_sum "Si O2"
_cell_formula_units_Z 32
_cell_length_a 11.963055
_cell_length_b 8.993014
_cell_length_c 31.061592
_cell_angle_alpha 90.000000
_cell_angle_beta 149.897728
_cell_angle_gamma 90.000000
_cell_volume 1676.027046
_symmetry_space_group_name_H-M "P 2/M"
_symmetry_group_IT_number 10
_symmetry_cell_setting 'monoclinic'
loop_
_space_group_symop_operation_xyz
x,y,z
-x,y,-z
-x,-y,-z
x,-y,z
loop_
_atom_site_type_symbol
_atom_site_label
_atom_site_fract_x
_atom_site_fract_y
_atom_site_fract_z
Si Si1 0.139733 0.825830 0.610900
Si Si2 0.433657 0.172532 0.026353
Si Si3 0.027379 0.676230 0.121543
Si Si4 0.329209 0.173182 0.583395
Si Si5 0.205474 0.175942 0.098708
Si Si6 0.818991 0.669477 0.202281
Si Si7 0.654610 0.329651 0.239125
Si Si8 0.780628 0.673335 0.723336
O O1 0.281434 0.775801 0.616429
O O2 0.220380 0.731869 0.677879
O O3 0.880930 0.788451 0.516668
O O4 0.173874 0.000000 0.631457
O O5 0.636652 0.217537 0.124021
O O6 0.376204 0.000000 0.014234
O O7 0.500000 0.209313 0.000000
O O8 0.222358 0.268821 0.969611
O O9 0.035519 0.500000 0.119315
O O10 0.186156 0.750784 0.139183
O O11 0.110135 0.731040 0.195826
O O12 0.543670 0.252961 0.635471
O O13 0.376543 0.000000 0.598746
O O14 0.432554 0.237092 0.153608
O O15 0.219891 0.000000 0.108623
O O16 0.000000 0.223531 0.000000
O O17 0.761017 0.500000 0.168703
O O18 0.824821 0.683989 0.255791
O O19 0.058415 0.715419 0.262749
O O20 0.586544 0.500000 0.224696
O O21 0.738553 0.500000 0.712566
#
# Coordination Sequence:
#
# PCOD8066026 Si02
#       8
#     4   4   4   4   4   4   4   4
#     4   9  19  38  61  85 114 147 181 224 281 339
#     4  11  22  35  54  82 112 146 191 236 279 329
#     4  11  22  36  58  83 111 147 189 233 281 336
#     4   9  19  36  60  87 113 143 180 225 281 339
#     4  11  24  40  57  80 114 150 186 232 284 333
#     4  10  22  40  57  77 112 154 192 232 277 333
#     4  11  23  38  59  84 111 149 194 231 275 335
#     4  10  21  36  55  82 112 144 182 228 282 329
#
# _framework density 19.092770999999999
#
# number of rings (size 3 to 8) (size 9 to 14) (size 15 to 20)
#    0.000    1.750    1.250    3.750    0.000    9.000 
#    0.000    1.875    0.000    3.750    0.000    0.000 
#    0.000    0.000    0.000    0.000    0.000    0.000 
#
# Total GULP energy -396936.327240 kJ/mol
# GULP energy per Si atom -12404.260226 kJ/mol
# Density = 1.904931 g / cm^3
# Si number density = 19.092771 Si / 1000 Ang^3
#
#
#
# Elastic Constant Matrix: (Units=GPa)
#
#
# Indices 1 2 3 4 5 6 
#
# 1 119.9643 44.0537 53.4334 0.0000 8.6397 0.0000
# 2 44.0537 64.1280 39.5203 0.0000 -0.7969 0.0000
# 3 53.4334 39.5203 105.0994 0.0000 6.8946 0.0000
# 4 0.0000 0.0000 0.0000 29.9856 0.0000 11.1068
# 5 8.6397 -0.7969 6.8946 0.0000 34.7012 0.0000
# 6 0.0000 0.0000 0.0000 11.1068 0.0000 15.7019
#
#
#
# Elastic Compliance Matrix: (Units=1/GPa)
#
#
# Indices 1 2 3 4 5 6 
#
# 1 0.012533 -0.006267 -0.003851 0.000000 -0.002499 0.000000
# 2 -0.006267 0.023571 -0.005892 0.000000 0.003272 0.000000
# 3 -0.003851 -0.005892 0.013814 0.000000 -0.001921 0.000000
# 4 0.000000 0.000000 0.000000 0.045189 0.000000 -0.031965
# 5 -0.002499 0.003272 -0.001921 0.000000 0.029897 0.000000
# 6 0.000000 0.000000 0.000000 -0.031965 0.000000 0.086297
#
#
# Mechanical properties :
#
#
# Convention : Reuss Voigt Hill
#
# Bulk Modulus (GPa) = 55.87324 62.57848 59.22586
# Shear Modulus (GPa) = 20.05730 26.22335 23.14032
#
# Velocity S-wave (km/s) = 3.24469 3.71006 3.48515
# Velocity P-wave (km/s) = 6.58520 7.15541 6.87622
#
# Compressibility (1/GPa) = 0.01789766
#
# Stress axis : x y z
#
# Youngs Moduli (GPa) = 79.79216 42.42567 72.38952
#
# Poissons Ratio (x) = 0.26589 0.27878
# Poissons Ratio (y) = 0.50007 0.42649
# Poissons Ratio (z) = 0.30729 0.24995
#
# Static dielectric constant tensor:
#      x y z
#    x 3.687760 0.000000 0.088910 
#    y 0.000000 3.445200 0.000000 
#    z 0.088910 0.000000 3.438100 
# 
# 
# High freq. dielectric constant tensor:
#      x y z
#    x 1.749340 0.000000 0.004560 
#    y 0.000000 1.744360 0.000000 
#    z 0.004560 0.000000 1.735130 
# 
# From -- ./inp_files/95101.got.cif
#   From: 2010.06.25/outbox.cif.g09.slc.cpg/sg10_48_cif.got.tgz:95101.got - 2010.06.27 22:07:45.
