data_PCOD8066674
_publ_section_title
;
Structure prediction by ZEFSAII (Michael W. Deem and Ramdas Pophale) SiO2 
 PCOD8066674
Probable space group: P 2/M
;
_chemical_formula_sum "Si O2"
_cell_formula_units_Z 32
_cell_length_a 22.994116
_cell_length_b 8.843839
_cell_length_c 14.245391
_cell_angle_alpha 90.000000
_cell_angle_beta 147.925007
_cell_angle_gamma 90.000000
_cell_volume 1538.331716
_symmetry_space_group_name_H-M "P 2/M"
_symmetry_group_IT_number 10
_symmetry_cell_setting 'monoclinic'
loop_
_space_group_symop_operation_xyz
x,y,z
-x,y,-z
-x,-y,-z
x,-y,z
loop_
_atom_site_type_symbol
_atom_site_label
_atom_site_fract_x
_atom_site_fract_y
_atom_site_fract_z
Si Si1 0.003534 0.826058 0.263761
Si Si2 0.099951 0.328683 0.566662
Si Si3 0.499678 0.173972 0.890982
Si Si4 0.087638 0.322924 0.196159
Si Si5 0.393798 0.678723 0.412551
Si Si6 0.750938 0.824587 0.932284
Si Si7 0.322789 0.174530 0.499860
Si Si8 0.686093 0.676842 0.030353
O O1 0.081893 0.786967 0.457436
O O2 0.036606 0.716109 0.225923
O O3 0.021342 0.000000 0.258781
O O4 0.878988 0.792866 0.122879
O O5 0.113615 0.500000 0.547298
O O6 0.207731 0.272399 0.766787
O O7 0.000000 0.318806 0.500000
O O8 0.380229 0.196580 0.680213
O O9 0.538003 0.000000 0.934422
O O10 0.500000 0.224481 0.000000
O O11 0.581496 0.282321 0.948292
O O12 0.109767 0.500000 0.218276
O O13 0.201797 0.240330 0.336767
O O14 0.000000 0.266645 0.000000
O O15 0.500000 0.733934 0.500000
O O16 0.389393 0.500000 0.414227
O O17 0.285855 0.737900 0.211822
O O18 0.396407 0.745045 0.521052
O O19 0.725196 0.000000 0.884034
O O20 0.682707 0.763872 0.927318
O O21 0.314384 0.000000 0.461395
O O22 0.687175 0.500000 0.008870
#
# Coordination Sequence:
#
# PCOD8066674 Si02
#       8
#     4   4   4   4   4   4   4   4
#     4  11  24  39  61  92 125 163 208 257 310 373
#     4  10  21  39  61  90 128 168 207 254 312 375
#     4  10  24  45  66  91 126 168 213 263 318 375
#     4  11  25  44  67  94 128 170 211 260 319 378
#     4  11  24  41  64  93 125 162 205 256 312 373
#     4  11  23  39  62  93 126 163 204 254 311 374
#     4  11  24  43  67  95 128 168 213 264 316 373
#     4  11  23  39  63  93 126 166 211 261 314 371
#
# _framework density 20.801755
#
# number of rings (size 3 to 8) (size 9 to 14) (size 15 to 20)
#    0.000    1.250    1.250    3.750    1.750   10.000 
#    0.000    0.000    0.000    0.000    0.000    0.000 
#    0.000    0.000    0.000    0.000    0.000    0.000 
#
# Total GULP energy -397011.984659 kJ/mol
# GULP energy per Si atom -12406.624521 kJ/mol
# Density = 2.075441 g / cm^3
# Si number density = 20.801755 Si / 1000 Ang^3
#
#
#
# Elastic Constant Matrix: (Units=GPa)
#
#
# Indices 1 2 3 4 5 6 
#
# 1 109.7940 36.6866 38.2608 0.0000 -8.9258 0.0000
# 2 36.6866 74.8511 42.2709 0.0000 0.1003 0.0000
# 3 38.2608 42.2709 113.8733 0.0000 -8.8233 0.0000
# 4 0.0000 0.0000 0.0000 28.0586 0.0000 8.3766
# 5 -8.9258 0.1003 -8.8233 0.0000 37.8067 0.0000
# 6 0.0000 0.0000 0.0000 8.3766 0.0000 21.9404
#
#
#
# Elastic Compliance Matrix: (Units=1/GPa)
#
#
# Indices 1 2 3 4 5 6 
#
# 1 0.011498 -0.004498 -0.002019 0.000000 0.002255 0.000000
# 2 -0.004498 0.018752 -0.005637 0.000000 -0.002427 0.000000
# 3 -0.002019 -0.005637 0.011729 0.000000 0.002276 0.000000
# 4 0.000000 0.000000 0.000000 0.040224 0.000000 -0.015357
# 5 0.002255 -0.002427 0.002276 0.000000 0.027520 0.000000
# 6 0.000000 0.000000 0.000000 -0.015357 0.000000 0.051441
#
#
# Mechanical properties :
#
#
# Convention : Reuss Voigt Hill
#
# Bulk Modulus (GPa) = 56.59497 59.21725 57.90611
# Shear Modulus (GPa) = 26.12833 29.64781 27.88807
#
# Velocity S-wave (km/s) = 3.54794 3.77935 3.66547
# Velocity P-wave (km/s) = 6.63700 6.89738 6.76844
#
# Compressibility (1/GPa) = 0.01766941
#
# Stress axis : x y z
#
# Youngs Moduli (GPa) = 86.97253 53.32884 85.25944
#
# Poissons Ratio (x) = 0.23990 0.17210
# Poissons Ratio (y) = 0.39125 0.48064
# Poissons Ratio (z) = 0.17556 0.30064
#
# Static dielectric constant tensor:
#      x y z
#    x 3.762510 0.000000 -0.011480 
#    y 0.000000 3.746150 0.000000 
#    z -0.011480 0.000000 3.677670 
# 
# 
# High freq. dielectric constant tensor:
#      x y z
#    x 1.816460 0.000000 -0.004850 
#    y 0.000000 1.819040 0.000000 
#    z -0.004850 0.000000 1.828930 
# 
# From -- ./inp_files/71609.got.cif
#   From: 2010.06.25/outbox.cif.g09.slc.cpg/sg10_36_cif.got.tgz:71609.got - 2010.06.27 22:07:45.
