data_PCOD8066567
_publ_section_title
;
Structure prediction by ZEFSAII (Michael W. Deem and Ramdas Pophale) SiO2 
 PCOD8066567
Probable space group: P 2/M
;
_chemical_formula_sum "Si O2"
_cell_formula_units_Z 16
_cell_length_a 15.896250
_cell_length_b 8.163099
_cell_length_c 5.114110
_cell_angle_alpha 90.000000
_cell_angle_beta 59.874869
_cell_angle_gamma 90.000000
_cell_volume 573.986211
_symmetry_space_group_name_H-M "P 2/M"
_symmetry_group_IT_number 10
_symmetry_cell_setting 'monoclinic'
loop_
_space_group_symop_operation_xyz
x,y,z
-x,y,-z
-x,-y,-z
x,-y,z
loop_
_atom_site_type_symbol
_atom_site_label
_atom_site_fract_x
_atom_site_fract_y
_atom_site_fract_z
Si Si1 0.305971 0.322197 0.928955
Si Si2 0.276357 0.000000 0.193646
Si Si3 0.856085 0.000000 0.111758
Si Si4 0.437867 0.812089 0.332414
Si Si5 0.915613 0.321906 0.839103
O O1 0.346574 0.500000 0.957754
O O2 0.340626 0.287744 0.573509
O O3 0.189721 0.324294 0.132290
O O4 0.341508 0.169348 0.063027
O O5 0.222029 0.000000 0.545473
O O6 0.200390 0.000000 0.074775
O O7 0.920625 0.166808 0.030016
O O8 0.500000 0.810487 0.500000
O O9 0.407385 0.000000 0.300280
O O10 0.500000 0.728221 0.000000
O O11 0.930095 0.500000 0.957978
O O12 0.000000 0.293867 0.500000
#
# Coordination Sequence:
#
# PCOD8066567 Si02
#       5
#     4   2   2   4   4
#     4  10  21  40  65  94 129 169 213 263 318 377
#     4  10  22  40  61  91 124 162 208 259 311 372
#     4  10  21  38  62  87 124 166 212 255 308 366
#     4  10  22  41  65  92 126 165 208 261 321 378
#     4   9  19  38  64  96 132 170 213 261 316 377
#
# _framework density 27.875233999999999
#
# number of rings (size 3 to 8) (size 9 to 14) (size 15 to 20)
#    0.000    2.250    1.250    0.375    0.000    6.000 
#    0.000   15.000    0.000   13.500    0.000    0.000 
#    0.000    0.000    0.000    0.000    0.000    0.000 
#
# Total GULP energy -198212.647845 kJ/mol
# GULP energy per Si atom -12388.290490 kJ/mol
# Density = 2.781179 g / cm^3
# Si number density = 27.875234 Si / 1000 Ang^3
#
#
#
# Elastic Constant Matrix: (Units=GPa)
#
#
# Indices 1 2 3 4 5 6 
#
# 1 72.8806 -16.2438 -37.8427 0.0000 -38.1178 0.0000
# 2 -16.2438 378.2013 294.5622 0.0000 73.3875 0.0000
# 3 -37.8427 294.5622 800.4396 0.0000 173.1911 0.0000
# 4 0.0000 0.0000 0.0000 -11.7158 0.0000 -31.0148
# 5 -38.1178 73.3875 173.1911 0.0000 105.0983 0.0000
# 6 0.0000 0.0000 0.0000 -31.0148 0.0000 31.2936
#
#
#
# Elastic Compliance Matrix: (Units=1/GPa)
#
#
# Indices 1 2 3 4 5 6 
#
# 1 0.017292 -0.000126 -0.000796 0.000000 0.007671 0.000000
# 2 -0.000126 0.003726 -0.001250 0.000000 -0.000588 0.000000
# 3 -0.000796 -0.001250 0.002402 0.000000 -0.003373 0.000000
# 4 0.000000 0.000000 0.000000 -0.023555 0.000000 -0.023345
# 5 0.007671 -0.000588 -0.003373 0.000000 0.018266 0.000000
# 6 0.000000 0.000000 0.000000 -0.023345 0.000000 0.008819
#
#
# Mechanical properties :
#
#
# Convention : Reuss Voigt Hill
#
# Bulk Modulus (GPa) = 52.42219 192.49698 122.45958
# Shear Modulus (GPa) = 132.79318 92.33829 112.56574
#
# Velocity S-wave (km/s) = 6.90955 5.76173 6.36158
# Velocity P-wave (km/s) = 9.08309 10.65222 9.89880
#
# Compressibility (1/GPa) = 0.01907589
#
# Stress axis : x y z
#
# Youngs Moduli (GPa) = 57.83076 268.35827 416.38535
#
# Poissons Ratio (x) = 0.03379 0.33142
# Poissons Ratio (y) = 0.00728 0.52053
# Poissons Ratio (z) = 0.04603 0.33548
#
# Static dielectric constant tensor:
#      x y z
#    x 4.773480 0.000000 -0.243520 
#    y 0.000000 7.169710 0.000000 
#    z -0.243520 0.000000 5.414120 
# 
# 
# High freq. dielectric constant tensor:
#      x y z
#    x 2.128670 0.000000 -0.025310 
#    y 0.000000 2.141320 0.000000 
#    z -0.025310 0.000000 2.136430 
# 
# From -- ./inp_files/8557.got.cif
#   From: 2010.06.25/outbox.cif.g09.slc.cpg/sg10_5_cif.got.tgz:8557.got - 2010.06.27 22:07:45.
