data_PCOD8066415
_publ_section_title
;
Structure prediction by ZEFSAII (Michael W. Deem and Ramdas Pophale) SiO2 
 PCOD8066415
Probable space group: P 2/M
;
_chemical_formula_sum "Si O2"
_cell_formula_units_Z 30
_cell_length_a 12.729646
_cell_length_b 29.259864
_cell_length_c 14.725062
_cell_angle_alpha 90.000000
_cell_angle_beta 19.948944
_cell_angle_gamma 90.000000
_cell_volume 1871.253830
_symmetry_space_group_name_H-M "P 2/M"
_symmetry_group_IT_number 10
_symmetry_cell_setting 'monoclinic'
loop_
_space_group_symop_operation_xyz
x,y,z
-x,y,-z
-x,-y,-z
x,-y,z
loop_
_atom_site_type_symbol
_atom_site_label
_atom_site_fract_x
_atom_site_fract_y
_atom_site_fract_z
Si Si1 0.669759 0.257180 0.456119
Si Si2 0.311192 0.051517 0.560509
Si Si3 0.871123 0.500000 0.203308
Si Si4 0.187114 0.895871 0.940961
Si Si5 0.351125 0.446841 0.217254
Si Si6 0.178778 0.207358 0.949723
Si Si7 0.792081 0.410376 0.006996
Si Si8 0.391956 0.637866 0.485425
O O1 0.500000 0.248784 0.500000
O O2 0.521732 0.226292 0.655246
O O3 0.619759 0.308937 0.529356
O O4 0.018226 0.239755 0.156277
O O5 0.500000 0.051298 0.500000
O O6 0.479137 0.082235 0.348158
O O7 0.272641 0.000000 0.555139
O O8 0.978264 0.073432 0.848718
O O9 0.500000 0.500000 0.500000
O O10 0.000000 0.500000 0.000000
O O11 0.005899 0.455788 0.143005
O O12 0.208557 0.844362 0.961388
O O13 0.000000 0.896026 0.000000
O O14 0.375228 0.500000 0.223008
O O15 0.518709 0.418385 0.158783
O O16 0.000000 0.430478 0.500000
O O17 0.500000 0.435988 0.000000
O O18 0.000000 0.209350 0.000000
O O19 0.635533 0.389405 0.224601
O O20 0.037429 0.376536 0.762307
O O21 0.500000 0.628445 0.500000
#
# Coordination Sequence:
#
# PCOD8066415 Si02
#       8
#     4   4   2   4   4   4   4   4
#     4   9  17  28  40  56  75 104 131 162 198 239
#     4   9  15  21  27  37  56  79 105 140 192 252
#     4  12  24  36  50  72 100 126 150 174 203 246
#     4   9  15  21  30  43  56  78 110 151 193 237
#     4  10  21  38  58  76  94 116 149 188 222 252
#     4   9  15  24  37  50  67  88 125 165 199 235
#     4  12  22  37  53  74  95 124 150 180 215 257
#     4  11  22  34  50  69  98 125 150 173 210 266
#
# _framework density 16.032031
#
# number of rings (size 3 to 8) (size 9 to 14) (size 15 to 20)
#    0.000    2.000    0.667    5.200    0.000    6.933 
#    0.000    0.000    0.000    0.000    0.000    0.000 
#    0.000    0.000    0.000    0.000    0.000    0.000 
#
# Total GULP energy -371879.330709 kJ/mol
# GULP energy per Si atom -12395.977690 kJ/mol
# Density = 1.599554 g / cm^3
# Si number density = 16.032031 Si / 1000 Ang^3
#
#
#
# Elastic Constant Matrix: (Units=GPa)
#
#
# Indices 1 2 3 4 5 6 
#
# 1 27.8945 24.5588 27.0095 0.0000 -2.9262 0.0000
# 2 24.5588 101.7218 54.3614 0.0000 9.8417 0.0000
# 3 27.0095 54.3614 135.2919 0.0000 20.5211 0.0000
# 4 0.0000 0.0000 0.0000 35.6348 0.0000 9.3571
# 5 -2.9262 9.8417 20.5211 0.0000 20.0201 0.0000
# 6 0.0000 0.0000 0.0000 9.3571 0.0000 4.2543
#
#
#
# Elastic Compliance Matrix: (Units=1/GPa)
#
#
# Indices 1 2 3 4 5 6 
#
# 1 0.058839 -0.010604 -0.011345 0.000000 0.025442 0.000000
# 2 -0.010604 0.014454 -0.002816 0.000000 -0.005769 0.000000
# 3 -0.011345 -0.002816 0.012823 0.000000 -0.013418 0.000000
# 4 0.000000 0.000000 0.000000 0.066426 0.000000 -0.146101
# 5 0.025442 -0.005769 -0.013418 0.000000 0.070258 0.000000
# 6 0.000000 0.000000 0.000000 -0.146101 0.000000 0.556399
#
#
# Mechanical properties :
#
#
# Convention : Reuss Voigt Hill
#
# Bulk Modulus (GPa) = 27.33236 52.97417 40.15326
# Shear Modulus (GPa) = 5.94584 22.58041 14.26313
#
# Velocity S-wave (km/s) = 1.92789 3.75701 2.98596
# Velocity P-wave (km/s) = 4.69482 7.20657 6.08177
#
# Compressibility (1/GPa) = 0.03658667
#
# Stress axis : x y z
#
# Youngs Moduli (GPa) = 16.99546 69.18591 77.98635
#
# Poissons Ratio (x) = 0.73368 0.88473
# Poissons Ratio (y) = 0.18023 0.21957
# Poissons Ratio (z) = 0.19281 0.19479
#
# Static dielectric constant tensor:
#      x y z
#    x 2.492150 0.000000 0.254950 
#    y 0.000000 3.133180 0.000000 
#    z 0.254950 0.000000 3.285330 
# 
# 
# High freq. dielectric constant tensor:
#      x y z
#    x 1.536280 0.000000 0.033630 
#    y 0.000000 1.624990 0.000000 
#    z 0.033630 0.000000 1.634750 
# 
# From -- ./inp_files/65545.got.cif
#   From: 2010.06.25/outbox.cif.g09.slc.cpg/sg10_33_cif.got.tgz:65545.got - 2010.06.27 22:07:45.
