data_PCOD8066864
_publ_section_title
;
Structure prediction by ZEFSAII (Michael W. Deem and Ramdas Pophale) SiO2 
 PCOD8066864
Probable space group: P 2/M
;
_chemical_formula_sum "Si O2"
_cell_formula_units_Z 16
_cell_length_a 4.981171
_cell_length_b 7.977646
_cell_length_c 18.702446
_cell_angle_alpha 90.000000
_cell_angle_beta 118.528932
_cell_angle_gamma 90.000000
_cell_volume 652.956101
_symmetry_space_group_name_H-M "P 2/M"
_symmetry_group_IT_number 10
_symmetry_cell_setting 'monoclinic'
loop_
_space_group_symop_operation_xyz
x,y,z
-x,y,-z
-x,-y,-z
x,-y,z
loop_
_atom_site_type_symbol
_atom_site_label
_atom_site_fract_x
_atom_site_fract_y
_atom_site_fract_z
Si Si1 0.350592 0.000000 0.558799
Si Si2 0.057202 0.192726 0.180076
Si Si3 0.146297 0.500000 0.942173
Si Si4 0.644324 0.678058 0.596141
Si Si5 0.737586 0.189550 0.288473
O O1 0.500000 0.000000 0.500000
O O2 0.475395 0.832845 0.616716
O O3 0.000000 0.000000 0.500000
O O4 0.390512 0.256266 0.249648
O O5 0.944546 0.327123 0.108340
O O6 0.823643 0.195247 0.215834
O O7 0.079326 0.000000 0.152049
O O8 0.500000 0.500000 0.000000
O O9 0.000000 0.500000 0.000000
O O10 0.500000 0.672469 0.500000
O O11 0.579760 0.500000 0.626603
O O12 0.010278 0.702839 0.636240
O O13 0.766340 0.000000 0.323239
#
# Coordination Sequence:
#
# PCOD8066864 Si02
#       5
#     2   4   2   4   4
#     4  10  22  40  58  80 120 160 208 272 320 368
#     4  10  24  43  66  98 132 168 210 258 314 382
#     4  12  26  44  72 104 131 166 207 248 318 390
#     4  10  22  39  61  92 126 172 224 275 325 372
#     4  10  21  41  65  91 129 175 218 263 321 371
#
# _framework density 24.503941999999999
#
# number of rings (size 3 to 8) (size 9 to 14) (size 15 to 20)
#    0.000    1.750    1.250    1.500    3.500    5.500 
#    0.000    5.000    0.000    0.000    0.000    0.000 
#    0.000    0.000    0.000    0.000    0.000    0.000 
#
# Total GULP energy -198345.025197 kJ/mol
# GULP energy per Si atom -12396.564075 kJ/mol
# Density = 2.444817 g / cm^3
# Si number density = 24.503942 Si / 1000 Ang^3
#
#
#
# Elastic Constant Matrix: (Units=GPa)
#
#
# Indices 1 2 3 4 5 6 
#
# 1 93.7020 39.7920 33.5499 0.0000 27.3154 0.0000
# 2 39.7920 225.8263 74.7305 0.0000 19.6525 0.0000
# 3 33.5499 74.7305 150.5068 0.0000 26.2086 0.0000
# 4 0.0000 0.0000 0.0000 -18.2985 0.0000 -24.1280
# 5 27.3154 19.6525 26.2086 0.0000 45.6293 0.0000
# 6 0.0000 0.0000 0.0000 -24.1280 0.0000 23.4905
#
#
#
# Elastic Compliance Matrix: (Units=1/GPa)
#
#
# Indices 1 2 3 4 5 6 
#
# 1 0.013711 -0.001437 -0.001135 0.000000 -0.006937 0.000000
# 2 -0.001437 0.005480 -0.002377 0.000000 -0.000135 0.000000
# 3 -0.001135 -0.002377 0.008646 0.000000 -0.003263 0.000000
# 4 0.000000 0.000000 0.000000 -0.023212 0.000000 -0.023842
# 5 -0.006937 -0.000135 -0.003263 0.000000 0.028001 0.000000
# 6 0.000000 0.000000 0.000000 -0.023842 0.000000 0.018081
#
#
# Mechanical properties :
#
#
# Convention : Reuss Voigt Hill
#
# Bulk Modulus (GPa) = 55.74524 85.13111 70.43817
# Shear Modulus (GPa) = 75.09371 31.62844 53.36107
#
# Velocity S-wave (km/s) = 5.54185 3.59660 4.67159
# Velocity P-wave (km/s) = 7.98426 7.21558 7.60963
#
# Compressibility (1/GPa) = 0.01793875
#
# Stress axis : x y z
#
# Youngs Moduli (GPa) = 72.93473 182.49244 115.66498
#
# Poissons Ratio (x) = 0.26218 0.13128
# Poissons Ratio (y) = 0.10478 0.27495
# Poissons Ratio (z) = 0.08278 0.43380
#
# Static dielectric constant tensor:
#      x y z
#    x 4.642740 0.000000 0.069290 
#    y 0.000000 3.220890 0.000000 
#    z 0.069290 0.000000 4.351240 
# 
# 
# High freq. dielectric constant tensor:
#      x y z
#    x 1.994710 0.000000 0.002590 
#    y 0.000000 1.990690 0.000000 
#    z 0.002590 0.000000 1.968220 
# 
# From -- ./inp_files/10500.got.cif
#   From: 2010.06.25/outbox.cif.g09.slc.cpg/sg10_6_cif.got.tgz:10500.got - 2010.06.27 22:07:45.
