data_PCOD8066150
_publ_section_title
;
Structure prediction by ZEFSAII (Michael W. Deem and Ramdas Pophale) SiO2 
 PCOD8066150
Probable space group: P 2/M
;
_chemical_formula_sum "Si O2"
_cell_formula_units_Z 32
_cell_length_a 12.933370
_cell_length_b 17.952316
_cell_length_c 16.539176
_cell_angle_alpha 90.000000
_cell_angle_beta 154.008958
_cell_angle_gamma 90.000000
_cell_volume 1682.863040
_symmetry_space_group_name_H-M "P 2/M"
_symmetry_group_IT_number 10
_symmetry_cell_setting 'monoclinic'
loop_
_space_group_symop_operation_xyz
x,y,z
-x,y,-z
-x,-y,-z
x,-y,z
loop_
_atom_site_type_symbol
_atom_site_label
_atom_site_fract_x
_atom_site_fract_y
_atom_site_fract_z
Si Si1 0.132427 0.198259 0.516732
Si Si2 0.312637 0.586242 0.439708
Si Si3 0.488779 0.311222 0.289076
Si Si4 0.723971 0.080746 0.799522
Si Si5 0.521282 0.912305 0.830413
Si Si6 0.732381 0.810770 0.111695
Si Si7 0.898686 0.305961 0.106578
Si Si8 0.703740 0.226522 0.701568
O O1 0.302100 0.259009 0.595826
O O2 0.268310 0.127861 0.651235
O O3 0.000000 0.236559 0.500000
O O4 0.951427 0.166754 0.322564
O O5 0.500000 0.599453 0.500000
O O6 0.258776 0.500000 0.414567
O O7 0.407480 0.617627 0.591496
O O8 0.066892 0.625209 0.244810
O O9 0.315627 0.266417 0.226420
O O10 0.322367 0.337999 0.099156
O O11 0.631544 0.106430 0.821410
O O12 0.658124 0.138848 0.683252
O O13 0.616117 0.000000 0.700164
O O14 0.000000 0.074868 0.000000
O O15 0.493291 0.000000 0.827880
O O16 0.688604 0.877264 0.017134
O O17 0.795139 0.732704 0.113359
O O18 0.500000 0.795996 0.000000
O O19 0.042277 0.242370 0.158504
O O20 0.500000 0.258116 0.500000
#
# Coordination Sequence:
#
# PCOD8066150 Si02
#       8
#     4   4   4   4   4   4   4   4
#     4  12  23  41  63  91 120 159 213 261 304 361
#     4  11  24  41  62  99 135 158 195 245 302 367
#     4  12  21  39  64  92 121 162 202 246 299 361
#     4  10  21  37  54  78 118 157 197 255 309 355
#     4  11  24  41  59  88 123 160 208 263 314 361
#     4  12  23  41  64  90 118 161 213 258 307 362
#     4  12  22  38  66  93 120 162 204 248 298 364
#     4  12  20  34  59  87 117 154 206 249 292 362
#
# _framework density 19.015212999999999
#
# number of rings (size 3 to 8) (size 9 to 14) (size 15 to 20)
#    0.000    0.500    7.500    1.875    0.000    1.750 
#    0.000    1.250    0.000    0.750    0.000    0.000 
#    0.000    0.000    0.000    0.000    0.000    0.000 
#
# Total GULP energy -396812.184353 kJ/mol
# GULP energy per Si atom -12400.380761 kJ/mol
# Density = 1.897193 g / cm^3
# Si number density = 19.015213 Si / 1000 Ang^3
#
#
#
# Elastic Constant Matrix: (Units=GPa)
#
#
# Indices 1 2 3 4 5 6 
#
# 1 84.6676 41.5392 18.3987 0.0000 8.5820 0.0000
# 2 41.5392 131.4070 49.5100 0.0000 -5.9670 0.0000
# 3 18.3987 49.5100 140.3252 0.0000 -13.4044 0.0000
# 4 0.0000 0.0000 0.0000 25.3165 0.0000 -3.6444
# 5 8.5820 -5.9670 -13.4044 0.0000 31.6628 0.0000
# 6 0.0000 0.0000 0.0000 -3.6444 0.0000 16.9497
#
#
#
# Elastic Compliance Matrix: (Units=1/GPa)
#
#
# Indices 1 2 3 4 5 6 
#
# 1 0.014773 -0.004601 -0.000812 0.000000 -0.005215 0.000000
# 2 -0.004601 0.010213 -0.002811 0.000000 0.001982 0.000000
# 3 -0.000812 -0.002811 0.008540 0.000000 0.003306 0.000000
# 4 0.000000 0.000000 0.000000 0.040762 0.000000 0.008764
# 5 -0.005215 0.001982 0.003306 0.000000 0.034769 0.000000
# 6 0.000000 0.000000 0.000000 0.008764 0.000000 0.060883
#
#
# Mechanical properties :
#
#
# Convention : Reuss Voigt Hill
#
# Bulk Modulus (GPa) = 58.54976 63.92176 61.23576
# Shear Modulus (GPa) = 26.03069 31.24926 28.63997
#
# Velocity S-wave (km/s) = 3.70393 4.05826 3.88514
# Velocity P-wave (km/s) = 7.01071 7.45979 7.23873
#
# Compressibility (1/GPa) = 0.01707949
#
# Stress axis : x y z
#
# Youngs Moduli (GPa) = 67.69030 97.91042 117.09173
#
# Poissons Ratio (x) = 0.45048 0.09506
# Poissons Ratio (y) = 0.31144 0.32914
# Poissons Ratio (z) = 0.05495 0.27522
#
# Static dielectric constant tensor:
#      x y z
#    x 3.474100 0.000000 -0.017650 
#    y 0.000000 3.528340 0.000000 
#    z -0.017650 0.000000 3.587670 
# 
# 
# High freq. dielectric constant tensor:
#      x y z
#    x 1.745730 0.000000 -0.001660 
#    y 0.000000 1.719270 0.000000 
#    z -0.001660 0.000000 1.749840 
# 
# From -- ./inp_files/52015.got.cif
#   From: 2010.06.25/outbox.cif.g09.slc.cpg/sg10_27_cif.got.tgz:52015.got - 2010.06.27 22:07:45.
