data_PCOD8066202
_publ_section_title
;
Structure prediction by ZEFSAII (Michael W. Deem and Ramdas Pophale) SiO2 
 PCOD8066202
Probable space group: P 2/M
;
_chemical_formula_sum "Si O2"
_cell_formula_units_Z 24
_cell_length_a 12.278726
_cell_length_b 15.296882
_cell_length_c 15.088422
_cell_angle_alpha 90.000000
_cell_angle_beta 154.079719
_cell_angle_gamma 90.000000
_cell_volume 1238.799157
_symmetry_space_group_name_H-M "P 2/M"
_symmetry_group_IT_number 10
_symmetry_cell_setting 'monoclinic'
loop_
_space_group_symop_operation_xyz
x,y,z
-x,y,-z
-x,-y,-z
x,-y,z
loop_
_atom_site_type_symbol
_atom_site_label
_atom_site_fract_x
_atom_site_fract_y
_atom_site_fract_z
Si Si1 0.460685 0.900579 0.128400
Si Si2 0.500000 0.778469 0.500000
Si Si3 0.710141 0.102034 0.803048
Si Si4 0.756027 0.758088 0.154404
Si Si5 0.076404 0.348284 0.253435
Si Si6 0.000000 0.166885 0.500000
Si Si7 0.400550 0.500000 0.530127
Si Si8 0.152180 0.500000 0.024391
O O1 0.358640 0.867930 0.148315
O O2 0.759452 0.891911 0.344638
O O3 0.383711 0.000000 0.056569
O O4 0.324010 0.848908 0.950196
O O5 0.461154 0.840260 0.386777
O O6 0.748573 0.719965 0.671122
O O7 0.646855 0.000000 0.740802
O O8 0.000000 0.121213 0.000000
O O9 0.943372 0.773180 0.373136
O O10 0.886530 0.698124 0.178915
O O11 0.500000 0.711803 0.000000
O O12 0.249931 0.411912 0.436963
O O13 0.909431 0.409507 0.068934
O O14 0.500000 0.500000 0.500000
O O15 0.568445 0.500000 0.739169
O O16 0.000000 0.500000 0.000000
#
# Coordination Sequence:
#
# PCOD8066202 Si02
#       8
#     4   2   4   4   4   2   2   2
#     4  10  21  37  56  83 117 157 205 250 294 338
#     4  12  21  35  60  90 118 154 204 239 293 348
#     4  10  22  37  53  81 123 165 200 240 293 349
#     4  10  23  40  59  86 119 155 198 245 294 349
#     4  11  23  38  61  93 117 149 195 236 295 355
#     4  10  21  38  60  83 114 152 206 251 296 332
#     4  11  21  42  59  92 120 146 186 231 285 349
#     4  11  21  40  65  87 124 151 176 236 289 351
#
# _framework density 19.373601000000001
#
# number of rings (size 3 to 8) (size 9 to 14) (size 15 to 20)
#    0.000    1.500    2.500    2.500    0.000   11.000 
#    0.000    5.833    0.000    3.000    0.000    0.000 
#    0.000    0.000    0.000    0.000    0.000    0.000 
#
# Total GULP energy -297520.695958 kJ/mol
# GULP energy per Si atom -12396.695665 kJ/mol
# Density = 1.932951 g / cm^3
# Si number density = 19.373601 Si / 1000 Ang^3
#
#
#
# Elastic Constant Matrix: (Units=GPa)
#
#
# Indices 1 2 3 4 5 6 
#
# 1 141.8646 54.7310 53.6477 0.0000 5.6754 0.0000
# 2 54.7310 95.8188 54.9006 0.0000 -5.3507 0.0000
# 3 53.6477 54.9006 135.8988 0.0000 -18.9537 0.0000
# 4 0.0000 0.0000 0.0000 31.8731 0.0000 31.5363
# 5 5.6754 -5.3507 -18.9537 0.0000 36.4528 0.0000
# 6 0.0000 0.0000 0.0000 31.5363 0.0000 23.5058
#
#
#
# Elastic Compliance Matrix: (Units=1/GPa)
#
#
# Indices 1 2 3 4 5 6 
#
# 1 0.009853 -0.004312 -0.002641 0.000000 -0.003540 0.000000
# 2 -0.004312 0.015496 -0.004471 0.000000 0.000621 0.000000
# 3 -0.002641 -0.004471 0.010969 0.000000 0.005458 0.000000
# 4 0.000000 0.000000 0.000000 -0.095812 0.000000 0.128545
# 5 -0.003540 0.000621 0.005458 0.000000 0.030913 0.000000
# 6 0.000000 0.000000 0.000000 0.128545 0.000000 -0.129918
#
#
# Mechanical properties :
#
#
# Convention : Reuss Voigt Hill
#
# Bulk Modulus (GPa) = 74.24910 77.79345 76.02128
# Shear Modulus (GPa) = -38.12124 32.38655 -2.86734
#
# Velocity S-wave (km/s) = -4.44068 4.09306 -1.21788
# Velocity P-wave (km/s) = 3.48070 7.91069 6.11123
#
# Compressibility (1/GPa) = 0.01346818
#
# Stress axis : x y z
#
# Youngs Moduli (GPa) = 101.49027 64.53268 91.16948
#
# Poissons Ratio (x) = 0.27829 0.24081
# Poissons Ratio (y) = 0.43766 0.40763
# Poissons Ratio (z) = 0.26807 0.28853
#
# Static dielectric constant tensor:
#      x y z
#    x 3.666780 0.000000 0.118640 
#    y 0.000000 3.493590 0.000000 
#    z 0.118640 0.000000 3.564520 
# 
# 
# High freq. dielectric constant tensor:
#      x y z
#    x 1.759500 0.000000 0.000860 
#    y 0.000000 1.750640 0.000000 
#    z 0.000860 0.000000 1.764300 
# 
# From -- ./inp_files/65213.got.cif
#   From: 2010.06.25/outbox.cif.g09.slc.cpg/sg10_33_cif.got.tgz:65213.got - 2010.06.27 22:07:45.
