data_PCOD8066838
_publ_section_title
;
Structure prediction by ZEFSAII (Michael W. Deem and Ramdas Pophale) SiO2 
 PCOD8066838
Probable space group: P 2/M
;
_chemical_formula_sum "Si O2"
_cell_formula_units_Z 28
_cell_length_a 11.123952
_cell_length_b 8.449104
_cell_length_c 14.986067
_cell_angle_alpha 90.000000
_cell_angle_beta 113.978756
_cell_angle_gamma 90.000000
_cell_volume 1286.942824
_symmetry_space_group_name_H-M "P 2/M"
_symmetry_group_IT_number 10
_symmetry_cell_setting 'monoclinic'
loop_
_space_group_symop_operation_xyz
x,y,z
-x,y,-z
-x,-y,-z
x,-y,z
loop_
_atom_site_type_symbol
_atom_site_label
_atom_site_fract_x
_atom_site_fract_y
_atom_site_fract_z
Si Si1 0.392847 0.820718 0.142929
Si Si2 0.283120 0.317486 0.941912
Si Si3 0.684771 0.821168 0.233457
Si Si4 0.011759 0.182324 0.903061
Si Si5 0.231728 0.319337 0.249567
Si Si6 0.351579 0.816309 0.457938
Si Si7 0.849007 0.811998 0.451830
O O1 0.537887 0.819485 0.229948
O O2 0.298414 0.716230 0.175148
O O3 0.338298 0.000000 0.121733
O O4 0.394640 0.745136 0.043919
O O5 0.252329 0.500000 0.952433
O O6 0.323095 0.297875 0.851498
O O7 0.159243 0.204853 0.917128
O O8 0.787542 0.760328 0.338441
O O9 0.721264 0.000000 0.214154
O O10 0.922289 0.284423 0.808989
O O11 0.968960 0.000000 0.883424
O O12 0.000000 0.246192 0.000000
O O13 0.254246 0.500000 0.284663
O O14 0.289690 0.206186 0.342370
O O15 0.500000 0.740543 0.500000
O O16 0.248768 0.742525 0.500219
O O17 0.366383 0.000000 0.484992
O O18 0.000000 0.745289 0.500000
O O19 0.853417 0.000000 0.462939
#
# Coordination Sequence:
#
# PCOD8066838 Si02
#       7
#     4   4   4   4   4   4   4
#     4  11  22  40  63  90 123 166 214 254 301 368
#     4  12  25  39  60  92 129 163 201 253 316 376
#     4  10  22  40  64  90 121 162 211 260 303 365
#     4  11  23  41  65  89 119 165 213 255 305 371
#     4  12  25  39  62  95 130 163 202 258 325 380
#     4  10  21  40  66  94 124 164 216 267 314 376
#     4   9  19  37  62  92 119 155 211 268 313 359
#
# _framework density 21.756986999999999
#
# number of rings (size 3 to 8) (size 9 to 14) (size 15 to 20)
#    0.000    1.286    1.429    4.714    2.000    6.000 
#    0.000    0.714    0.000    0.857    0.000    0.000 
#    0.000    0.000    0.000    0.000    0.000    0.000 
#
# Total GULP energy -347197.264127 kJ/mol
# GULP energy per Si atom -12399.902290 kJ/mol
# Density = 2.170747 g / cm^3
# Si number density = 21.756987 Si / 1000 Ang^3
#
#
#
# Elastic Constant Matrix: (Units=GPa)
#
#
# Indices 1 2 3 4 5 6 
#
# 1 119.6411 15.9689 51.1954 0.0000 12.0801 0.0000
# 2 15.9689 51.2162 13.5938 0.0000 2.8203 0.0000
# 3 51.1954 13.5938 136.4572 0.0000 17.5809 0.0000
# 4 0.0000 0.0000 0.0000 14.8024 0.0000 -4.9115
# 5 12.0801 2.8203 17.5809 0.0000 38.5606 0.0000
# 6 0.0000 0.0000 0.0000 -4.9115 0.0000 16.3341
#
#
#
# Elastic Compliance Matrix: (Units=1/GPa)
#
#
# Indices 1 2 3 4 5 6 
#
# 1 0.010277 -0.002208 -0.003444 0.000000 -0.001488 0.000000
# 2 -0.002208 0.020543 -0.001183 0.000000 -0.000271 0.000000
# 3 -0.003444 -0.001183 0.009124 0.000000 -0.002994 0.000000
# 4 0.000000 0.000000 0.000000 0.075044 0.000000 0.022565
# 5 -0.001488 -0.000271 -0.002994 0.000000 0.027784 0.000000
# 6 0.000000 0.000000 0.000000 0.022565 0.000000 0.068007
#
#
# Mechanical properties :
#
#
# Convention : Reuss Voigt Hill
#
# Bulk Modulus (GPa) = 38.06181 52.09232 45.07706
# Shear Modulus (GPa) = 21.44019 29.04316 25.24167
#
# Velocity S-wave (km/s) = 3.14258 3.65758 3.40981
# Velocity P-wave (km/s) = 5.54074 6.46776 6.02211
#
# Compressibility (1/GPa) = 0.02627306
#
# Stress axis : x y z
#
# Youngs Moduli (GPa) = 97.30442 48.67946 109.60019
#
# Poissons Ratio (x) = 0.10750 0.37746
# Poissons Ratio (y) = 0.21488 0.12966
# Poissons Ratio (z) = 0.33512 0.05759
#
# Static dielectric constant tensor:
#      x y z
#    x 4.197010 0.000000 0.104200 
#    y 0.000000 3.504900 0.000000 
#    z 0.104200 0.000000 3.921640 
# 
# 
# High freq. dielectric constant tensor:
#      x y z
#    x 1.862770 0.000000 0.010000 
#    y 0.000000 1.823560 0.000000 
#    z 0.010000 0.000000 1.861240 
# 
# From -- ./inp_files/63919.got.cif
#   From: 2010.06.25/outbox.cif.g09.slc.cpg/sg10_32_cif.got.tgz:63919.got - 2010.06.27 22:07:45.
