data_PCOD8066426
_publ_section_title
;
Structure prediction by ZEFSAII (Michael W. Deem and Ramdas Pophale) SiO2 
 PCOD8066426
Probable space group: P 2/M
;
_chemical_formula_sum "Si O2"
_cell_formula_units_Z 32
_cell_length_a 25.693119
_cell_length_b 8.519910
_cell_length_c 14.885886
_cell_angle_alpha 90.000000
_cell_angle_beta 150.504587
_cell_angle_gamma 90.000000
_cell_volume 1604.367620
_symmetry_space_group_name_H-M "P 2/M"
_symmetry_group_IT_number 10
_symmetry_cell_setting 'monoclinic'
loop_
_space_group_symop_operation_xyz
x,y,z
-x,y,-z
-x,-y,-z
x,-y,z
loop_
_atom_site_type_symbol
_atom_site_label
_atom_site_fract_x
_atom_site_fract_y
_atom_site_fract_z
Si Si1 0.565836 0.684801 0.828640
Si Si2 0.230344 0.817629 0.521540
Si Si3 0.792183 0.816748 0.849725
Si Si4 0.947547 0.319135 0.507813
Si Si5 0.714920 0.681195 0.209298
Si Si6 0.989715 0.314885 0.766120
Si Si7 0.391431 0.814560 0.295374
Si Si8 0.325015 0.316827 0.489798
O O1 0.579920 0.500000 0.840105
O O2 0.622141 0.763200 0.827774
O O3 0.444701 0.737242 0.651310
O O4 0.621701 0.742028 0.004453
O O5 0.281717 0.783324 0.695622
O O6 0.296718 0.718647 0.549672
O O7 0.107798 0.767778 0.330234
O O8 0.240760 0.000000 0.515230
O O9 0.708088 0.751572 0.796508
O O10 0.749468 0.785148 0.686158
O O11 0.814049 0.000000 0.895807
O O12 0.901343 0.723577 0.021786
O O13 0.980781 0.500000 0.556301
O O14 0.993165 0.248153 0.669203
O O15 0.000000 0.233884 0.500000
O O16 0.822209 0.296442 0.314227
O O17 0.699511 0.500000 0.214199
O O18 0.966988 0.500000 0.733195
O O19 0.500000 0.743362 0.500000
O O20 0.394937 0.000000 0.307524
O O21 0.310056 0.500000 0.446774
#
# Coordination Sequence:
#
# PCOD8066426 Si02
#       8
#     4   4   4   4   4   4   4   4
#     4  10  22  37  60  90 118 154 201 249 291 343
#     4  11  23  41  63  86 116 154 194 241 297 357
#     4  11  23  39  59  87 122 159 199 239 289 352
#     4   8  15  29  52  81 111 146 186 230 281 337
#     4   9  19  37  58  84 119 154 193 242 293 342
#     4  10  21  38  61  87 118 153 193 244 296 345
#     4  10  21  38  58  82 122 166 195 235 293 351
#     4  11  23  40  61  87 116 151 200 251 297 344
#
# _framework density 19.945553
#
# number of rings (size 3 to 8) (size 9 to 14) (size 15 to 20)
#    0.000    2.000    1.250    3.000    1.750    3.250 
#    0.000    5.000    0.000    1.875    0.000    0.000 
#    0.000    0.000    0.000    0.000    0.000    0.000 
#
# Total GULP energy -396878.287729 kJ/mol
# GULP energy per Si atom -12402.446492 kJ/mol
# Density = 1.990016 g / cm^3
# Si number density = 19.945553 Si / 1000 Ang^3
#
#
#
# Elastic Constant Matrix: (Units=GPa)
#
#
# Indices 1 2 3 4 5 6 
#
# 1 102.1816 13.7134 15.4718 0.0000 -4.9202 0.0000
# 2 13.7134 35.8832 15.6125 0.0000 3.1367 0.0000
# 3 15.4718 15.6125 104.5969 0.0000 -14.8550 0.0000
# 4 0.0000 0.0000 0.0000 21.7422 0.0000 -3.8217
# 5 -4.9202 3.1367 -14.8550 0.0000 18.1356 0.0000
# 6 0.0000 0.0000 0.0000 -3.8217 0.0000 28.2382
#
#
#
# Elastic Compliance Matrix: (Units=1/GPa)
#
#
# Indices 1 2 3 4 5 6 
#
# 1 0.010564 -0.004095 -0.000502 0.000000 0.003163 0.000000
# 2 -0.004095 0.033070 -0.005998 0.000000 -0.011744 0.000000
# 3 -0.000502 -0.005998 0.012061 0.000000 0.010781 0.000000
# 4 0.000000 0.000000 0.000000 0.047114 0.000000 0.006376
# 5 0.003163 -0.011744 0.010781 0.000000 0.066860 0.000000
# 6 0.000000 0.000000 0.000000 0.006376 0.000000 0.036276
#
#
# Mechanical properties :
#
#
# Convention : Reuss Voigt Hill
#
# Bulk Modulus (GPa) = 28.98232 36.91746 32.94989
# Shear Modulus (GPa) = 20.95221 26.81415 23.88318
#
# Velocity S-wave (km/s) = 3.24461 3.67054 3.46413
# Velocity P-wave (km/s) = 5.34780 6.04261 5.70579
#
# Compressibility (1/GPa) = 0.03450380
#
# Stress axis : x y z
#
# Youngs Moduli (GPa) = 94.65679 30.23916 82.91068
#
# Poissons Ratio (x) = 0.12384 0.04163
# Poissons Ratio (y) = 0.38766 0.49731
# Poissons Ratio (z) = 0.04753 0.18138
#
# Static dielectric constant tensor:
#      x y z
#    x 3.739700 0.000000 0.011550 
#    y 0.000000 3.352890 0.000000 
#    z 0.011550 0.000000 3.668560 
# 
# 
# High freq. dielectric constant tensor:
#      x y z
#    x 1.784480 0.000000 -0.001930 
#    y 0.000000 1.759030 0.000000 
#    z -0.001930 0.000000 1.780990 
# 
# From -- ./inp_files/66507.got.cif
#   From: 2010.06.25/outbox.cif.g09.slc.cpg/sg10_34_cif.got.tgz:66507.got - 2010.06.27 22:07:45.
