data_PCOD8066609
_publ_section_title
;
Structure prediction by ZEFSAII (Michael W. Deem and Ramdas Pophale) SiO2 
 PCOD8066609
Probable space group: P 2/M
;
_chemical_formula_sum "Si O2"
_cell_formula_units_Z 24
_cell_length_a 13.420869
_cell_length_b 13.725362
_cell_length_c 11.040957
_cell_angle_alpha 90.000000
_cell_angle_beta 144.828297
_cell_angle_gamma 90.000000
_cell_volume 1171.535003
_symmetry_space_group_name_H-M "P 2/M"
_symmetry_group_IT_number 10
_symmetry_cell_setting 'monoclinic'
loop_
_space_group_symop_operation_xyz
x,y,z
-x,y,-z
-x,-y,-z
x,-y,z
loop_
_atom_site_type_symbol
_atom_site_label
_atom_site_fract_x
_atom_site_fract_y
_atom_site_fract_z
Si Si1 0.689717 0.215406 0.447377
Si Si2 0.802734 0.768976 0.826513
Si Si3 0.969227 0.224439 0.329017
Si Si4 0.537289 0.609231 0.172805
Si Si5 0.814758 0.610608 0.029780
Si Si6 0.333624 0.885224 0.089366
O O1 0.694364 0.230909 0.595825
O O2 0.677831 0.320570 0.371665
O O3 0.528316 0.147780 0.251167
O O4 0.867534 0.169176 0.571611
O O5 0.718513 0.849862 0.829124
O O6 0.792788 0.661729 0.877025
O O7 0.000000 0.799411 0.000000
O O8 0.952717 0.329177 0.246229
O O9 0.000000 0.241626 0.500000
O O10 0.796718 0.160716 0.138640
O O11 0.613735 0.500000 0.246614
O O12 0.500000 0.645283 0.000000
O O13 0.365816 0.614606 0.081517
O O14 0.879836 0.500000 0.076243
O O15 0.322275 0.000000 0.070620
#
# Coordination Sequence:
#
# PCOD8066609 Si02
#       6
#     4   4   4   4   4   4
#     4  12  23  41  70  95 128 174 213 266 332 377
#     4  11  22  44  64  95 132 168 213 272 322 382
#     4  11  24  44  69  95 132 173 214 268 318 383
#     4  10  21  38  64  97 132 173 219 259 308 381
#     4  10  21  40  63  95 137 175 213 261 316 377
#     4  11  26  46  68  97 128 163 217 274 330 394
#
# _framework density 20.485945000000001
#
# number of rings (size 3 to 8) (size 9 to 14) (size 15 to 20)
#    0.000    1.167    6.667    1.500    0.000    4.667 
#    0.000    2.500    0.000    0.000    0.000    0.000 
#    0.000    0.000    0.000    0.000    0.000    0.000 
#
# Total GULP energy -297639.404616 kJ/mol
# GULP energy per Si atom -12401.641859 kJ/mol
# Density = 2.043932 g / cm^3
# Si number density = 20.485945 Si / 1000 Ang^3
#
#
#
# Elastic Constant Matrix: (Units=GPa)
#
#
# Indices 1 2 3 4 5 6 
#
# 1 64.9046 12.5210 27.4638 0.0000 7.0134 0.0000
# 2 12.5210 129.1736 48.5809 0.0000 4.0420 0.0000
# 3 27.4638 48.5809 118.7702 0.0000 1.6626 0.0000
# 4 0.0000 0.0000 0.0000 14.4844 0.0000 -4.7782
# 5 7.0134 4.0420 1.6626 0.0000 35.9425 0.0000
# 6 0.0000 0.0000 0.0000 -4.7782 0.0000 23.4290
#
#
#
# Elastic Compliance Matrix: (Units=1/GPa)
#
#
# Indices 1 2 3 4 5 6 
#
# 1 0.017444 -0.000107 -0.003945 0.000000 -0.003209 0.000000
# 2 -0.000107 0.009176 -0.003717 0.000000 -0.000839 0.000000
# 3 -0.003945 -0.003717 0.010843 0.000000 0.000686 0.000000
# 4 0.000000 0.000000 0.000000 0.074020 0.000000 0.015096
# 5 -0.003209 -0.000839 0.000686 0.000000 0.028511 0.000000
# 6 0.000000 0.000000 0.000000 0.015096 0.000000 0.045761
#
#
# Mechanical properties :
#
#
# Convention : Reuss Voigt Hill
#
# Bulk Modulus (GPa) = 45.60969 54.44222 50.02596
# Shear Modulus (GPa) = 23.96935 29.72336 26.84635
#
# Velocity S-wave (km/s) = 3.42429 3.81322 3.62398
# Velocity P-wave (km/s) = 6.16008 6.78385 6.47948
#
# Compressibility (1/GPa) = 0.02192516
#
# Stress axis : x y z
#
# Youngs Moduli (GPa) = 57.32657 108.98001 92.22913
#
# Poissons Ratio (x) = 0.01163 0.36385
# Poissons Ratio (y) = 0.00612 0.34280
# Poissons Ratio (z) = 0.22616 0.40506
#
# Static dielectric constant tensor:
#      x y z
#    x 3.944510 0.000000 0.048170 
#    y 0.000000 3.699390 0.000000 
#    z 0.048170 0.000000 3.770600 
# 
# 
# High freq. dielectric constant tensor:
#      x y z
#    x 1.813350 0.000000 0.003730 
#    y 0.000000 1.780970 0.000000 
#    z 0.003730 0.000000 1.809460 
# 
# From -- ./inp_files/51694.got.cif
#   From: 2010.06.25/outbox.cif.g09.slc.cpg/sg10_26_cif.got.tgz:51694.got - 2010.06.27 22:07:45.
