data_PCOD8066385
_publ_section_title
;
Structure prediction by ZEFSAII (Michael W. Deem and Ramdas Pophale) SiO2 
 PCOD8066385
Probable space group: P 2/M
;
_chemical_formula_sum "Si O2"
_cell_formula_units_Z 26
_cell_length_a 10.796560
_cell_length_b 15.831600
_cell_length_c 8.885095
_cell_angle_alpha 90.000000
_cell_angle_beta 61.030531
_cell_angle_gamma 90.000000
_cell_volume 1328.677999
_symmetry_space_group_name_H-M "P 2/M"
_symmetry_group_IT_number 10
_symmetry_cell_setting 'monoclinic'
loop_
_space_group_symop_operation_xyz
x,y,z
-x,y,-z
-x,-y,-z
x,-y,z
loop_
_atom_site_type_symbol
_atom_site_label
_atom_site_fract_x
_atom_site_fract_y
_atom_site_fract_z
Si Si1 0.714135 0.597738 0.019689
Si Si2 0.646964 0.000000 0.315032
Si Si3 0.667796 0.832544 0.430148
Si Si4 0.870828 0.702834 0.168064
Si Si5 0.930481 0.323822 0.688484
Si Si6 0.261513 0.172443 0.261545
Si Si7 0.661822 0.000000 0.944891
Si Si8 0.500000 0.291697 0.000000
O O1 0.677875 0.500000 0.057396
O O2 0.800855 0.617013 0.815469
O O3 0.567872 0.649699 0.090925
O O4 0.806116 0.627166 0.107545
O O5 0.500000 0.000000 0.500000
O O6 0.728829 0.082906 0.318310
O O7 0.649512 0.000000 0.132554
O O8 0.500000 0.821992 0.500000
O O9 0.741442 0.761042 0.289433
O O10 0.718251 0.839053 0.572203
O O11 0.939291 0.665861 0.275983
O O12 0.000000 0.748504 0.000000
O O13 0.881011 0.225412 0.694214
O O14 0.000000 0.362345 0.500000
O O15 0.390317 0.230182 0.140105
O O16 0.261358 0.083256 0.170816
O O17 0.500000 0.000000 0.000000
#
# Coordination Sequence:
#
# PCOD8066385 Si02
#       8
#     4   2   4   4   4   4   2   2
#     4  10  22  39  64  93 124 158 202 255 320 386
#     4  10  24  34  54  88 126 159 206 259 305 356
#     4  11  21  38  60  88 121 160 212 264 311 369
#     4  10  22  38  64  86 123 164 208 250 318 375
#     4  10  21  40  60  89 118 164 213 255 305 371
#     4  11  22  37  64  88 125 166 213 257 309 362
#     4  12  22  36  60  92 128 164 214 258 306 372
#     4  10  21  37  66  94 122 162 200 255 321 374
#
# _framework density 19.568322999999999
#
# number of rings (size 3 to 8) (size 9 to 14) (size 15 to 20)
#    0.000    1.538    2.308    3.462    6.462    3.077 
#    0.000    1.538    0.000    1.385    0.000    0.000 
#    0.000    0.000    0.000    0.000    0.000    0.000 
#
# Total GULP energy -322103.795300 kJ/mol
# GULP energy per Si atom -12388.607512 kJ/mol
# Density = 1.952378 g / cm^3
# Si number density = 19.568323 Si / 1000 Ang^3
#
#
#
# Elastic Constant Matrix: (Units=GPa)
#
#
# Indices 1 2 3 4 5 6 
#
# 1 94.9767 34.5362 30.2879 0.0000 18.6005 0.0000
# 2 34.5362 123.3451 46.2089 0.0000 5.4488 0.0000
# 3 30.2879 46.2089 116.1983 0.0000 24.7782 0.0000
# 4 0.0000 0.0000 0.0000 2.7785 0.0000 -17.9916
# 5 18.6005 5.4488 24.7782 0.0000 36.8649 0.0000
# 6 0.0000 0.0000 0.0000 -17.9916 0.0000 -12.2107
#
#
#
# Elastic Compliance Matrix: (Units=1/GPa)
#
#
# Indices 1 2 3 4 5 6 
#
# 1 0.013019 -0.003017 -0.001037 0.000000 -0.005426 0.000000
# 2 -0.003017 0.010282 -0.003856 0.000000 0.002594 0.000000
# 3 -0.001037 -0.003856 0.011879 0.000000 -0.006891 0.000000
# 4 0.000000 0.000000 0.000000 0.034144 0.000000 -0.050309
# 5 -0.005426 0.002594 -0.006891 0.000000 0.034113 0.000000
# 6 0.000000 0.000000 0.000000 -0.050309 0.000000 -0.007769
#
#
# Mechanical properties :
#
#
# Convention : Reuss Voigt Hill
#
# Bulk Modulus (GPa) = 51.64920 61.84292 56.74606
# Shear Modulus (GPa) = 42.39444 20.38568 31.39006
#
# Velocity S-wave (km/s) = 4.65960 3.23115 4.00950
# Velocity P-wave (km/s) = 7.44317 6.75223 7.10610
#
# Compressibility (1/GPa) = 0.01936139
#
# Stress axis : x y z
#
# Youngs Moduli (GPa) = 76.80869 97.25741 84.18251
#
# Poissons Ratio (x) = 0.29346 0.08726
# Poissons Ratio (y) = 0.23176 0.32457
# Poissons Ratio (z) = 0.07962 0.37498
#
# Static dielectric constant tensor:
#      x y z
#    x 3.775210 0.000000 0.038480 
#    y 0.000000 3.705050 0.000000 
#    z 0.038480 0.000000 3.538480 
# 
# 
# High freq. dielectric constant tensor:
#      x y z
#    x 1.765530 0.000000 0.010260 
#    y 0.000000 1.751830 0.000000 
#    z 0.010260 0.000000 1.770660 
# 
# From -- ./inp_files/24852.got.cif
#   From: 2010.06.25/outbox.cif.g09.slc.cpg/sg10_13_cif.got.tgz:24852.got - 2010.06.27 22:07:45.
