data_PCOD8066762
_publ_section_title
;
Structure prediction by ZEFSAII (Michael W. Deem and Ramdas Pophale) SiO2 
 PCOD8066762
Probable space group: P 2/M
;
_chemical_formula_sum "Si O2"
_cell_formula_units_Z 28
_cell_length_a 14.948619
_cell_length_b 20.889706
_cell_length_c 8.837503
_cell_angle_alpha 90.000000
_cell_angle_beta 150.028251
_cell_angle_gamma 90.000000
_cell_volume 1378.674899
_symmetry_space_group_name_H-M "P 2/M"
_symmetry_group_IT_number 10
_symmetry_cell_setting 'monoclinic'
loop_
_space_group_symop_operation_xyz
x,y,z
-x,y,-z
-x,-y,-z
x,-y,z
loop_
_atom_site_type_symbol
_atom_site_label
_atom_site_fract_x
_atom_site_fract_y
_atom_site_fract_z
Si Si1 0.317398 0.287994 0.317398
Si Si2 0.910406 0.500000 0.104363
Si Si3 0.839721 0.924630 0.156498
Si Si4 0.817969 0.850020 0.817968
Si Si5 0.477054 0.075370 0.793832
Si Si6 0.655201 0.635687 0.336370
Si Si7 0.716449 0.500000 0.522479
Si Si8 0.974027 0.635687 0.292854
O O1 0.500000 0.302830 0.500000
O O2 0.288092 0.212754 0.288099
O O3 0.326722 0.317716 0.496535
O O4 0.156905 0.317711 0.987085
O O5 0.894604 0.563487 0.183650
O O6 0.094465 0.500000 0.283400
O O7 0.746242 0.500000 0.746233
O O8 0.000000 0.902063 0.500000
O O9 0.848646 0.000000 0.141151
O O10 0.865080 0.890917 0.034048
O O11 0.651862 0.904386 0.955587
O O12 0.696119 0.890920 0.527152
O O13 0.000000 0.830901 0.000000
O O14 0.443866 0.000000 0.736388
O O15 0.500000 0.097939 0.000000
O O16 0.605557 0.563488 0.316500
O O17 0.839569 0.636447 0.518704
O O18 0.500000 0.661729 0.000000
O O19 0.000000 0.661725 0.500000
#
# Coordination Sequence:
#
# PCOD8066762 Si02
#       8
#     4   2   4   4   4   4   2   4
#     4  12  26  44  62  86 119 160 208 255 304 360
#     4   9  17  34  62  91 122 158 194 245 304 359
#     4  10  21  39  64  95 129 163 201 248 300 355
#     4  12  25  41  63  90 122 163 207 251 304 361
#     4  10  21  39  64  95 129 163 201 248 300 355
#     4  11  22  40  64  91 123 159 201 248 304 363
#     4   9  17  34  62  91 122 158 194 245 304 359
#     4  11  22  40  64  91 123 159 201 248 304 363
#
# _framework density 20.309356000000001
#
# number of rings (size 3 to 8) (size 9 to 14) (size 15 to 20)
#    0.000    1.286    1.429    5.143    0.000    4.571 
#    0.000    8.571    0.000    0.000    0.000    0.000 
#    0.000    0.000    0.000    0.000    0.000    0.000 
#
# Total GULP energy -347347.450791 kJ/mol
# GULP energy per Si atom -12405.266100 kJ/mol
# Density = 2.026313 g / cm^3
# Si number density = 20.309356 Si / 1000 Ang^3
#
#
#
# Elastic Constant Matrix: (Units=GPa)
#
#
# Indices 1 2 3 4 5 6 
#
# 1 99.2804 28.6603 48.2903 0.0000 -15.1260 0.0000
# 2 28.6603 68.0393 41.9085 0.0000 -13.4949 0.0000
# 3 48.2903 41.9085 140.7759 0.0000 -27.0885 0.0000
# 4 0.0000 0.0000 0.0000 -4.0220 0.0000 20.3171
# 5 -15.1260 -13.4949 -27.0885 0.0000 45.1014 0.0000
# 6 0.0000 0.0000 0.0000 20.3171 0.0000 15.9478
#
#
#
# Elastic Compliance Matrix: (Units=1/GPa)
#
#
# Indices 1 2 3 4 5 6 
#
# 1 0.012732 -0.003133 -0.003159 0.000000 0.001436 0.000000
# 2 -0.003133 0.019011 -0.004175 0.000000 0.002130 0.000000
# 3 -0.003159 -0.004175 0.010160 0.000000 0.003794 0.000000
# 4 0.000000 0.000000 0.000000 -0.033439 0.000000 0.042600
# 5 0.001436 0.002130 0.003794 0.000000 0.025570 0.000000
# 6 0.000000 0.000000 0.000000 0.042600 0.000000 0.008433
#
#
# Mechanical properties :
#
#
# Convention : Reuss Voigt Hill
#
# Bulk Modulus (GPa) = 47.68711 60.64597 54.16654
# Shear Modulus (GPa) = 71.03322 24.02123 47.52722
#
# Velocity S-wave (km/s) = 5.92043 3.44287 4.84277
# Velocity P-wave (km/s) = 8.38253 6.76242 7.61568
#
# Compressibility (1/GPa) = 0.02097003
#
# Stress axis : x y z
#
# Youngs Moduli (GPa) = 78.54274 52.60089 98.42695
#
# Poissons Ratio (x) = 0.16479 0.31089
# Poissons Ratio (y) = 0.24606 0.41093
# Poissons Ratio (z) = 0.24808 0.21961
#
# Static dielectric constant tensor:
#      x y z
#    x 3.705000 0.000000 -0.090010 
#    y 0.000000 3.713720 0.000000 
#    z -0.090010 0.000000 3.793210 
# 
# 
# High freq. dielectric constant tensor:
#      x y z
#    x 1.799270 0.000000 -0.007880 
#    y 0.000000 1.790930 0.000000 
#    z -0.007880 0.000000 1.807010 
# 
# From -- ./inp_files/30519.got.cif
#   From: 2010.06.25/outbox.cif.g09.slc.cpg/sg10_16_cif.got.tgz:30519.got - 2010.06.27 22:07:45.
