data_PCOD8066776
_publ_section_title
;
Structure prediction by ZEFSAII (Michael W. Deem and Ramdas Pophale) SiO2 
 PCOD8066776
Probable space group: P 2/M
;
_chemical_formula_sum "Si O2"
_cell_formula_units_Z 18
_cell_length_a 4.954205
_cell_length_b 8.152334
_cell_length_c 20.203287
_cell_angle_alpha 90.000000
_cell_angle_beta 61.876495
_cell_angle_gamma 90.000000
_cell_volume 719.637592
_symmetry_space_group_name_H-M "P 2/M"
_symmetry_group_IT_number 10
_symmetry_cell_setting 'monoclinic'
loop_
_space_group_symop_operation_xyz
x,y,z
-x,y,-z
-x,-y,-z
x,-y,z
loop_
_atom_site_type_symbol
_atom_site_label
_atom_site_fract_x
_atom_site_fract_y
_atom_site_fract_z
Si Si1 0.650283 0.000000 0.554365
Si Si2 0.155166 0.807117 0.048638
Si Si3 0.257587 0.808851 0.298288
Si Si4 0.063618 0.312305 0.788173
Si Si5 0.632881 0.679143 0.411662
O O1 0.500000 0.000000 0.500000
O O2 0.542233 0.832382 0.605473
O O3 0.000000 0.000000 0.500000
O O4 0.993561 0.721125 0.128591
O O5 0.120654 0.000000 0.063240
O O6 0.500000 0.750093 0.000000
O O7 0.000000 0.744990 0.000000
O O8 0.586384 0.725471 0.271525
O O9 0.162853 0.795532 0.231459
O O10 0.995594 0.716164 0.371248
O O11 0.265668 0.000000 0.318985
O O12 0.992002 0.500000 0.780343
O O13 0.500000 0.671447 0.500000
O O14 0.577197 0.500000 0.384284
#
# Coordination Sequence:
#
# PCOD8066776 Si02
#       5
#     2   4   4   4   4
#     4  10  22  40  62  90 126 164 210 266 332 394
#     4  10  21  39  65  96 132 175 222 271 330 405
#     4  12  25  45  70  97 136 184 231 282 344 414
#     4  12  26  44  68 102 140 177 225 283 345 408
#     4  10  22  43  69  99 133 175 228 286 343 406
#
# _framework density 25.012594
#
# number of rings (size 3 to 8) (size 9 to 14) (size 15 to 20)
#    0.000    1.111    1.111    5.333    0.000    6.667 
#    0.000    4.444    0.000    0.000    0.000    0.000 
#    0.000    0.000    0.000    0.000    0.000    0.000 
#
# Total GULP energy -223207.060521 kJ/mol
# GULP energy per Si atom -12400.392251 kJ/mol
# Density = 2.495566 g / cm^3
# Si number density = 25.012594 Si / 1000 Ang^3
#
#
#
# Elastic Constant Matrix: (Units=GPa)
#
#
# Indices 1 2 3 4 5 6 
#
# 1 69.7219 30.4963 -23.7411 0.0000 -20.0365 0.0000
# 2 30.4963 198.8097 28.5385 0.0000 -21.3048 0.0000
# 3 -23.7411 28.5385 124.9247 0.0000 -1.2507 0.0000
# 4 0.0000 0.0000 0.0000 -25.7881 0.0000 -15.5299
# 5 -20.0365 -21.3048 -1.2507 0.0000 35.0061 0.0000
# 6 0.0000 0.0000 0.0000 -15.5299 0.0000 33.9391
#
#
#
# Elastic Compliance Matrix: (Units=1/GPa)
#
#
# Indices 1 2 3 4 5 6 
#
# 1 0.019870 -0.002626 0.004476 0.000000 0.009935 0.000000
# 2 -0.002626 0.005913 -0.001829 0.000000 0.002030 0.000000
# 3 0.004476 -0.001829 0.009291 0.000000 0.001780 0.000000
# 4 0.000000 0.000000 0.000000 -0.030400 0.000000 -0.013911
# 5 0.009935 0.002030 0.001780 0.000000 0.035552 0.000000
# 6 0.000000 0.000000 0.000000 -0.013911 0.000000 0.023099
#
#
# Mechanical properties :
#
#
# Convention : Reuss Voigt Hill
#
# Bulk Modulus (GPa) = 28.47795 51.56042 40.01918
# Shear Modulus (GPa) = 66.67566 32.50892 49.59229
#
# Velocity S-wave (km/s) = 5.16863 3.60905 4.45757
# Velocity P-wave (km/s) = 6.85783 6.16648 6.52132
#
# Compressibility (1/GPa) = 0.03511489
#
# Stress axis : x y z
#
# Youngs Moduli (GPa) = 50.32639 169.12165 107.62962
#
# Poissons Ratio (x) = 0.44408 -0.48170
# Poissons Ratio (y) = 0.13215 0.19690
# Poissons Ratio (z) = -0.22524 0.30940
#
# Static dielectric constant tensor:
#      x y z
#    x 4.653690 0.000000 0.076710 
#    y 0.000000 -2.008200 0.000000 
#    z 0.076710 0.000000 4.665850 
# 
# 
# High freq. dielectric constant tensor:
#      x y z
#    x 2.004040 0.000000 0.007200 
#    y 0.000000 2.008810 0.000000 
#    z 0.007200 0.000000 2.018770 
# 
# From -- ./inp_files/10591.got.cif
#   From: 2010.06.25/outbox.cif.g09.slc.cpg/sg10_6_cif.got.tgz:10591.got - 2010.06.27 22:07:45.
