data_PCOD8066784
_publ_section_title
;
Structure prediction by ZEFSAII (Michael W. Deem and Ramdas Pophale) SiO2 
 PCOD8066784
Probable space group: P 2/M
;
_chemical_formula_sum "Si O2"
_cell_formula_units_Z 32
_cell_length_a 21.181272
_cell_length_b 8.601115
_cell_length_c 26.825767
_cell_angle_alpha 90.000000
_cell_angle_beta 18.486486
_cell_angle_gamma 90.000000
_cell_volume 1549.633945
_symmetry_space_group_name_H-M "P 2/M"
_symmetry_group_IT_number 10
_symmetry_cell_setting 'monoclinic'
loop_
_space_group_symop_operation_xyz
x,y,z
-x,y,-z
-x,-y,-z
x,-y,z
loop_
_atom_site_type_symbol
_atom_site_label
_atom_site_fract_x
_atom_site_fract_y
_atom_site_fract_z
Si Si1 0.537241 0.315548 0.528100
Si Si2 0.981074 0.684553 0.211371
Si Si3 0.926389 0.820021 0.667825
Si Si4 0.776151 0.182809 0.159318
Si Si5 0.645903 0.820021 0.787273
Si Si6 0.694515 0.679727 0.649529
Si Si7 0.287505 0.317153 0.899818
Si Si8 0.233206 0.681077 0.115804
O O1 0.500000 0.255567 0.500000
O O2 0.531723 0.500000 0.534456
O O3 0.755425 0.252400 0.380284
O O4 0.369248 0.254172 0.690707
O O5 0.988121 0.500000 0.205055
O O6 0.085948 0.744116 0.183089
O O7 0.100909 0.742824 0.072648
O O8 0.801055 0.770527 0.713340
O O9 0.795032 0.784058 0.814275
O O10 0.125945 0.716748 0.522807
O O11 0.983615 0.000000 0.623461
O O12 0.705314 0.227867 0.157489
O O13 0.769063 0.000000 0.171230
O O14 0.000000 0.246886 0.000000
O O15 0.742211 0.788126 0.661377
O O16 0.584618 0.000000 0.839019
O O17 0.457302 0.706789 0.930325
O O18 0.693502 0.500000 0.665650
O O19 0.487445 0.726533 0.779389
O O20 0.274894 0.500000 0.898289
O O21 0.197050 0.500000 0.154090
#
# Coordination Sequence:
#
# PCOD8066784 Si02
#       8
#     4   4   4   4   4   4   4   4
#     4  10  21  39  67  96 123 161 205 247 296 355
#     4   9  19  38  62  90 121 153 198 255 305 352
#     4  11  25  41  58  86 125 163 204 257 315 377
#     4  11  25  42  61  92 132 167 201 245 296 353
#     4  11  23  41  62  86 121 164 206 254 314 378
#     4  11  23  40  64  92 120 158 208 262 312 366
#     4  10  21  41  66  90 120 159 204 253 303 359
#     4  11  22  39  62  89 122 160 208 262 309 362
#
# _framework density 20.650037999999999
#
# number of rings (size 3 to 8) (size 9 to 14) (size 15 to 20)
#    0.000    1.500    1.250    3.375    1.750    8.250 
#    0.000    1.250    0.000    0.000    0.000    0.000 
#    0.000    0.000    0.000    0.000    0.000    0.000 
#
# Total GULP energy -396944.599675 kJ/mol
# GULP energy per Si atom -12404.518740 kJ/mol
# Density = 2.060304 g / cm^3
# Si number density = 20.650038 Si / 1000 Ang^3
#
#
#
# Elastic Constant Matrix: (Units=GPa)
#
#
# Indices 1 2 3 4 5 6 
#
# 1 118.3687 35.6926 49.6312 0.0000 6.6262 0.0000
# 2 35.6926 34.3097 31.2957 0.0000 -7.2686 0.0000
# 3 49.6312 31.2957 128.4658 0.0000 -9.6555 0.0000
# 4 0.0000 0.0000 0.0000 26.7809 0.0000 -4.1976
# 5 6.6262 -7.2686 -9.6555 0.0000 33.3712 0.0000
# 6 0.0000 0.0000 0.0000 -4.1976 0.0000 15.2940
#
#
#
# Elastic Compliance Matrix: (Units=1/GPa)
#
#
# Indices 1 2 3 4 5 6 
#
# 1 0.013985 -0.013562 -0.002586 0.000000 -0.006479 0.000000
# 2 -0.013562 0.051695 -0.006445 0.000000 0.012088 0.000000
# 3 -0.002586 -0.006445 0.010515 0.000000 0.002152 0.000000
# 4 0.000000 0.000000 0.000000 0.039019 0.000000 0.010709
# 5 -0.006479 0.012088 0.002152 0.000000 0.034508 0.000000
# 6 0.000000 0.000000 0.000000 0.010709 0.000000 0.068324
#
#
# Mechanical properties :
#
#
# Convention : Reuss Voigt Hill
#
# Bulk Modulus (GPa) = 32.24982 57.15369 44.70175
# Shear Modulus (GPa) = 18.27699 26.05754 22.16727
#
# Velocity S-wave (km/s) = 2.97826 3.55613 3.27994
# Velocity P-wave (km/s) = 5.24194 6.67823 6.00319
#
# Compressibility (1/GPa) = 0.03100793
#
# Stress axis : x y z
#
# Youngs Moduli (GPa) = 71.50736 19.34424 95.10131
#
# Poissons Ratio (x) = 0.26235 0.24592
# Poissons Ratio (y) = 0.96979 0.61297
# Poissons Ratio (z) = 0.18491 0.12468
#
# Static dielectric constant tensor:
#      x y z
#    x 3.828770 0.000000 -0.092510 
#    y 0.000000 3.438710 0.000000 
#    z -0.092510 0.000000 3.863820 
# 
# 
# High freq. dielectric constant tensor:
#      x y z
#    x 1.817970 0.000000 0.001070 
#    y 0.000000 1.790360 0.000000 
#    z 0.001070 0.000000 1.823710 
# 
# From -- ./inp_files/93632.got.cif
#   From: 2010.06.25/outbox.cif.g09.slc.cpg/sg10_47_cif.got.tgz:93632.got - 2010.06.27 22:07:45.
