data_PCOD8066293
_publ_section_title
;
Structure prediction by ZEFSAII (Michael W. Deem and Ramdas Pophale) SiO2 
 PCOD8066293
Probable space group: P 2/M
;
_chemical_formula_sum "Si O2"
_cell_formula_units_Z 18
_cell_length_a 20.213982
_cell_length_b 9.818942
_cell_length_c 9.382120
_cell_angle_alpha 90.000000
_cell_angle_beta 149.606397
_cell_angle_gamma 90.000000
_cell_volume 942.137718
_symmetry_space_group_name_H-M "P 2/M"
_symmetry_group_IT_number 10
_symmetry_cell_setting 'monoclinic'
loop_
_space_group_symop_operation_xyz
x,y,z
-x,y,-z
-x,-y,-z
x,-y,z
loop_
_atom_site_type_symbol
_atom_site_label
_atom_site_fract_x
_atom_site_fract_y
_atom_site_fract_z
Si Si1 0.781080 0.000000 0.785801
Si Si2 0.148464 0.253793 0.259341
Si Si3 0.325985 0.500000 0.546215
Si Si4 0.278608 0.214493 0.805384
Si Si5 0.613882 0.500000 0.010757
Si Si6 0.848212 0.000000 0.233396
Si Si7 0.489084 0.000000 0.145328
O O1 0.854002 0.128828 0.854044
O O2 0.629178 0.000000 0.473728
O O3 0.784390 0.000000 0.960985
O O4 0.238080 0.368070 0.351751
O O5 0.206271 0.209035 0.519055
O O6 0.000000 0.307780 0.000000
O O7 0.456729 0.500000 0.690249
O O8 0.367242 0.500000 0.786148
O O9 0.189158 0.138783 0.754137
O O10 0.313544 0.367953 0.920057
O O11 0.415813 0.136554 0.055002
O O12 0.000000 0.000000 0.500000
O O13 0.500000 0.000000 0.000000
#
# Coordination Sequence:
#
# PCOD8066293 Si02
#       7
#     2   4   2   4   2   2   2
#     4  12  22  34  60  83 111 152 190 236 284 328
#     4  11  20  34  55  85 113 147 190 232 281 339
#     4   9  19  32  55  85 113 142 176 242 289 333
#     4  10  21  37  59  83 114 150 189 237 283 337
#     4   9  18  34  58  83 109 145 191 228 293 336
#     4  11  24  42  56  81 119 157 191 229 278 338
#     4  11  19  35  58  86 114 142 188 236 289 331
#
# _framework density 19.105487
#
# number of rings (size 3 to 8) (size 9 to 14) (size 15 to 20)
#    0.000    1.556    2.222    4.000    3.111    1.778 
#    0.000    1.667    0.000    2.667    0.000    0.000 
#    0.000    0.000    0.000    0.000    0.000    0.000 
#
# Total GULP energy -223202.422482 kJ/mol
# GULP energy per Si atom -12400.134582 kJ/mol
# Density = 1.906200 g / cm^3
# Si number density = 19.105487 Si / 1000 Ang^3
#
#
#
# Elastic Constant Matrix: (Units=GPa)
#
#
# Indices 1 2 3 4 5 6 
#
# 1 104.0800 58.4970 34.0328 0.0000 10.1167 0.0000
# 2 58.4970 160.3752 21.8893 0.0000 9.1145 0.0000
# 3 34.0328 21.8893 78.0786 0.0000 12.7602 0.0000
# 4 0.0000 0.0000 0.0000 16.5111 0.0000 7.9510
# 5 10.1167 9.1145 12.7602 0.0000 42.2147 0.0000
# 6 0.0000 0.0000 0.0000 7.9510 0.0000 16.2518
#
#
#
# Elastic Compliance Matrix: (Units=1/GPa)
#
#
# Indices 1 2 3 4 5 6 
#
# 1 0.013603 -0.004284 -0.004573 0.000000 -0.000953 0.000000
# 2 -0.004284 0.007865 -0.000240 0.000000 -0.000599 0.000000
# 3 -0.004573 -0.000240 0.015443 0.000000 -0.003520 0.000000
# 4 0.000000 0.000000 0.000000 0.079232 0.000000 -0.038763
# 5 -0.000953 -0.000599 -0.003520 0.000000 0.025110 0.000000
# 6 0.000000 0.000000 0.000000 -0.038763 0.000000 0.080496
#
#
# Mechanical properties :
#
#
# Convention : Reuss Voigt Hill
#
# Bulk Modulus (GPa) = 53.42172 63.48576 58.45374
# Shear Modulus (GPa) = 20.31021 30.20317 25.25669
#
# Velocity S-wave (km/s) = 3.26399 3.98032 3.63982
# Velocity P-wave (km/s) = 6.49823 7.37734 6.95170
#
# Compressibility (1/GPa) = 0.01871898
#
# Stress axis : x y z
#
# Youngs Moduli (GPa) = 73.51108 127.15232 64.75274
#
# Poissons Ratio (x) = 0.54466 0.29610
# Poissons Ratio (y) = 0.31489 0.01553
# Poissons Ratio (z) = 0.33615 0.03049
#
# Static dielectric constant tensor:
#      x y z
#    x 3.275480 0.000000 0.294940 
#    y 0.000000 3.726020 0.000000 
#    z 0.294940 0.000000 3.405890 
# 
# 
# High freq. dielectric constant tensor:
#      x y z
#    x 1.723570 0.000000 0.025850 
#    y 0.000000 1.755050 0.000000 
#    z 0.025850 0.000000 1.744070 
# 
# From -- ./inp_files/33642.got.cif
#   From: 2010.06.25/outbox.cif.g09.slc.cpg/sg10_17_cif.got.tgz:33642.got - 2010.06.27 22:07:45.
