data_PCOD8066297
_publ_section_title
;
Structure prediction by ZEFSAII (Michael W. Deem and Ramdas Pophale) SiO2 
 PCOD8066297
Probable space group: P 2/M
;
_chemical_formula_sum "Si O2"
_cell_formula_units_Z 32
_cell_length_a 13.727687
_cell_length_b 9.046334
_cell_length_c 22.009107
_cell_angle_alpha 90.000000
_cell_angle_beta 37.083570
_cell_angle_gamma 90.000000
_cell_volume 1648.066667
_symmetry_space_group_name_H-M "P 2/M"
_symmetry_group_IT_number 10
_symmetry_cell_setting 'monoclinic'
loop_
_space_group_symop_operation_xyz
x,y,z
-x,y,-z
-x,-y,-z
x,-y,z
loop_
_atom_site_type_symbol
_atom_site_label
_atom_site_fract_x
_atom_site_fract_y
_atom_site_fract_z
Si Si1 0.797867 0.829017 0.486040
Si Si2 0.492244 0.329322 0.433805
Si Si3 0.319048 0.675491 0.093293
Si Si4 0.156258 0.673099 0.051051
Si Si5 0.206558 0.330183 0.798422
Si Si6 0.331526 0.825824 0.853427
Si Si7 0.126141 0.324680 0.305898
Si Si8 0.702692 0.170290 0.669565
O O1 0.635235 0.773083 0.536196
O O2 0.788658 0.805008 0.562631
O O3 0.947787 0.738781 0.385195
O O4 0.820453 0.000000 0.458717
O O5 0.500000 0.283459 0.500000
O O6 0.440902 0.500000 0.451786
O O7 0.666674 0.298002 0.317994
O O8 0.325066 0.500000 0.091945
O O9 0.218221 0.729978 0.085334
O O10 0.234312 0.734772 0.196389
O O11 0.500000 0.741157 0.000000
O O12 0.189331 0.500000 0.025763
O O13 0.967702 0.711309 0.141357
O O14 0.255127 0.758305 0.951217
O O15 0.213686 0.500000 0.816104
O O16 0.238037 0.230912 0.841138
O O17 0.517844 0.777153 0.756855
O O18 0.312756 0.000000 0.864944
O O19 0.114865 0.500000 0.312221
O O20 0.204386 0.271204 0.329244
O O21 0.714484 0.000000 0.684349
#
# Coordination Sequence:
#
# PCOD8066297 Si02
#       8
#     4   4   4   4   4   4   4   4
#     4  11  23  41  61  85 121 163 197 236 296 358
#     4  10  22  39  63  91 120 154 198 250 297 343
#     4   9  19  37  60  87 118 151 189 238 294 348
#     4  10  21  37  59  85 117 154 194 240 297 356
#     4  10  21  37  59  87 117 154 194 241 298 353
#     4  11  22  38  59  85 118 156 197 245 292 343
#     4  11  23  37  62  93 118 149 198 251 294 346
#     4  10  22  40  59  82 118 159 196 239 297 354
#
# _framework density 19.416691
#
# number of rings (size 3 to 8) (size 9 to 14) (size 15 to 20)
#    0.000    1.750    1.250    2.625    1.750    6.750 
#    0.000    1.250    0.000    3.375    0.000    0.000 
#    0.000    0.000    0.000    0.000    0.000    0.000 
#
# Total GULP energy -396969.752908 kJ/mol
# GULP energy per Si atom -12405.304778 kJ/mol
# Density = 1.937250 g / cm^3
# Si number density = 19.416691 Si / 1000 Ang^3
#
#
#
# Elastic Constant Matrix: (Units=GPa)
#
#
# Indices 1 2 3 4 5 6 
#
# 1 71.6565 30.5072 23.5894 0.0000 -0.1690 0.0000
# 2 30.5072 61.8484 38.8134 0.0000 -0.1550 0.0000
# 3 23.5894 38.8134 122.4952 0.0000 -5.3220 0.0000
# 4 0.0000 0.0000 0.0000 25.3172 0.0000 -6.7229
# 5 -0.1690 -0.1550 -5.3220 0.0000 39.0955 0.0000
# 6 0.0000 0.0000 0.0000 -6.7229 0.0000 4.9720
#
#
#
# Elastic Compliance Matrix: (Units=1/GPa)
#
#
# Indices 1 2 3 4 5 6 
#
# 1 0.017728 -0.008239 -0.000806 0.000000 -0.000066 0.000000
# 2 -0.008239 0.024035 -0.006062 0.000000 -0.000766 0.000000
# 3 -0.000806 -0.006062 0.010299 0.000000 0.001375 0.000000
# 4 0.000000 0.000000 0.000000 0.061627 0.000000 0.083329
# 5 -0.000066 -0.000766 0.001375 0.000000 0.025762 0.000000
# 6 0.000000 0.000000 0.000000 0.083329 0.000000 0.313803
#
#
# Mechanical properties :
#
#
# Convention : Reuss Voigt Hill
#
# Bulk Modulus (GPa) = 45.77106 49.09110 47.43108
# Shear Modulus (GPa) = 10.18844 24.74960 17.46902
#
# Velocity S-wave (km/s) = 2.29317 3.57411 3.00274
# Velocity P-wave (km/s) = 5.53496 6.50923 6.04177
#
# Compressibility (1/GPa) = 0.02184787
#
# Stress axis : x y z
#
# Youngs Moduli (GPa) = 56.40679 41.60614 97.09233
#
# Poissons Ratio (x) = 0.34278 0.07829
# Poissons Ratio (y) = 0.46472 0.58860
# Poissons Ratio (z) = 0.04549 0.25223
#
# Static dielectric constant tensor:
#      x y z
#    x 3.622350 0.000000 0.002880 
#    y 0.000000 3.397890 0.000000 
#    z 0.002880 0.000000 3.831880 
# 
# 
# High freq. dielectric constant tensor:
#      x y z
#    x 1.766000 0.000000 -0.002800 
#    y 0.000000 1.741500 0.000000 
#    z -0.002800 0.000000 1.774160 
# 
# From -- ./inp_files/89545.got.cif
#   From: 2010.06.25/outbox.cif.g09.slc.cpg/sg10_45_cif.got.tgz:89545.got - 2010.06.27 22:07:45.
