data_PCOD8066070
_publ_section_title
;
Structure prediction by ZEFSAII (Michael W. Deem and Ramdas Pophale) SiO2 
 PCOD8066070
Probable space group: P 2/M
;
_chemical_formula_sum "Si O2"
_cell_formula_units_Z 28
_cell_length_a 15.334064
_cell_length_b 21.181130
_cell_length_c 8.825377
_cell_angle_alpha 90.000000
_cell_angle_beta 30.309458
_cell_angle_gamma 90.000000
_cell_volume 1446.596046
_symmetry_space_group_name_H-M "P 2/M"
_symmetry_group_IT_number 10
_symmetry_cell_setting 'monoclinic'
loop_
_space_group_symop_operation_xyz
x,y,z
-x,y,-z
-x,-y,-z
x,-y,z
loop_
_atom_site_type_symbol
_atom_site_label
_atom_site_fract_x
_atom_site_fract_y
_atom_site_fract_z
Si Si1 0.699736 0.000000 0.021047
Si Si2 0.500000 0.213543 0.823104
Si Si3 0.823964 0.871831 0.693308
Si Si4 0.699737 0.000000 0.379743
Si Si5 0.177281 0.571980 0.163053
Si Si6 0.177283 0.571980 0.805098
Si Si7 0.176035 0.128169 0.665200
Si Si8 0.500000 0.650932 0.679565
O O1 0.723432 0.000000 0.164851
O O2 0.499999 0.000000 0.272172
O O3 0.792344 0.060292 0.812883
O O4 0.668652 0.174415 0.522292
O O5 0.499999 0.277505 0.730702
O O6 0.500000 0.229106 0.000000
O O7 0.331348 0.174415 0.028247
O O8 0.840856 0.878789 0.488716
O O9 0.000000 0.843521 0.500000
O O10 0.792343 0.060292 0.310087
O O11 0.213107 0.500000 0.160017
O O12 0.000000 0.597528 0.500000
O O13 0.162420 0.577153 0.006369
O O14 0.331228 0.615248 0.996482
O O15 0.213107 0.500000 0.700660
O O16 0.331229 0.615249 0.509831
O O17 0.000000 0.597528 0.000000
O O18 0.000000 0.156479 0.000000
O O19 0.500000 0.647573 0.500000
#
# Coordination Sequence:
#
# PCOD8066070 Si02
#       8
#     2   4   4   2   4   4   4   4
#     4  11  22  37  62  92 118 146 184 233 285 337
#     4  10  24  42  58  79 113 153 190 233 280 331
#     4  11  23  41  62  85 114 150 190 233 285 338
#     4  11  22  37  62  92 118 146 184 233 285 337
#     4   9  18  34  56  83 113 145 183 228 278 331
#     4   9  18  34  56  83 113 145 183 228 278 331
#     4  11  23  41  62  85 114 150 190 233 285 338
#     4  10  21  36  57  81 110 149 189 229 276 332
#
# _framework density 19.355784
#
# number of rings (size 3 to 8) (size 9 to 14) (size 15 to 20)
#    0.000    1.857    1.429    2.143    0.000    6.857 
#    0.000    5.714    0.000    4.286    0.000    0.000 
#    0.000    0.000    0.000    0.000    0.000    0.000 
#
# Total GULP energy -347318.339340 kJ/mol
# GULP energy per Si atom -12404.226405 kJ/mol
# Density = 1.931173 g / cm^3
# Si number density = 19.355784 Si / 1000 Ang^3
#
#
#
# Elastic Constant Matrix: (Units=GPa)
#
#
# Indices 1 2 3 4 5 6 
#
# 1 81.1147 43.4985 50.2947 0.0000 -29.1971 0.0000
# 2 43.4985 114.8961 70.8075 0.0000 -20.4032 0.0000
# 3 50.2947 70.8075 161.0345 0.0000 -30.5095 0.0000
# 4 0.0000 0.0000 0.0000 10.8884 0.0000 11.9190
# 5 -29.1971 -20.4032 -30.5095 0.0000 35.9314 0.0000
# 6 0.0000 0.0000 0.0000 11.9190 0.0000 26.8416
#
#
#
# Elastic Compliance Matrix: (Units=1/GPa)
#
#
# Indices 1 2 3 4 5 6 
#
# 1 0.020354 -0.004169 -0.002191 0.000000 0.012311 0.000000
# 2 -0.004169 0.013028 -0.004370 0.000000 0.000300 0.000000
# 3 -0.002191 -0.004370 0.009543 0.000000 0.003841 0.000000
# 4 0.000000 0.000000 0.000000 0.178707 0.000000 -0.079355
# 5 0.012311 0.000300 0.003841 0.000000 0.041267 0.000000
# 6 0.000000 0.000000 0.000000 -0.079355 0.000000 0.072493
#
#
# Mechanical properties :
#
#
# Convention : Reuss Voigt Hill
#
# Bulk Modulus (GPa) = 46.58670 76.24961 61.41815
# Shear Modulus (GPa) = 13.73598 27.56193 20.64896
#
# Velocity S-wave (km/s) = 2.66683 3.77764 3.26975
# Velocity P-wave (km/s) = 5.79685 7.64896 6.78639
#
# Compressibility (1/GPa) = 0.02146535
#
# Stress axis : x y z
#
# Youngs Moduli (GPa) = 49.13005 76.75778 104.78489
#
# Poissons Ratio (x) = 0.32002 0.22962
# Poissons Ratio (y) = 0.20483 0.45786
# Poissons Ratio (z) = 0.10766 0.33540
#
# Static dielectric constant tensor:
#      x y z
#    x 3.548730 0.000000 -0.219480 
#    y 0.000000 3.451430 0.000000 
#    z -0.219480 0.000000 3.842460 
# 
# 
# High freq. dielectric constant tensor:
#      x y z
#    x 1.754440 0.000000 -0.011010 
#    y 0.000000 1.747630 0.000000 
#    z -0.011010 0.000000 1.769170 
# 
# From -- ./inp_files/30439.got.cif
#   From: 2010.06.25/outbox.cif.g09.slc.cpg/sg10_16_cif.got.tgz:30439.got - 2010.06.27 22:07:45.
