data_PCOD8066732
_publ_section_title
;
Structure prediction by ZEFSAII (Michael W. Deem and Ramdas Pophale) SiO2 
 PCOD8066732
Probable space group: P 2/M
;
_chemical_formula_sum "Si O2"
_cell_formula_units_Z 20
_cell_length_a 8.149515
_cell_length_b 23.056337
_cell_length_c 10.104309
_cell_angle_alpha 90.000000
_cell_angle_beta 151.489759
_cell_angle_gamma 90.000000
_cell_volume 906.221858
_symmetry_space_group_name_H-M "P 2/M"
_symmetry_group_IT_number 10
_symmetry_cell_setting 'monoclinic'
loop_
_space_group_symop_operation_xyz
x,y,z
-x,y,-z
-x,-y,-z
x,-y,z
loop_
_atom_site_type_symbol
_atom_site_label
_atom_site_fract_x
_atom_site_fract_y
_atom_site_fract_z
Si Si1 0.245870 0.172395 0.550361
Si Si2 0.127145 0.239864 0.943065
Si Si3 0.610679 0.937051 0.723964
Si Si4 0.607337 0.346438 0.215059
Si Si5 0.596249 0.565568 0.709837
O O1 0.304297 0.105197 0.557189
O O2 0.000000 0.180315 0.500000
O O3 0.156082 0.216230 0.363749
O O4 0.620787 0.186491 0.868912
O O5 0.331792 0.295342 0.035294
O O6 0.000000 0.256431 0.000000
O O7 0.500000 0.950794 0.500000
O O8 0.609650 0.000000 0.799434
O O9 0.000000 0.910271 0.000000
O O10 0.581135 0.395736 0.305928
O O11 0.000000 0.322481 0.500000
O O12 0.500000 0.375764 0.000000
O O13 0.500000 0.592338 0.500000
O O14 0.454235 0.500000 0.624774
O O15 0.000000 0.567165 0.000000
#
# Coordination Sequence:
#
# PCOD8066732 Si02
#       5
#     4   4   4   4   4
#     4  12  24  40  63  92 126 159 202 261 318 367
#     4  12  25  42  63  87 121 166 212 253 308 378
#     4  10  21  39  63  91 124 164 210 254 305 376
#     4  12  25  41  63  93 129 163 207 264 319 370
#     4  10  22  42  67  95 129 170 214 256 307 376
#
# _framework density 22.069649999999999
#
# number of rings (size 3 to 8) (size 9 to 14) (size 15 to 20)
#    0.000    0.800    0.000    9.000    0.000    2.800 
#    0.000    0.000    0.000    6.000    0.000    0.000 
#    0.000    0.000    0.000    0.000    0.000    0.000 
#
# Total GULP energy -247808.241832 kJ/mol
# GULP energy per Si atom -12390.412092 kJ/mol
# Density = 2.201942 g / cm^3
# Si number density = 22.069650 Si / 1000 Ang^3
#
#
#
# Elastic Constant Matrix: (Units=GPa)
#
#
# Indices 1 2 3 4 5 6 
#
# 1 118.7138 51.2822 42.2418 0.0000 -17.0143 0.0000
# 2 51.2822 111.0962 27.7284 0.0000 -10.8571 0.0000
# 3 42.2418 27.7284 113.4078 0.0000 -13.3629 0.0000
# 4 0.0000 0.0000 0.0000 38.4324 0.0000 5.4330
# 5 -17.0143 -10.8571 -13.3629 0.0000 40.7130 0.0000
# 6 0.0000 0.0000 0.0000 5.4330 0.0000 32.7989
#
#
#
# Elastic Compliance Matrix: (Units=1/GPa)
#
#
# Indices 1 2 3 4 5 6 
#
# 1 0.011796 -0.004430 -0.002984 0.000000 0.002769 0.000000
# 2 -0.004430 0.011387 -0.001035 0.000000 0.000846 0.000000
# 3 -0.002984 -0.001035 0.010405 0.000000 0.001892 0.000000
# 4 0.000000 0.000000 0.000000 0.026644 0.000000 -0.004413
# 5 0.002769 0.000846 0.001892 0.000000 0.026566 0.000000
# 6 0.000000 0.000000 0.000000 -0.004413 0.000000 0.031220
#
#
# Mechanical properties :
#
#
# Convention : Reuss Voigt Hill
#
# Bulk Modulus (GPa) = 59.91265 65.08028 62.49646
# Shear Modulus (GPa) = 35.59279 37.18654 36.38967
#
# Velocity S-wave (km/s) = 4.02026 4.10928 4.06502
# Velocity P-wave (km/s) = 6.98255 7.21578 7.10013
#
# Compressibility (1/GPa) = 0.01669097
#
# Stress axis : x y z
#
# Youngs Moduli (GPa) = 84.77541 87.82128 96.10530
#
# Poissons Ratio (x) = 0.38901 0.28682
# Poissons Ratio (y) = 0.37552 0.09942
# Poissons Ratio (z) = 0.25300 0.09085
#
# Static dielectric constant tensor:
#      x y z
#    x 2.970520 0.000000 -0.338100 
#    y 0.000000 4.104010 0.000000 
#    z -0.338100 0.000000 4.101320 
# 
# 
# High freq. dielectric constant tensor:
#      x y z
#    x 1.859880 0.000000 -0.000710 
#    y 0.000000 1.873580 0.000000 
#    z -0.000710 0.000000 1.889710 
# 
# From -- ./inp_files/20660.got.cif
#   From: 2010.06.25/outbox.cif.g09.slc.cpg/sg10_11_cif.got.tgz:20660.got - 2010.06.27 22:07:45.
