data_PCOD8066063
_publ_section_title
;
Structure prediction by ZEFSAII (Michael W. Deem and Ramdas Pophale) SiO2 
 PCOD8066063
Probable space group: P 2/M
;
_chemical_formula_sum "Si O2"
_cell_formula_units_Z 24
_cell_length_a 8.507711
_cell_length_b 19.784326
_cell_length_c 9.665188
_cell_angle_alpha 90.000000
_cell_angle_beta 125.137864
_cell_angle_gamma 90.000000
_cell_volume 1330.378530
_symmetry_space_group_name_H-M "P 2/M"
_symmetry_group_IT_number 10
_symmetry_cell_setting 'monoclinic'
loop_
_space_group_symop_operation_xyz
x,y,z
-x,y,-z
-x,-y,-z
x,-y,z
loop_
_atom_site_type_symbol
_atom_site_label
_atom_site_fract_x
_atom_site_fract_y
_atom_site_fract_z
Si Si1 0.979882 0.209092 0.725574
Si Si2 0.000000 0.116068 0.000000
Si Si3 0.306094 0.311733 0.813485
Si Si4 0.721950 0.000000 0.934126
Si Si5 0.719977 0.000000 0.259293
Si Si6 0.012632 0.425488 0.668843
Si Si7 0.000000 0.890260 0.500000
Si Si8 0.306339 0.676958 0.483759
O O1 0.178461 0.246716 0.787565
O O2 0.923644 0.155037 0.583784
O O3 0.803903 0.260666 0.641137
O O4 0.997065 0.167625 0.873336
O O5 0.186612 0.067365 0.087547
O O6 0.196094 0.380069 0.803721
O O7 0.341417 0.312151 0.665861
O O8 0.500000 0.307571 0.000000
O O9 0.495879 0.000000 0.793758
O O10 0.754851 0.000000 0.113952
O O11 0.815803 0.933375 0.366474
O O12 0.031072 0.500000 0.747453
O O13 0.000000 0.433060 0.500000
O O14 0.815698 0.389828 0.614392
O O15 0.500000 0.667180 0.500000
#
# Coordination Sequence:
#
# PCOD8066063 Si02
#       8
#     4   2   4   2   2   4   2   4
#     4  11  22  39  57  80 115 152 184 227 282 339
#     4  11  24  38  60  84 115 142 184 238 279 324
#     4  10  21  36  57  85 114 149 190 233 277 333
#     4  10  22  41  56  87 112 139 184 235 276 330
#     4  10  22  37  64  81 108 149 185 222 278 340
#     4   8  16  35  58  79 113 158 191 223 277 335
#     4  11  20  40  60  82 107 152 186 220 273 344
#     4  10  21  36  56  86 116 145 190 237 275 331
#
# _framework density 18.039978000000001
#
# number of rings (size 3 to 8) (size 9 to 14) (size 15 to 20)
#    0.000    2.000    3.333    1.000    2.333    3.333 
#    0.000    0.833    0.000    1.000    0.000    0.000 
#    0.000    0.000    0.000    0.000    0.000    0.000 
#
# Total GULP energy -297498.624444 kJ/mol
# GULP energy per Si atom -12395.776018 kJ/mol
# Density = 1.799892 g / cm^3
# Si number density = 18.039978 Si / 1000 Ang^3
#
#
#
# Elastic Constant Matrix: (Units=GPa)
#
#
# Indices 1 2 3 4 5 6 
#
# 1 140.5268 63.4221 40.6322 0.0000 10.3836 0.0000
# 2 63.4221 140.1943 36.9295 0.0000 4.4455 0.0000
# 3 40.6322 36.9295 68.5729 0.0000 8.5732 0.0000
# 4 0.0000 0.0000 0.0000 31.6661 0.0000 -1.5366
# 5 10.3836 4.4455 8.5732 0.0000 35.5267 0.0000
# 6 0.0000 0.0000 0.0000 -1.5366 0.0000 17.4223
#
#
#
# Elastic Compliance Matrix: (Units=1/GPa)
#
#
# Indices 1 2 3 4 5 6 
#
# 1 0.009874 -0.003412 -0.003821 0.000000 -0.001537 0.000000
# 2 -0.003412 0.009491 -0.003161 0.000000 0.000572 0.000000
# 3 -0.003821 -0.003161 0.018932 0.000000 -0.003056 0.000000
# 4 0.000000 0.000000 0.000000 0.031715 0.000000 0.002797
# 5 -0.001537 0.000572 -0.003056 0.000000 0.029263 0.000000
# 6 0.000000 0.000000 0.000000 0.002797 0.000000 0.057644
#
#
# Mechanical properties :
#
#
# Convention : Reuss Voigt Hill
#
# Bulk Modulus (GPa) = 57.11545 70.14018 63.62781
# Shear Modulus (GPa) = 27.24131 30.81036 29.02583
#
# Velocity S-wave (km/s) = 3.89015 4.13715 4.01555
# Velocity P-wave (km/s) = 7.20465 7.86042 7.53967
#
# Compressibility (1/GPa) = 0.01750840
#
# Stress axis : x y z
#
# Youngs Moduli (GPa) = 101.27271 105.36368 52.82068
#
# Poissons Ratio (x) = 0.35946 0.20185
# Poissons Ratio (y) = 0.34551 0.16698
# Poissons Ratio (z) = 0.38701 0.33309
#
# Static dielectric constant tensor:
#      x y z
#    x 3.257270 0.000000 0.041510 
#    y 0.000000 3.918630 0.000000 
#    z 0.041510 0.000000 3.230270 
# 
# 
# High freq. dielectric constant tensor:
#      x y z
#    x 1.696650 0.000000 0.003060 
#    y 0.000000 1.716790 0.000000 
#    z 0.003060 0.000000 1.690510 
# 
# From -- ./inp_files/20321.got.cif
#   From: 2010.06.25/outbox.cif.g09.slc.cpg/sg10_11_cif.got.tgz:20321.got - 2010.06.27 22:07:45.
