data_PCOD8066212
_publ_section_title
;
Structure prediction by ZEFSAII (Michael W. Deem and Ramdas Pophale) SiO2 
 PCOD8066212
Probable space group: P 2/M
;
_chemical_formula_sum "Si O2"
_cell_formula_units_Z 28
_cell_length_a 9.222947
_cell_length_b 8.992941
_cell_length_c 29.254659
_cell_angle_alpha 90.000000
_cell_angle_beta 37.986069
_cell_angle_gamma 90.000000
_cell_volume 1493.390164
_symmetry_space_group_name_H-M "P 2/M"
_symmetry_group_IT_number 10
_symmetry_cell_setting 'monoclinic'
loop_
_space_group_symop_operation_xyz
x,y,z
-x,y,-z
-x,-y,-z
x,-y,z
loop_
_atom_site_type_symbol
_atom_site_label
_atom_site_fract_x
_atom_site_fract_y
_atom_site_fract_z
Si Si1 0.044293 0.328272 0.715121
Si Si2 0.665264 0.825984 0.866840
Si Si3 0.380101 0.328272 0.715121
Si Si4 0.829663 0.327623 1.000000
Si Si5 0.090611 0.322864 0.429202
Si Si6 0.000538 0.174016 0.866840
Si Si7 0.763380 0.677136 0.429202
O O1 0.966149 0.500000 0.732307
O O2 0.262859 0.306680 0.694856
O O3 0.125152 0.267035 0.645946
O O4 0.820890 0.232594 0.786176
O O5 0.417631 0.745636 0.927001
O O6 0.792427 0.788563 0.883029
O O7 0.625051 0.000000 0.870814
O O8 0.372316 0.500000 0.732307
O O9 0.645117 0.267035 0.645946
O O10 0.248232 0.232594 0.786176
O O11 0.788711 0.500000 1.000000
O O12 0.947362 0.254363 0.927001
O O13 0.000000 0.300434 0.000000
O O14 0.086692 0.500000 0.431616
O O15 0.000000 0.258370 0.500000
O O16 0.921560 0.261492 0.431376
O O17 0.020878 0.000000 0.870814
O O18 0.500000 0.741630 0.500000
O O19 0.755226 0.500000 0.431616
#
# Coordination Sequence:
#
# PCOD8066212 Si02
#       7
#     4   4   4   4   4   4   4
#     4   9  17  30  49  73 101 133 169 210 256 305
#     4  10  21  37  57  80 106 138 175 213 257 312
#     4   9  17  30  49  73 101 133 169 210 256 305
#     4  11  24  39  56  80 108 137 172 215 260 306
#     4   9  16  26  43  69 100 132 167 210 258 305
#     4  10  21  37  57  80 106 138 175 213 257 312
#     4   9  16  26  43  69 100 132 167 210 258 305
#
# _framework density 18.749286999999999
#
# number of rings (size 3 to 8) (size 9 to 14) (size 15 to 20)
#    0.000    2.429    0.000    2.571    0.000    9.143 
#    0.000    2.857    0.000    0.857    0.000    0.000 
#    0.000    0.000    0.000    0.000    0.000    0.000 
#
# Total GULP energy -347274.277891 kJ/mol
# GULP energy per Si atom -12402.652782 kJ/mol
# Density = 1.870661 g / cm^3
# Si number density = 18.749287 Si / 1000 Ang^3
#
#
#
# Elastic Constant Matrix: (Units=GPa)
#
#
# Indices 1 2 3 4 5 6 
#
# 1 116.0824 50.9112 98.7703 0.0000 -3.2904 0.0000
# 2 50.9112 71.4441 66.1465 0.0000 -0.7947 0.0000
# 3 98.7703 66.1465 180.4763 0.0000 -0.0685 0.0000
# 4 0.0000 0.0000 0.0000 -25.6450 0.0000 2.2639
# 5 -3.2904 -0.7947 -0.0685 0.0000 40.0283 0.0000
# 6 0.0000 0.0000 0.0000 2.2639 0.0000 17.7574
#
#
#
# Elastic Compliance Matrix: (Units=1/GPa)
#
#
# Indices 1 2 3 4 5 6 
#
# 1 0.017478 -0.005426 -0.007576 0.000000 0.001316 0.000000
# 2 -0.005426 0.022877 -0.005415 0.000000 -0.000001 0.000000
# 3 -0.007576 -0.005415 0.011672 0.000000 -0.000710 0.000000
# 4 0.000000 0.000000 0.000000 -0.038560 0.000000 0.004916
# 5 0.001316 -0.000001 -0.000710 0.000000 0.025089 0.000000
# 6 0.000000 0.000000 0.000000 0.004916 0.000000 0.055688
#
#
# Mechanical properties :
#
#
# Convention : Reuss Voigt Hill
#
# Bulk Modulus (GPa) = 65.82329 88.85096 77.33713
# Shear Modulus (GPa) = 36.72651 16.57314 26.64982
#
# Velocity S-wave (km/s) = 4.43066 2.97633 3.77421
# Velocity P-wave (km/s) = 7.83311 7.70086 7.76727
#
# Compressibility (1/GPa) = 0.01519219
#
# Stress axis : x y z
#
# Youngs Moduli (GPa) = 57.21606 43.71182 85.67827
#
# Poissons Ratio (x) = 0.23717 0.64910
# Poissons Ratio (y) = 0.31044 0.46398
# Poissons Ratio (z) = 0.43347 0.23671
#
# Static dielectric constant tensor:
#      x y z
#    x 3.509910 0.000000 0.001500 
#    y 0.000000 3.169630 0.000000 
#    z 0.001500 0.000000 3.481060 
# 
# 
# High freq. dielectric constant tensor:
#      x y z
#    x 1.729490 0.000000 -0.000810 
#    y 0.000000 1.696520 0.000000 
#    z -0.000810 0.000000 1.744970 
# 
# From -- ./inp_files/91976.got.cif
#   From: 2010.06.25/outbox.cif.g09.slc.cpg/sg10_46_cif.got.tgz:91976.got - 2010.06.27 22:07:45.
