data_PCOD8066502
_publ_section_title
;
Structure prediction by ZEFSAII (Michael W. Deem and Ramdas Pophale) SiO2 
 PCOD8066502
Probable space group: P 2/M
;
_chemical_formula_sum "Si O2"
_cell_formula_units_Z 28
_cell_length_a 9.138509
_cell_length_b 19.830582
_cell_length_c 14.838461
_cell_angle_alpha 90.000000
_cell_angle_beta 149.882707
_cell_angle_gamma 90.000000
_cell_volume 1349.291993
_symmetry_space_group_name_H-M "P 2/M"
_symmetry_group_IT_number 10
_symmetry_cell_setting 'monoclinic'
loop_
_space_group_symop_operation_xyz
x,y,z
-x,y,-z
-x,-y,-z
x,-y,z
loop_
_atom_site_type_symbol
_atom_site_label
_atom_site_fract_x
_atom_site_fract_y
_atom_site_fract_z
Si Si1 0.618796 0.424311 0.463118
Si Si2 0.786695 0.167003 0.468203
Si Si3 0.705571 0.708721 0.021679
Si Si4 0.170863 0.428101 0.854719
Si Si5 0.838497 0.821693 0.690009
Si Si6 0.249051 0.923625 0.205998
Si Si7 0.324739 0.688664 0.643985
O O1 0.500000 0.405718 0.500000
O O2 0.517409 0.500000 0.381050
O O3 0.527066 0.371208 0.336330
O O4 0.970520 0.420720 0.658955
O O5 0.951363 0.155623 0.651237
O O6 0.523994 0.115849 0.312654
O O7 0.680140 0.244310 0.418792
O O8 0.000000 0.154469 0.500000
O O9 0.511326 0.711424 0.829525
O O10 0.500000 0.714763 0.000000
O O11 0.874472 0.636686 0.106285
O O12 0.955728 0.765081 0.156114
O O13 0.091217 0.500000 0.861043
O O14 0.500000 0.430234 0.000000
O O15 0.500000 0.797548 0.500000
O O16 0.862805 0.888328 0.763038
O O17 0.339334 0.000000 0.277277
O O18 0.000000 0.921533 0.000000
O O19 0.000000 0.666576 0.500000
#
# Coordination Sequence:
#
# PCOD8066502 Si02
#       7
#     4   4   4   4   4   4   4
#     4  10  22  40  60  83 116 155 198 251 303 352
#     4  10  21  38  60  88 121 155 197 245 290 344
#     4  11  21  36  61  89 119 155 199 250 297 350
#     4   9  18  34  55  79 110 150 194 239 290 346
#     4  10  22  39  62  88 121 159 198 243 293 352
#     4  10  22  41  63  89 121 156 196 239 287 349
#     4  11  22  37  60  90 121 155 201 246 295 358
#
# _framework density 20.751624
#
# number of rings (size 3 to 8) (size 9 to 14) (size 15 to 20)
#    0.000    1.857    0.000    5.143    0.000    8.286 
#    0.000    3.571    0.000    4.714    0.000    0.000 
#    0.000    0.000    0.000    0.000    0.000    0.000 
#
# Total GULP energy -346965.782352 kJ/mol
# GULP energy per Si atom -12391.635084 kJ/mol
# Density = 2.070439 g / cm^3
# Si number density = 20.751624 Si / 1000 Ang^3
#
#
#
# Elastic Constant Matrix: (Units=GPa)
#
#
# Indices 1 2 3 4 5 6 
#
# 1 128.7010 71.2608 47.1333 0.0000 -19.4766 0.0000
# 2 71.2608 161.5452 35.5152 0.0000 4.9293 0.0000
# 3 47.1333 35.5152 96.2691 0.0000 -5.8861 0.0000
# 4 0.0000 0.0000 0.0000 30.6642 0.0000 2.7313
# 5 -19.4766 4.9293 -5.8861 0.0000 23.3404 0.0000
# 6 0.0000 0.0000 0.0000 2.7313 0.0000 21.4875
#
#
#
# Elastic Compliance Matrix: (Units=1/GPa)
#
#
# Indices 1 2 3 4 5 6 
#
# 1 0.014319 -0.005776 -0.004138 0.000000 0.012125 0.000000
# 2 -0.005776 0.009168 -0.000982 0.000000 -0.007004 0.000000
# 3 -0.004138 -0.000982 0.012774 0.000000 -0.000024 0.000000
# 4 0.000000 0.000000 0.000000 0.032985 0.000000 -0.004193
# 5 0.012125 -0.007004 -0.000024 0.000000 0.054435 0.000000
# 6 0.000000 0.000000 0.000000 -0.004193 0.000000 0.047072
#
#
# Mechanical properties :
#
#
# Convention : Reuss Voigt Hill
#
# Bulk Modulus (GPa) = 69.12065 77.14820 73.13443
# Shear Modulus (GPa) = 25.33332 30.60549 27.96941
#
# Velocity S-wave (km/s) = 3.49777 3.84454 3.67525
# Velocity P-wave (km/s) = 7.04935 7.54751 7.30268
#
# Compressibility (1/GPa) = 0.01446746
#
# Stress axis : x y z
#
# Youngs Moduli (GPa) = 69.83907 109.07487 78.28131
#
# Poissons Ratio (x) = 0.63007 0.32393
# Poissons Ratio (y) = 0.40342 0.07690
# Poissons Ratio (z) = 0.28900 0.10715
#
# Static dielectric constant tensor:
#      x y z
#    x 3.738320 0.000000 -0.021930 
#    y 0.000000 4.215380 0.000000 
#    z -0.021930 0.000000 3.896050 
# 
# 
# High freq. dielectric constant tensor:
#      x y z
#    x 1.798790 0.000000 -0.001110 
#    y 0.000000 1.818030 0.000000 
#    z -0.001110 0.000000 1.816490 
# 
# From -- ./inp_files/62621.got.cif
#   From: 2010.06.25/outbox.cif.g09.slc.cpg/sg10_32_cif.got.tgz:62621.got - 2010.06.27 22:07:45.
