data_PCOD8066172
_publ_section_title
;
Structure prediction by ZEFSAII (Michael W. Deem and Ramdas Pophale) SiO2 
 PCOD8066172
Probable space group: P 2/M
;
_chemical_formula_sum "Si O2"
_cell_formula_units_Z 32
_cell_length_a 12.619537
_cell_length_b 24.451313
_cell_length_c 5.253791
_cell_angle_alpha 90.000000
_cell_angle_beta 77.588505
_cell_angle_gamma 90.000000
_cell_volume 1583.244885
_symmetry_space_group_name_H-M "P 2/M"
_symmetry_group_IT_number 10
_symmetry_cell_setting 'monoclinic'
loop_
_space_group_symop_operation_xyz
x,y,z
-x,y,-z
-x,-y,-z
x,-y,z
loop_
_atom_site_type_symbol
_atom_site_label
_atom_site_fract_x
_atom_site_fract_y
_atom_site_fract_z
Si Si1 0.108132 0.153480 0.309253
Si Si2 0.933173 0.436261 0.781722
Si Si3 0.748634 0.648400 0.882882
Si Si4 0.625275 0.676943 0.467241
Si Si5 0.891526 0.260451 0.957547
Si Si6 0.373955 0.101961 0.618375
Si Si7 0.736573 0.062106 0.841299
Si Si8 0.275754 0.787483 0.580061
O O1 0.063646 0.202072 0.159752
O O2 0.159756 0.100667 0.143924
O O3 0.209225 0.181903 0.397495
O O4 0.000000 0.131101 0.500000
O O5 0.906728 0.500000 0.770188
O O6 0.817613 0.406703 0.864894
O O7 0.000000 0.415779 0.500000
O O8 0.000000 0.422778 0.000000
O O9 0.669969 0.642089 0.682142
O O10 0.831741 0.699642 0.787896
O O11 0.684011 0.658772 0.177234
O O12 0.500000 0.663202 0.500000
O O13 0.637423 0.741173 0.545618
O O14 0.807002 0.248303 0.219070
O O15 0.000000 0.291485 0.000000
O O16 0.500000 0.098163 0.500000
O O17 0.311516 0.077050 0.409167
O O18 0.339891 0.164705 0.695926
O O19 0.350436 0.068072 0.887060
O O20 0.777775 0.000000 0.810629
#
# Coordination Sequence:
#
# PCOD8066172 Si02
#       8
#     4   4   4   4   4   4   4   4
#     4  11  21  37  60  83 120 153 188 239 295 366
#     4  10  21  39  64  95 132 171 209 254 310 367
#     4  11  23  38  61  93 126 163 207 255 303 362
#     4  11  23  39  60  87 126 167 208 256 306 359
#     4  11  20  34  58  88 121 157 190 239 300 364
#     4  11  23  40  64  85 110 147 192 247 304 356
#     4  11  25  42  60  85 114 148 195 243 293 361
#     4  10  21  37  55  86 119 154 195 240 298 366
#
# _framework density 20.211656000000001
#
# number of rings (size 3 to 8) (size 9 to 14) (size 15 to 20)
#    0.000    1.250    3.750    2.625    0.000    3.250 
#    0.000    2.500    0.000    4.875    0.000    0.000 
#    0.000    0.000    0.000    0.000    0.000    0.000 
#
# Total GULP energy -396578.874889 kJ/mol
# GULP energy per Si atom -12393.089840 kJ/mol
# Density = 2.016565 g / cm^3
# Si number density = 20.211656 Si / 1000 Ang^3
#
#
#
# Elastic Constant Matrix: (Units=GPa)
#
#
# Indices 1 2 3 4 5 6 
#
# 1 123.4397 53.0978 48.4244 0.0000 -8.2064 0.0000
# 2 53.0978 92.7751 35.4521 0.0000 -5.5389 0.0000
# 3 48.4244 35.4521 117.5668 0.0000 1.5557 0.0000
# 4 0.0000 0.0000 0.0000 17.4610 0.0000 -1.8457
# 5 -8.2064 -5.5389 1.5557 0.0000 34.0595 0.0000
# 6 0.0000 0.0000 0.0000 -1.8457 0.0000 20.8103
#
#
#
# Elastic Compliance Matrix: (Units=1/GPa)
#
#
# Indices 1 2 3 4 5 6 
#
# 1 0.011854 -0.005404 -0.003281 0.000000 0.002127 0.000000
# 2 -0.005404 0.014805 -0.002255 0.000000 0.001209 0.000000
# 3 -0.003281 -0.002255 0.010559 0.000000 -0.001640 0.000000
# 4 0.000000 0.000000 0.000000 0.057812 0.000000 0.005127
# 5 0.002127 0.001209 -0.001640 0.000000 0.030144 0.000000
# 6 0.000000 0.000000 0.000000 0.005127 0.000000 0.048508
#
#
# Mechanical properties :
#
#
# Convention : Reuss Voigt Hill
#
# Bulk Modulus (GPa) = 65.19360 67.52555 66.35957
# Shear Modulus (GPa) = 24.91588 27.58665 26.25127
#
# Velocity S-wave (km/s) = 3.51486 3.69845 3.60782
# Velocity P-wave (km/s) = 6.98554 7.19164 7.08934
#
# Compressibility (1/GPa) = 0.01533893
#
# Stress axis : x y z
#
# Youngs Moduli (GPa) = 84.35891 67.54402 94.70640
#
# Poissons Ratio (x) = 0.36498 0.31076
# Poissons Ratio (y) = 0.45584 0.21354
# Poissons Ratio (z) = 0.27681 0.15230
#
# Static dielectric constant tensor:
#      x y z
#    x 3.776810 0.000000 -0.008300 
#    y 0.000000 3.897190 0.000000 
#    z -0.008300 0.000000 3.757490 
# 
# 
# High freq. dielectric constant tensor:
#      x y z
#    x 1.790680 0.000000 0.000400 
#    y 0.000000 1.781550 0.000000 
#    z 0.000400 0.000000 1.788670 
# 
# From -- ./inp_files/8077.got.cif
#   From: 2010.06.25/outbox.cif.g09.slc.cpg/sg10_5_cif.got.tgz:8077.got - 2010.06.27 22:07:45.
