data_PCOD8066454
_publ_section_title
;
Structure prediction by ZEFSAII (Michael W. Deem and Ramdas Pophale) SiO2 
 PCOD8066454
Probable space group: P 2/M
;
_chemical_formula_sum "Si O2"
_cell_formula_units_Z 28
_cell_length_a 13.619942
_cell_length_b 8.376707
_cell_length_c 13.540135
_cell_angle_alpha 90.000000
_cell_angle_beta 119.669370
_cell_angle_gamma 90.000000
_cell_volume 1342.268830
_symmetry_space_group_name_H-M "P 2/M"
_symmetry_group_IT_number 10
_symmetry_cell_setting 'monoclinic'
loop_
_space_group_symop_operation_xyz
x,y,z
-x,y,-z
-x,-y,-z
x,-y,z
loop_
_atom_site_type_symbol
_atom_site_label
_atom_site_fract_x
_atom_site_fract_y
_atom_site_fract_z
Si Si1 0.259425 0.684002 0.814442
Si Si2 0.683684 0.185788 0.948597
Si Si3 0.180646 0.185068 0.342701
Si Si4 0.408748 0.315775 0.535281
Si Si5 0.011673 0.686261 0.619790
Si Si6 0.120957 0.810012 0.093696
Si Si7 0.558252 0.814604 0.237329
O O1 0.263524 0.500000 0.846983
O O2 0.135820 0.734866 0.717315
O O3 0.344651 0.714860 0.767652
O O4 0.293759 0.787693 0.925376
O O5 0.783066 0.262218 0.931180
O O6 0.562249 0.257316 0.857498
O O7 0.679989 0.000000 0.923653
O O8 0.284378 0.290639 0.430701
O O9 0.146453 0.246538 0.217236
O O10 0.075494 0.207959 0.362668
O O11 0.215867 0.000000 0.358564
O O12 0.500000 0.262637 0.500000
O O13 0.423663 0.500000 0.572756
O O14 0.428842 0.205235 0.639569
O O15 0.986100 0.500000 0.624081
O O16 0.000000 0.732526 0.500000
O O17 0.117839 0.000000 0.085232
O O18 0.000000 0.739274 0.000000
O O19 0.570503 0.000000 0.215030
#
# Coordination Sequence:
#
# PCOD8066454 Si02
#       7
#     4   4   4   4   4   4   4
#     4  11  23  38  59  87 119 156 197 242 293 351
#     4  10  21  38  59  84 117 154 193 241 294 346
#     4  11  22  37  62  91 117 151 197 246 293 346
#     4  11  24  41  61  86 120 159 194 236 293 352
#     4  10  22  40  59  81 115 156 194 238 294 351
#     4   9  18  34  57  85 116 150 189 236 288 341
#     4  11  23  39  61  87 116 153 198 247 295 346
#
# _framework density 20.860202000000001
#
# number of rings (size 3 to 8) (size 9 to 14) (size 15 to 20)
#    0.000    1.571    0.000    4.714    0.000    8.857 
#    0.000    1.429    0.000    3.857    0.000    0.000 
#    0.000    0.000    0.000    0.000    0.000    0.000 
#
# Total GULP energy -347383.145699 kJ/mol
# GULP energy per Si atom -12406.540918 kJ/mol
# Density = 2.081272 g / cm^3
# Si number density = 20.860202 Si / 1000 Ang^3
#
#
#
# Elastic Constant Matrix: (Units=GPa)
#
#
# Indices 1 2 3 4 5 6 
#
# 1 156.7854 13.2857 58.9142 0.0000 8.4649 0.0000
# 2 13.2857 25.2986 8.2177 0.0000 3.2055 0.0000
# 3 58.9142 8.2177 153.2035 0.0000 6.3132 0.0000
# 4 0.0000 0.0000 0.0000 23.3273 0.0000 3.9632
# 5 8.4649 3.2055 6.3132 0.0000 46.3650 0.0000
# 6 0.0000 0.0000 0.0000 3.9632 0.0000 14.7068
#
#
#
# Elastic Compliance Matrix: (Units=1/GPa)
#
#
# Indices 1 2 3 4 5 6 
#
# 1 0.007723 -0.003051 -0.002772 0.000000 -0.000822 0.000000
# 2 -0.003051 0.041725 -0.000974 0.000000 -0.002195 0.000000
# 3 -0.002772 -0.000974 0.007665 0.000000 -0.000470 0.000000
# 4 0.000000 0.000000 0.000000 0.044925 0.000000 -0.012106
# 5 -0.000822 -0.002195 -0.000470 0.000000 0.021934 0.000000
# 6 0.000000 0.000000 0.000000 -0.012106 0.000000 0.071258
#
#
# Mechanical properties :
#
#
# Convention : Reuss Voigt Hill
#
# Bulk Modulus (GPa) = 22.97946 55.12477 39.05212
# Shear Modulus (GPa) = 22.38834 33.87114 28.12974
#
# Velocity S-wave (km/s) = 3.27961 4.03391 3.67616
# Velocity P-wave (km/s) = 5.03796 6.94117 6.06468
#
# Compressibility (1/GPa) = 0.04351712
#
# Stress axis : x y z
#
# Youngs Moduli (GPa) = 129.48752 23.96661 130.46353
#
# Poissons Ratio (x) = 0.07312 0.36168
# Poissons Ratio (y) = 0.39507 0.12712
# Poissons Ratio (z) = 0.35897 0.02335
#
# Static dielectric constant tensor:
#      x y z
#    x 3.964390 0.000000 0.123940 
#    y 0.000000 3.425200 0.000000 
#    z 0.123940 0.000000 3.848970 
# 
# 
# High freq. dielectric constant tensor:
#      x y z
#    x 1.834740 0.000000 0.002930 
#    y 0.000000 1.795080 0.000000 
#    z 0.002930 0.000000 1.831960 
# 
# From -- ./inp_files/63888.got.cif
#   From: 2010.06.25/outbox.cif.g09.slc.cpg/sg10_32_cif.got.tgz:63888.got - 2010.06.27 22:07:45.
