data_PCOD8066476
_publ_section_title
;
Structure prediction by ZEFSAII (Michael W. Deem and Ramdas Pophale) SiO2 
 PCOD8066476
Probable space group: P 2/M
;
_chemical_formula_sum "Si O2"
_cell_formula_units_Z 32
_cell_length_a 18.226307
_cell_length_b 14.444683
_cell_length_c 12.999319
_cell_angle_alpha 90.000000
_cell_angle_beta 152.299065
_cell_angle_gamma 90.000000
_cell_volume 1590.912157
_symmetry_space_group_name_H-M "P 2/M"
_symmetry_group_IT_number 10
_symmetry_cell_setting 'monoclinic'
loop_
_space_group_symop_operation_xyz
x,y,z
-x,y,-z
-x,-y,-z
x,-y,z
loop_
_atom_site_type_symbol
_atom_site_label
_atom_site_fract_x
_atom_site_fract_y
_atom_site_fract_z
Si Si1 0.167426 0.889987 0.167931
Si Si2 0.666532 0.389879 0.667018
Si Si3 0.018132 0.238373 0.401875
Si Si4 0.366103 0.761081 0.749875
Si Si5 0.220757 0.109665 0.003055
Si Si6 0.277937 0.395300 0.491609
Si Si7 0.560846 0.109652 0.342239
Si Si8 0.935615 0.395327 0.150314
O O1 0.306117 0.853455 0.413915
O O2 0.165610 0.000000 0.166153
O O3 0.200094 0.853484 0.093728
O O4 0.000000 0.850541 0.000000
O O5 0.500000 0.352969 0.500000
O O6 0.677177 0.500000 0.677763
O O7 0.691185 0.352257 0.582517
O O8 0.799104 0.352200 0.909267
O O9 0.199086 0.220650 0.596654
O O10 0.000000 0.248423 0.500000
O O11 0.916244 0.151738 0.237158
O O12 0.952044 0.333290 0.271851
O O13 0.367358 0.666774 0.685902
O O14 0.406973 0.848152 0.729369
O O15 0.500000 0.749345 0.000000
O O16 0.202247 0.000000 0.974667
O O17 0.391231 0.141587 0.173947
O O18 0.344107 0.500000 0.584115
O O19 0.091574 0.393332 0.275633
O O20 0.569231 0.000000 0.340574
O O21 0.896244 0.500000 0.137633
#
# Coordination Sequence:
#
# PCOD8066476 Si02
#       8
#     4   4   4   4   4   4   4   4
#     4   9  17  32  57  88 118 146 180 224 275 333
#     4   9  17  30  53  86 116 142 178 224 273 325
#     4  11  24  40  58  81 110 146 190 235 278 329
#     4  11  24  40  58  81 110 146 190 235 278 329
#     4  10  21  38  60  85 114 148 185 228 278 330
#     4   9  19  37  59  82 111 147 183 222 273 331
#     4  10  21  38  60  85 114 148 185 228 278 330
#     4   9  19  37  59  82 111 147 183 222 273 331
#
# _framework density 20.114248
#
# number of rings (size 3 to 8) (size 9 to 14) (size 15 to 20)
#    0.000    2.250    0.000    2.250    0.000    8.500 
#    0.000    1.250    0.000    0.000    0.000    0.000 
#    0.000    0.000    0.000    0.000    0.000    0.000 
#
# Total GULP energy -396912.168944 kJ/mol
# GULP energy per Si atom -12403.505279 kJ/mol
# Density = 2.006847 g / cm^3
# Si number density = 20.114248 Si / 1000 Ang^3
#
#
#
# Elastic Constant Matrix: (Units=GPa)
#
#
# Indices 1 2 3 4 5 6 
#
# 1 154.4617 44.5734 101.8078 0.0000 -6.2695 0.0000
# 2 44.5734 53.1317 47.7012 0.0000 1.9300 0.0000
# 3 101.8078 47.7012 182.9154 0.0000 -7.7527 0.0000
# 4 0.0000 0.0000 0.0000 32.6379 0.0000 -7.2224
# 5 -6.2695 1.9300 -7.7527 0.0000 34.8550 0.0000
# 6 0.0000 0.0000 0.0000 -7.2224 0.0000 29.0323
#
#
#
# Elastic Compliance Matrix: (Units=1/GPa)
#
#
# Indices 1 2 3 4 5 6 
#
# 1 0.011184 -0.005072 -0.004851 0.000000 0.001214 0.000000
# 2 -0.005072 0.027151 -0.004402 0.000000 -0.003395 0.000000
# 3 -0.004851 -0.004402 0.009377 0.000000 0.001457 0.000000
# 4 0.000000 0.000000 0.000000 0.032424 0.000000 0.008066
# 5 0.001214 -0.003395 0.001457 0.000000 0.029421 0.000000
# 6 0.000000 0.000000 0.000000 0.008066 0.000000 0.036451
#
#
# Mechanical properties :
#
#
# Convention : Reuss Voigt Hill
#
# Bulk Modulus (GPa) = 52.45663 86.51928 69.48795
# Shear Modulus (GPa) = 27.62275 32.40013 30.01144
#
# Velocity S-wave (km/s) = 3.70982 4.01784 3.86690
# Velocity P-wave (km/s) = 6.66980 8.03936 7.38639
#
# Compressibility (1/GPa) = 0.01906337
#
# Stress axis : x y z
#
# Youngs Moduli (GPa) = 89.41189 36.83121 106.64915
#
# Poissons Ratio (x) = 0.18680 0.51734
# Poissons Ratio (y) = 0.45347 0.46942
# Poissons Ratio (z) = 0.43373 0.16212
#
# Static dielectric constant tensor:
#      x y z
#    x 3.753320 0.000000 0.079250 
#    y 0.000000 3.588410 0.000000 
#    z 0.079250 0.000000 3.709810 
# 
# 
# High freq. dielectric constant tensor:
#      x y z
#    x 1.791100 0.000000 0.005720 
#    y 0.000000 1.782810 0.000000 
#    z 0.005720 0.000000 1.787950 
# 
# From -- ./inp_files/54060.got.cif
#   From: 2010.06.25/outbox.cif.g09.slc.cpg/sg10_28_cif.got.tgz:54060.got - 2010.06.27 22:07:45.
