data_PCOD8066341
_publ_section_title
;
Structure prediction by ZEFSAII (Michael W. Deem and Ramdas Pophale) SiO2 
 PCOD8066341
Probable space group: P 2/M
;
_chemical_formula_sum "Si O2"
_cell_formula_units_Z 32
_cell_length_a 9.823328
_cell_length_b 14.000182
_cell_length_c 27.505203
_cell_angle_alpha 90.000000
_cell_angle_beta 26.714680
_cell_angle_gamma 90.000000
_cell_volume 1700.525442
_symmetry_space_group_name_H-M "P 2/M"
_symmetry_group_IT_number 10
_symmetry_cell_setting 'monoclinic'
loop_
_space_group_symop_operation_xyz
x,y,z
-x,y,-z
-x,-y,-z
x,-y,z
loop_
_atom_site_type_symbol
_atom_site_label
_atom_site_fract_x
_atom_site_fract_y
_atom_site_fract_z
Si Si1 0.374006 0.110183 0.486360
Si Si2 0.857046 0.252796 0.664911
Si Si3 0.709244 0.752684 0.310863
Si Si4 0.861569 0.389771 0.991424
Si Si5 0.824969 0.388815 0.506077
Si Si6 0.298082 0.735533 0.178812
Si Si7 0.781562 0.234717 0.175505
Si Si8 0.801637 0.889703 0.015653
O O1 0.500000 0.124582 0.500000
O O2 0.606076 0.153634 0.373266
O O3 0.054041 0.163225 0.584126
O O4 0.323481 0.000000 0.489563
O O5 0.892399 0.272082 0.710797
O O6 0.512810 0.226806 0.763864
O O7 0.963250 0.349260 0.604396
O O8 0.499908 0.662530 0.391056
O O9 0.683539 0.772984 0.262211
O O10 0.058235 0.731288 0.211632
O O11 0.873455 0.500000 0.973553
O O12 0.051373 0.334483 0.889775
O O13 0.516156 0.354990 0.102305
O O14 0.000000 0.368435 0.000000
O O15 0.767712 0.500000 0.515478
O O16 0.000000 0.368249 0.500000
O O17 0.484754 0.834299 0.119254
O O18 0.004821 0.147047 0.091973
O O19 0.722876 0.000000 0.034056
O O20 0.000000 0.868887 0.000000
#
# Coordination Sequence:
#
# PCOD8066341 Si02
#       8
#     4   4   4   4   4   4   4   4
#     4  10  22  39  60  87 117 153 198 241 289 354
#     4  11  20  37  62  86 112 155 196 239 292 348
#     4  11  24  39  60  88 122 153 188 247 300 346
#     4  10  21  37  60  89 116 150 200 243 279 344
#     4  10  22  39  60  87 117 153 198 241 289 354
#     4  11  21  39  59  85 118 153 191 238 294 344
#     4  11  21  39  59  85 118 153 191 238 294 344
#     4  10  21  37  60  89 116 150 200 243 279 344
#
# _framework density 18.817712
#
# number of rings (size 3 to 8) (size 9 to 14) (size 15 to 20)
#    0.000    1.500    5.000    0.750    0.000    6.000 
#    0.000    2.500    0.000    0.000    0.000    0.000 
#    0.000    0.000    0.000    0.000    0.000    0.000 
#
# Total GULP energy -396954.224676 kJ/mol
# GULP energy per Si atom -12404.819521 kJ/mol
# Density = 1.877488 g / cm^3
# Si number density = 18.817712 Si / 1000 Ang^3
#
#
#
# Elastic Constant Matrix: (Units=GPa)
#
#
# Indices 1 2 3 4 5 6 
#
# 1 49.4906 28.8657 16.4879 0.0000 -5.4816 0.0000
# 2 28.8657 131.2233 42.5385 0.0000 -2.3190 0.0000
# 3 16.4879 42.5385 92.0947 0.0000 0.4555 0.0000
# 4 0.0000 0.0000 0.0000 16.9044 0.0000 0.7927
# 5 -5.4816 -2.3190 0.4555 0.0000 43.6281 0.0000
# 6 0.0000 0.0000 0.0000 0.7927 0.0000 17.6975
#
#
#
# Elastic Compliance Matrix: (Units=1/GPa)
#
#
# Indices 1 2 3 4 5 6 
#
# 1 0.023867 -0.004482 -0.002216 0.000000 0.002784 0.000000
# 2 -0.004482 0.009816 -0.003732 0.000000 -0.000002 0.000000
# 3 -0.002216 -0.003732 0.012982 0.000000 -0.000612 0.000000
# 4 0.000000 0.000000 0.000000 0.059281 0.000000 -0.002655
# 5 0.002784 -0.000002 -0.000612 0.000000 0.023277 0.000000
# 6 0.000000 0.000000 0.000000 -0.002655 0.000000 0.056624
#
#
# Mechanical properties :
#
#
# Convention : Reuss Voigt Hill
#
# Bulk Modulus (GPa) = 38.75316 49.84364 44.29840
# Shear Modulus (GPa) = 23.22245 27.97377 25.59811
#
# Velocity S-wave (km/s) = 3.51675 3.85978 3.69225
# Velocity P-wave (km/s) = 6.09333 6.81242 6.46288
#
# Compressibility (1/GPa) = 0.02580435
#
# Stress axis : x y z
#
# Youngs Moduli (GPa) = 41.89893 101.87196 77.03079
#
# Poissons Ratio (x) = 0.45664 0.17072
# Poissons Ratio (y) = 0.18781 0.28745
# Poissons Ratio (z) = 0.09286 0.38014
#
# Static dielectric constant tensor:
#      x y z
#    x 3.347490 0.000000 -0.007360 
#    y 0.000000 3.387840 0.000000 
#    z -0.007360 0.000000 3.519290 
# 
# 
# High freq. dielectric constant tensor:
#      x y z
#    x 1.725010 0.000000 -0.001720 
#    y 0.000000 1.728090 0.000000 
#    z -0.001720 0.000000 1.744630 
# 
# From -- ./inp_files/88255.got.cif
#   From: 2010.06.25/outbox.cif.g09.slc.cpg/sg10_45_cif.got.tgz:88255.got - 2010.06.27 22:07:45.
