data_PCOD8066300
_publ_section_title
;
Structure prediction by ZEFSAII (Michael W. Deem and Ramdas Pophale) SiO2 
 PCOD8066300
Probable space group: P 2/M
;
_chemical_formula_sum "Si O2"
_cell_formula_units_Z 32
_cell_length_a 25.381701
_cell_length_b 9.012352
_cell_length_c 14.817139
_cell_angle_alpha 90.000000
_cell_angle_beta 150.146403
_cell_angle_gamma 90.000000
_cell_volume 1687.195690
_symmetry_space_group_name_H-M "P 2/M"
_symmetry_group_IT_number 10
_symmetry_cell_setting 'monoclinic'
loop_
_space_group_symop_operation_xyz
x,y,z
-x,y,-z
-x,-y,-z
x,-y,z
loop_
_atom_site_type_symbol
_atom_site_label
_atom_site_fract_x
_atom_site_fract_y
_atom_site_fract_z
Si Si1 0.277431 0.171882 0.486078
Si Si2 0.107148 0.324150 0.110055
Si Si3 0.771821 0.172703 0.047442
Si Si4 0.824529 0.828749 0.473807
Si Si5 0.935891 0.827416 0.138104
Si Si6 0.488286 0.668496 0.761719
Si Si7 0.432930 0.669455 0.316294
Si Si8 0.723941 0.674687 0.155733
O O1 0.209051 0.264060 0.313499
O O2 0.237167 0.202452 0.526301
O O3 0.398876 0.222383 0.665299
O O4 0.268880 0.000000 0.447289
O O5 0.113380 0.500000 0.118058
O O6 0.111415 0.265563 0.014620
O O7 0.000000 0.268212 0.000000
O O8 0.872474 0.208314 0.134940
O O9 0.786636 0.253879 0.165020
O O10 0.760348 0.000000 0.050278
O O11 0.668762 0.227408 0.841607
O O12 0.773197 0.727468 0.321752
O O13 0.944585 0.777562 0.666129
O O14 0.817742 0.000000 0.434016
O O15 0.929221 0.000000 0.101767
O O16 0.462037 0.500000 0.751994
O O17 0.492839 0.681741 0.660641
O O18 0.600415 0.720344 0.969907
O O19 0.500000 0.727982 0.500000
O O20 0.394834 0.500000 0.273576
O O21 0.735659 0.500000 0.162722
#
# Coordination Sequence:
#
# PCOD8066300 Si02
#       8
#     4   4   4   4   4   4   4   4
#     4  11  23  38  60  87 118 156 194 238 289 344
#     4  11  23  38  59  86 118 156 195 240 288 339
#     4  10  21  37  59  86 115 150 194 240 286 343
#     4  10  22  40  61  84 115 154 194 238 289 346
#     4  10  22  40  60  86 120 157 194 235 289 345
#     4   9  20  38  57  82 116 153 192 237 291 344
#     4   9  19  36  56  80 115 155 191 235 291 345
#     4  10  22  41  63  85 115 153 191 242 298 343
#
# _framework density 18.966384000000001
#
# number of rings (size 3 to 8) (size 9 to 14) (size 15 to 20)
#    0.000    2.000    1.250    2.250    1.750    6.750 
#    0.000    5.000    0.000    0.000    0.000    0.000 
#    0.000    0.000    0.000    0.000    0.000    0.000 
#
# Total GULP energy -396953.955242 kJ/mol
# GULP energy per Si atom -12404.811101 kJ/mol
# Density = 1.892322 g / cm^3
# Si number density = 18.966384 Si / 1000 Ang^3
#
#
#
# Elastic Constant Matrix: (Units=GPa)
#
#
# Indices 1 2 3 4 5 6 
#
# 1 122.7102 71.6149 149.4933 0.0000 26.3566 0.0000
# 2 71.6149 90.2678 101.0271 0.0000 13.1113 0.0000
# 3 149.4933 101.0271 391.5322 0.0000 64.2742 0.0000
# 4 0.0000 0.0000 0.0000 35.8560 0.0000 -3.1735
# 5 26.3566 13.1113 64.2742 0.0000 53.0167 0.0000
# 6 0.0000 0.0000 0.0000 -3.1735 0.0000 32.5237
#
#
#
# Elastic Compliance Matrix: (Units=1/GPa)
#
#
# Indices 1 2 3 4 5 6 
#
# 1 0.020696 -0.010747 -0.004839 0.000000 -0.001764 0.000000
# 2 -0.010747 0.021226 -0.001734 0.000000 0.002196 0.000000
# 3 -0.004839 -0.001734 0.005473 0.000000 -0.003801 0.000000
# 4 0.000000 0.000000 0.000000 0.028132 0.000000 0.002745
# 5 -0.001764 0.002196 -0.003801 0.000000 0.023804 0.000000
# 6 0.000000 0.000000 0.000000 0.002745 0.000000 0.031015
#
#
# Mechanical properties :
#
#
# Convention : Reuss Voigt Hill
#
# Bulk Modulus (GPa) = 78.40383 138.75340 108.57861
# Shear Modulus (GPa) = 29.54426 43.10427 36.32426
#
# Velocity S-wave (km/s) = 3.95107 4.77242 4.38104
# Velocity P-wave (km/s) = 7.88940 10.18255 9.10843
#
# Compressibility (1/GPa) = 0.01275448
#
# Stress axis : x y z
#
# Youngs Moduli (GPa) = 48.31918 47.11186 182.70765
#
# Poissons Ratio (x) = 0.50630 0.88420
# Poissons Ratio (y) = 0.51927 0.31684
# Poissons Ratio (z) = 0.23384 0.08170
#
# Static dielectric constant tensor:
#      x y z
#    x 3.502530 0.000000 0.029370 
#    y 0.000000 3.508200 0.000000 
#    z 0.029370 0.000000 3.468480 
# 
# 
# High freq. dielectric constant tensor:
#      x y z
#    x 1.742940 0.000000 -0.000630 
#    y 0.000000 1.739980 0.000000 
#    z -0.000630 0.000000 1.739910 
# 
# From -- ./inp_files/66530.got.cif
#   From: 2010.06.25/outbox.cif.g09.slc.cpg/sg10_34_cif.got.tgz:66530.got - 2010.06.27 22:07:45.
