data_PCOD8066312
_publ_section_title
;
Structure prediction by ZEFSAII (Michael W. Deem and Ramdas Pophale) SiO2 
 PCOD8066312
Probable space group: P 2/M
;
_chemical_formula_sum "Si O2"
_cell_formula_units_Z 28
_cell_length_a 9.581018
_cell_length_b 14.750212
_cell_length_c 21.466164
_cell_angle_alpha 90.000000
_cell_angle_beta 28.675318
_cell_angle_gamma 90.000000
_cell_volume 1455.679858
_symmetry_space_group_name_H-M "P 2/M"
_symmetry_group_IT_number 10
_symmetry_cell_setting 'monoclinic'
loop_
_space_group_symop_operation_xyz
x,y,z
-x,y,-z
-x,-y,-z
x,-y,z
loop_
_atom_site_type_symbol
_atom_site_label
_atom_site_fract_x
_atom_site_fract_y
_atom_site_fract_z
Si Si1 0.662971 0.269424 0.772142
Si Si2 0.722434 0.395799 0.150321
Si Si3 0.713715 0.599877 0.859618
Si Si4 0.683810 0.104477 0.600113
Si Si5 0.342780 0.242244 0.495845
Si Si6 0.704991 0.603498 0.300308
Si Si7 0.339735 0.897418 0.859001
O O1 0.544783 0.328113 0.760012
O O2 0.583252 0.327091 0.864000
O O3 0.507011 0.171986 0.838413
O O4 0.001541 0.251500 0.637011
O O5 0.632107 0.500000 0.172540
O O6 0.801627 0.380823 0.191309
O O7 0.000000 0.368198 0.000000
O O8 0.732437 0.500000 0.820536
O O9 0.029213 0.630612 0.759387
O O10 0.500000 0.593277 0.000000
O O11 0.582605 0.158741 0.578809
O O12 0.441499 0.119755 0.748182
O O13 0.000000 0.139146 0.500000
O O14 0.706559 0.000000 0.571465
O O15 0.500000 0.224852 0.500000
O O16 0.437728 0.335020 0.425640
O O17 0.608036 0.500000 0.348468
O O18 0.419083 0.000000 0.848279
O O19 0.000000 0.878953 0.000000
#
# Coordination Sequence:
#
# PCOD8066312 Si02
#       7
#     4   4   4   4   4   4   4
#     4  12  22  37  61  90 117 162 200 254 301 357
#     4  10  21  37  59  88 118 148 198 257 306 355
#     4  10  21  38  59  84 119 165 210 249 302 369
#     4  10  21  41  68  91 118 159 201 247 307 368
#     4  12  25  40  57  87 124 161 207 250 294 362
#     4  10  22  38  56  82 121 162 198 248 305 360
#     4  10  22  41  67  98 125 154 197 251 314 373
#
# _framework density 19.234998999999998
#
# number of rings (size 3 to 8) (size 9 to 14) (size 15 to 20)
#    0.000    1.429    2.857    2.571    0.000    5.143 
#    0.000    1.429    0.000    0.429    0.000    0.000 
#    0.000    0.000    0.000    0.000    0.000    0.000 
#
# Total GULP energy -347247.117225 kJ/mol
# GULP energy per Si atom -12401.682758 kJ/mol
# Density = 1.919122 g / cm^3
# Si number density = 19.234999 Si / 1000 Ang^3
#
#
#
# Elastic Constant Matrix: (Units=GPa)
#
#
# Indices 1 2 3 4 5 6 
#
# 1 112.7369 78.0704 41.7132 0.0000 3.9849 0.0000
# 2 78.0704 130.5184 52.1872 0.0000 -7.0423 0.0000
# 3 41.7132 52.1872 113.7811 0.0000 -8.8431 0.0000
# 4 0.0000 0.0000 0.0000 22.0030 0.0000 -16.0282
# 5 3.9849 -7.0423 -8.8431 0.0000 28.2287 0.0000
# 6 0.0000 0.0000 0.0000 -16.0282 0.0000 9.3164
#
#
#
# Elastic Compliance Matrix: (Units=1/GPa)
#
#
# Indices 1 2 3 4 5 6 
#
# 1 0.016134 -0.009068 -0.002161 0.000000 -0.005217 0.000000
# 2 -0.009068 0.014508 -0.003023 0.000000 0.003952 0.000000
# 3 -0.002161 -0.003023 0.011205 0.000000 0.003061 0.000000
# 4 0.000000 0.000000 0.000000 -0.179467 0.000000 -0.308758
# 5 -0.005217 0.003952 0.003061 0.000000 0.038106 0.000000
# 6 0.000000 0.000000 0.000000 -0.308758 0.000000 -0.423854
#
#
# Mechanical properties :
#
#
# Convention : Reuss Voigt Hill
#
# Bulk Modulus (GPa) = 74.94231 77.88645 76.41438
# Shear Modulus (GPa) = -10.19540 24.24734 7.02597
#
# Velocity S-wave (km/s) = -2.30477 3.55432 1.91328
# Velocity P-wave (km/s) = 5.65362 7.57788 6.68534
#
# Compressibility (1/GPa) = 0.01334360
#
# Stress axis : x y z
#
# Youngs Moduli (GPa) = 61.98200 68.92957 89.24309
#
# Poissons Ratio (x) = 0.62504 0.19286
# Poissons Ratio (y) = 0.56204 0.26974
# Poissons Ratio (z) = 0.13395 0.20834
#
# Static dielectric constant tensor:
#      x y z
#    x 4.001330 0.000000 -0.550810 
#    y 0.000000 3.757320 0.000000 
#    z -0.550810 0.000000 4.315490 
# 
# 
# High freq. dielectric constant tensor:
#      x y z
#    x 1.740650 0.000000 -0.001070 
#    y 0.000000 1.757380 0.000000 
#    z -0.001070 0.000000 1.752660 
# 
# From -- ./inp_files/35250.got.cif
#   From: 2010.06.25/outbox.cif.g09.slc.cpg/sg10_18_cif.got.tgz:35250.got - 2010.06.27 22:07:45.
