data_PCOD8066691
_publ_section_title
;
Structure prediction by ZEFSAII (Michael W. Deem and Ramdas Pophale) SiO2 
 PCOD8066691
Probable space group: P 2/M
;
_chemical_formula_sum "Si O2"
_cell_formula_units_Z 28
_cell_length_a 14.141057
_cell_length_b 22.733841
_cell_length_c 8.692745
_cell_angle_alpha 90.000000
_cell_angle_beta 150.195831
_cell_angle_gamma 90.000000
_cell_volume 1388.994219
_symmetry_space_group_name_H-M "P 2/M"
_symmetry_group_IT_number 10
_symmetry_cell_setting 'monoclinic'
loop_
_space_group_symop_operation_xyz
x,y,z
-x,y,-z
-x,-y,-z
x,-y,z
loop_
_atom_site_type_symbol
_atom_site_label
_atom_site_fract_x
_atom_site_fract_y
_atom_site_fract_z
Si Si1 0.305309 0.234195 0.305309
Si Si2 0.101032 0.068297 0.303095
Si Si3 0.856111 0.148531 0.169412
Si Si4 0.810613 0.362856 0.810613
Si Si5 0.542809 0.148531 0.229508
Si Si6 0.536673 0.435702 0.220401
Si Si7 0.147054 0.564298 0.830781
O O1 0.500000 0.253471 0.500000
O O2 0.194123 0.292549 0.194122
O O3 0.345908 0.197435 0.516418
O O4 0.175397 0.197435 0.004886
O O5 0.315280 0.093797 0.597029
O O6 0.966473 0.093798 0.248225
O O7 0.123493 0.000000 0.370478
O O8 0.000000 0.081053 0.000000
O O9 0.000000 0.175132 0.500000
O O10 0.652448 0.129301 0.957343
O O11 0.640938 0.387807 0.469914
O O12 0.811961 0.387808 0.982984
O O13 0.000000 0.385535 0.000000
O O14 0.500000 0.175132 0.000000
O O15 0.642427 0.500000 0.360138
O O16 0.500000 0.408834 0.000000
O O17 0.338646 0.448233 0.015938
O O18 0.075285 0.500000 0.792995
O O19 0.000000 0.591166 0.500000
#
# Coordination Sequence:
#
# PCOD8066691 Si02
#       7
#     4   4   4   4   4   4   4
#     4  10  24  43  63  87 122 162 211 260 306 364
#     4  11  24  42  68  97 131 169 207 262 309 370
#     4  11  23  42  67  93 127 170 209 258 316 376
#     4  12  25  37  60  91 121 161 205 258 301 368
#     4  11  23  42  67  93 127 170 209 258 316 376
#     4  10  21  39  62  87 122 161 200 253 312 369
#     4  10  21  39  62  87 122 161 200 253 312 369
#
# _framework density 20.158472
#
# number of rings (size 3 to 8) (size 9 to 14) (size 15 to 20)
#    0.000    1.286    2.857    2.571    2.000    5.714 
#    0.000    4.286    0.000    0.000    0.000    0.000 
#    0.000    0.000    0.000    0.000    0.000    0.000 
#
# Total GULP energy -347123.363014 kJ/mol
# GULP energy per Si atom -12397.262965 kJ/mol
# Density = 2.011259 g / cm^3
# Si number density = 20.158472 Si / 1000 Ang^3
#
#
#
# Elastic Constant Matrix: (Units=GPa)
#
#
# Indices 1 2 3 4 5 6 
#
# 1 116.7261 54.3579 59.6199 0.0000 -7.7151 0.0000
# 2 54.3579 112.4962 68.7433 0.0000 -14.6343 0.0000
# 3 59.6199 68.7433 147.9642 0.0000 -24.0614 0.0000
# 4 0.0000 0.0000 0.0000 22.1468 0.0000 3.0429
# 5 -7.7151 -14.6343 -24.0614 0.0000 48.9750 0.0000
# 6 0.0000 0.0000 0.0000 3.0429 0.0000 25.1381
#
#
#
# Elastic Compliance Matrix: (Units=1/GPa)
#
#
# Indices 1 2 3 4 5 6 
#
# 1 0.011953 -0.003991 -0.003097 0.000000 -0.000831 0.000000
# 2 -0.003991 0.013787 -0.004597 0.000000 0.001233 0.000000
# 3 -0.003097 -0.004597 0.010694 0.000000 0.003392 0.000000
# 4 0.000000 0.000000 0.000000 0.045917 0.000000 -0.005558
# 5 -0.000831 0.001233 0.003392 0.000000 0.022323 0.000000
# 6 0.000000 0.000000 0.000000 -0.005558 0.000000 0.040453
#
#
# Mechanical properties :
#
#
# Convention : Reuss Voigt Hill
#
# Bulk Modulus (GPa) = 76.55007 82.51432 79.53220
# Shear Modulus (GPa) = 28.92682 32.21634 30.57158
#
# Velocity S-wave (km/s) = 3.79221 4.00203 3.89853
# Velocity P-wave (km/s) = 7.56512 7.89789 7.73330
#
# Compressibility (1/GPa) = 0.01306334
#
# Stress axis : x y z
#
# Youngs Moduli (GPa) = 83.66385 72.53229 93.51409
#
# Poissons Ratio (x) = 0.28948 0.28962
# Poissons Ratio (y) = 0.33391 0.42986
# Poissons Ratio (z) = 0.25911 0.33341
#
# Static dielectric constant tensor:
#      x y z
#    x 3.830490 0.000000 -0.024340 
#    y 0.000000 3.399490 0.000000 
#    z -0.024340 0.000000 3.854390 
# 
# 
# High freq. dielectric constant tensor:
#      x y z
#    x 1.801860 0.000000 -0.001870 
#    y 0.000000 1.769130 0.000000 
#    z -0.001870 0.000000 1.803700 
# 
# From -- ./inp_files/20485.got.cif
#   From: 2010.06.25/outbox.cif.g09.slc.cpg/sg10_11_cif.got.tgz:20485.got - 2010.06.27 22:07:45.
