data_PCOD8066556
_publ_section_title
;
Structure prediction by ZEFSAII (Michael W. Deem and Ramdas Pophale) SiO2 
 PCOD8066556
Probable space group: P 2/M
;
_chemical_formula_sum "Si O2"
_cell_formula_units_Z 28
_cell_length_a 27.835103
_cell_length_b 7.786393
_cell_length_c 9.219426
_cell_angle_alpha 90.000000
_cell_angle_beta 137.878376
_cell_angle_gamma 90.000000
_cell_volume 1340.187663
_symmetry_space_group_name_H-M "P 2/M"
_symmetry_group_IT_number 10
_symmetry_cell_setting 'monoclinic'
loop_
_space_group_symop_operation_xyz
x,y,z
-x,y,-z
-x,-y,-z
x,-y,z
loop_
_atom_site_type_symbol
_atom_site_label
_atom_site_fract_x
_atom_site_fract_y
_atom_site_fract_z
Si Si1 0.438796 0.500000 0.477787
Si Si2 0.071791 0.201514 0.577652
Si Si3 0.210982 0.696608 0.387041
Si Si4 0.346401 0.806508 0.858221
Si Si5 0.452321 0.500000 0.030263
Si Si6 0.660188 0.808523 0.823892
Si Si7 0.070935 0.797031 0.241589
Si Si8 0.791796 0.694845 0.948561
O O1 0.500000 0.500000 0.500000
O O2 0.480587 0.500000 0.716905
O O3 0.392614 0.672346 0.365294
O O4 0.067166 0.262847 0.400408
O O5 0.000000 0.253146 0.500000
O O6 0.086807 0.000000 0.620404
O O7 0.134011 0.299992 0.800117
O O8 0.235449 0.500000 0.441305
O O9 0.274576 0.803519 0.602229
O O10 0.138751 0.713236 0.316560
O O11 0.198553 0.763261 0.194651
O O12 0.378100 0.000000 0.918400
O O13 0.404637 0.671078 0.933422
O O14 0.325718 0.759858 0.977102
O O15 0.500000 0.500000 0.000000
O O16 0.734914 0.810297 0.906111
O O17 0.626887 0.000000 0.736705
O O18 0.078177 0.000000 0.245757
O O19 0.000000 0.731862 0.000000
O O20 0.763525 0.500000 0.883621
#
# Coordination Sequence:
#
# PCOD8066556 Si02
#       8
#     2   4   4   4   2   4   4   4
#     4  12  24  46  72  98 133 172 207 264 324 380
#     4  10  21  38  61  90 125 165 215 271 324 381
#     4  11  24  40  62  90 128 171 216 266 321 384
#     4  11  24  44  68  97 130 172 217 262 322 385
#     4  12  28  46  70  98 139 168 209 266 320 386
#     4  11  24  42  69  99 129 169 219 264 319 386
#     4  10  21  38  61  90 125 167 214 267 326 385
#     4  11  24  40  62  92 127 169 217 268 321 379
#
# _framework density 20.892595
#
# number of rings (size 3 to 8) (size 9 to 14) (size 15 to 20)
#    0.000    1.143    2.857    2.571    2.000    9.143 
#    0.000    0.000    0.000    0.000    0.000    0.000 
#    0.000    0.000    0.000    0.000    0.000    0.000 
#
# Total GULP energy -347240.063022 kJ/mol
# GULP energy per Si atom -12401.430822 kJ/mol
# Density = 2.084504 g / cm^3
# Si number density = 20.892595 Si / 1000 Ang^3
#
#
#
# Elastic Constant Matrix: (Units=GPa)
#
#
# Indices 1 2 3 4 5 6 
#
# 1 176.2182 45.5130 66.6142 0.0000 -11.1704 0.0000
# 2 45.5130 95.9540 44.3930 0.0000 9.0081 0.0000
# 3 66.6142 44.3930 165.9330 0.0000 -8.4009 0.0000
# 4 0.0000 0.0000 0.0000 19.4411 0.0000 4.4149
# 5 -11.1704 9.0081 -8.4009 0.0000 37.4102 0.0000
# 6 0.0000 0.0000 0.0000 4.4149 0.0000 22.8719
#
#
#
# Elastic Compliance Matrix: (Units=1/GPa)
#
#
# Indices 1 2 3 4 5 6 
#
# 1 0.007319 -0.002728 -0.002088 0.000000 0.002374 0.000000
# 2 -0.002728 0.013416 -0.002730 0.000000 -0.004658 0.000000
# 3 -0.002088 -0.002730 0.007684 0.000000 0.001759 0.000000
# 4 0.000000 0.000000 0.000000 0.053795 0.000000 -0.010384
# 5 0.002374 -0.004658 0.001759 0.000000 0.028956 0.000000
# 6 0.000000 0.000000 0.000000 -0.010384 0.000000 0.045726
#
#
# Mechanical properties :
#
#
# Convention : Reuss Voigt Hill
#
# Bulk Modulus (GPa) = 75.03710 83.46063 79.24886
# Shear Modulus (GPa) = 28.33947 34.71699 31.52823
#
# Velocity S-wave (km/s) = 3.68698 4.08080 3.88888
# Velocity P-wave (km/s) = 7.35654 7.88912 7.62748
#
# Compressibility (1/GPa) = 0.01332674
#
# Stress axis : x y z
#
# Youngs Moduli (GPa) = 136.62465 74.53763 130.13642
#
# Poissons Ratio (x) = 0.20337 0.27176
# Poissons Ratio (y) = 0.37277 0.35524
# Poissons Ratio (z) = 0.28531 0.20347
#
# Static dielectric constant tensor:
#      x y z
#    x 3.830290 0.000000 -0.172840 
#    y 0.000000 3.752730 0.000000 
#    z -0.172840 0.000000 3.833260 
# 
# 
# High freq. dielectric constant tensor:
#      x y z
#    x 1.827940 0.000000 -0.007950 
#    y 0.000000 1.821730 0.000000 
#    z -0.007950 0.000000 1.826490 
# 
# From -- ./inp_files/37368.got.cif
#   From: 2010.06.25/outbox.cif.g09.slc.cpg/sg10_19_cif.got.tgz:37368.got - 2010.06.27 22:07:45.
