data_PCOD8066252
_publ_section_title
;
Structure prediction by ZEFSAII (Michael W. Deem and Ramdas Pophale) SiO2 
 PCOD8066252
Probable space group: P 2/M
;
_chemical_formula_sum "Si O2"
_cell_formula_units_Z 24
_cell_length_a 9.560120
_cell_length_b 8.759051
_cell_length_c 18.705625
_cell_angle_alpha 90.000000
_cell_angle_beta 128.910550
_cell_angle_gamma 90.000000
_cell_volume 1218.830716
_symmetry_space_group_name_H-M "P 2/M"
_symmetry_group_IT_number 10
_symmetry_cell_setting 'monoclinic'
loop_
_space_group_symop_operation_xyz
x,y,z
-x,y,-z
-x,-y,-z
x,-y,z
loop_
_atom_site_type_symbol
_atom_site_label
_atom_site_fract_x
_atom_site_fract_y
_atom_site_fract_z
Si Si1 0.316644 0.820323 0.763882
Si Si2 0.578932 0.179993 0.451571
Si Si3 0.592165 0.319456 0.745350
Si Si4 0.020919 0.180467 0.429119
Si Si5 0.701650 0.326953 0.091889
Si Si6 0.012708 0.680819 0.084750
O O1 0.486217 0.741362 0.780563
O O2 0.297719 0.783743 0.840617
O O3 0.133676 0.752913 0.671030
O O4 0.337856 0.000000 0.759400
O O5 0.500000 0.239452 0.500000
O O6 0.490532 0.258924 0.354891
O O7 0.782635 0.228504 0.532008
O O8 0.555798 0.000000 0.431927
O O9 0.578725 0.500000 0.741494
O O10 0.799826 0.265638 0.818909
O O11 0.000000 0.253875 0.500000
O O12 0.997462 0.000000 0.424533
O O13 0.755412 0.500000 0.130690
O O14 0.843443 0.262611 0.078442
O O15 0.500000 0.323594 0.000000
O O16 0.004865 0.500000 0.076883
O O17 0.000000 0.749223 0.000000
#
# Coordination Sequence:
#
# PCOD8066252 Si02
#       6
#     4   4   4   4   4   4
#     4  11  22  37  60  86 116 151 192 238 282 335
#     4  10  21  37  58  81 112 154 195 233 282 341
#     4  11  22  37  58  85 117 152 191 236 286 337
#     4   9  17  34  56  79 109 149 191 230 275 329
#     4  10  21  39  63  88 114 147 188 234 287 344
#     4   9  19  37  60  84 113 150 187 227 281 344
#
# _framework density 19.691002999999998
#
# number of rings (size 3 to 8) (size 9 to 14) (size 15 to 20)
#    0.000    2.000    1.667    2.000    2.333    3.333 
#    0.000    3.333    0.000    3.500    0.000    0.000 
#    0.000    0.000    0.000    0.000    0.000    0.000 
#
# Total GULP energy -297486.085211 kJ/mol
# GULP energy per Si atom -12395.253550 kJ/mol
# Density = 1.964619 g / cm^3
# Si number density = 19.691003 Si / 1000 Ang^3
#
#
#
# Elastic Constant Matrix: (Units=GPa)
#
#
# Indices 1 2 3 4 5 6 
#
# 1 177.4949 29.7087 57.1347 0.0000 1.3021 0.0000
# 2 29.7087 40.9267 28.0844 0.0000 4.3912 0.0000
# 3 57.1347 28.0844 102.9129 0.0000 4.0964 0.0000
# 4 0.0000 0.0000 0.0000 22.2673 0.0000 -189.5284
# 5 1.3021 4.3912 4.0964 0.0000 38.1413 0.0000
# 6 0.0000 0.0000 0.0000 -189.5284 0.0000-2799.3508
#
#
#
# Elastic Compliance Matrix: (Units=1/GPa)
#
#
# Indices 1 2 3 4 5 6 
#
# 1 0.007161 -0.003084 -0.003152 0.000000 0.000449 0.000000
# 2 -0.003084 0.031649 -0.006813 0.000000 -0.002807 0.000000
# 3 -0.003152 -0.006813 0.013348 0.000000 -0.000542 0.000000
# 4 0.000000 0.000000 0.000000 0.028491 0.000000 -0.001929
# 5 0.000449 -0.002807 -0.000542 0.000000 0.026584 0.000000
# 6 0.000000 0.000000 0.000000 -0.001929 0.000000 -0.000227
#
#
# Mechanical properties :
#
#
# Convention : Reuss Voigt Hill
#
# Bulk Modulus (GPa) = 38.37285 61.24335 49.80810
# Shear Modulus (GPa) = 35.26318 -534.02799 -249.38241
#
# Velocity S-wave (km/s) = 4.23641 -16.48614 -11.26600
# Velocity P-wave (km/s) = 6.59237 18.19947 11.99503
#
# Compressibility (1/GPa) = 0.02606009
#
# Stress axis : x y z
#
# Youngs Moduli (GPa) = 139.63567 31.59688 74.91860
#
# Poissons Ratio (x) = 0.09743 0.23616
# Poissons Ratio (y) = 0.43058 0.51043
# Poissons Ratio (z) = 0.44017 0.21527
#
# Static dielectric constant tensor:
#      x y z
#    x 3.714820 0.000000 -0.040320 
#    y 0.000000 3.236750 0.000000 
#    z -0.040320 0.000000 3.607800 
# 
# 
# High freq. dielectric constant tensor:
#      x y z
#    x 1.785860 0.000000 0.004750 
#    y 0.000000 1.730430 0.000000 
#    z 0.004750 0.000000 1.781240 
# 
# From -- ./inp_files/82041.got.cif
#   From: 2010.06.25/outbox.cif.g09.slc.cpg/sg10_42_cif.got.tgz:82041.got - 2010.06.27 22:07:45.
