data_PCOD8066210
_publ_section_title
;
Structure prediction by ZEFSAII (Michael W. Deem and Ramdas Pophale) SiO2 
 PCOD8066210
Probable space group: P 2/M
;
_chemical_formula_sum "Si O2"
_cell_formula_units_Z 32
_cell_length_a 14.859600
_cell_length_b 21.937780
_cell_length_c 13.977899
_cell_angle_alpha 90.000000
_cell_angle_beta 19.565216
_cell_angle_gamma 90.000000
_cell_volume 1525.915106
_symmetry_space_group_name_H-M "P 2/M"
_symmetry_group_IT_number 10
_symmetry_cell_setting 'monoclinic'
loop_
_space_group_symop_operation_xyz
x,y,z
-x,y,-z
-x,-y,-z
x,-y,z
loop_
_atom_site_type_symbol
_atom_site_label
_atom_site_fract_x
_atom_site_fract_y
_atom_site_fract_z
Si Si1 0.559221 0.735264 0.548346
Si Si2 0.635911 0.676304 0.665258
Si Si3 0.944246 0.186845 0.898592
Si Si4 0.755558 0.430776 0.678094
Si Si5 0.393028 0.932133 0.213518
Si Si6 0.110890 0.271798 0.290097
Si Si7 0.750583 0.934426 0.186614
Si Si8 0.117937 0.142887 0.238628
O O1 0.500000 0.710042 0.500000
O O2 0.613068 0.680627 0.571310
O O3 0.296894 0.766369 0.852586
O O4 0.800494 0.785379 0.299832
O O5 0.731767 0.609548 0.604976
O O6 0.868855 0.724362 0.456375
O O7 0.366486 0.692500 0.993061
O O8 0.845265 0.119959 0.025682
O O9 0.018181 0.175964 0.715260
O O10 0.794153 0.500000 0.603376
O O11 0.000000 0.409665 0.500000
O O12 0.500000 0.423132 0.000000
O O13 0.099059 0.903031 0.500594
O O14 0.368598 0.000000 0.282132
O O15 0.500000 0.934836 0.000000
O O16 0.605548 0.892989 0.062792
O O17 0.186482 0.200969 0.237480
O O18 0.000000 0.301661 0.500000
O O19 0.500000 0.910964 0.500000
O O20 0.675728 0.000000 0.209620
O O21 0.000000 0.951282 0.000000
#
# Coordination Sequence:
#
# PCOD8066210 Si02
#       8
#     4   4   4   4   4   4   4   4
#     4  12  24  41  63  86 120 164 207 257 315 367
#     4  12  22  40  59  95 127 162 215 253 293 363
#     4  12  23  41  59  84 117 149 199 257 313 380
#     4  10  21  38  63  96 136 178 211 246 299 358
#     4  11  24  41  59  79 109 155 204 247 302 376
#     4  12  23  37  61  89 125 163 193 252 316 365
#     4  10  21  37  57  80 103 135 183 240 308 377
#     4  12  23  40  58  84 117 148 200 253 302 375
#
# _framework density 20.971022999999999
#
# number of rings (size 3 to 8) (size 9 to 14) (size 15 to 20)
#    0.000    0.625    2.500    7.500    0.000    2.000 
#    0.000    1.250    0.000    0.375    0.000    0.000 
#    0.000    7.000    0.000    0.000    0.000    2.000 
#
# Total GULP energy -396533.855015 kJ/mol
# GULP energy per Si atom -12391.682969 kJ/mol
# Density = 2.092329 g / cm^3
# Si number density = 20.971023 Si / 1000 Ang^3
#
#
#
# Elastic Constant Matrix: (Units=GPa)
#
#
# Indices 1 2 3 4 5 6 
#
# 1 106.0600 63.4653 22.9412 0.0000 -9.4594 0.0000
# 2 63.4653 119.7160 32.2244 0.0000 9.3852 0.0000
# 3 22.9412 32.2244 119.8938 0.0000 -12.6568 0.0000
# 4 0.0000 0.0000 0.0000 25.6660 0.0000 -4.6227
# 5 -9.4594 9.3852 -12.6568 0.0000 27.8158 0.0000
# 6 0.0000 0.0000 0.0000 -4.6227 0.0000 31.1843
#
#
#
# Elastic Compliance Matrix: (Units=1/GPa)
#
#
# Indices 1 2 3 4 5 6 
#
# 1 0.015463 -0.008949 0.000337 0.000000 0.008431 0.000000
# 2 -0.008949 0.014714 -0.003243 0.000000 -0.009484 0.000000
# 3 0.000337 -0.003243 0.009744 0.000000 0.005642 0.000000
# 4 0.000000 0.000000 0.000000 0.040031 0.000000 0.005934
# 5 0.008431 -0.009484 0.005642 0.000000 0.044585 0.000000
# 6 0.000000 0.000000 0.000000 0.005934 0.000000 0.032947
#
#
# Mechanical properties :
#
#
# Convention : Reuss Voigt Hill
#
# Bulk Modulus (GPa) = 61.69587 64.77018 63.23303
# Shear Modulus (GPa) = 26.79567 32.06916 29.43242
#
# Velocity S-wave (km/s) = 3.57844 3.91476 3.75037
# Velocity P-wave (km/s) = 6.82327 7.16843 6.99798
#
# Compressibility (1/GPa) = 0.01620854
#
# Stress axis : x y z
#
# Youngs Moduli (GPa) = 64.67208 67.96409 102.62997
#
# Poissons Ratio (x) = 0.60819 -0.03454
# Poissons Ratio (y) = 0.57873 0.33288
# Poissons Ratio (z) = -0.02176 0.22044
#
# Static dielectric constant tensor:
#      x y z
#    x 3.782440 0.000000 -0.258380 
#    y 0.000000 3.950860 0.000000 
#    z -0.258380 0.000000 4.301700 
# 
# 
# High freq. dielectric constant tensor:
#      x y z
#    x 1.803820 0.000000 -0.010950 
#    y 0.000000 1.808430 0.000000 
#    z -0.010950 0.000000 1.839640 
# 
# From -- ./inp_files/67951.got.cif
#   From: 2010.06.25/outbox.cif.g09.slc.cpg/sg10_34_cif.got.tgz:67951.got - 2010.06.27 22:07:45.
