data_PCOD8066048
_publ_section_title
;
Structure prediction by ZEFSAII (Michael W. Deem and Ramdas Pophale) SiO2 
 PCOD8066048
Probable space group: P 2/M
;
_chemical_formula_sum "Si O2"
_cell_formula_units_Z 20
_cell_length_a 16.375241
_cell_length_b 8.927806
_cell_length_c 7.354838
_cell_angle_alpha 90.000000
_cell_angle_beta 115.292934
_cell_angle_gamma 90.000000
_cell_volume 972.162705
_symmetry_space_group_name_H-M "P 2/M"
_symmetry_group_IT_number 10
_symmetry_cell_setting 'monoclinic'
loop_
_space_group_symop_operation_xyz
x,y,z
-x,y,-z
-x,-y,-z
x,-y,z
loop_
_atom_site_type_symbol
_atom_site_label
_atom_site_fract_x
_atom_site_fract_y
_atom_site_fract_z
Si Si1 0.067630 0.325905 0.288861
Si Si2 0.098253 0.826797 0.936288
Si Si3 0.297061 0.827213 0.166151
Si Si4 0.400704 0.676777 0.958608
Si Si5 0.265403 0.324297 0.518447
O O1 0.043633 0.500000 0.278125
O O2 0.086209 0.276485 0.100651
O O3 0.161665 0.289829 0.482775
O O4 0.979060 0.233873 0.278981
O O5 0.201223 0.804765 0.968160
O O6 0.079849 0.000000 0.965632
O O7 0.293128 0.762585 0.364157
O O8 0.322255 0.000000 0.206206
O O9 0.375144 0.746211 0.127945
O O10 0.397996 0.500000 0.977535
O O11 0.330609 0.732464 0.739634
O O12 0.500000 0.733732 0.000000
O O13 0.277277 0.500000 0.490035
#
# Coordination Sequence:
#
# PCOD8066048 Si02
#       5
#     4   4   4   4   4
#     4   9  15  25  46  75 104 136 174 214 256 302
#     4   9  16  27  45  72 106 141 174 207 252 311
#     4  10  21  36  56  82 111 144 178 217 268 321
#     4  10  22  40  60  80 104 138 181 228 274 320
#     4   9  19  36  57  81 109 142 180 221 266 317
#
# _framework density 20.572689
#
# number of rings (size 3 to 8) (size 9 to 14) (size 15 to 20)
#    0.000    2.600    0.000    3.000    0.000    5.200 
#    0.000    5.000    0.000    6.000    0.000    0.000 
#    0.000    0.000    0.000    0.000    0.000    0.000 
#
# Total GULP energy -247836.603143 kJ/mol
# GULP energy per Si atom -12391.830157 kJ/mol
# Density = 2.052586 g / cm^3
# Si number density = 20.572689 Si / 1000 Ang^3
#
#
#
# Elastic Constant Matrix: (Units=GPa)
#
#
# Indices 1 2 3 4 5 6 
#
# 1 62.7595 18.4638 1.9962 0.0000 9.3650 0.0000
# 2 18.4638 42.6213 12.9348 0.0000 4.2817 0.0000
# 3 1.9962 12.9348 64.2862 0.0000 16.8869 0.0000
# 4 0.0000 0.0000 0.0000 11.8956 0.0000 6.1025
# 5 9.3650 4.2817 16.8869 0.0000 27.3479 0.0000
# 6 0.0000 0.0000 0.0000 6.1025 0.0000 125.1549
#
#
#
# Elastic Compliance Matrix: (Units=1/GPa)
#
#
# Indices 1 2 3 4 5 6 
#
# 1 0.019443 -0.008617 0.003013 0.000000 -0.007170 0.000000
# 2 -0.008617 0.028829 -0.006114 0.000000 0.002213 0.000000
# 3 0.003013 -0.006114 0.019947 0.000000 -0.012392 0.000000
# 4 0.000000 0.000000 0.000000 0.086222 0.000000 -0.004204
# 5 -0.007170 0.002213 -0.012392 0.000000 0.046326 0.000000
# 6 0.000000 0.000000 0.000000 -0.004204 0.000000 0.008195
#
#
# Mechanical properties :
#
#
# Convention : Reuss Voigt Hill
#
# Bulk Modulus (GPa) = 22.32983 26.27295 24.30139
# Shear Modulus (GPa) = 20.21628 41.96449 31.09039
#
# Velocity S-wave (km/s) = 3.13817 4.52133 3.89169
# Velocity P-wave (km/s) = 4.89984 6.32891 5.65966
#
# Compressibility (1/GPa) = 0.04478314
#
# Stress axis : x y z
#
# Youngs Moduli (GPa) = 51.43233 34.68767 50.13235
#
# Poissons Ratio (x) = 0.29891 -0.15107
# Poissons Ratio (y) = 0.44320 0.30652
# Poissons Ratio (z) = -0.15499 0.21209
#
# Static dielectric constant tensor:
#      x y z
#    x 3.903330 0.000000 0.690560 
#    y 0.000000 3.621630 0.000000 
#    z 0.690560 0.000000 3.893310 
# 
# 
# High freq. dielectric constant tensor:
#      x y z
#    x 1.799250 0.000000 0.027980 
#    y 0.000000 1.802730 0.000000 
#    z 0.027980 0.000000 1.788550 
# 
# From -- ./inp_files/26853.got.cif
#   From: 2010.06.25/outbox.cif.g09.slc.cpg/sg10_14_cif.got.tgz:26853.got - 2010.06.27 22:07:45.
