data_PCOD8066170
_publ_section_title
;
Structure prediction by ZEFSAII (Michael W. Deem and Ramdas Pophale) SiO2 
 PCOD8066170
Probable space group: P 2/M
;
_chemical_formula_sum "Si O2"
_cell_formula_units_Z 22
_cell_length_a 7.295844
_cell_length_b 15.804703
_cell_length_c 8.341573
_cell_angle_alpha 90.000000
_cell_angle_beta 93.391717
_cell_angle_gamma 90.000000
_cell_volume 960.170707
_symmetry_space_group_name_H-M "P 2/M"
_symmetry_group_IT_number 10
_symmetry_cell_setting 'monoclinic'
loop_
_space_group_symop_operation_xyz
x,y,z
-x,y,-z
-x,-y,-z
x,-y,z
loop_
_atom_site_type_symbol
_atom_site_label
_atom_site_fract_x
_atom_site_fract_y
_atom_site_fract_z
Si Si1 0.762246 0.092740 0.881742
Si Si2 0.000000 0.363758 0.000000
Si Si3 0.660645 0.905999 0.220992
Si Si4 0.128779 0.744829 0.278032
Si Si5 0.358437 0.593556 0.853079
Si Si6 0.269374 0.735225 0.612015
O O1 0.547248 0.093818 0.844190
O O2 0.863888 0.157102 0.769668
O O3 0.843952 0.000000 0.848204
O O4 0.790880 0.114434 0.072880
O O5 0.858289 0.309629 0.882854
O O6 0.146343 0.415780 0.902766
O O7 0.677287 0.832356 0.352329
O O8 0.709861 0.000000 0.293161
O O9 0.287594 0.722592 0.419129
O O10 0.938799 0.722782 0.349714
O O11 0.409585 0.500000 0.788058
O O12 0.384389 0.664793 0.716402
O O13 0.500000 0.619019 0.000000
#
# Coordination Sequence:
#
# PCOD8066170 Si02
#       6
#     4   2   4   4   4   4
#     4   9  18  33  54  80 112 153 198 239 283 342
#     4  10  21  40  63  86 118 156 199 238 296 354
#     4   9  19  34  54  82 114 152 195 239 289 342
#     4  10  21  37  55  85 114 154 196 236 292 350
#     4  10  22  41  65  91 118 154 196 240 293 353
#     4  10  22  37  57  84 120 152 191 240 294 343
#
# _framework density 22.912593999999999
#
# number of rings (size 3 to 8) (size 9 to 14) (size 15 to 20)
#    0.000    2.364    0.000    3.545    5.091    2.182 
#    0.000   14.091    0.000    2.182    0.000    0.000 
#    0.000    0.000    0.000    0.000    0.000    0.000 
#
# Total GULP energy -272570.232538 kJ/mol
# GULP energy per Si atom -12389.556024 kJ/mol
# Density = 2.286044 g / cm^3
# Si number density = 22.912594 Si / 1000 Ang^3
#
#
#
# Elastic Constant Matrix: (Units=GPa)
#
#
# Indices 1 2 3 4 5 6 
#
# 1 19.8747 16.4585 18.5328 0.0000 5.6849 0.0000
# 2 16.4585 158.2039 85.9622 0.0000 20.6515 0.0000
# 3 18.5328 85.9622 144.8982 0.0000 30.1451 0.0000
# 4 0.0000 0.0000 0.0000 -0.0441 0.0000 5.6239
# 5 5.6849 20.6515 30.1451 0.0000 34.3119 0.0000
# 6 0.0000 0.0000 0.0000 5.6239 0.0000 28.7355
#
#
#
# Elastic Compliance Matrix: (Units=1/GPa)
#
#
# Indices 1 2 3 4 5 6 
#
# 1 0.058398 -0.002885 -0.005024 0.000000 -0.003525 0.000000
# 2 -0.002885 0.009494 -0.005108 0.000000 -0.000749 0.000000
# 3 -0.005024 -0.005108 0.011945 0.000000 -0.006588 0.000000
# 4 0.000000 0.000000 0.000000 -0.873544 0.000000 0.170963
# 5 -0.003525 -0.000749 -0.006588 0.000000 0.035967 0.000000
# 6 0.000000 0.000000 0.000000 0.170963 0.000000 0.001341
#
#
# Mechanical properties :
#
#
# Convention : Reuss Voigt Hill
#
# Bulk Modulus (GPa) = 18.58654 62.76488 40.67571
# Shear Modulus (GPa) = -7.01821 26.06887 9.52533
#
# Velocity S-wave (km/s) = -1.75205 3.37672 2.04114
# Velocity P-wave (km/s) = 2.00914 6.53113 4.83178
#
# Compressibility (1/GPa) = 0.05380238
#
# Stress axis : x y z
#
# Youngs Moduli (GPa) = 17.12398 105.32731 83.71929
#
# Poissons Ratio (x) = 0.30389 0.42062
# Poissons Ratio (y) = 0.04941 0.42761
# Poissons Ratio (z) = 0.08603 0.53798
#
# Static dielectric constant tensor:
#      x y z
#    x 3.905060 0.000000 0.228930 
#    y 0.000000 4.275030 0.000000 
#    z 0.228930 0.000000 4.566900 
# 
# 
# High freq. dielectric constant tensor:
#      x y z
#    x 1.904710 0.000000 0.011990 
#    y 0.000000 1.896450 0.000000 
#    z 0.011990 0.000000 1.890280 
# 
# From -- ./inp_files/18913.got.cif
#   From: 2010.06.25/outbox.cif.g09.slc.cpg/sg10_10_cif.got.tgz:18913.got - 2010.06.27 22:07:45.
