data_PCOD8066766
_publ_section_title
;
Structure prediction by ZEFSAII (Michael W. Deem and Ramdas Pophale) SiO2 
 PCOD8066766
Probable space group: P 2/M
;
_chemical_formula_sum "Si O2"
_cell_formula_units_Z 28
_cell_length_a 9.116322
_cell_length_b 9.107303
_cell_length_c 26.699222
_cell_angle_alpha 90.000000
_cell_angle_beta 141.007124
_cell_angle_gamma 90.000000
_cell_volume 1394.803926
_symmetry_space_group_name_H-M "P 2/M"
_symmetry_group_IT_number 10
_symmetry_cell_setting 'monoclinic'
loop_
_space_group_symop_operation_xyz
x,y,z
-x,y,-z
-x,-y,-z
x,-y,z
loop_
_atom_site_type_symbol
_atom_site_label
_atom_site_fract_x
_atom_site_fract_y
_atom_site_fract_z
Si Si1 0.848598 0.170378 0.294012
Si Si2 0.264746 0.327622 0.567135
Si Si3 0.697624 0.325385 0.157900
Si Si4 0.724011 0.161527 0.526261
Si Si5 0.524611 0.831658 0.723691
Si Si6 0.217589 0.170417 0.023542
Si Si7 0.061984 0.830393 0.869946
O O1 0.855123 0.265431 0.245217
O O2 0.603620 0.194423 0.257466
O O3 0.058016 0.227802 0.384991
O O4 0.887886 0.000000 0.290271
O O5 0.287088 0.500000 0.573729
O O6 0.359310 0.267401 0.540008
O O7 0.413640 0.268326 0.652143
O O8 0.000000 0.272507 0.500000
O O9 0.700081 0.500000 0.158642
O O10 0.436810 0.267781 0.097297
O O11 0.801785 0.269308 0.133269
O O12 0.500000 0.144494 0.500000
O O13 0.797144 0.000000 0.525119
O O14 0.791981 0.785775 0.800711
O O15 0.499092 0.000000 0.700063
O O16 0.277394 0.000000 0.049471
O O17 0.167236 0.199789 0.952199
O O18 0.000000 0.218936 0.000000
O O19 0.094259 0.000000 0.863042
#
# Coordination Sequence:
#
# PCOD8066766 Si02
#       7
#     4   4   4   4   4   4   4
#     4  10  21  40  63  87 118 157 206 258 302 352
#     4  11  23  38  58  87 124 162 198 243 305 370
#     4  12  26  40  59  90 130 166 196 238 297 363
#     4  10  22  39  62  89 116 154 207 261 305 351
#     4  10  21  39  65  90 114 152 206 258 302 350
#     4  10  21  42  71  96 120 154 202 251 296 347
#     4  10  22  40  64  92 120 155 200 251 299 350
#
# _framework density 20.074506
#
# number of rings (size 3 to 8) (size 9 to 14) (size 15 to 20)
#    0.000    1.571    1.429    3.000    2.000    7.429 
#    0.000    1.429    0.000    0.000    0.000    0.000 
#    0.000    0.000    0.000    0.000    0.000    0.000 
#
# Total GULP energy -347318.605096 kJ/mol
# GULP energy per Si atom -12404.235896 kJ/mol
# Density = 2.002882 g / cm^3
# Si number density = 20.074506 Si / 1000 Ang^3
#
#
#
# Elastic Constant Matrix: (Units=GPa)
#
#
# Indices 1 2 3 4 5 6 
#
# 1 94.8993 37.9506 14.0313 0.0000 -4.8302 0.0000
# 2 37.9506 80.0783 35.2355 0.0000 -7.2310 0.0000
# 3 14.0313 35.2355 72.1704 0.0000 -6.0960 0.0000
# 4 0.0000 0.0000 0.0000 36.6752 0.0000 31.1912
# 5 -4.8302 -7.2310 -6.0960 0.0000 37.4264 0.0000
# 6 0.0000 0.0000 0.0000 31.1912 0.0000 21.5221
#
#
#
# Elastic Compliance Matrix: (Units=1/GPa)
#
#
# Indices 1 2 3 4 5 6 
#
# 1 0.013034 -0.006410 0.000642 0.000000 0.000548 0.000000
# 2 -0.006410 0.019182 -0.007986 0.000000 0.001578 0.000000
# 3 0.000642 -0.007986 0.017751 0.000000 0.001431 0.000000
# 4 0.000000 0.000000 0.000000 -0.117248 0.000000 0.169923
# 5 0.000548 0.001578 0.001431 0.000000 0.027328 0.000000
# 6 0.000000 0.000000 0.000000 0.169923 0.000000 -0.199799
#
#
# Mechanical properties :
#
#
# Convention : Reuss Voigt Hill
#
# Bulk Modulus (GPa) = 44.52503 46.84251 45.68377
# Shear Modulus (GPa) = -24.41888 29.78679 2.68395
#
# Velocity S-wave (km/s) = -3.49149 3.85621 1.15754
# Velocity P-wave (km/s) = 2.44418 6.57359 4.95914
#
# Compressibility (1/GPa) = 0.02245928
#
# Stress axis : x y z
#
# Youngs Moduli (GPa) = 76.72343 52.13286 56.33490
#
# Poissons Ratio (x) = 0.33416 -0.03615
# Poissons Ratio (y) = 0.49179 0.44987
# Poissons Ratio (z) = -0.04924 0.41631
#
# Static dielectric constant tensor:
#      x y z
#    x 3.707720 0.000000 0.047750 
#    y 0.000000 3.490470 0.000000 
#    z 0.047750 0.000000 3.865470 
# 
# 
# High freq. dielectric constant tensor:
#      x y z
#    x 1.792730 0.000000 -0.000080 
#    y 0.000000 1.767080 0.000000 
#    z -0.000080 0.000000 1.796330 
# 
# From -- ./inp_files/37027.got.cif
#   From: 2010.06.25/outbox.cif.g09.slc.cpg/sg10_19_cif.got.tgz:37027.got - 2010.06.27 22:07:45.
