data_PCOD8066247
_publ_section_title
;
Structure prediction by ZEFSAII (Michael W. Deem and Ramdas Pophale) SiO2 
 PCOD8066247
Probable space group: P 2/M
;
_chemical_formula_sum "Si O2"
_cell_formula_units_Z 32
_cell_length_a 14.836828
_cell_length_b 8.365507
_cell_length_c 14.876425
_cell_angle_alpha 90.000000
_cell_angle_beta 58.759707
_cell_angle_gamma 90.000000
_cell_volume 1578.693763
_symmetry_space_group_name_H-M "P 2/M"
_symmetry_group_IT_number 10
_symmetry_cell_setting 'monoclinic'
loop_
_space_group_symop_operation_xyz
x,y,z
-x,y,-z
-x,-y,-z
x,-y,z
loop_
_atom_site_type_symbol
_atom_site_label
_atom_site_fract_x
_atom_site_fract_y
_atom_site_fract_z
Si Si1 0.889895 0.686746 0.599624
Si Si2 0.444282 0.185725 0.937407
Si Si3 0.064953 0.814323 0.232838
Si Si4 0.776122 0.688664 0.986376
Si Si5 0.273914 0.182930 0.450347
Si Si6 0.837311 0.314141 0.325670
Si Si7 0.491294 0.314312 0.280454
Si Si8 0.719988 0.688661 0.211528
O O1 0.874721 0.500000 0.589835
O O2 0.887231 0.722253 0.706629
O O3 0.793656 0.778671 0.603367
O O4 0.000000 0.746997 0.500000
O O5 0.496981 0.290723 0.832196
O O6 0.461548 0.000000 0.906587
O O7 0.500000 0.237026 0.000000
O O8 0.320848 0.223837 0.011989
O O9 0.116623 0.744948 0.115695
O O10 0.940827 0.788025 0.290572
O O11 0.089922 0.000000 0.230684
O O12 0.760813 0.500000 0.985449
O O13 0.780266 0.740424 0.089165
O O14 0.239854 0.295675 0.549993
O O15 0.396449 0.210711 0.368016
O O16 0.256155 0.000000 0.486861
O O17 0.867323 0.500000 0.298643
O O18 0.781078 0.241756 0.266034
O O19 0.469892 0.500000 0.311184
O O20 0.598819 0.251337 0.272180
O O21 0.717251 0.500000 0.221012
#
# Coordination Sequence:
#
# PCOD8066247 Si02
#       8
#     4   4   4   4   4   4   4   4
#     4  11  23  41  65  88 116 159 206 248 296 357
#     4  10  21  37  57  85 122 157 196 247 306 357
#     4  12  25  40  60  91 127 160 197 247 308 362
#     4  10  21  40  63  88 119 159 207 248 295 356
#     4  12  25  40  60  91 127 160 197 247 308 362
#     4  11  22  41  65  89 118 157 208 254 299 358
#     4  10  21  40  63  88 119 159 207 248 295 356
#     4   8  19  40  66  90 116 156 205 258 299 342
#
# _framework density 20.269922999999999
#
# number of rings (size 3 to 8) (size 9 to 14) (size 15 to 20)
#    0.000    1.500    1.250    4.875    1.750    2.500 
#    0.000   12.500    0.000    0.000    0.000    0.000 
#    0.000    0.000    0.000    0.000    0.000    0.000 
#
# Total GULP energy -396966.340016 kJ/mol
# GULP energy per Si atom -12405.198125 kJ/mol
# Density = 2.022379 g / cm^3
# Si number density = 20.269923 Si / 1000 Ang^3
#
#
#
# Elastic Constant Matrix: (Units=GPa)
#
#
# Indices 1 2 3 4 5 6 
#
# 1 91.4947 16.1133 58.1670 0.0000 25.5760 0.0000
# 2 16.1133 54.8816 9.4111 0.0000 3.6513 0.0000
# 3 58.1670 9.4111 110.4667 0.0000 -2.7217 0.0000
# 4 0.0000 0.0000 0.0000 24.4843 0.0000 -11.5435
# 5 25.5760 3.6513 -2.7217 0.0000 31.7105 0.0000
# 6 0.0000 0.0000 0.0000 -11.5435 0.0000 14.6220
#
#
#
# Elastic Compliance Matrix: (Units=1/GPa)
#
#
# Indices 1 2 3 4 5 6 
#
# 1 0.027274 -0.003991 -0.014583 0.000000 -0.022790 0.000000
# 2 -0.003991 0.019240 0.000488 0.000000 0.001045 0.000000
# 3 -0.014583 0.000488 0.017014 0.000000 0.013166 0.000000
# 4 0.000000 0.000000 0.000000 0.065057 0.000000 0.051360
# 5 -0.022790 0.001045 0.013166 0.000000 0.050926 0.000000
# 6 0.000000 0.000000 0.000000 0.051360 0.000000 0.108937
#
#
# Mechanical properties :
#
#
# Convention : Reuss Voigt Hill
#
# Bulk Modulus (GPa) = 36.55459 47.13618 41.84538
# Shear Modulus (GPa) = 14.98188 25.70680 20.34434
#
# Velocity S-wave (km/s) = 2.72162 3.56508 3.17151
# Velocity P-wave (km/s) = 5.28672 6.34437 5.83954
#
# Compressibility (1/GPa) = 0.02735635
#
# Stress axis : x y z
#
# Youngs Moduli (GPa) = 36.66524 51.97636 58.77530
#
# Poissons Ratio (x) = 0.20743 0.85710
# Poissons Ratio (y) = 0.14632 -0.02868
# Poissons Ratio (z) = 0.53468 -0.02537
#
# Static dielectric constant tensor:
#      x y z
#    x 3.849720 0.000000 0.109240 
#    y 0.000000 3.521280 0.000000 
#    z 0.109240 0.000000 3.779580 
# 
# 
# High freq. dielectric constant tensor:
#      x y z
#    x 1.794080 0.000000 0.000150 
#    y 0.000000 1.788620 0.000000 
#    z 0.000150 0.000000 1.795590 
# 
# From -- ./inp_files/66497.got.cif
#   From: 2010.06.25/outbox.cif.g09.slc.cpg/sg10_34_cif.got.tgz:66497.got - 2010.06.27 22:07:45.
