data_PCOD8066471
_publ_section_title
;
Structure prediction by ZEFSAII (Michael W. Deem and Ramdas Pophale) SiO2 
 PCOD8066471
Probable space group: P 2/M
;
_chemical_formula_sum "Si O2"
_cell_formula_units_Z 32
_cell_length_a 30.952398
_cell_length_b 8.850779
_cell_length_c 12.169627
_cell_angle_alpha 90.000000
_cell_angle_beta 28.693325
_cell_angle_gamma 90.000000
_cell_volume 1600.678250
_symmetry_space_group_name_H-M "P 2/M"
_symmetry_group_IT_number 10
_symmetry_cell_setting 'monoclinic'
loop_
_space_group_symop_operation_xyz
x,y,z
-x,y,-z
-x,-y,-z
x,-y,z
loop_
_atom_site_type_symbol
_atom_site_label
_atom_site_fract_x
_atom_site_fract_y
_atom_site_fract_z
Si Si1 0.583527 0.178161 0.745437
Si Si2 0.597116 0.677657 0.122471
Si Si3 0.682797 0.674494 0.705567
Si Si4 0.267793 0.678929 0.987919
Si Si5 0.004698 0.830482 0.169831
Si Si6 0.413392 0.179572 0.510540
Si Si7 0.140527 0.171760 0.694218
Si Si8 0.070170 0.179637 0.438645
O O1 0.668990 0.232716 0.623983
O O2 0.586501 0.239353 0.615209
O O3 0.578776 0.000000 0.753365
O O4 0.500000 0.247858 0.000000
O O5 0.579045 0.500000 0.171847
O O6 0.505836 0.763766 0.361622
O O7 0.620534 0.728030 0.945877
O O8 0.680418 0.724133 0.014994
O O9 0.668190 0.500000 0.714919
O O10 0.784436 0.710720 0.510776
O O11 0.261028 0.500000 0.990026
O O12 0.167911 0.746730 0.204204
O O13 0.325927 0.746799 0.759171
O O14 0.925136 0.829365 0.261297
O O15 0.973894 0.750268 0.351454
O O16 0.030402 0.000000 0.145689
O O17 0.092602 0.762798 0.912264
O O18 0.407447 0.000000 0.533407
O O19 0.175964 0.000000 0.634402
O O20 0.000000 0.224171 0.500000
O O21 0.084993 0.000000 0.412185
#
# Coordination Sequence:
#
# PCOD8066471 Si02
#       8
#     4   4   4   4   4   4   4   4
#     4  10  21  39  58  79 109 146 188 231 277 329
#     4  10  22  39  58  83 120 160 193 235 289 343
#     4  11  22  34  54  85 118 152 191 230 279 338
#     4  11  24  41  60  85 119 156 194 236 290 350
#     4   8  16  33  56  80 106 141 185 234 286 335
#     4  11  23  39  62  88 115 150 197 246 288 336
#     4   9  17  32  55  80 108 144 187 233 281 332
#     4  10  21  38  60  84 112 146 190 242 291 338
#
# _framework density 19.991524999999999
#
# number of rings (size 3 to 8) (size 9 to 14) (size 15 to 20)
#    0.000    2.000    1.250    3.000    0.000    5.500 
#    0.000    4.375    0.000    0.000    0.000    0.000 
#    0.000    0.000    0.000    0.000    0.000    0.000 
#
# Total GULP energy -396648.922983 kJ/mol
# GULP energy per Si atom -12395.278843 kJ/mol
# Density = 1.994602 g / cm^3
# Si number density = 19.991525 Si / 1000 Ang^3
#
#
#
# Elastic Constant Matrix: (Units=GPa)
#
#
# Indices 1 2 3 4 5 6 
#
# 1 109.7611 35.7472 54.4713 0.0000 14.9996 0.0000
# 2 35.7472 33.0161 31.5021 0.0000 4.9751 0.0000
# 3 54.4713 31.5021 125.2295 0.0000 13.7229 0.0000
# 4 0.0000 0.0000 0.0000 25.7484 0.0000 -2.8572
# 5 14.9996 4.9751 13.7229 0.0000 30.6269 0.0000
# 6 0.0000 0.0000 0.0000 -2.8572 0.0000 22.0374
#
#
#
# Elastic Compliance Matrix: (Units=1/GPa)
#
#
# Indices 1 2 3 4 5 6 
#
# 1 0.015465 -0.013338 -0.002923 0.000000 -0.004098 0.000000
# 2 -0.013338 0.051485 -0.007308 0.000000 0.001444 0.000000
# 3 -0.002923 -0.007308 0.011366 0.000000 -0.002474 0.000000
# 4 0.000000 0.000000 0.000000 0.039404 0.000000 0.005109
# 5 -0.004098 0.001444 -0.002474 0.000000 0.035532 0.000000
# 6 0.000000 0.000000 0.000000 0.005109 0.000000 0.046040
#
#
# Mechanical properties :
#
#
# Convention : Reuss Voigt Hill
#
# Bulk Modulus (GPa) = 32.07287 56.82754 44.45021
# Shear Modulus (GPa) = 19.46870 25.43496 22.45183
#
# Velocity S-wave (km/s) = 3.12404 3.57078 3.35486
# Velocity P-wave (km/s) = 5.39360 6.74449 6.10652
#
# Compressibility (1/GPa) = 0.03117900
#
# Stress axis : x y z
#
# Youngs Moduli (GPa) = 64.66151 19.42310 87.98203
#
# Poissons Ratio (x) = 0.25907 0.25713
# Poissons Ratio (y) = 0.86249 0.64294
# Poissons Ratio (z) = 0.18897 0.14194
#
# Static dielectric constant tensor:
#      x y z
#    x 3.730210 0.000000 0.181980 
#    y 0.000000 3.389430 0.000000 
#    z 0.181980 0.000000 3.939060 
# 
# 
# High freq. dielectric constant tensor:
#      x y z
#    x 1.784250 0.000000 0.006600 
#    y 0.000000 1.755350 0.000000 
#    z 0.006600 0.000000 1.791050 
# 
# From -- ./inp_files/58122.got.cif
#   From: 2010.06.25/outbox.cif.g09.slc.cpg/sg10_30_cif.got.tgz:58122.got - 2010.06.27 22:07:45.
