data_PCOD8066171
_publ_section_title
;
Structure prediction by ZEFSAII (Michael W. Deem and Ramdas Pophale) SiO2 
 PCOD8066171
Probable space group: P 2/M
;
_chemical_formula_sum "Si O2"
_cell_formula_units_Z 24
_cell_length_a 10.577935
_cell_length_b 16.640542
_cell_length_c 18.504306
_cell_angle_alpha 90.000000
_cell_angle_beta 23.725106
_cell_angle_gamma 90.000000
_cell_volume 1310.521204
_symmetry_space_group_name_H-M "P 2/M"
_symmetry_group_IT_number 10
_symmetry_cell_setting 'monoclinic'
loop_
_space_group_symop_operation_xyz
x,y,z
-x,y,-z
-x,-y,-z
x,-y,z
loop_
_atom_site_type_symbol
_atom_site_label
_atom_site_fract_x
_atom_site_fract_y
_atom_site_fract_z
Si Si1 0.717293 0.791805 0.099497
Si Si2 0.788827 0.667637 0.672746
Si Si3 0.299159 0.090745 0.394249
Si Si4 0.223181 0.227424 0.545447
Si Si5 0.322187 0.590624 0.019313
Si Si6 0.084300 0.743245 0.777466
O O1 0.417299 0.733912 0.261629
O O2 0.603217 0.877175 0.190866
O O3 0.000000 0.756549 0.000000
O O4 0.842115 0.796967 0.951638
O O5 0.000000 0.626041 0.500000
O O6 0.002322 0.709016 0.621604
O O7 0.567343 0.601600 0.825309
O O8 0.228351 0.141560 0.503330
O O9 0.000000 0.095095 0.500000
O O10 0.373138 0.000000 0.379732
O O11 0.575888 0.261606 0.363408
O O12 0.092354 0.215186 0.694932
O O13 0.190061 0.500000 0.086050
O O14 0.031823 0.651193 0.164723
O O15 0.500000 0.609071 0.000000
#
# Coordination Sequence:
#
# PCOD8066171 Si02
#       6
#     4   4   4   4   4   4
#     4  11  19  35  57  87 108 147 192 235 272 343
#     4  11  19  34  61  82 110 153 192 231 274 342
#     4  11  22  38  59  84 116 150 187 239 288 327
#     4  11  19  39  55  86 109 153 197 228 273 345
#     4  10  21  37  55  85 119 146 184 239 291 329
#     4  10  22  34  61  82 112 151 194 232 273 337
#
# _framework density 18.313324999999999
#
# number of rings (size 3 to 8) (size 9 to 14) (size 15 to 20)
#    0.000    1.333    6.667    0.000    0.000    0.667 
#    0.000    5.000    0.000   19.000    0.000    0.000 
#    0.000    0.000    0.000    0.000    0.000    0.000 
#
# Total GULP energy -297596.893754 kJ/mol
# GULP energy per Si atom -12399.870573 kJ/mol
# Density = 1.827164 g / cm^3
# Si number density = 18.313325 Si / 1000 Ang^3
#
#
#
# Elastic Constant Matrix: (Units=GPa)
#
#
# Indices 1 2 3 4 5 6 
#
# 1 81.7559 41.4018 33.2464 0.0000 -1.8805 0.0000
# 2 41.4018 101.0880 37.0606 0.0000 6.9748 0.0000
# 3 33.2464 37.0606 94.6404 0.0000 16.1627 0.0000
# 4 0.0000 0.0000 0.0000 24.3064 0.0000 4.0162
# 5 -1.8805 6.9748 16.1627 0.0000 40.2211 0.0000
# 6 0.0000 0.0000 0.0000 4.0162 0.0000 13.7743
#
#
#
# Elastic Compliance Matrix: (Units=1/GPa)
#
#
# Indices 1 2 3 4 5 6 
#
# 1 0.016903 -0.005568 -0.004357 0.000000 0.003506 0.000000
# 2 -0.005568 0.013386 -0.003055 0.000000 -0.001354 0.000000
# 3 -0.004357 -0.003055 0.014213 0.000000 -0.005385 0.000000
# 4 0.000000 0.000000 0.000000 0.043224 0.000000 -0.012603
# 5 0.003506 -0.001354 -0.005385 0.000000 0.027425 0.000000
# 6 0.000000 0.000000 0.000000 -0.012603 0.000000 0.076273
#
#
# Mechanical properties :
#
#
# Convention : Reuss Voigt Hill
#
# Bulk Modulus (GPa) = 53.92585 55.65579 54.79082
# Shear Modulus (GPa) = 22.36496 26.71208 24.53852
#
# Velocity S-wave (km/s) = 3.49842 3.82332 3.66447
# Velocity P-wave (km/s) = 6.76969 7.06734 6.92011
#
# Compressibility (1/GPa) = 0.01854398
#
# Stress axis : x y z
#
# Youngs Moduli (GPa) = 59.15993 74.70462 70.35983
#
# Poissons Ratio (x) = 0.41593 0.30653
# Poissons Ratio (y) = 0.32939 0.21493
# Poissons Ratio (z) = 0.25773 0.22820
#
# Static dielectric constant tensor:
#      x y z
#    x 3.582980 0.000000 0.118710 
#    y 0.000000 3.142750 0.000000 
#    z 0.118710 0.000000 3.661900 
# 
# 
# High freq. dielectric constant tensor:
#      x y z
#    x 1.722790 0.000000 0.004200 
#    y 0.000000 1.674710 0.000000 
#    z 0.004200 0.000000 1.728000 
# 
# From -- ./inp_files/43114.got.cif
#   From: 2010.06.25/outbox.cif.g09.slc.cpg/sg10_22_cif.got.tgz:43114.got - 2010.06.27 22:07:45.
