data_PCOD8066705
_publ_section_title
;
Structure prediction by ZEFSAII (Michael W. Deem and Ramdas Pophale) SiO2 
 PCOD8066705
Probable space group: P 2/M
;
_chemical_formula_sum "Si O2"
_cell_formula_units_Z 32
_cell_length_a 26.082934
_cell_length_b 8.497112
_cell_length_c 15.335547
_cell_angle_alpha 90.000000
_cell_angle_beta 152.933261
_cell_angle_gamma 90.000000
_cell_volume 1546.554487
_symmetry_space_group_name_H-M "P 2/M"
_symmetry_group_IT_number 10
_symmetry_cell_setting 'monoclinic'
loop_
_space_group_symop_operation_xyz
x,y,z
-x,y,-z
-x,-y,-z
x,-y,z
loop_
_atom_site_type_symbol
_atom_site_label
_atom_site_fract_x
_atom_site_fract_y
_atom_site_fract_z
Si Si1 0.782704 0.683808 0.076963
Si Si2 0.001171 0.183205 0.336959
Si Si3 0.240762 0.684861 0.283875
Si Si4 0.235614 0.181347 0.458962
Si Si5 0.373754 0.312849 0.316700
Si Si6 0.003598 0.318367 0.153436
Si Si7 0.372282 0.317519 0.822564
Si Si8 0.238774 0.817597 0.775526
O O1 0.806867 0.500000 0.101379
O O2 0.728981 0.718238 0.089878
O O3 0.899158 0.780271 0.247827
O O4 0.697514 0.746711 0.874017
O O5 0.983358 0.287035 0.224331
O O6 0.116399 0.236262 0.556839
O O7 0.005112 0.000000 0.317773
O O8 0.259417 0.500000 0.324658
O O9 0.280308 0.773305 0.430939
O O10 0.316154 0.749644 0.318194
O O11 0.110273 0.724239 0.069650
O O12 0.102323 0.212022 0.263853
O O13 0.299339 0.285613 0.626371
O O14 0.261041 0.000000 0.516674
O O15 0.500000 0.244244 0.500000
O O16 0.376103 0.500000 0.321287
O O17 0.035859 0.500000 0.188349
O O18 0.362028 0.500000 0.831360
O O19 0.329856 0.215641 0.839285
O O20 0.500000 0.266132 0.000000
O O21 0.240345 0.000000 0.802332
#
# Coordination Sequence:
#
# PCOD8066705 Si02
#       8
#     4   4   4   4   4   4   4   4
#     4  11  22  38  62  93 123 162 210 254 302 362
#     4  11  22  37  60  90 126 164 199 247 314 374
#     4  10  21  39  62  91 123 161 206 254 306 360
#     4  12  25  40  61  93 127 163 200 247 312 373
#     4   9  19  38  62  87 117 155 204 257 302 347
#     4  11  21  37  63  92 123 160 204 253 304 365
#     4  11  25  45  68  91 117 159 213 261 304 360
#     4  11  24  41  62  92 127 162 198 249 315 373
#
# _framework density 20.691155999999999
#
# number of rings (size 3 to 8) (size 9 to 14) (size 15 to 20)
#    0.000    1.250    2.500    3.750    0.000    7.500 
#    0.000    2.500    0.000    2.625    0.000    0.000 
#    0.000    0.000    0.000    0.000    0.000    0.000 
#
# Total GULP energy -397021.422644 kJ/mol
# GULP energy per Si atom -12406.919458 kJ/mol
# Density = 2.064406 g / cm^3
# Si number density = 20.691156 Si / 1000 Ang^3
#
#
#
# Elastic Constant Matrix: (Units=GPa)
#
#
# Indices 1 2 3 4 5 6 
#
# 1 133.7882 15.2597 57.2041 0.0000 -10.1631 0.0000
# 2 15.2597 39.6584 18.3662 0.0000 4.7384 0.0000
# 3 57.2041 18.3662 73.5750 0.0000 19.6058 0.0000
# 4 0.0000 0.0000 0.0000 8.9752 0.0000 -1.3755
# 5 -10.1631 4.7384 19.6058 0.0000 33.1955 0.0000
# 6 0.0000 0.0000 0.0000 -1.3755 0.0000 30.4729
#
#
#
# Elastic Compliance Matrix: (Units=1/GPa)
#
#
# Indices 1 2 3 4 5 6 
#
# 1 0.015102 -0.000361 -0.015307 0.000000 0.013716 0.000000
# 2 -0.000361 0.028521 -0.006794 0.000000 -0.000169 0.000000
# 3 -0.015307 -0.006794 0.033442 0.000000 -0.023468 0.000000
# 4 0.000000 0.000000 0.000000 0.112194 0.000000 0.005064
# 5 0.013716 -0.000169 -0.023468 0.000000 0.048208 0.000000
# 6 0.000000 0.000000 0.000000 0.005064 0.000000 0.033045
#
#
# Mechanical properties :
#
#
# Convention : Reuss Voigt Hill
#
# Bulk Modulus (GPa) = 31.11192 47.63131 39.37162
# Shear Modulus (GPa) = 15.33044 24.94151 20.13598
#
# Velocity S-wave (km/s) = 2.72493 3.47568 3.12295
# Velocity P-wave (km/s) = 4.99693 6.25917 5.66333
#
# Compressibility (1/GPa) = 0.03214202
#
# Stress axis : x y z
#
# Youngs Moduli (GPa) = 66.21512 35.06226 29.90264
#
# Poissons Ratio (x) = 0.01266 0.45771
# Poissons Ratio (y) = 0.02391 0.20315
# Poissons Ratio (z) = 1.01353 0.23820
#
# Static dielectric constant tensor:
#      x y z
#    x 3.849760 0.000000 0.009080 
#    y 0.000000 3.523540 0.000000 
#    z 0.009080 0.000000 3.780520 
# 
# 
# High freq. dielectric constant tensor:
#      x y z
#    x 1.823630 0.000000 -0.004990 
#    y 0.000000 1.796900 0.000000 
#    z -0.004990 0.000000 1.805950 
# 
# From -- ./inp_files/71632.got.cif
#   From: 2010.06.25/outbox.cif.g09.slc.cpg/sg10_36_cif.got.tgz:71632.got - 2010.06.27 22:07:45.
