data_PCOD8066890
_publ_section_title
;
Structure prediction by ZEFSAII (Michael W. Deem and Ramdas Pophale) SiO2 
 PCOD8066890
Probable space group: P 2/M
;
_chemical_formula_sum "Si O2"
_cell_formula_units_Z 28
_cell_length_a 9.673421
_cell_length_b 7.924763
_cell_length_c 28.608352
_cell_angle_alpha 90.000000
_cell_angle_beta 139.704168
_cell_angle_gamma 90.000000
_cell_volume 1418.355528
_symmetry_space_group_name_H-M "P 2/M"
_symmetry_group_IT_number 10
_symmetry_cell_setting 'monoclinic'
loop_
_space_group_symop_operation_xyz
x,y,z
-x,y,-z
-x,-y,-z
x,-y,z
loop_
_atom_site_type_symbol
_atom_site_label
_atom_site_fract_x
_atom_site_fract_y
_atom_site_fract_z
Si Si1 0.740935 0.186972 0.698597
Si Si2 0.799630 0.311523 0.174898
Si Si3 0.530607 0.691511 0.456626
Si Si4 0.577054 0.000000 0.072688
Si Si5 0.979949 0.811829 0.549630
Si Si6 0.478717 0.306696 0.173013
Si Si7 0.432941 0.692740 0.697374
Si Si8 0.750252 0.000000 0.930014
O O1 0.605638 0.209168 0.616642
O O2 0.586078 0.201337 0.703257
O O3 0.944134 0.309381 0.753834
O O4 0.836717 0.000000 0.722914
O O5 0.738642 0.500000 0.140713
O O6 0.716345 0.169217 0.117531
O O7 0.695251 0.281055 0.198943
O O8 0.500000 0.772686 0.500000
O O9 0.448568 0.500000 0.434886
O O10 0.780481 0.694968 0.509960
O O11 0.366475 0.000000 0.050231
O O12 0.500000 0.000000 0.000000
O O13 0.186627 0.729512 0.625411
O O14 0.000000 0.820337 0.500000
O O15 0.946762 0.000000 0.561446
O O16 0.393761 0.500000 0.145761
O O17 0.524212 0.261750 0.238115
O O18 0.304097 0.172205 0.111312
O O19 0.482804 0.500000 0.698680
O O20 0.000000 0.000000 0.000000
#
# Coordination Sequence:
#
# PCOD8066890 Si02
#       8
#     4   4   4   2   4   4   4   2
#     4  12  24  39  60  89 122 159 208 260 308 366
#     4  10  21  42  65  91 127 168 206 251 304 362
#     4  11  25  42  59  83 116 159 210 261 313 370
#     4  10  22  42  64  98 130 160 206 245 298 364
#     4  11  23  39  58  84 117 156 202 256 313 361
#     4   9  22  41  64  93 126 162 207 248 298 365
#     4  11  23  39  61  88 118 161 205 253 311 366
#     4  10  22  40  66  96 128 164 196 242 302 356
#
# _framework density 19.741171000000001
#
# number of rings (size 3 to 8) (size 9 to 14) (size 15 to 20)
#    0.000    1.429    2.143    2.571    4.000    3.429 
#    0.000    0.000    0.000    0.000    0.000    0.000 
#    0.000    0.000    0.000    0.000    0.000    0.000 
#
# Total GULP energy -347237.333875 kJ/mol
# GULP energy per Si atom -12401.333353 kJ/mol
# Density = 1.969624 g / cm^3
# Si number density = 19.741171 Si / 1000 Ang^3
#
#
#
# Elastic Constant Matrix: (Units=GPa)
#
#
# Indices 1 2 3 4 5 6 
#
# 1 86.0878 40.9773 70.8387 0.0000 -7.3703 0.0000
# 2 40.9773 90.3906 50.1851 0.0000 -8.8753 0.0000
# 3 70.8387 50.1851 137.7851 0.0000 -0.7772 0.0000
# 4 0.0000 0.0000 0.0000 26.0588 0.0000 0.4465
# 5 -7.3703 -8.8753 -0.7772 0.0000 41.9885 0.0000
# 6 0.0000 0.0000 0.0000 0.4465 0.0000 21.7691
#
#
#
# Elastic Compliance Matrix: (Units=1/GPa)
#
#
# Indices 1 2 3 4 5 6 
#
# 1 0.021823 -0.004265 -0.009651 0.000000 0.002750 0.000000
# 2 -0.004265 0.015047 -0.003275 0.000000 0.002371 0.000000
# 3 -0.009651 -0.003275 0.013400 0.000000 -0.002138 0.000000
# 4 0.000000 0.000000 0.000000 0.038388 0.000000 -0.000787
# 5 0.002750 0.002371 -0.002138 0.000000 0.024761 0.000000
# 6 0.000000 0.000000 0.000000 -0.000787 0.000000 0.045953
#
#
# Mechanical properties :
#
#
# Convention : Reuss Voigt Hill
#
# Bulk Modulus (GPa) = 62.93357 70.91840 66.92598
# Shear Modulus (GPa) = 25.11945 28.11412 26.61679
#
# Velocity S-wave (km/s) = 3.57100 3.77787 3.67589
# Velocity P-wave (km/s) = 6.99652 7.41834 7.21052
#
# Compressibility (1/GPa) = 0.01588977
#
# Stress axis : x y z
#
# Youngs Moduli (GPa) = 45.82351 66.45645 74.62678
#
# Poissons Ratio (x) = 0.28343 0.72021
# Poissons Ratio (y) = 0.19543 0.24438
# Poissons Ratio (z) = 0.44223 0.21762
#
# Static dielectric constant tensor:
#      x y z
#    x 3.613500 0.000000 -0.052620 
#    y 0.000000 3.852320 0.000000 
#    z -0.052620 0.000000 3.398970 
# 
# 
# High freq. dielectric constant tensor:
#      x y z
#    x 1.774090 0.000000 0.000090 
#    y 0.000000 1.787670 0.000000 
#    z 0.000090 0.000000 1.756450 
# 
# From -- ./inp_files/92126.got.cif
#   From: 2010.06.25/outbox.cif.g09.slc.cpg/sg10_47_cif.got.tgz:92126.got - 2010.06.27 22:07:45.
