data_PCOD8066389
_publ_section_title
;
Structure prediction by ZEFSAII (Michael W. Deem and Ramdas Pophale) SiO2 
 PCOD8066389
Probable space group: P 2/M
;
_chemical_formula_sum "Si O2"
_cell_formula_units_Z 28
_cell_length_a 14.516495
_cell_length_b 9.157701
_cell_length_c 20.018534
_cell_angle_alpha 90.000000
_cell_angle_beta 147.097258
_cell_angle_gamma 90.000000
_cell_volume 1445.612708
_symmetry_space_group_name_H-M "P 2/M"
_symmetry_group_IT_number 10
_symmetry_cell_setting 'monoclinic'
loop_
_space_group_symop_operation_xyz
x,y,z
-x,y,-z
-x,-y,-z
x,-y,z
loop_
_atom_site_type_symbol
_atom_site_label
_atom_site_fract_x
_atom_site_fract_y
_atom_site_fract_z
Si Si1 0.246198 0.669300 0.437118
Si Si2 0.818009 0.831363 0.359826
Si Si3 0.512736 0.328072 0.806835
Si Si4 0.792101 0.171845 0.056000
Si Si5 0.118990 0.329884 0.213493
Si Si6 0.407283 0.328408 0.293490
Si Si7 0.075422 0.167513 0.720496
O O1 0.238895 0.500000 0.450794
O O2 0.223736 0.697495 0.344939
O O3 0.425133 0.738470 0.569322
O O4 0.097396 0.742471 0.388988
O O5 0.679359 0.729064 0.309971
O O6 0.813698 0.802009 0.277678
O O7 0.000000 0.787569 0.500000
O O8 0.776643 0.000000 0.350757
O O9 0.513502 0.500000 0.820846
O O10 0.597046 0.288994 0.787075
O O11 0.617559 0.246292 0.927857
O O12 0.814634 0.211172 0.147780
O O13 0.947044 0.237235 0.107570
O O14 0.781404 0.000000 0.036726
O O15 0.070218 0.500000 0.175548
O O16 0.236235 0.269817 0.224555
O O17 0.412339 0.500000 0.309141
O O18 0.019716 0.000000 0.690890
#
# Coordination Sequence:
#
# PCOD8066389 Si02
#       7
#     4   4   4   4   4   4   4
#     4   9  16  29  53  82 107 133 170 213 256 307
#     4  10  21  38  59  82 107 135 167 205 257 317
#     4  11  23  37  54  77 106 139 176 216 256 301
#     4  10  21  38  55  74 104 138 176 217 257 303
#     4   9  17  32  55  79 104 136 174 213 255 308
#     4   9  18  32  51  77 108 140 171 210 262 310
#     4   9  19  35  55  77 104 139 171 208 261 311
#
# _framework density 19.368952
#
# number of rings (size 3 to 8) (size 9 to 14) (size 15 to 20)
#    0.000    2.429    0.000    2.143    0.000    4.286 
#    0.000    8.571    0.000    3.429    0.000    0.000 
#    0.000    0.000    0.000    0.000    0.000    0.000 
#
# Total GULP energy -347257.106408 kJ/mol
# GULP energy per Si atom -12402.039515 kJ/mol
# Density = 1.932487 g / cm^3
# Si number density = 19.368952 Si / 1000 Ang^3
#
#
#
# Elastic Constant Matrix: (Units=GPa)
#
#
# Indices 1 2 3 4 5 6 
#
# 1 83.5765 35.0348 28.5879 0.0000 1.7504 0.0000
# 2 35.0348 64.1615 40.2466 0.0000 3.8023 0.0000
# 3 28.5879 40.2466 102.0792 0.0000 3.5890 0.0000
# 4 0.0000 0.0000 0.0000 22.3992 0.0000 -5.6106
# 5 1.7504 3.8023 3.5890 0.0000 21.1297 0.0000
# 6 0.0000 0.0000 0.0000 -5.6106 0.0000 8.5673
#
#
#
# Elastic Compliance Matrix: (Units=1/GPa)
#
#
# Indices 1 2 3 4 5 6 
#
# 1 0.015657 -0.007720 -0.001352 0.000000 0.000322 0.000000
# 2 -0.007720 0.024630 -0.007460 0.000000 -0.002526 0.000000
# 3 -0.001352 -0.007460 0.013144 0.000000 -0.000778 0.000000
# 4 0.000000 0.000000 0.000000 0.053405 0.000000 0.034973
# 5 0.000322 -0.002526 -0.000778 0.000000 0.047887 0.000000
# 6 0.000000 0.000000 0.000000 0.034973 0.000000 0.139626
#
#
# Mechanical properties :
#
#
# Convention : Reuss Voigt Hill
#
# Bulk Modulus (GPa) = 49.10171 50.83953 49.97062
# Shear Modulus (GPa) = 14.96100 20.14910 17.55505
#
# Velocity S-wave (km/s) = 2.78226 3.22883 3.01383
# Velocity P-wave (km/s) = 5.97721 6.34077 6.16168
#
# Compressibility (1/GPa) = 0.02036589
#
# Stress axis : x y z
#
# Youngs Moduli (GPa) = 63.86831 40.60018 76.08208
#
# Poissons Ratio (x) = 0.31344 0.10289
# Poissons Ratio (y) = 0.49308 0.56758
# Poissons Ratio (z) = 0.08637 0.30288
#
# Static dielectric constant tensor:
#      x y z
#    x 3.638740 0.000000 -0.028890 
#    y 0.000000 3.357560 0.000000 
#    z -0.028890 0.000000 3.521540 
# 
# 
# High freq. dielectric constant tensor:
#      x y z
#    x 1.757340 0.000000 -0.002170 
#    y 0.000000 1.733870 0.000000 
#    z -0.002170 0.000000 1.756900 
# 
# From -- ./inp_files/49555.got.cif
#   From: 2010.06.25/outbox.cif.g09.slc.cpg/sg10_25_cif.got.tgz:49555.got - 2010.06.27 22:07:45.
