data_PCOD8066338
_publ_section_title
;
Structure prediction by ZEFSAII (Michael W. Deem and Ramdas Pophale) SiO2 
 PCOD8066338
Probable space group: P 2/M
;
_chemical_formula_sum "Si O2"
_cell_formula_units_Z 32
_cell_length_a 15.352638
_cell_length_b 8.644090
_cell_length_c 25.729540
_cell_angle_alpha 90.000000
_cell_angle_beta 152.318455
_cell_angle_gamma 90.000000
_cell_volume 1586.255594
_symmetry_space_group_name_H-M "P 2/M"
_symmetry_group_IT_number 10
_symmetry_cell_setting 'monoclinic'
loop_
_space_group_symop_operation_xyz
x,y,z
-x,y,-z
-x,-y,-z
x,-y,z
loop_
_atom_site_type_symbol
_atom_site_label
_atom_site_fract_x
_atom_site_fract_y
_atom_site_fract_z
Si Si1 0.723355 0.320764 0.715121
Si Si2 0.807568 0.315970 0.874850
Si Si3 0.163305 0.321291 0.502174
Si Si4 0.442668 0.679589 0.742199
Si Si5 0.692135 0.817894 0.124091
Si Si6 0.229356 0.817958 0.718524
Si Si7 0.666816 0.179678 0.508856
Si Si8 0.046160 0.676851 0.261774
O O1 0.661111 0.500000 0.685776
O O2 0.783111 0.256110 0.803019
O O3 0.550626 0.222781 0.601863
O O4 0.899016 0.298997 0.769460
O O5 0.812717 0.500000 0.877234
O O6 0.634693 0.257122 0.818423
O O7 0.000000 0.247696 0.000000
O O8 0.177494 0.500000 0.492850
O O9 0.272356 0.291513 0.612930
O O10 0.255653 0.216050 0.507073
O O11 0.949455 0.272920 0.398154
O O12 0.461679 0.500000 0.766844
O O13 0.404981 0.776666 0.774570
O O14 0.728665 0.754959 0.201427
O O15 0.863025 0.776908 0.176622
O O16 0.671919 0.000000 0.116007
O O17 0.500000 0.744738 0.000000
O O18 0.189745 0.000000 0.697404
O O19 0.779187 0.275808 0.610719
O O20 0.694997 0.000000 0.535685
O O21 0.996753 0.500000 0.247595
#
# Coordination Sequence:
#
# PCOD8066338 Si02
#       8
#     4   4   4   4   4   4   4   4
#     4  10  21  39  60  88 121 155 196 242 293 348
#     4   9  18  36  61  86 115 153 197 244 292 341
#     4  11  21  37  61  88 119 154 192 240 296 353
#     4  10  21  37  60  88 118 156 194 237 294 349
#     4  10  23  43  62  82 117 163 203 243 296 351
#     4  11  23  38  59  88 119 156 195 240 293 349
#     4  12  23  36  59  89 121 158 193 236 298 360
#     4  11  23  38  62  91 119 154 196 248 296 344
#
# _framework density 20.173293000000001
#
# number of rings (size 3 to 8) (size 9 to 14) (size 15 to 20)
#    0.000    1.500    2.500    3.000    0.000    6.750 
#    0.000    1.250    0.000    1.500    0.000    0.000 
#    0.000    0.000    0.000    0.000    0.000    0.000 
#
# Total GULP energy -396953.198910 kJ/mol
# GULP energy per Si atom -12404.787466 kJ/mol
# Density = 2.012738 g / cm^3
# Si number density = 20.173293 Si / 1000 Ang^3
#
#
#
# Elastic Constant Matrix: (Units=GPa)
#
#
# Indices 1 2 3 4 5 6 
#
# 1 132.9780 15.3844 49.3358 0.0000 11.6635 0.0000
# 2 15.3844 20.7823 11.7092 0.0000 -2.7914 0.0000
# 3 49.3358 11.7092 130.7597 0.0000 19.1922 0.0000
# 4 0.0000 0.0000 0.0000 20.6049 0.0000 4.5257
# 5 11.6635 -2.7914 19.1922 0.0000 17.5955 0.0000
# 6 0.0000 0.0000 0.0000 4.5257 0.0000 27.5066
#
#
#
# Elastic Compliance Matrix: (Units=1/GPa)
#
#
# Indices 1 2 3 4 5 6 
#
# 1 0.009544 -0.006403 -0.002322 0.000000 -0.004810 0.000000
# 2 -0.006403 0.058770 -0.005760 0.000000 0.019851 0.000000
# 3 -0.002322 -0.005760 0.010653 0.000000 -0.010995 0.000000
# 4 0.000000 0.000000 0.000000 0.050352 0.000000 -0.008284
# 5 -0.004810 0.019851 -0.010995 0.000000 0.075163 0.000000
# 6 0.000000 0.000000 0.000000 -0.008284 0.000000 0.037718
#
#
# Mechanical properties :
#
#
# Convention : Reuss Voigt Hill
#
# Bulk Modulus (GPa) = 20.00133 48.59765 34.29949
# Shear Modulus (GPa) = 17.37108 27.01412 22.19260
#
# Velocity S-wave (km/s) = 2.93762 3.66335 3.32037
# Velocity P-wave (km/s) = 4.63060 6.48351 5.63375
#
# Compressibility (1/GPa) = 0.04999668
#
# Stress axis : x y z
#
# Youngs Moduli (GPa) = 104.77746 17.01558 93.86902
#
# Poissons Ratio (x) = 0.10895 0.21793
# Poissons Ratio (y) = 0.67090 0.54072
# Poissons Ratio (z) = 0.24325 0.09802
#
# Static dielectric constant tensor:
#      x y z
#    x 3.767020 0.000000 -0.027830 
#    y 0.000000 3.465310 0.000000 
#    z -0.027830 0.000000 3.784450 
# 
# 
# High freq. dielectric constant tensor:
#      x y z
#    x 1.802540 0.000000 0.001240 
#    y 0.000000 1.768220 0.000000 
#    z 0.001240 0.000000 1.783990 
# 
# From -- ./inp_files/89488.got.cif
#   From: 2010.06.25/outbox.cif.g09.slc.cpg/sg10_45_cif.got.tgz:89488.got - 2010.06.27 22:07:45.
