data_PCOD8066938
_publ_section_title
;
Structure prediction by ZEFSAII (Michael W. Deem and Ramdas Pophale) SiO2 
 PCOD8066938
Probable space group: P 2/M
;
_chemical_formula_sum "Si O2"
_cell_formula_units_Z 32
_cell_length_a 25.419022
_cell_length_b 13.630168
_cell_length_c 9.138855
_cell_angle_alpha 90.000000
_cell_angle_beta 30.599999
_cell_angle_gamma 90.000000
_cell_volume 1611.776940
_symmetry_space_group_name_H-M "P 2/M"
_symmetry_group_IT_number 10
_symmetry_cell_setting 'monoclinic'
loop_
_space_group_symop_operation_xyz
x,y,z
-x,y,-z
-x,-y,-z
x,-y,z
loop_
_atom_site_type_symbol
_atom_site_label
_atom_site_fract_x
_atom_site_fract_y
_atom_site_fract_z
Si Si1 0.547215 0.781718 0.733740
Si Si2 0.296400 0.387083 0.574008
Si Si3 0.757454 0.613653 0.631124
Si Si4 0.680602 0.888662 0.198390
Si Si5 0.406117 0.729670 0.817060
Si Si6 0.051217 0.258031 0.734897
Si Si7 0.912681 0.111855 0.600742
Si Si8 0.068782 0.613411 0.195352
O O1 0.609703 0.678921 0.592471
O O2 0.623944 0.864143 0.486527
O O3 0.448756 0.774302 0.864741
O O4 0.500000 0.816274 0.000000
O O5 0.331106 0.500000 0.508048
O O6 0.277526 0.361346 0.449523
O O7 0.192094 0.367563 0.920108
O O8 0.782477 0.500000 0.589313
O O9 0.858064 0.672643 0.430643
O O10 0.671705 0.642931 0.956242
O O11 0.646586 0.816696 0.149486
O O12 0.654238 0.000000 0.213823
O O13 0.801938 0.877747 0.942854
O O14 0.500000 0.682571 0.500000
O O15 0.092087 0.170040 0.538728
O O16 0.966257 0.323648 0.857921
O O17 0.000000 0.209312 0.000000
O O18 0.000000 0.155831 0.500000
O O19 0.940218 0.000000 0.496495
O O20 0.050022 0.500000 0.202207
O O21 0.000000 0.644366 0.500000
#
# Coordination Sequence:
#
# PCOD8066938 Si02
#       8
#     4   4   4   4   4   4   4   4
#     4  11  23  38  63  91 123 154 213 258 299 361
#     4  10  22  39  60  89 128 169 205 247 307 362
#     4  11  22  38  60  90 128 166 207 246 300 363
#     4  10  23  44  68  90 121 159 196 250 315 370
#     4  10  22  41  62  89 120 160 204 257 306 356
#     4  12  23  36  62  91 125 163 201 251 303 359
#     4  10  23  43  67  94 123 158 199 246 309 376
#     4  10  22  37  56  87 124 164 206 249 297 360
#
# _framework density 19.853864000000002
#
# number of rings (size 3 to 8) (size 9 to 14) (size 15 to 20)
#    0.000    1.500    3.750    0.750    3.500    4.250 
#    0.000    3.125    0.000    0.750    0.000    0.000 
#    0.000    0.000    0.000    0.000    0.000    0.000 
#
# Total GULP energy -396813.718005 kJ/mol
# GULP energy per Si atom -12400.428688 kJ/mol
# Density = 1.980868 g / cm^3
# Si number density = 19.853864 Si / 1000 Ang^3
#
#
#
# Elastic Constant Matrix: (Units=GPa)
#
#
# Indices 1 2 3 4 5 6 
#
# 1 91.8378 36.6954 42.0866 0.0000 4.5594 0.0000
# 2 36.6954 79.7379 39.9575 0.0000 1.8700 0.0000
# 3 42.0866 39.9575 128.5028 0.0000 14.0579 0.0000
# 4 0.0000 0.0000 0.0000 24.4256 0.0000 -5.3443
# 5 4.5594 1.8700 14.0579 0.0000 38.0249 0.0000
# 6 0.0000 0.0000 0.0000 -5.3443 0.0000 26.3324
#
#
#
# Elastic Compliance Matrix: (Units=1/GPa)
#
#
# Indices 1 2 3 4 5 6 
#
# 1 0.014336 -0.005040 -0.003092 0.000000 -0.000328 0.000000
# 2 -0.005040 0.016666 -0.003656 0.000000 0.001136 0.000000
# 3 -0.003092 -0.003656 0.010287 0.000000 -0.003253 0.000000
# 4 0.000000 0.000000 0.000000 0.042843 0.000000 0.008695
# 5 -0.000328 0.001136 -0.003253 0.000000 0.027485 0.000000
# 6 0.000000 0.000000 0.000000 0.008695 0.000000 0.039741
#
#
# Mechanical properties :
#
#
# Convention : Reuss Voigt Hill
#
# Bulk Modulus (GPa) = 56.45615 59.72861 58.09238
# Shear Modulus (GPa) = 27.64903 29.84584 28.74744
#
# Velocity S-wave (km/s) = 3.73584 3.88142 3.80932
# Velocity P-wave (km/s) = 6.86340 7.08778 6.97649
#
# Compressibility (1/GPa) = 0.01771286
#
# Stress axis : x y z
#
# Youngs Moduli (GPa) = 69.75452 60.00277 97.20792
#
# Poissons Ratio (x) = 0.30243 0.30058
# Poissons Ratio (y) = 0.35158 0.35537
# Poissons Ratio (z) = 0.21569 0.21936
#
# Static dielectric constant tensor:
#      x y z
#    x 3.711640 0.000000 0.093910 
#    y 0.000000 3.513760 0.000000 
#    z 0.093910 0.000000 3.940510 
# 
# 
# High freq. dielectric constant tensor:
#      x y z
#    x 1.772290 0.000000 -0.002150 
#    y 0.000000 1.765180 0.000000 
#    z -0.002150 0.000000 1.792000 
# 
# From -- ./inp_files/36344.got.cif
#   From: 2010.06.25/outbox.cif.g09.slc.cpg/sg10_19_cif.got.tgz:36344.got - 2010.06.27 22:07:45.
