data_PCOD8066994
_publ_section_title
;
Structure prediction by ZEFSAII (Michael W. Deem and Ramdas Pophale) SiO2 
 PCOD8066994
Probable space group: P 2/M
;
_chemical_formula_sum "Si O2"
_cell_formula_units_Z 28
_cell_length_a 8.384621
_cell_length_b 13.845826
_cell_length_c 15.995847
_cell_angle_alpha 90.000000
_cell_angle_beta 47.443787
_cell_angle_gamma 90.000000
_cell_volume 1367.885072
_symmetry_space_group_name_H-M "P 2/M"
_symmetry_group_IT_number 10
_symmetry_cell_setting 'monoclinic'
loop_
_space_group_symop_operation_xyz
x,y,z
-x,y,-z
-x,-y,-z
x,-y,z
loop_
_atom_site_type_symbol
_atom_site_label
_atom_site_fract_x
_atom_site_fract_y
_atom_site_fract_z
Si Si1 0.659734 0.732768 0.518190
Si Si2 0.421624 0.386918 0.300094
Si Si3 0.405649 0.888543 0.324364
Si Si4 0.852961 0.763559 0.698429
Si Si5 0.266389 0.256373 0.077638
Si Si6 0.238696 0.888529 0.939903
Si Si7 0.917412 0.609377 0.122361
O O1 0.500000 0.708253 0.500000
O O2 0.671055 0.641281 0.576357
O O3 0.575981 0.828253 0.596516
O O4 0.894526 0.744397 0.396146
O O5 0.395753 0.500000 0.292106
O O6 0.287966 0.330664 0.276464
O O7 0.671558 0.352416 0.209778
O O8 0.197566 0.852456 0.345888
O O9 0.614548 0.868406 0.192987
O O10 0.379107 0.000000 0.357620
O O11 0.794096 0.793806 0.813296
O O12 0.072921 0.329521 0.126650
O O13 0.500000 0.311043 0.000000
O O14 0.307691 0.173255 0.995002
O O15 0.247985 0.000000 0.963272
O O16 0.000000 0.854813 0.000000
O O17 0.924525 0.500000 0.153295
O O18 0.000000 0.617692 0.000000
#
# Coordination Sequence:
#
# PCOD8066994 Si02
#       7
#     4   4   4   4   4   4   4
#     4  11  25  41  62  94 125 156 206 255 303 367
#     4  10  22  43  66  88 122 165 205 252 305 357
#     4  10  22  43  64  87 124 165 205 250 304 361
#     4  11  24  39  61  96 123 158 206 252 303 362
#     4  12  23  37  63  91 127 166 195 252 312 354
#     4  10  23  40  63  93 122 163 212 250 296 366
#     4  10  22  38  60  89 121 161 205 247 299 365
#
# _framework density 20.469556999999998
#
# number of rings (size 3 to 8) (size 9 to 14) (size 15 to 20)
#    0.000    1.429    1.429    3.857    8.000    4.571 
#    0.000    0.000    0.000    0.000    0.000    0.000 
#    0.000    0.000    0.000    0.000    0.000    0.000 
#
# Total GULP energy -347255.212055 kJ/mol
# GULP energy per Si atom -12401.971859 kJ/mol
# Density = 2.042297 g / cm^3
# Si number density = 20.469557 Si / 1000 Ang^3
#
#
#
# Elastic Constant Matrix: (Units=GPa)
#
#
# Indices 1 2 3 4 5 6 
#
# 1 100.4707 27.0331 31.9894 0.0000 -13.9916 0.0000
# 2 27.0331 91.0965 14.0214 0.0000 1.8385 0.0000
# 3 31.9894 14.0214 96.4765 0.0000 -14.5252 0.0000
# 4 0.0000 0.0000 0.0000 17.0054 0.0000 3.9057
# 5 -13.9916 1.8385 -14.5252 0.0000 43.9574 0.0000
# 6 0.0000 0.0000 0.0000 3.9057 0.0000 6.4230
#
#
#
# Elastic Compliance Matrix: (Units=1/GPa)
#
#
# Indices 1 2 3 4 5 6 
#
# 1 0.012232 -0.003207 -0.003140 0.000000 0.002990 0.000000
# 2 -0.003207 0.012117 -0.000976 0.000000 -0.001850 0.000000
# 3 -0.003140 -0.000976 0.012001 0.000000 0.003007 0.000000
# 4 0.000000 0.000000 0.000000 0.068350 0.000000 -0.041562
# 5 0.002990 -0.001850 0.003007 0.000000 0.024772 0.000000
# 6 0.000000 0.000000 0.000000 -0.041562 0.000000 0.180962
#
#
# Mechanical properties :
#
#
# Convention : Reuss Voigt Hill
#
# Bulk Modulus (GPa) = 46.07434 48.23683 47.15559
# Shear Modulus (GPa) = 15.04599 27.81048 21.42823
#
# Velocity S-wave (km/s) = 2.71411 3.68995 3.23899
# Velocity P-wave (km/s) = 5.69029 6.46302 6.08893
#
# Compressibility (1/GPa) = 0.02170405
#
# Stress axis : x y z
#
# Youngs Moduli (GPa) = 81.75219 82.53107 83.32752
#
# Poissons Ratio (x) = 0.26468 0.26162
# Poissons Ratio (y) = 0.26218 0.08134
# Poissons Ratio (z) = 0.25667 0.08056
#
# Static dielectric constant tensor:
#      x y z
#    x 4.083430 0.000000 -0.284820 
#    y 0.000000 3.682070 0.000000 
#    z -0.284820 0.000000 3.894270 
# 
# 
# High freq. dielectric constant tensor:
#      x y z
#    x 1.806060 0.000000 -0.010210 
#    y 0.000000 1.792360 0.000000 
#    z -0.010210 0.000000 1.815220 
# 
# From -- ./inp_files/61756.got.cif
#   From: 2010.06.25/outbox.cif.g09.slc.cpg/sg10_31_cif.got.tgz:61756.got - 2010.06.27 22:07:45.
