data_PCOD8066818
_publ_section_title
;
Structure prediction by ZEFSAII (Michael W. Deem and Ramdas Pophale) SiO2 
 PCOD8066818
Probable space group: P 2/M
;
_chemical_formula_sum "Si O2"
_cell_formula_units_Z 18
_cell_length_a 5.075590
_cell_length_b 7.984915
_cell_length_c 22.178113
_cell_angle_alpha 90.000000
_cell_angle_beta 109.626751
_cell_angle_gamma 90.000000
_cell_volume 846.616164
_symmetry_space_group_name_H-M "P 2/M"
_symmetry_group_IT_number 10
_symmetry_cell_setting 'monoclinic'
loop_
_space_group_symop_operation_xyz
x,y,z
-x,y,-z
-x,-y,-z
x,-y,z
loop_
_atom_site_type_symbol
_atom_site_label
_atom_site_fract_x
_atom_site_fract_y
_atom_site_fract_z
Si Si1 0.184467 0.500000 0.455529
Si Si2 0.535012 0.809736 0.722976
Si Si3 0.625829 0.189863 0.071172
Si Si4 0.231027 0.314591 0.138287
Si Si5 0.908063 0.806137 0.639660
O O1 0.500000 0.500000 0.500000
O O2 0.000000 0.500000 0.500000
O O3 0.118908 0.672258 0.415557
O O4 0.663466 0.697858 0.785225
O O5 0.204342 0.781704 0.694936
O O6 0.667539 0.760933 0.668989
O O7 0.612779 0.000000 0.744712
O O8 0.394986 0.191321 0.106250
O O9 0.899760 0.288230 0.112358
O O10 0.715992 0.000000 0.065774
O O11 0.500000 0.268392 0.000000
O O12 0.296020 0.500000 0.119826
O O13 0.878258 0.000000 0.613917
#
# Coordination Sequence:
#
# PCOD8066818 Si02
#       5
#     2   4   4   4   4
#     4  12  26  42  66  96 128 170 205 250 303 362
#     4  10  21  40  64  90 122 161 204 255 311 369
#     4  11  24  43  63  84 121 172 217 260 316 388
#     4  12  25  38  63  97 125 161 207 270 329 380
#     4  10  23  41  65  93 126 167 207 257 309 365
#
# _framework density 21.261109999999999
#
# number of rings (size 3 to 8) (size 9 to 14) (size 15 to 20)
#    0.000    1.111    0.000    6.000    3.111    7.111 
#    0.000    0.000    0.000    0.000    0.000    0.000 
#    0.000    0.000    0.000    0.000    0.000    0.000 
#
# Total GULP energy -223282.111896 kJ/mol
# GULP energy per Si atom -12404.561772 kJ/mol
# Density = 2.121272 g / cm^3
# Si number density = 21.261110 Si / 1000 Ang^3
#
#
#
# Elastic Constant Matrix: (Units=GPa)
#
#
# Indices 1 2 3 4 5 6 
#
# 1 105.9406 21.5938 28.9225 0.0000 -1.5741 0.0000
# 2 21.5938 101.2470 55.4259 0.0000 1.2996 0.0000
# 3 28.9225 55.4259 115.6130 0.0000 0.7573 0.0000
# 4 0.0000 0.0000 0.0000 6.0688 0.0000 -1.9356
# 5 -1.5741 1.2996 0.7573 0.0000 38.9482 0.0000
# 6 0.0000 0.0000 0.0000 -1.9356 0.0000 26.2451
#
#
#
# Elastic Compliance Matrix: (Units=1/GPa)
#
#
# Indices 1 2 3 4 5 6 
#
# 1 0.010223 -0.001064 -0.002051 0.000000 0.000489 0.000000
# 2 -0.001064 0.013506 -0.006206 0.000000 -0.000373 0.000000
# 3 -0.002051 -0.006206 0.012139 0.000000 -0.000112 0.000000
# 4 0.000000 0.000000 0.000000 0.168747 0.000000 0.012445
# 5 0.000489 -0.000373 -0.000112 0.000000 0.025710 0.000000
# 6 0.000000 0.000000 0.000000 0.012445 0.000000 0.039020
#
#
# Mechanical properties :
#
#
# Convention : Reuss Voigt Hill
#
# Bulk Modulus (GPa) = 58.05181 59.40944 58.73063
# Shear Modulus (GPa) = 17.02254 28.70964 22.86609
#
# Velocity S-wave (km/s) = 2.83263 3.67868 3.28302
# Velocity P-wave (km/s) = 6.16943 6.78579 6.48494
#
# Compressibility (1/GPa) = 0.01722599
#
# Stress axis : x y z
#
# Youngs Moduli (GPa) = 97.81641 74.04062 82.38176
#
# Poissons Ratio (x) = 0.07879 0.16893
# Poissons Ratio (y) = 0.10409 0.51129
# Poissons Ratio (z) = 0.20058 0.45952
#
# Static dielectric constant tensor:
#      x y z
#    x 3.869470 0.000000 0.058270 
#    y 0.000000 3.948850 0.000000 
#    z 0.058270 0.000000 3.731540 
# 
# 
# High freq. dielectric constant tensor:
#      x y z
#    x 1.850370 0.000000 0.002830 
#    y 0.000000 1.839170 0.000000 
#    z 0.002830 0.000000 1.831540 
# 
# From -- ./inp_files/11887.got.cif
#   From: 2010.06.25/outbox.cif.g09.slc.cpg/sg10_6_cif.got.tgz:11887.got - 2010.06.27 22:07:45.
