data_PCOD8066932
_publ_section_title
;
Structure prediction by ZEFSAII (Michael W. Deem and Ramdas Pophale) SiO2 
 PCOD8066932
Probable space group: P 2/M
;
_chemical_formula_sum "Si O2"
_cell_formula_units_Z 28
_cell_length_a 26.284387
_cell_length_b 8.972102
_cell_length_c 9.224637
_cell_angle_alpha 90.000000
_cell_angle_beta 137.801751
_cell_angle_gamma 90.000000
_cell_volume 1461.219176
_symmetry_space_group_name_H-M "P 2/M"
_symmetry_group_IT_number 10
_symmetry_cell_setting 'monoclinic'
loop_
_space_group_symop_operation_xyz
x,y,z
-x,y,-z
-x,-y,-z
x,-y,z
loop_
_atom_site_type_symbol
_atom_site_label
_atom_site_fract_x
_atom_site_fract_y
_atom_site_fract_z
Si Si1 0.069261 0.171693 0.953492
Si Si2 0.194462 0.324181 0.046212
Si Si3 0.669074 0.323389 0.465868
Si Si4 0.899199 0.172856 0.651585
Si Si5 0.493340 0.336105 0.814486
Si Si6 0.770305 0.323789 0.202070
Si Si7 0.642023 0.176002 0.103337
O O1 0.113236 0.265754 0.926228
O O2 0.980131 0.203444 0.747753
O O3 0.086952 0.000000 0.962563
O O4 0.096765 0.216882 0.171522
O O5 0.192531 0.500000 0.044820
O O6 0.210019 0.266967 0.917238
O O7 0.260253 0.265141 0.291655
O O8 0.671935 0.500000 0.440828
O O9 0.593074 0.283767 0.398277
O O10 0.670873 0.239768 0.316889
O O11 0.838112 0.279678 0.451343
O O12 0.876043 0.000000 0.584159
O O13 0.508645 0.500000 0.778601
O O14 0.500000 0.347009 0.000000
O O15 0.555075 0.220678 0.883769
O O16 0.757815 0.500000 0.183042
O O17 0.693320 0.242376 0.084644
O O18 0.648992 0.000000 0.121607
#
# Coordination Sequence:
#
# PCOD8066932 Si02
#       7
#     4   4   4   4   4   4   4
#     4   9  19  36  58  81 106 135 169 212 260 309
#     4  10  22  37  53  76 106 139 177 216 255 304
#     4   9  18  35  57  79 104 136 174 216 260 306
#     4   9  19  37  58  81 106 134 171 212 257 310
#     4   8  15  30  53  78 103 133 171 214 259 306
#     4  11  23  37  52  74 106 142 177 214 257 306
#     4  11  21  33  53  80 107 136 172 215 262 311
#
# _framework density 19.162081000000001
#
# number of rings (size 3 to 8) (size 9 to 14) (size 15 to 20)
#    0.000    2.429    0.000    4.286    0.000    8.286 
#    0.000    5.000    0.000    4.286    0.000    0.000 
#    0.000    0.000    0.000    0.000    0.000    0.000 
#
# Total GULP energy -347193.966392 kJ/mol
# GULP energy per Si atom -12399.784514 kJ/mol
# Density = 1.911847 g / cm^3
# Si number density = 19.162081 Si / 1000 Ang^3
#
#
#
# Elastic Constant Matrix: (Units=GPa)
#
#
# Indices 1 2 3 4 5 6 
#
# 1 133.9344 46.1279 26.7253 0.0000 8.6784 0.0000
# 2 46.1279 67.1957 14.2733 0.0000 1.6365 0.0000
# 3 26.7253 14.2733 19.5742 0.0000 8.9959 0.0000
# 4 0.0000 0.0000 0.0000 19.6685 0.0000 11.0810
# 5 8.6784 1.6365 8.9959 0.0000 24.6027 0.0000
# 6 0.0000 0.0000 0.0000 11.0810 0.0000 13.6855
#
#
#
# Elastic Compliance Matrix: (Units=1/GPa)
#
#
# Indices 1 2 3 4 5 6 
#
# 1 0.011783 -0.005462 -0.012455 0.000000 0.000761 0.000000
# 2 -0.005462 0.020516 -0.009329 0.000000 0.003973 0.000000
# 3 -0.012455 -0.009329 0.087254 0.000000 -0.026890 0.000000
# 4 0.000000 0.000000 0.000000 0.093489 0.000000 -0.075697
# 5 0.000761 0.003973 -0.026890 0.000000 0.049945 0.000000
# 6 0.000000 0.000000 0.000000 -0.075697 0.000000 0.134361
#
#
# Mechanical properties :
#
#
# Convention : Reuss Voigt Hill
#
# Bulk Modulus (GPa) = 15.37007 43.88414 29.62710
# Shear Modulus (GPa) = 10.55902 20.49654 15.52778
#
# Velocity S-wave (km/s) = 2.34996 3.27408 2.84973
# Velocity P-wave (km/s) = 3.92449 6.10279 5.13058
#
# Compressibility (1/GPa) = 0.06506153
#
# Stress axis : x y z
#
# Youngs Moduli (GPa) = 84.86451 48.74222 11.46080
#
# Poissons Ratio (x) = 0.26622 0.14275
# Poissons Ratio (y) = 0.46352 0.10691
# Poissons Ratio (z) = 1.05702 0.45470
#
# Static dielectric constant tensor:
#      x y z
#    x 3.661500 0.000000 0.263490 
#    y 0.000000 3.331260 0.000000 
#    z 0.263490 0.000000 3.568390 
# 
# 
# High freq. dielectric constant tensor:
#      x y z
#    x 1.749750 0.000000 0.021050 
#    y 0.000000 1.734870 0.000000 
#    z 0.021050 0.000000 1.733820 
# 
# From -- ./inp_files/37295.got.cif
#   From: 2010.06.25/outbox.cif.g09.slc.cpg/sg10_19_cif.got.tgz:37295.got - 2010.06.27 22:07:45.
