data_PCOD8066790
_publ_section_title
;
Structure prediction by ZEFSAII (Michael W. Deem and Ramdas Pophale) SiO2 
 PCOD8066790
Probable space group: P 2/M
;
_chemical_formula_sum "Si O2"
_cell_formula_units_Z 28
_cell_length_a 9.295912
_cell_length_b 14.022339
_cell_length_c 19.656291
_cell_angle_alpha 90.000000
_cell_angle_beta 143.817298
_cell_angle_gamma 90.000000
_cell_volume 1512.629077
_symmetry_space_group_name_H-M "P 2/M"
_symmetry_group_IT_number 10
_symmetry_cell_setting 'monoclinic'
loop_
_space_group_symop_operation_xyz
x,y,z
-x,y,-z
-x,-y,-z
x,-y,z
loop_
_atom_site_type_symbol
_atom_site_label
_atom_site_fract_x
_atom_site_fract_y
_atom_site_fract_z
Si Si1 0.693223 0.612514 0.515914
Si Si2 0.468999 0.891780 0.379224
Si Si3 0.425780 0.388805 0.047144
Si Si4 0.096730 0.109058 0.351595
Si Si5 0.187149 0.285120 0.714302
Si Si6 0.447979 0.281401 0.675692
Si Si7 0.089941 0.395461 0.110148
O O1 0.500000 0.644129 0.500000
O O2 0.693773 0.500000 0.506407
O O3 0.629757 0.659203 0.419798
O O4 0.958396 0.646232 0.641536
O O5 0.699468 0.869104 0.514470
O O6 0.218439 0.872380 0.324457
O O7 0.487597 0.826474 0.320026
O O8 0.476686 0.000000 0.356475
O O9 0.457275 0.500000 0.079294
O O10 0.577977 0.326061 0.158078
O O11 0.500000 0.365482 0.000000
O O12 0.143327 0.358026 0.937658
O O13 0.870623 0.179657 0.278490
O O14 0.003805 0.000000 0.321350
O O15 0.237463 0.280913 0.652436
O O16 0.690429 0.323362 0.800654
O O17 0.173674 0.500000 0.168996
O O18 0.000000 0.404907 0.000000
#
# Coordination Sequence:
#
# PCOD8066790 Si02
#       7
#     4   4   4   4   4   4   4
#     4  11  25  39  54  82 119 159 193 232 289 349
#     4   9  19  37  60  85 114 152 195 236 286 350
#     4  10  23  40  60  85 113 154 204 245 279 331
#     4   9  19  37  60  84 115 153 194 238 286 347
#     4  12  23  37  59  89 121 149 189 243 296 349
#     4  12  23  36  60  89 119 152 189 240 298 349
#     4  10  21  40  60  81 113 156 200 238 283 339
#
# _framework density 18.510816999999999
#
# number of rings (size 3 to 8) (size 9 to 14) (size 15 to 20)
#    0.000    1.571    2.857    3.000    4.000    2.857 
#    0.000    1.429    0.000    1.714    0.000    0.000 
#    0.000    0.000    0.000    0.000    0.000    0.000 
#
# Total GULP energy -347204.185851 kJ/mol
# GULP energy per Si atom -12400.149495 kJ/mol
# Density = 1.846869 g / cm^3
# Si number density = 18.510817 Si / 1000 Ang^3
#
#
#
# Elastic Constant Matrix: (Units=GPa)
#
#
# Indices 1 2 3 4 5 6 
#
# 1 115.7921 43.9350 15.1894 0.0000 12.0902 0.0000
# 2 43.9350 101.1561 29.4987 0.0000 4.0453 0.0000
# 3 15.1894 29.4987 45.0864 0.0000 3.7401 0.0000
# 4 0.0000 0.0000 0.0000 21.2395 0.0000 -2.1980
# 5 12.0902 4.0453 3.7401 0.0000 24.3133 0.0000
# 6 0.0000 0.0000 0.0000 -2.1980 0.0000 28.0363
#
#
#
# Elastic Compliance Matrix: (Units=1/GPa)
#
#
# Indices 1 2 3 4 5 6 
#
# 1 0.010841 -0.004413 -0.000384 0.000000 -0.004598 0.000000
# 2 -0.004413 0.014029 -0.007780 0.000000 0.001057 0.000000
# 3 -0.000384 -0.007780 0.027628 0.000000 -0.002765 0.000000
# 4 0.000000 0.000000 0.000000 0.047467 0.000000 0.003721
# 5 -0.004598 0.001057 -0.002765 0.000000 0.043665 0.000000
# 6 0.000000 0.000000 0.000000 0.003721 0.000000 0.035960
#
#
# Mechanical properties :
#
#
# Convention : Reuss Voigt Hill
#
# Bulk Modulus (GPa) = 36.56889 48.80898 42.68893
# Shear Modulus (GPa) = 23.38006 26.27859 24.82933
#
# Velocity S-wave (km/s) = 3.55780 3.77189 3.66641
# Velocity P-wave (km/s) = 6.05603 6.73755 6.40586
#
# Compressibility (1/GPa) = 0.02734565
#
# Stress axis : x y z
#
# Youngs Moduli (GPa) = 92.24350 71.28263 36.19489
#
# Poissons Ratio (x) = 0.31455 0.01389
# Poissons Ratio (y) = 0.40705 0.28158
# Poissons Ratio (z) = 0.03540 0.55455
#
# Static dielectric constant tensor:
#      x y z
#    x 3.484550 0.000000 -0.025870 
#    y 0.000000 3.524470 0.000000 
#    z -0.025870 0.000000 2.933440 
# 
# 
# High freq. dielectric constant tensor:
#      x y z
#    x 1.732320 0.000000 0.010080 
#    y 0.000000 1.718410 0.000000 
#    z 0.010080 0.000000 1.696330 
# 
# From -- ./inp_files/24868.got.cif
#   From: 2010.06.25/outbox.cif.g09.slc.cpg/sg10_13_cif.got.tgz:24868.got - 2010.06.27 22:07:45.
