data_PCOD8066166
_publ_section_title
;
Structure prediction by ZEFSAII (Michael W. Deem and Ramdas Pophale) SiO2 
 PCOD8066166
Probable space group: P 2/M
;
_chemical_formula_sum "Si O2"
_cell_formula_units_Z 24
_cell_length_a 16.518251
_cell_length_b 9.238755
_cell_length_c 7.845022
_cell_angle_alpha 90.000000
_cell_angle_beta 89.879410
_cell_angle_gamma 90.000000
_cell_volume 1197.211046
_symmetry_space_group_name_H-M "P 2/M"
_symmetry_group_IT_number 10
_symmetry_cell_setting 'monoclinic'
loop_
_space_group_symop_operation_xyz
x,y,z
-x,y,-z
-x,-y,-z
x,-y,z
loop_
_atom_site_type_symbol
_atom_site_label
_atom_site_fract_x
_atom_site_fract_y
_atom_site_fract_z
Si Si1 0.843636 0.333757 0.328595
Si Si2 0.996853 0.829881 0.192147
Si Si3 0.832231 0.835202 0.653858
Si Si4 0.321802 0.666662 0.832628
Si Si5 0.595386 0.665610 0.515148
Si Si6 0.669321 0.166219 0.829617
O O1 0.866674 0.500000 0.355012
O O2 0.924459 0.247049 0.288831
O O3 0.805983 0.270997 0.502654
O O4 0.775337 0.315030 0.184309
O O5 0.080899 0.785750 0.277560
O O6 0.980673 0.000000 0.200751
O O7 0.000000 0.773262 0.000000
O O8 0.766006 0.820467 0.802991
O O9 0.835777 0.000000 0.586227
O O10 0.345154 0.500000 0.864835
O O11 0.365216 0.723508 0.660813
O O12 0.353731 0.757778 0.992696
O O13 0.500000 0.678499 0.500000
O O14 0.623026 0.500000 0.546755
O O15 0.622849 0.761826 0.673238
O O16 0.641903 0.000000 0.840844
#
# Coordination Sequence:
#
# PCOD8066166 Si02
#       6
#     4   4   4   4   4   4
#     4  11  22  36  57  85 116 153 199 252 302 347
#     4  10  21  37  55  78 114 157 202 246 292 356
#     4  10  21  37  57  82 114 158 202 242 296 357
#     4  10  22  40  62  89 122 161 202 246 300 363
#     4  10  22  43  68  91 121 162 203 244 298 368
#     4  11  23  39  64  94 123 159 202 252 304 355
#
# _framework density 20.046592
#
# number of rings (size 3 to 8) (size 9 to 14) (size 15 to 20)
#    0.000    1.667    1.667    2.500    0.000    8.000 
#    0.000    3.333    0.000    0.000    0.000    0.000 
#    0.000    0.000    0.000    0.000    0.000    0.000 
#
# Total GULP energy -297692.114475 kJ/mol
# GULP energy per Si atom -12403.838103 kJ/mol
# Density = 2.000097 g / cm^3
# Si number density = 20.046592 Si / 1000 Ang^3
#
#
#
# Elastic Constant Matrix: (Units=GPa)
#
#
# Indices 1 2 3 4 5 6 
#
# 1 77.3176 30.6937 30.3950 0.0000 0.6100 0.0000
# 2 30.6937 87.9996 71.7854 0.0000 5.7011 0.0000
# 3 30.3950 71.7854 150.6691 0.0000 0.6114 0.0000
# 4 0.0000 0.0000 0.0000 33.5875 0.0000 1.1342
# 5 0.6100 5.7011 0.6114 0.0000 19.2742 0.0000
# 6 0.0000 0.0000 0.0000 1.1342 0.0000 23.7036
#
#
#
# Elastic Compliance Matrix: (Units=1/GPa)
#
#
# Indices 1 2 3 4 5 6 
#
# 1 0.015099 -0.004643 -0.000838 0.000000 0.000922 0.000000
# 2 -0.004643 0.020556 -0.008834 0.000000 -0.005653 0.000000
# 3 -0.000838 -0.008834 0.011006 0.000000 0.002290 0.000000
# 4 0.000000 0.000000 0.000000 0.029821 0.000000 -0.001427
# 5 0.000922 -0.005653 0.002290 0.000000 0.053453 0.000000
# 6 0.000000 0.000000 0.000000 -0.001427 0.000000 0.042256
#
#
# Mechanical properties :
#
#
# Convention : Reuss Voigt Hill
#
# Bulk Modulus (GPa) = 55.45965 64.63716 60.04841
# Shear Modulus (GPa) = 24.17448 27.52056 25.84752
#
# Velocity S-wave (km/s) = 3.47640 3.70919 3.59468
# Velocity P-wave (km/s) = 6.62112 7.11742 6.87375
#
# Compressibility (1/GPa) = 0.01803113
#
# Stress axis : x y z
#
# Youngs Moduli (GPa) = 66.23054 48.64842 90.86213
#
# Poissons Ratio (x) = 0.22586 0.07611
# Poissons Ratio (y) = 0.30749 0.80268
# Poissons Ratio (z) = 0.05548 0.42976
#
# Static dielectric constant tensor:
#      x y z
#    x 3.610530 0.000000 -0.060420 
#    y 0.000000 3.622150 0.000000 
#    z -0.060420 0.000000 3.632340 
# 
# 
# High freq. dielectric constant tensor:
#      x y z
#    x 1.786090 0.000000 -0.001700 
#    y 0.000000 1.777800 0.000000 
#    z -0.001700 0.000000 1.786350 
# 
# From -- ./inp_files/27322.got.cif
#   From: 2010.06.25/outbox.cif.g09.slc.cpg/sg10_14_cif.got.tgz:27322.got - 2010.06.27 22:07:45.
