data_PCOD8066746
_publ_section_title
;
Structure prediction by ZEFSAII (Michael W. Deem and Ramdas Pophale) SiO2 
 PCOD8066746
Probable space group: P 2/M
;
_chemical_formula_sum "Si O2"
_cell_formula_units_Z 28
_cell_length_a 9.266739
_cell_length_b 30.631354
_cell_length_c 4.923651
_cell_angle_alpha 90.000000
_cell_angle_beta 62.636348
_cell_angle_gamma 90.000000
_cell_volume 1241.211399
_symmetry_space_group_name_H-M "P 2/M"
_symmetry_group_IT_number 10
_symmetry_cell_setting 'monoclinic'
loop_
_space_group_symop_operation_xyz
x,y,z
-x,y,-z
-x,-y,-z
x,-y,z
loop_
_atom_site_type_symbol
_atom_site_label
_atom_site_fract_x
_atom_site_fract_y
_atom_site_fract_z
Si Si1 0.187273 0.549985 0.901851
Si Si2 0.673961 0.594452 0.727786
Si Si3 0.185946 0.743621 0.823759
Si Si4 0.328211 0.050360 0.273514
Si Si5 0.389069 0.174133 0.834423
Si Si6 0.815365 0.093203 0.078083
Si Si7 0.814281 0.313679 0.678269
O O1 0.245008 0.500000 0.846333
O O2 0.302406 0.577125 0.597969
O O3 0.198047 0.569802 0.192702
O O4 0.000000 0.555013 0.000000
O O5 0.697196 0.646478 0.708832
O O6 0.500000 0.582264 0.000000
O O7 0.306461 0.781661 0.803319
O O8 0.222579 0.727297 0.487610
O O9 0.217753 0.702188 0.989026
O O10 0.000000 0.760408 0.000000
O O11 0.289684 0.078522 0.572132
O O12 0.334888 0.000000 0.355212
O O13 0.500000 0.066556 0.000000
O O14 0.194200 0.057034 0.152615
O O15 0.500000 0.155602 0.500000
O O16 0.251250 0.137694 0.001665
O O17 0.500000 0.182987 0.000000
O O18 0.000000 0.100407 0.000000
O O19 0.000000 0.329711 0.500000
#
# Coordination Sequence:
#
# PCOD8066746 Si02
#       7
#     4   4   4   4   4   4   4
#     4  11  24  43  66  90 122 168 216 257 307 377
#     4  12  25  40  63  96 130 163 205 262 317 367
#     4  10  22  41  64  91 121 159 208 258 309 366
#     4  11  24  43  67  95 130 170 212 262 322 382
#     4  12  25  42  65  92 126 166 208 257 316 377
#     4  12  25  42  66  95 130 170 216 266 312 372
#     4  10  21  39  64  90 123 165 206 251 306 375
#
# _framework density 22.558609000000001
#
# number of rings (size 3 to 8) (size 9 to 14) (size 15 to 20)
#    0.000    0.857    0.000    7.714    0.000    8.571 
#    0.000    4.286    0.000    0.000    0.000    0.000 
#    0.000    0.000    0.000    0.000    0.000    0.000 
#
# Total GULP energy -347354.858881 kJ/mol
# GULP energy per Si atom -12405.530674 kJ/mol
# Density = 2.250726 g / cm^3
# Si number density = 22.558609 Si / 1000 Ang^3
#
#
#
# Elastic Constant Matrix: (Units=GPa)
#
#
# Indices 1 2 3 4 5 6 
#
# 1 112.0245 43.8642 15.3233 0.0000 11.6046 0.0000
# 2 43.8642 92.1301 15.8563 0.0000 -9.7840 0.0000
# 3 15.3233 15.8563 78.7726 0.0000 7.8827 0.0000
# 4 0.0000 0.0000 0.0000 19.3587 0.0000 0.4052
# 5 11.6046 -9.7840 7.8827 0.0000 36.1720 0.0000
# 6 0.0000 0.0000 0.0000 0.4052 0.0000 21.8646
#
#
#
# Elastic Compliance Matrix: (Units=1/GPa)
#
#
# Indices 1 2 3 4 5 6 
#
# 1 0.011982 -0.006184 -0.000546 0.000000 -0.005398 0.000000
# 2 -0.006184 0.014917 -0.002456 0.000000 0.006554 0.000000
# 3 -0.000546 -0.002456 0.013642 0.000000 -0.003462 0.000000
# 4 0.000000 0.000000 0.000000 0.051677 0.000000 -0.000958
# 5 -0.005398 0.006554 -0.003462 0.000000 0.031905 0.000000
# 6 0.000000 0.000000 0.000000 -0.000958 0.000000 0.045754
#
#
# Mechanical properties :
#
#
# Convention : Reuss Voigt Hill
#
# Bulk Modulus (GPa) = 45.10643 48.11276 46.60959
# Shear Modulus (GPa) = 25.55763 29.33793 27.44778
#
# Velocity S-wave (km/s) = 3.36957 3.61019 3.49195
# Velocity P-wave (km/s) = 5.93105 6.22512 6.07986
#
# Compressibility (1/GPa) = 0.02216979
#
# Stress axis : x y z
#
# Youngs Moduli (GPa) = 83.45979 67.03705 73.30472
#
# Poissons Ratio (x) = 0.41455 0.04001
# Poissons Ratio (y) = 0.51611 0.18001
# Poissons Ratio (z) = 0.04556 0.16462
#
# Static dielectric constant tensor:
#      x y z
#    x 4.168500 0.000000 0.164780 
#    y 0.000000 3.892780 0.000000 
#    z 0.164780 0.000000 4.136040 
# 
# 
# High freq. dielectric constant tensor:
#      x y z
#    x 1.900640 0.000000 0.010800 
#    y 0.000000 1.891430 0.000000 
#    z 0.010800 0.000000 1.893510 
# 
# From -- ./inp_files/5490.got.cif
#   From: 2010.06.25/outbox.cif.g09.slc.cpg/sg10_3_cif.got.tgz:5490.got - 2010.06.27 22:07:45.
