data_PCOD8066043
_publ_section_title
;
Structure prediction by ZEFSAII (Michael W. Deem and Ramdas Pophale) SiO2 
 PCOD8066043
Probable space group: P 2/M
;
_chemical_formula_sum "Si O2"
_cell_formula_units_Z 32
_cell_length_a 12.119841
_cell_length_b 9.098656
_cell_length_c 16.028901
_cell_angle_alpha 90.000000
_cell_angle_beta 91.981741
_cell_angle_gamma 90.000000
_cell_volume 1766.518071
_symmetry_space_group_name_H-M "P 2/M"
_symmetry_group_IT_number 10
_symmetry_cell_setting 'monoclinic'
loop_
_space_group_symop_operation_xyz
x,y,z
-x,y,-z
-x,-y,-z
x,-y,z
loop_
_atom_site_type_symbol
_atom_site_label
_atom_site_fract_x
_atom_site_fract_y
_atom_site_fract_z
Si Si1 0.311995 0.169439 0.135099
Si Si2 0.841237 0.170848 0.441163
Si Si3 0.311995 0.169265 0.940124
Si Si4 0.923254 0.172444 0.620160
Si Si5 0.111469 0.327252 0.210627
Si Si6 0.714996 0.668484 0.308454
Si Si7 0.527555 0.672673 0.180104
Si Si8 0.864351 0.328921 0.158906
O O1 0.198267 0.248717 0.153409
O O2 0.410362 0.248564 0.187599
O O3 0.306000 0.000000 0.162568
O O4 0.334965 0.185126 0.038084
O O5 0.843045 0.206409 0.539684
O O6 0.735355 0.245126 0.394990
O O7 0.954097 0.226248 0.400708
O O8 0.830483 0.000000 0.426091
O O9 0.405992 0.260760 0.895823
O O10 0.190665 0.234069 0.916397
O O11 0.317976 0.000000 0.911764
O O12 0.878183 0.265218 0.695999
O O13 0.922126 0.000000 0.642067
O O14 0.134342 0.500000 0.214102
O O15 0.992890 0.291283 0.167543
O O16 0.729299 0.500000 0.331481
O O17 0.594046 0.701368 0.267819
O O18 0.806846 0.717587 0.243770
O O19 0.511848 0.500000 0.163220
O O20 0.842475 0.500000 0.139472
#
# Coordination Sequence:
#
# PCOD8066043 Si02
#       8
#     4   4   4   4   4   4   4   4
#     4  11  24  39  54  76 104 138 180 221 264 315
#     4   9  17  29  50  79 109 140 173 208 255 309
#     4  10  21  36  56  80 105 134 173 222 269 312
#     4   9  18  32  49  76 111 142 173 211 253 306
#     4  11  22  36  54  76 106 144 181 215 259 315
#     4   9  17  31  51  78 109 135 169 216 260 305
#     4  10  21  37  57  80 106 136 174 221 267 310
#     4   9  19  34  51  76 108 140 175 214 261 315
#
# _framework density 18.114730000000002
#
# number of rings (size 3 to 8) (size 9 to 14) (size 15 to 20)
#    0.000    2.250    1.250    3.375    0.000    8.000 
#    0.000    3.750    0.000    0.750    0.000    5.250 
#    0.000    0.000    0.000    0.000    0.000    0.000 
#
# Total GULP energy -396835.166564 kJ/mol
# GULP energy per Si atom -12401.098955 kJ/mol
# Density = 1.807350 g / cm^3
# Si number density = 18.114730 Si / 1000 Ang^3
#
#
#
# Elastic Constant Matrix: (Units=GPa)
#
#
# Indices 1 2 3 4 5 6 
#
# 1 92.1242 42.4917 17.0627 0.0000 16.7758 0.0000
# 2 42.4917 84.9633 28.7898 0.0000 15.4444 0.0000
# 3 17.0627 28.7898 43.7027 0.0000 19.9758 0.0000
# 4 0.0000 0.0000 0.0000 24.8306 0.0000 4.6111
# 5 16.7758 15.4444 19.9758 0.0000 25.7545 0.0000
# 6 0.0000 0.0000 0.0000 4.6111 0.0000 30.2703
#
#
#
# Elastic Compliance Matrix: (Units=1/GPa)
#
#
# Indices 1 2 3 4 5 6 
#
# 1 0.014948 -0.006831 0.001924 0.000000 -0.007133 0.000000
# 2 -0.006831 0.018346 -0.009952 0.000000 0.001167 0.000000
# 3 0.001924 -0.009952 0.041104 0.000000 -0.027167 0.000000
# 4 0.000000 0.000000 0.000000 0.041445 0.000000 -0.006313
# 5 -0.007133 0.001167 -0.027167 0.000000 0.063846 0.000000
# 6 0.000000 0.000000 0.000000 -0.006313 0.000000 0.033997
#
#
# Mechanical properties :
#
#
# Convention : Reuss Voigt Hill
#
# Bulk Modulus (GPa) = 22.38115 44.16430 33.27273
# Shear Modulus (GPa) = 19.35737 25.00081 22.17909
#
# Velocity S-wave (km/s) = 3.27249 3.71905 3.50289
# Velocity P-wave (km/s) = 5.16342 6.54790 5.89644
#
# Compressibility (1/GPa) = 0.04468045
#
# Stress axis : x y z
#
# Youngs Moduli (GPa) = 66.89722 54.50639 24.32837
#
# Poissons Ratio (x) = 0.37235 -0.04682
# Poissons Ratio (y) = 0.45700 0.24212
# Poissons Ratio (z) = -0.12873 0.54246
#
# Static dielectric constant tensor:
#      x y z
#    x 3.346840 0.000000 0.249120 
#    y 0.000000 3.384910 0.000000 
#    z 0.249120 0.000000 3.230130 
# 
# 
# High freq. dielectric constant tensor:
#      x y z
#    x 1.688470 0.000000 0.022790 
#    y 0.000000 1.708900 0.000000 
#    z 0.022790 0.000000 1.689710 
# 
# From -- ./inp_files/49809.got.cif
#   From: 2010.06.25/outbox.cif.g09.slc.cpg/sg10_25_cif.got.tgz:49809.got - 2010.06.27 22:07:45.
