data_PCOD8066049
_publ_section_title
;
Structure prediction by ZEFSAII (Michael W. Deem and Ramdas Pophale) SiO2 
 PCOD8066049
Probable space group: P 2/M
;
_chemical_formula_sum "Si O2"
_cell_formula_units_Z 28
_cell_length_a 12.465655
_cell_length_b 8.453220
_cell_length_c 16.680360
_cell_angle_alpha 90.000000
_cell_angle_beta 59.169716
_cell_angle_gamma 90.000000
_cell_volume 1509.310738
_symmetry_space_group_name_H-M "P 2/M"
_symmetry_group_IT_number 10
_symmetry_cell_setting 'monoclinic'
loop_
_space_group_symop_operation_xyz
x,y,z
-x,y,-z
-x,-y,-z
x,-y,z
loop_
_atom_site_type_symbol
_atom_site_label
_atom_site_fract_x
_atom_site_fract_y
_atom_site_fract_z
Si Si1 0.619760 0.315775 0.403554
Si Si2 0.851299 0.183469 0.402990
Si Si3 0.320739 0.816252 0.096811
Si Si4 0.115399 0.681810 0.280507
Si Si5 0.241245 0.814540 0.386870
Si Si6 0.529439 0.814344 0.275680
Si Si7 0.553462 0.685860 0.099199
O O1 0.500000 0.258255 0.500000
O O2 0.646147 0.500000 0.407666
O O3 0.737790 0.215305 0.386640
O O4 0.598731 0.281441 0.318443
O O5 0.813652 0.235829 0.506652
O O6 0.969085 0.284171 0.329159
O O7 0.887077 0.000000 0.387124
O O8 0.185351 0.782975 0.185530
O O9 0.423423 0.763834 0.122197
O O10 0.336876 0.000000 0.071894
O O11 0.338810 0.721091 0.007045
O O12 0.142087 0.500000 0.252187
O O13 0.162769 0.722595 0.350858
O O14 0.385049 0.762525 0.328804
O O15 0.226888 0.000000 0.375711
O O16 0.593793 0.763428 0.167782
O O17 0.544498 0.000000 0.285524
O O18 0.534167 0.500000 0.116138
#
# Coordination Sequence:
#
# PCOD8066049 Si02
#       7
#     4   4   4   4   4   4   4
#     4  11  23  38  58  84 115 149 192 243 289 331
#     4  11  23  40  59  80 112 155 199 237 281 342
#     4  11  21  36  57  82 114 152 190 230 281 345
#     4  12  24  37  56  84 118 153 190 237 290 341
#     4  10  21  36  56  82 115 153 193 233 280 341
#     4  11  21  36  59  85 116 153 191 234 284 340
#     4  11  21  35  56  86 117 147 185 236 290 336
#
# _framework density 18.551514000000001
#
# number of rings (size 3 to 8) (size 9 to 14) (size 15 to 20)
#    0.000    1.000    2.857    6.429    0.000    4.000 
#    0.000    0.000    0.000    0.857    0.000    6.000 
#    0.000    0.000    0.000    0.000    0.000    0.000 
#
# Total GULP energy -347410.405383 kJ/mol
# GULP energy per Si atom -12407.514478 kJ/mol
# Density = 1.850929 g / cm^3
# Si number density = 18.551514 Si / 1000 Ang^3
#
#
#
# Elastic Constant Matrix: (Units=GPa)
#
#
# Indices 1 2 3 4 5 6 
#
# 1 85.3544 12.3032 40.6276 0.0000 -1.6982 0.0000
# 2 12.3032 64.8559 10.5617 0.0000 -0.5402 0.0000
# 3 40.6276 10.5617 114.1516 0.0000 4.6058 0.0000
# 4 0.0000 0.0000 0.0000 28.9385 0.0000 0.8351
# 5 -1.6982 -0.5402 4.6058 0.0000 25.5389 0.0000
# 6 0.0000 0.0000 0.0000 0.8351 0.0000 28.3268
#
#
#
# Elastic Compliance Matrix: (Units=1/GPa)
#
#
# Indices 1 2 3 4 5 6 
#
# 1 0.014421 -0.001901 -0.005030 0.000000 0.001826 0.000000
# 2 -0.001901 0.015914 -0.000810 0.000000 0.000356 0.000000
# 3 -0.005030 -0.000810 0.010718 0.000000 -0.002284 0.000000
# 4 0.000000 0.000000 0.000000 0.034585 0.000000 -0.001020
# 5 0.001826 0.000356 -0.002284 0.000000 0.039697 0.000000
# 6 0.000000 0.000000 0.000000 -0.001020 0.000000 0.035332
#
#
# Mechanical properties :
#
#
# Convention : Reuss Voigt Hill
#
# Bulk Modulus (GPa) = 39.10909 43.48298 41.29603
# Shear Modulus (GPa) = 28.62483 29.95213 29.28848
#
# Velocity S-wave (km/s) = 3.93235 4.02249 3.97768
# Velocity P-wave (km/s) = 6.46104 6.71296 6.58820
#
# Compressibility (1/GPa) = 0.02556950
#
# Stress axis : x y z
#
# Youngs Moduli (GPa) = 69.34562 62.83627 93.30374
#
# Poissons Ratio (x) = 0.11947 0.46933
# Poissons Ratio (y) = 0.13184 0.07559
# Poissons Ratio (z) = 0.34882 0.05091
#
# Static dielectric constant tensor:
#      x y z
#    x 3.190640 0.000000 0.003980 
#    y 0.000000 3.440860 0.000000 
#    z 0.003980 0.000000 3.540620 
# 
# 
# High freq. dielectric constant tensor:
#      x y z
#    x 1.695630 0.000000 0.003140 
#    y 0.000000 1.732830 0.000000 
#    z 0.003140 0.000000 1.726100 
# 
# From -- ./inp_files/49327.got.cif
#   From: 2010.06.25/outbox.cif.g09.slc.cpg/sg10_25_cif.got.tgz:49327.got - 2010.06.27 22:07:45.
