data_PCOD8066595
_publ_section_title
;
Structure prediction by ZEFSAII (Michael W. Deem and Ramdas Pophale) SiO2 
 PCOD8066595
Probable space group: P 2/M
;
_chemical_formula_sum "Si O2"
_cell_formula_units_Z 32
_cell_length_a 22.970174
_cell_length_b 9.086548
_cell_length_c 14.894593
_cell_angle_alpha 90.000000
_cell_angle_beta 31.230687
_cell_angle_gamma 90.000000
_cell_volume 1611.862890
_symmetry_space_group_name_H-M "P 2/M"
_symmetry_group_IT_number 10
_symmetry_cell_setting 'monoclinic'
loop_
_space_group_symop_operation_xyz
x,y,z
-x,y,-z
-x,-y,-z
x,-y,z
loop_
_atom_site_type_symbol
_atom_site_label
_atom_site_fract_x
_atom_site_fract_y
_atom_site_fract_z
Si Si1 0.278562 0.666449 0.646220
Si Si2 0.075562 0.173219 0.984861
Si Si3 0.034306 0.674636 0.703659
Si Si4 0.502624 0.829353 0.601820
Si Si5 0.265333 0.334458 0.461466
Si Si6 0.075068 0.832525 0.312896
Si Si7 0.497803 0.672936 0.898205
Si Si8 0.334430 0.829146 0.979025
O O1 0.278568 0.500000 0.684260
O O2 0.404142 0.727493 0.476021
O O3 0.226769 0.669603 0.615251
O O4 0.203120 0.772557 0.806113
O O5 0.034494 0.250425 0.127572
O O6 0.075119 0.000000 0.999640
O O7 0.000000 0.220766 0.000000
O O8 0.030557 0.500000 0.721700
O O9 0.163292 0.734029 0.538183
O O10 0.981720 0.719577 0.679576
O O11 0.500000 0.786568 0.500000
O O12 0.388078 0.794809 0.809080
O O13 0.535341 0.000000 0.569002
O O14 0.284638 0.500000 0.401475
O O15 0.384974 0.254980 0.291327
O O16 0.000000 0.820450 0.500000
O O17 0.073106 0.000000 0.278519
O O18 0.204046 0.781034 0.154883
O O19 0.487574 0.500000 0.892321
O O20 0.395945 0.746692 0.979231
O O21 0.500000 0.710054 0.000000
O O22 0.345955 0.000000 0.985224
#
# Coordination Sequence:
#
# PCOD8066595 Si02
#       8
#     4   4   4   4   4   4   4   4
#     4  11  21  37  60  86 122 159 198 251 307 362
#     4  11  23  38  58  87 123 162 202 242 295 366
#     4  11  23  40  63  91 123 160 207 255 309 367
#     4  10  22  39  59  85 118 161 204 250 307 365
#     4   9  19  36  57  87 124 155 189 248 312 360
#     4  10  24  45  64  86 122 167 212 260 311 361
#     4  10  21  38  63  91 120 156 196 245 306 368
#     4  10  22  41  62  87 122 159 202 255 305 361
#
# _framework density 19.852805
#
# number of rings (size 3 to 8) (size 9 to 14) (size 15 to 20)
#    0.000    1.750    2.500    1.125    3.500    1.750 
#    0.000    1.250    0.000    0.000    0.000    0.000 
#    0.000    0.000    0.000    0.000    0.000    0.000 
#
# Total GULP energy -396711.050821 kJ/mol
# GULP energy per Si atom -12397.220338 kJ/mol
# Density = 1.980762 g / cm^3
# Si number density = 19.852805 Si / 1000 Ang^3
#
#
#
# Elastic Constant Matrix: (Units=GPa)
#
#
# Indices 1 2 3 4 5 6 
#
# 1 115.0265 40.0503 59.1012 0.0000 -11.5313 0.0000
# 2 40.0503 59.9619 36.2749 0.0000 -3.8452 0.0000
# 3 59.1012 36.2749 133.3243 0.0000 -17.8071 0.0000
# 4 0.0000 0.0000 0.0000 -113.7118 0.0000 -56.0126
# 5 -11.5313 -3.8452 -17.8071 0.0000 36.7308 0.0000
# 6 0.0000 0.0000 0.0000 -56.0126 0.0000 10.7918
#
#
#
# Elastic Compliance Matrix: (Units=1/GPa)
#
#
# Indices 1 2 3 4 5 6 
#
# 1 0.013010 -0.006257 -0.003857 0.000000 0.001560 0.000000
# 2 -0.006257 0.022984 -0.003658 0.000000 -0.001331 0.000000
# 3 -0.003857 -0.003658 0.010684 0.000000 0.003586 0.000000
# 4 0.000000 0.000000 0.000000 -0.002473 0.000000 -0.012833
# 5 0.001560 -0.001331 0.003586 0.000000 0.029314 0.000000
# 6 0.000000 0.000000 0.000000 -0.012833 0.000000 0.026053
#
#
# Mechanical properties :
#
#
# Convention : Reuss Voigt Hill
#
# Bulk Modulus (GPa) = 52.25740 64.35172 58.30456
# Shear Modulus (GPa) = 37.45509 -1.71210 17.87150
#
# Velocity S-wave (km/s) = 4.34826 -0.92966 3.00359
# Velocity P-wave (km/s) = 7.18257 5.59754 6.43901
#
# Compressibility (1/GPa) = 0.01913605
#
# Stress axis : x y z
#
# Youngs Moduli (GPa) = 76.86406 43.50915 93.59590
#
# Poissons Ratio (x) = 0.27222 0.36096
# Poissons Ratio (y) = 0.48091 0.34235
# Poissons Ratio (z) = 0.29643 0.15914
#
# Static dielectric constant tensor:
#      x y z
#    x 3.246680 0.000000 -0.030450 
#    y 0.000000 3.480550 0.000000 
#    z -0.030450 0.000000 3.866120 
# 
# 
# High freq. dielectric constant tensor:
#      x y z
#    x 1.772900 0.000000 -0.005020 
#    y 0.000000 1.759710 0.000000 
#    z -0.005020 0.000000 1.789340 
# 
# From -- ./inp_files/71425.got.cif
#   From: 2010.06.25/outbox.cif.g09.slc.cpg/sg10_36_cif.got.tgz:71425.got - 2010.06.27 22:07:45.
