data_PCOD8066956
_publ_section_title
;
Structure prediction by ZEFSAII (Michael W. Deem and Ramdas Pophale) SiO2 
 PCOD8066956
Probable space group: P 2/M
;
_chemical_formula_sum "Si O2"
_cell_formula_units_Z 26
_cell_length_a 13.065867
_cell_length_b 13.855222
_cell_length_c 9.523432
_cell_angle_alpha 90.000000
_cell_angle_beta 51.995349
_cell_angle_gamma 90.000000
_cell_volume 1358.469229
_symmetry_space_group_name_H-M "P 2/M"
_symmetry_group_IT_number 10
_symmetry_cell_setting 'monoclinic'
loop_
_space_group_symop_operation_xyz
x,y,z
-x,y,-z
-x,-y,-z
x,-y,z
loop_
_atom_site_type_symbol
_atom_site_label
_atom_site_fract_x
_atom_site_fract_y
_atom_site_fract_z
Si Si1 0.814046 0.890608 0.047311
Si Si2 0.618925 0.783244 0.797751
Si Si3 0.126402 0.889479 0.317058
Si Si4 0.211633 0.610050 0.324371
Si Si5 0.517030 0.110765 0.323356
Si Si6 0.992275 0.388805 0.735002
Si Si7 0.000000 0.743713 0.000000
O O1 0.663324 0.866953 0.151885
O O2 0.829804 0.000000 0.092981
O O3 0.889546 0.878765 0.836532
O O4 0.874462 0.814184 0.105367
O O5 0.746066 0.838290 0.737673
O O6 0.655797 0.670228 0.768079
O O7 0.579784 0.818209 0.676110
O O8 0.500000 0.806589 0.000000
O O9 0.000000 0.843303 0.500000
O O10 0.140076 0.000000 0.350769
O O11 0.254747 0.500000 0.269080
O O12 0.131211 0.644462 0.254460
O O13 0.123286 0.622604 0.535953
O O14 0.500000 0.134217 0.500000
O O15 0.480213 0.000000 0.320516
O O16 0.974016 0.500000 0.796105
O O17 0.003266 0.322864 0.861356
#
# Coordination Sequence:
#
# PCOD8066956 Si02
#       7
#     4   4   4   4   4   4   2
#     4  10  22  38  54  86 128 162 195 244 298 345
#     4  12  23  36  65  90 115 157 203 242 297 358
#     4  10  22  38  59  89 124 158 203 255 293 338
#     4   9  21  41  62  86 117 150 191 250 304 356
#     4  10  23  41  58  81 122 166 202 236 285 354
#     4   9  20  39  62  87 117 151 192 245 304 356
#     4  12  22  32  60  90 116 154 196 246 288 354
#
# _framework density 19.139189999999999
#
# number of rings (size 3 to 8) (size 9 to 14) (size 15 to 20)
#    0.000    1.846    1.538    2.769    6.462    0.923 
#    0.000    4.615    0.000    0.462    0.000    0.000 
#    0.000    0.000    0.000    0.000    0.000    0.000 
#
# Total GULP energy -322446.675949 kJ/mol
# GULP energy per Si atom -12401.795229 kJ/mol
# Density = 1.909563 g / cm^3
# Si number density = 19.139190 Si / 1000 Ang^3
#
#
#
# Elastic Constant Matrix: (Units=GPa)
#
#
# Indices 1 2 3 4 5 6 
#
# 1 121.2438 79.9019 50.9842 0.0000 3.7611 0.0000
# 2 79.9019 100.8395 45.8230 0.0000 8.3391 0.0000
# 3 50.9842 45.8230 97.0289 0.0000 -2.4089 0.0000
# 4 0.0000 0.0000 0.0000 21.0420 0.0000 3.7870
# 5 3.7611 8.3391 -2.4089 0.0000 32.2938 0.0000
# 6 0.0000 0.0000 0.0000 3.7870 0.0000 40.4816
#
#
#
# Elastic Compliance Matrix: (Units=1/GPa)
#
#
# Indices 1 2 3 4 5 6 
#
# 1 0.018176 -0.012927 -0.003422 0.000000 0.000966 0.000000
# 2 -0.012927 0.022281 -0.003842 0.000000 -0.004535 0.000000
# 3 -0.003422 -0.003842 0.013979 0.000000 0.002433 0.000000
# 4 0.000000 0.000000 0.000000 0.048338 0.000000 -0.004522
# 5 0.000966 -0.004535 0.002433 0.000000 0.032206 0.000000
# 6 0.000000 0.000000 0.000000 -0.004522 0.000000 0.025126
#
#
# Mechanical properties :
#
#
# Convention : Reuss Voigt Hill
#
# Bulk Modulus (GPa) = 71.15581 74.72562 72.94072
# Shear Modulus (GPa) = 24.36987 28.25701 26.31344
#
# Velocity S-wave (km/s) = 3.57220 3.84656 3.71191
# Velocity P-wave (km/s) = 7.36702 7.67177 7.52094
#
# Compressibility (1/GPa) = 0.01405367
#
# Stress axis : x y z
#
# Youngs Moduli (GPa) = 55.01813 44.88193 71.53512
#
# Poissons Ratio (x) = 0.58019 0.24477
# Poissons Ratio (y) = 0.71122 0.27486
# Poissons Ratio (z) = 0.18825 0.17245
#
# Static dielectric constant tensor:
#      x y z
#    x 3.427960 0.000000 -0.040710 
#    y 0.000000 3.701250 0.000000 
#    z -0.040710 0.000000 3.489350 
# 
# 
# High freq. dielectric constant tensor:
#      x y z
#    x 1.738600 0.000000 0.001260 
#    y 0.000000 1.752950 0.000000 
#    z 0.001260 0.000000 1.739120 
# 
# From -- ./inp_files/24828.got.cif
#   From: 2010.06.25/outbox.cif.g09.slc.cpg/sg10_13_cif.got.tgz:24828.got - 2010.06.27 22:07:45.
