data_PCOD8066221
_publ_section_title
;
Structure prediction by ZEFSAII (Michael W. Deem and Ramdas Pophale) SiO2 
 PCOD8066221
Probable space group: P 2/M
;
_chemical_formula_sum "Si O2"
_cell_formula_units_Z 20
_cell_length_a 16.486117
_cell_length_b 12.450607
_cell_length_c 9.124936
_cell_angle_alpha 90.000000
_cell_angle_beta 146.123235
_cell_angle_gamma 90.000000
_cell_volume 1044.028355
_symmetry_space_group_name_H-M "P 2/M"
_symmetry_group_IT_number 10
_symmetry_cell_setting 'monoclinic'
loop_
_space_group_symop_operation_xyz
x,y,z
-x,y,-z
-x,-y,-z
x,-y,z
loop_
_atom_site_type_symbol
_atom_site_label
_atom_site_fract_x
_atom_site_fract_y
_atom_site_fract_z
Si Si1 0.168207 0.708355 0.422414
Si Si2 0.647106 0.875416 0.800051
Si Si3 0.168208 0.708355 0.082209
Si Si4 0.653623 0.500000 0.308117
Si Si5 0.653623 0.500000 0.652751
Si Si6 0.647105 0.124584 0.141265
O O1 0.195641 0.733869 0.293461
O O2 0.256698 0.604199 0.607101
O O3 0.217707 0.810378 0.591024
O O4 1.000000 0.685801 0.202028
O O5 0.500000 0.837285 0.500000
O O6 0.782293 0.810378 0.937902
O O7 0.678590 0.000000 0.816878
O O8 0.629263 0.850427 0.943894
O O9 0.256699 0.604199 0.162995
O O10 0.628052 0.500000 0.442078
O O11 0.500000 0.500000 0.000000
O O12 0.500000 0.500000 0.500000
O O13 0.678590 0.000000 0.218890
O O14 0.500000 0.162715 0.000000
#
# Coordination Sequence:
#
# PCOD8066221 Si02
#       6
#     4   4   4   2   2   4
#     4  10  21  37  57  81 111 146 182 222 270 324
#     4  10  21  37  57  81 110 144 183 227 272 320
#     4  10  21  37  57  81 111 146 182 222 270 324
#     4  10  21  37  57  81 109 142 181 224 270 320
#     4  10  21  37  57  81 109 142 181 224 270 320
#     4  10  21  37  57  81 110 144 183 227 272 320
#
# _framework density 19.156566999999999
#
# number of rings (size 3 to 8) (size 9 to 14) (size 15 to 20)
#    0.000    2.000    0.000    3.000    0.000   11.200 
#    0.000    4.000    0.000    3.600    0.000    0.000 
#    0.000    0.000    0.000    0.000    0.000    0.000 
#
# Total GULP energy -248125.426823 kJ/mol
# GULP energy per Si atom -12406.271341 kJ/mol
# Density = 1.911297 g / cm^3
# Si number density = 19.156567 Si / 1000 Ang^3
#
#
#
# Elastic Constant Matrix: (Units=GPa)
#
#
# Indices 1 2 3 4 5 6 
#
# 1 114.7651 63.9713 51.3717 0.0000 19.0198 0.0000
# 2 63.9713 106.1868 68.5049 0.0000 7.5031 0.0000
# 3 51.3717 68.5049 133.9819 0.0000 12.7844 0.0000
# 4 0.0000 0.0000 0.0000 31.5558 0.0000 3.9527
# 5 19.0198 7.5031 12.7844 0.0000 27.1228 0.0000
# 6 0.0000 0.0000 0.0000 3.9527 0.0000 29.1678
#
#
#
# Elastic Compliance Matrix: (Units=1/GPa)
#
#
# Indices 1 2 3 4 5 6 
#
# 1 0.014719 -0.007694 -0.000972 0.000000 -0.007735 0.000000
# 2 -0.007694 0.018082 -0.006631 0.000000 0.003519 0.000000
# 3 -0.000972 -0.006631 0.011504 0.000000 -0.002907 0.000000
# 4 0.000000 0.000000 0.000000 0.032237 0.000000 -0.004369
# 5 -0.007735 0.003519 -0.002907 0.000000 0.042690 0.000000
# 6 0.000000 0.000000 0.000000 -0.004369 0.000000 0.034876
#
#
# Mechanical properties :
#
#
# Convention : Reuss Voigt Hill
#
# Bulk Modulus (GPa) = 72.92997 80.29219 76.61108
# Shear Modulus (GPa) = 26.41698 28.97500 27.69599
#
# Velocity S-wave (km/s) = 3.71752 3.89335 3.80645
# Velocity P-wave (km/s) = 7.52195 7.88769 7.70699
#
# Compressibility (1/GPa) = 0.01371178
#
# Stress axis : x y z
#
# Youngs Moduli (GPa) = 67.93940 55.30448 86.92647
#
# Poissons Ratio (x) = 0.42551 0.08446
# Poissons Ratio (y) = 0.52272 0.57640
# Poissons Ratio (z) = 0.06601 0.36672
#
# Static dielectric constant tensor:
#      x y z
#    x 3.476430 0.000000 -0.004870 
#    y 0.000000 3.578230 0.000000 
#    z -0.004870 0.000000 3.473490 
# 
# 
# High freq. dielectric constant tensor:
#      x y z
#    x 1.745190 0.000000 0.003230 
#    y 0.000000 1.754940 0.000000 
#    z 0.003230 0.000000 1.747150 
# 
# From -- ./inp_files/32495.got.cif
#   From: 2010.06.25/outbox.cif.g09.slc.cpg/sg10_17_cif.got.tgz:32495.got - 2010.06.27 22:07:45.
