data_PCOD8066967
_publ_section_title
;
Structure prediction by ZEFSAII (Michael W. Deem and Ramdas Pophale) SiO2 
 PCOD8066967
Probable space group: P 2/M
;
_chemical_formula_sum "Si O2"
_cell_formula_units_Z 22
_cell_length_a 13.536062
_cell_length_b 9.885968
_cell_length_c 7.787635
_cell_angle_alpha 90.000000
_cell_angle_beta 100.477820
_cell_angle_gamma 90.000000
_cell_volume 1024.741612
_symmetry_space_group_name_H-M "P 2/M"
_symmetry_group_IT_number 10
_symmetry_cell_setting 'monoclinic'
loop_
_space_group_symop_operation_xyz
x,y,z
-x,y,-z
-x,-y,-z
x,-y,z
loop_
_atom_site_type_symbol
_atom_site_label
_atom_site_fract_x
_atom_site_fract_y
_atom_site_fract_z
Si Si1 0.297641 0.853733 0.846260
Si Si2 0.500000 0.269469 0.000000
Si Si3 0.140972 0.648601 0.682340
Si Si4 0.761655 0.153237 0.783502
Si Si5 0.928608 0.651137 0.726745
Si Si6 0.416621 0.348585 0.332088
O O1 0.415291 0.822669 0.886783
O O2 0.235623 0.747016 0.716856
O O3 0.283571 0.000000 0.754125
O O4 0.255108 0.856359 0.022077
O O5 0.456311 0.354232 0.147041
O O6 0.179952 0.500000 0.748721
O O7 0.102074 0.647228 0.479016
O O8 0.047399 0.689082 0.776846
O O9 0.866795 0.231608 0.800176
O O10 0.672148 0.239964 0.668348
O O11 0.765815 0.000000 0.706594
O O12 0.910379 0.500000 0.800354
O O13 0.500000 0.309623 0.500000
O O14 0.375710 0.500000 0.358388
#
# Coordination Sequence:
#
# PCOD8066967 Si02
#       6
#     4   2   4   4   4   4
#     4  10  22  39  58  82 116 155 193 236 291 348
#     4  10  22  40  60  86 122 158 196 248 296 348
#     4   9  20  37  59  85 113 149 193 237 293 346
#     4  10  22  38  56  83 117 152 190 236 289 349
#     4   9  19  38  59  83 116 150 188 241 289 345
#     4  10  22  39  60  87 116 154 201 247 295 350
#
# _framework density 21.468826
#
# number of rings (size 3 to 8) (size 9 to 14) (size 15 to 20)
#    0.000    2.364    0.000    2.182    2.545    7.636 
#    0.000    5.455    0.000    0.000    0.000    0.000 
#    0.000    0.000    0.000    0.000    0.000    0.000 
#
# Total GULP energy -272657.170047 kJ/mol
# GULP energy per Si atom -12393.507729 kJ/mol
# Density = 2.141996 g / cm^3
# Si number density = 21.468826 Si / 1000 Ang^3
#
#
#
# Elastic Constant Matrix: (Units=GPa)
#
#
# Indices 1 2 3 4 5 6 
#
# 1 108.5170 66.6617 4.2853 0.0000 12.8280 0.0000
# 2 66.6617 160.8851 11.8095 0.0000 15.8580 0.0000
# 3 4.2853 11.8095 30.6613 0.0000 16.9578 0.0000
# 4 0.0000 0.0000 0.0000 6.4279 0.0000 14.9662
# 5 12.8280 15.8580 16.9578 0.0000 28.7615 0.0000
# 6 0.0000 0.0000 0.0000 14.9662 0.0000 -1.6931
#
#
#
# Elastic Compliance Matrix: (Units=1/GPa)
#
#
# Indices 1 2 3 4 5 6 
#
# 1 0.012725 -0.005026 0.002617 0.000000 -0.004447 0.000000
# 2 -0.005026 0.008571 -0.001818 0.000000 -0.001412 0.000000
# 3 0.002617 -0.001818 0.049027 0.000000 -0.029072 0.000000
# 4 0.000000 0.000000 0.000000 0.007209 0.000000 0.063721
# 5 -0.004447 -0.001412 -0.029072 0.000000 0.054671 0.000000
# 6 0.000000 0.000000 0.000000 0.063721 0.000000 -0.027368
#
#
# Mechanical properties :
#
#
# Convention : Reuss Voigt Hill
#
# Bulk Modulus (GPa) = 16.16305 51.73071 33.94688
# Shear Modulus (GPa) = 37.33798 21.18642 29.26220
#
# Velocity S-wave (km/s) = 4.17486 3.14482 3.69590
# Velocity P-wave (km/s) = 5.54836 6.11020 5.83604
#
# Compressibility (1/GPa) = 0.06186950
#
# Stress axis : x y z
#
# Youngs Moduli (GPa) = 78.58427 116.67444 20.39685
#
# Poissons Ratio (x) = 0.58645 -0.05338
# Poissons Ratio (y) = 0.39499 0.03707
# Poissons Ratio (z) = -0.20566 0.21207
#
# Static dielectric constant tensor:
#      x y z
#    x 4.454430 0.000000 -0.060580 
#    y 0.000000 4.448990 0.000000 
#    z -0.060580 0.000000 3.647690 
# 
# 
# High freq. dielectric constant tensor:
#      x y z
#    x 1.845590 0.000000 0.001290 
#    y 0.000000 1.842420 0.000000 
#    z 0.001290 0.000000 1.832230 
# 
# From -- ./inp_files/27313.got.cif
#   From: 2010.06.25/outbox.cif.g09.slc.cpg/sg10_14_cif.got.tgz:27313.got - 2010.06.27 22:07:45.
