data_PCOD8066857
_publ_section_title
;
Structure prediction by ZEFSAII (Michael W. Deem and Ramdas Pophale) SiO2 
 PCOD8066857
Probable space group: P 2/M
;
_chemical_formula_sum "Si O2"
_cell_formula_units_Z 24
_cell_length_a 11.324200
_cell_length_b 15.198284
_cell_length_c 13.800292
_cell_angle_alpha 90.000000
_cell_angle_beta 148.653396
_cell_angle_gamma 90.000000
_cell_volume 1235.584231
_symmetry_space_group_name_H-M "P 2/M"
_symmetry_group_IT_number 10
_symmetry_cell_setting 'monoclinic'
loop_
_space_group_symop_operation_xyz
x,y,z
-x,y,-z
-x,-y,-z
x,-y,z
loop_
_atom_site_type_symbol
_atom_site_label
_atom_site_fract_x
_atom_site_fract_y
_atom_site_fract_z
Si Si1 0.448063 0.814165 0.225507
Si Si2 0.758668 0.321756 0.784908
Si Si3 0.294445 0.599301 0.452674
Si Si4 0.179931 0.000000 0.757515
Si Si5 0.098028 0.708263 0.466714
Si Si6 0.335960 0.000000 0.644976
Si Si7 0.282564 0.814800 0.902805
O O1 0.316846 0.775502 0.228560
O O2 0.670053 0.759388 0.355532
O O3 0.516159 0.916039 0.285787
O O4 0.283392 0.798612 0.018482
O O5 0.770405 0.328960 0.676095
O O6 0.556357 0.389706 0.671084
O O7 0.000000 0.350193 0.000000
O O8 0.253908 0.500000 0.387644
O O9 0.132077 0.619079 0.429439
O O10 0.278101 0.000000 0.717799
O O11 0.281173 0.918476 0.885465
O O12 0.907789 0.000000 0.577318
O O13 0.000000 0.678348 0.500000
O O14 0.939707 0.774408 0.298588
O O15 0.500000 0.773446 0.000000
#
# Coordination Sequence:
#
# PCOD8066857 Si02
#       7
#     4   4   4   2   4   2   4
#     4  11  22  35  58  85 120 160 199 243 284 339
#     4  10  21  41  64  86 111 149 201 248 288 338
#     4  10  23  41  66  91 113 147 193 242 299 360
#     4  11  20  31  54  82 129 164 197 242 273 339
#     4  11  21  37  58  89 125 155 187 234 294 361
#     4  11  19  34  52  85 122 163 200 238 286 332
#     4  12  20  32  54  85 121 162 200 230 281 334
#
# _framework density 19.424009000000002
#
# number of rings (size 3 to 8) (size 9 to 14) (size 15 to 20)
#    0.000    1.167    5.000    2.750    0.000    1.667 
#    0.000    0.417    0.000    9.500    0.000    0.000 
#    0.000    0.000    0.000    0.000    0.000    0.000 
#
# Total GULP energy -297464.849239 kJ/mol
# GULP energy per Si atom -12394.368718 kJ/mol
# Density = 1.937980 g / cm^3
# Si number density = 19.424009 Si / 1000 Ang^3
#
#
#
# Elastic Constant Matrix: (Units=GPa)
#
#
# Indices 1 2 3 4 5 6 
#
# 1 124.4179 65.1314 42.5379 0.0000 -10.1235 0.0000
# 2 65.1314 94.5189 23.3784 0.0000 -12.5330 0.0000
# 3 42.5379 23.3784 110.9824 0.0000 -9.1794 0.0000
# 4 0.0000 0.0000 0.0000 26.4944 0.0000 -6.5604
# 5 -10.1235 -12.5330 -9.1794 0.0000 20.2938 0.0000
# 6 0.0000 0.0000 0.0000 -6.5604 0.0000 22.8390
#
#
#
# Elastic Compliance Matrix: (Units=1/GPa)
#
#
# Indices 1 2 3 4 5 6 
#
# 1 0.013718 -0.008604 -0.003448 0.000000 -0.000030 0.000000
# 2 -0.008604 0.017323 0.000185 0.000000 0.006490 0.000000
# 3 -0.003448 0.000185 0.010555 0.000000 0.003169 0.000000
# 4 0.000000 0.000000 0.000000 0.040634 0.000000 0.011672
# 5 -0.000030 0.006490 0.003169 0.000000 0.054703 0.000000
# 6 0.000000 0.000000 0.000000 0.011672 0.000000 0.047137
#
#
# Mechanical properties :
#
#
# Convention : Reuss Voigt Hill
#
# Bulk Modulus (GPa) = 55.98019 65.77941 60.87980
# Shear Modulus (GPa) = 23.39094 27.18355 25.28724
#
# Velocity S-wave (km/s) = 3.47396 3.74502 3.61204
# Velocity P-wave (km/s) = 6.70626 7.25526 6.98615
#
# Compressibility (1/GPa) = 0.01786346
#
# Stress axis : x y z
#
# Youngs Moduli (GPa) = 72.89752 57.72509 94.74166
#
# Poissons Ratio (x) = 0.49666 0.32666
# Poissons Ratio (y) = 0.62721 -0.01757
# Poissons Ratio (z) = 0.25135 -0.01070
#
# Static dielectric constant tensor:
#      x y z
#    x 3.619150 0.000000 0.059460 
#    y 0.000000 3.451580 0.000000 
#    z 0.059460 0.000000 3.723590 
# 
# 
# High freq. dielectric constant tensor:
#      x y z
#    x 1.745530 0.000000 0.001180 
#    y 0.000000 1.734960 0.000000 
#    z 0.001180 0.000000 1.773730 
# 
# From -- ./inp_files/65193.got.cif
#   From: 2010.06.25/outbox.cif.g09.slc.cpg/sg10_33_cif.got.tgz:65193.got - 2010.06.27 22:07:45.
