data_PCOD8066763
_publ_section_title
;
Structure prediction by ZEFSAII (Michael W. Deem and Ramdas Pophale) SiO2 
 PCOD8066763
Probable space group: P 2/M
;
_chemical_formula_sum "Si O2"
_cell_formula_units_Z 24
_cell_length_a 23.863482
_cell_length_b 7.884152
_cell_length_c 12.328525
_cell_angle_alpha 90.000000
_cell_angle_beta 27.671849
_cell_angle_gamma 90.000000
_cell_volume 1077.205724
_symmetry_space_group_name_H-M "P 2/M"
_symmetry_group_IT_number 10
_symmetry_cell_setting 'monoclinic'
loop_
_space_group_symop_operation_xyz
x,y,z
-x,y,-z
-x,-y,-z
x,-y,z
loop_
_atom_site_type_symbol
_atom_site_label
_atom_site_fract_x
_atom_site_fract_y
_atom_site_fract_z
Si Si1 0.766771 0.691743 0.140501
Si Si2 0.481302 0.693254 0.338027
Si Si3 0.970445 0.193598 0.929196
Si Si4 0.746866 0.697681 0.941777
Si Si5 0.566315 0.000000 0.727467
Si Si6 0.313575 0.000000 0.271934
Si Si7 0.165861 0.692158 0.437031
O O1 0.813901 0.500000 0.071254
O O2 0.620371 0.696246 0.394082
O O3 0.798838 0.772615 0.966439
O O4 0.830515 0.792987 0.131240
O O5 0.493490 0.500000 0.270604
O O6 0.611582 0.766750 0.150341
O O7 0.426279 0.823468 0.347358
O O8 0.038326 0.295555 0.716661
O O9 0.015310 0.000000 0.850636
O O10 0.000000 0.267003 0.000000
O O11 0.732631 0.500000 0.988005
O O12 0.838353 0.736794 0.685137
O O13 0.684348 0.000000 0.601451
O O14 0.446097 0.000000 0.001340
O O15 0.253701 0.174723 0.340243
O O16 0.216234 0.500000 0.363007
#
# Coordination Sequence:
#
# PCOD8066763 Si02
#       7
#     4   4   4   4   2   2   4
#     4  10  22  40  64  94 129 168 214 264 317 379
#     4  10  21  39  64  95 130 171 212 260 321 378
#     4  11  26  45  64  91 130 168 213 269 320 378
#     4   9  19  40  66  94 128 165 209 264 320 378
#     4  11  24  38  63  92 139 170 211 265 315 384
#     4  11  24  42  59  97 132 172 214 264 321 371
#     4  11  23  43  70  92 125 170 214 264 319 376
#
# _framework density 22.279866999999999
#
# number of rings (size 3 to 8) (size 9 to 14) (size 15 to 20)
#    0.000    1.667    2.500    1.000    3.500    4.667 
#    3.000    5.833    0.000    0.000    0.000    0.000 
#    0.000    0.000    0.000    0.000    0.000    0.000 
#
# Total GULP energy -297327.690609 kJ/mol
# GULP energy per Si atom -12388.653775 kJ/mol
# Density = 2.222916 g / cm^3
# Si number density = 22.279867 Si / 1000 Ang^3
#
#
#
# Elastic Constant Matrix: (Units=GPa)
#
#
# Indices 1 2 3 4 5 6 
#
# 1 147.8215 32.8344 43.6663 0.0000 22.6978 0.0000
# 2 32.8344 95.7010 5.2113 0.0000 7.7129 0.0000
# 3 43.6663 5.2113 101.4777 0.0000 17.2248 0.0000
# 4 0.0000 0.0000 0.0000 31.9990 0.0000 -0.5966
# 5 22.6978 7.7129 17.2248 0.0000 28.2252 0.0000
# 6 0.0000 0.0000 0.0000 -0.5966 0.0000 26.5361
#
#
#
# Elastic Compliance Matrix: (Units=1/GPa)
#
#
# Indices 1 2 3 4 5 6 
#
# 1 0.008904 -0.002518 -0.002904 0.000000 -0.004700 0.000000
# 2 -0.002518 0.011397 0.000762 0.000000 -0.001555 0.000000
# 3 -0.002904 0.000762 0.011941 0.000000 -0.005160 0.000000
# 4 0.000000 0.000000 0.000000 0.031264 0.000000 0.000703
# 5 -0.004700 -0.001555 -0.005160 0.000000 0.042782 0.000000
# 6 0.000000 0.000000 0.000000 0.000703 0.000000 0.037700
#
#
# Mechanical properties :
#
#
# Convention : Reuss Voigt Hill
#
# Bulk Modulus (GPa) = 43.62784 56.49157 50.05971
# Shear Modulus (GPa) = 31.06580 34.90461 32.98521
#
# Velocity S-wave (km/s) = 3.73814 3.96238 3.85189
# Velocity P-wave (km/s) = 6.18513 6.80767 6.50386
#
# Compressibility (1/GPa) = 0.02292114
#
# Stress axis : x y z
#
# Youngs Moduli (GPa) = 112.31212 87.74326 83.74657
#
# Poissons Ratio (x) = 0.22093 0.24323
# Poissons Ratio (y) = 0.28279 -0.06382
# Poissons Ratio (z) = 0.32619 -0.06687
#
# Static dielectric constant tensor:
#      x y z
#    x 4.240890 0.000000 0.177520 
#    y 0.000000 3.784030 0.000000 
#    z 0.177520 0.000000 4.291210 
# 
# 
# High freq. dielectric constant tensor:
#      x y z
#    x 1.870530 0.000000 0.009090 
#    y 0.000000 1.865710 0.000000 
#    z 0.009090 0.000000 1.882570 
# 
# From -- ./inp_files/45215.got.cif
#   From: 2010.06.25/outbox.cif.g09.slc.cpg/sg10_23_cif.got.tgz:45215.got - 2010.06.27 22:07:45.
