data_PCOD8066377
_publ_section_title
;
Structure prediction by ZEFSAII (Michael W. Deem and Ramdas Pophale) SiO2 
 PCOD8066377
Probable space group: P 2/M
;
_chemical_formula_sum "Si O2"
_cell_formula_units_Z 32
_cell_length_a 20.997672
_cell_length_b 15.008611
_cell_length_c 14.957810
_cell_angle_alpha 90.000000
_cell_angle_beta 19.166004
_cell_angle_gamma 90.000000
_cell_volume 1547.600326
_symmetry_space_group_name_H-M "P 2/M"
_symmetry_group_IT_number 10
_symmetry_cell_setting 'monoclinic'
loop_
_space_group_symop_operation_xyz
x,y,z
-x,y,-z
-x,-y,-z
x,-y,z
loop_
_atom_site_type_symbol
_atom_site_label
_atom_site_fract_x
_atom_site_fract_y
_atom_site_fract_z
Si Si1 0.177332 0.835441 0.014442
Si Si2 0.458036 0.732719 0.871776
Si Si3 0.129156 0.691889 0.594028
Si Si4 0.548154 0.737589 0.556177
Si Si5 0.698662 0.598322 0.790695
Si Si6 0.191634 0.098014 0.802339
Si Si7 0.202373 0.898288 0.181716
Si Si8 0.875191 0.396629 0.078495
O O1 0.195932 0.889043 0.082176
O O2 0.982405 0.780819 0.281509
O O3 0.357705 0.767567 0.752502
O O4 0.156990 0.898566 0.955162
O O5 0.665135 0.727187 0.644251
O O6 0.474816 0.699923 0.747787
O O7 0.311818 0.662589 0.110294
O O8 0.367281 0.831821 0.000909
O O9 0.138395 0.634463 0.491957
O O10 0.017501 0.628581 0.810294
O O11 0.662447 0.828155 0.426126
O O12 0.678945 0.662238 0.335388
O O13 0.755385 0.500000 0.749592
O O14 0.500000 0.595295 0.000000
O O15 0.276352 0.000000 0.668482
O O16 0.000000 0.115567 0.000000
O O17 0.000000 0.875787 0.500000
O O18 0.262274 0.000000 0.124268
O O19 0.814907 0.500000 0.153137
O O20 0.000000 0.374348 0.000000
#
# Coordination Sequence:
#
# PCOD8066377 Si02
#       8
#     4   4   4   4   4   4   4   4
#     4  11  23  38  64  87 129 171 206 259 320 385
#     4  10  21  37  63  87 123 161 206 259 314 374
#     4  11  20  37  61  90 123 163 208 261 320 370
#     4  11  22  39  58  88 125 165 208 256 314 379
#     4   9  19  35  59  91 120 152 204 260 312 371
#     4  11  23  39  62  91 123 161 211 265 316 376
#     4  10  22  42  65  92 125 166 214 259 317 386
#     4  11  22  37  62  91 125 169 217 260 315 383
#
# _framework density 20.677173
#
# number of rings (size 3 to 8) (size 9 to 14) (size 15 to 20)
#    0.000    1.500    2.500    3.000    0.000    4.000 
#    0.000    3.125    0.000   12.750    0.000    0.000 
#    0.000    0.000    0.000    0.000    0.000    0.000 
#
# Total GULP energy -396738.105625 kJ/mol
# GULP energy per Si atom -12398.065801 kJ/mol
# Density = 2.063011 g / cm^3
# Si number density = 20.677173 Si / 1000 Ang^3
#
#
#
# Elastic Constant Matrix: (Units=GPa)
#
#
# Indices 1 2 3 4 5 6 
#
# 1 91.6332 45.1959 39.3535 0.0000 10.9600 0.0000
# 2 45.1959 118.6471 44.1219 0.0000 3.0698 0.0000
# 3 39.3535 44.1219 104.4233 0.0000 15.2137 0.0000
# 4 0.0000 0.0000 0.0000 62.4986 0.0000 -34.9651
# 5 10.9600 3.0698 15.2137 0.0000 37.4909 0.0000
# 6 0.0000 0.0000 0.0000 -34.9651 0.0000 53.1006
#
#
#
# Elastic Compliance Matrix: (Units=1/GPa)
#
#
# Indices 1 2 3 4 5 6 
#
# 1 0.014803 -0.004316 -0.003376 0.000000 -0.002604 0.000000
# 2 -0.004316 0.011290 -0.003394 0.000000 0.001714 0.000000
# 3 -0.003376 -0.003394 0.012858 0.000000 -0.003953 0.000000
# 4 0.000000 0.000000 0.000000 0.025332 0.000000 0.016681
# 5 -0.002604 0.001714 -0.003953 0.000000 0.028898 0.000000
# 6 0.000000 0.000000 0.000000 0.016681 0.000000 0.029816
#
#
# Mechanical properties :
#
#
# Convention : Reuss Voigt Hill
#
# Bulk Modulus (GPa) = 59.59172 63.56069 61.57621
# Shear Modulus (GPa) = 33.16469 43.02017 38.09243
#
# Velocity S-wave (km/s) = 4.00925 4.56627 4.29680
# Velocity P-wave (km/s) = 7.09329 7.65554 7.37977
#
# Compressibility (1/GPa) = 0.01678085
#
# Stress axis : x y z
#
# Youngs Moduli (GPa) = 67.55314 88.57278 77.77018
#
# Poissons Ratio (x) = 0.38230 0.26252
# Poissons Ratio (y) = 0.29157 0.26392
# Poissons Ratio (z) = 0.22803 0.30058
#
# Static dielectric constant tensor:
#      x y z
#    x 3.840690 0.000000 0.136240 
#    y 0.000000 3.800450 0.000000 
#    z 0.136240 0.000000 3.899340 
# 
# 
# High freq. dielectric constant tensor:
#      x y z
#    x 1.808880 0.000000 0.014740 
#    y 0.000000 1.811090 0.000000 
#    z 0.014740 0.000000 1.815740 
# 
# From -- ./inp_files/70749.got.cif
#   From: 2010.06.25/outbox.cif.g09.slc.cpg/sg10_36_cif.got.tgz:70749.got - 2010.06.27 22:07:45.
