data_PCOD8066399
_publ_section_title
;
Structure prediction by ZEFSAII (Michael W. Deem and Ramdas Pophale) SiO2 
 PCOD8066399
Probable space group: P 2/M
;
_chemical_formula_sum "Si O2"
_cell_formula_units_Z 32
_cell_length_a 17.681658
_cell_length_b 8.812197
_cell_length_c 23.727522
_cell_angle_alpha 90.000000
_cell_angle_beta 30.666064
_cell_angle_gamma 90.000000
_cell_volume 1885.637935
_symmetry_space_group_name_H-M "P 2/M"
_symmetry_group_IT_number 10
_symmetry_cell_setting 'monoclinic'
loop_
_space_group_symop_operation_xyz
x,y,z
-x,y,-z
-x,-y,-z
x,-y,z
loop_
_atom_site_type_symbol
_atom_site_label
_atom_site_fract_x
_atom_site_fract_y
_atom_site_fract_z
Si Si1 0.955218 0.677840 0.138342
Si Si2 0.673667 0.677192 0.244370
Si Si3 0.151596 0.319671 0.184877
Si Si4 0.265587 0.821281 0.910736
Si Si5 0.547427 0.174356 0.531594
Si Si6 0.609602 0.319673 0.061139
Si Si7 0.377490 0.333831 0.126321
Si Si8 0.887633 0.825465 0.299524
O O1 0.987383 0.500000 0.118399
O O2 0.822556 0.722393 0.181878
O O3 0.912323 0.727499 0.228165
O O4 0.100519 0.758787 0.022458
O O5 0.670260 0.500000 0.232451
O O6 0.665150 0.771340 0.192641
O O7 0.531662 0.719598 0.372479
O O8 0.129677 0.500000 0.203839
O O9 0.234585 0.254421 0.188356
O O10 0.995018 0.234898 0.280100
O O11 0.246788 0.279122 0.068335
O O12 0.374555 0.758826 0.889011
O O13 0.260448 0.000000 0.918165
O O14 0.500000 0.229409 0.500000
O O15 0.722085 0.195644 0.428206
O O16 0.498088 0.000000 0.572062
O O17 0.596903 0.500000 0.076312
O O18 0.458611 0.253574 0.127740
O O19 0.325842 0.500000 0.179530
O O20 0.500000 0.353953 0.000000
O O21 0.922033 0.000000 0.263312
#
# Coordination Sequence:
#
# PCOD8066399 Si02
#       8
#     4   4   4   4   4   4   4   4
#     4  11  22  36  53  74 101 133 172 215 254 296
#     4  11  24  39  56  75  97 130 177 222 256 295
#     4   9  16  28  48  73 103 136 170 208 248 296
#     4  12  24  35  51  75 106 139 171 206 254 311
#     4  10  21  38  56  74 101 135 169 210 260 308
#     4   9  16  29  49  72 102 136 171 207 245 296
#     4   7  12  24  44  70  98 133 169 201 245 296
#     4  11  21  32  51  77 105 137 170 206 255 306
#
# _framework density 16.970383999999999
#
# number of rings (size 3 to 8) (size 9 to 14) (size 15 to 20)
#    0.000    2.000    2.500    4.125    0.000    4.250 
#    0.000    0.625    0.000    2.250    0.000    0.875 
#    0.000    7.000    0.000    0.000    0.000    0.000 
#
# Total GULP energy -396690.477129 kJ/mol
# GULP energy per Si atom -12396.577410 kJ/mol
# Density = 1.693176 g / cm^3
# Si number density = 16.970384 Si / 1000 Ang^3
#
#
#
# Elastic Constant Matrix: (Units=GPa)
#
#
# Indices 1 2 3 4 5 6 
#
# 1 147.1819 46.8248 57.0495 0.0000 -20.0893 0.0000
# 2 46.8248 51.2280 33.0450 0.0000 -9.2999 0.0000
# 3 57.0495 33.0450 61.3685 0.0000 2.2321 0.0000
# 4 0.0000 0.0000 0.0000 24.3017 0.0000 0.7005
# 5 -20.0893 -9.2999 2.2321 0.0000 19.9792 0.0000
# 6 0.0000 0.0000 0.0000 0.7005 0.0000 13.4146
#
#
#
# Elastic Compliance Matrix: (Units=1/GPa)
#
#
# Indices 1 2 3 4 5 6 
#
# 1 0.014543 -0.002298 -0.012827 0.000000 0.014986 0.000000
# 2 -0.002298 0.036216 -0.017967 0.000000 0.016554 0.000000
# 3 -0.012827 -0.017967 0.038825 0.000000 -0.025599 0.000000
# 4 0.000000 0.000000 0.000000 0.041211 0.000000 -0.002152
# 5 0.014986 0.016554 -0.025599 0.000000 0.075687 0.000000
# 6 0.000000 0.000000 0.000000 -0.002152 0.000000 0.074658
#
#
# Mechanical properties :
#
#
# Convention : Reuss Voigt Hill
#
# Bulk Modulus (GPa) = 42.73537 59.29079 51.01308
# Shear Modulus (GPa) = 14.07957 19.72969 16.90463
#
# Velocity S-wave (km/s) = 2.88350 3.41338 3.15957
# Velocity P-wave (km/s) = 6.02686 7.10975 6.59059
#
# Compressibility (1/GPa) = 0.02339982
#
# Stress axis : x y z
#
# Youngs Moduli (GPa) = 68.76219 27.61194 25.75657
#
# Poissons Ratio (x) = 0.06346 0.33038
# Poissons Ratio (y) = 0.15802 0.46277
# Poissons Ratio (z) = 0.88201 0.49610
#
# Static dielectric constant tensor:
#      x y z
#    x 3.549460 0.000000 -0.210950 
#    y 0.000000 3.081750 0.000000 
#    z -0.210950 0.000000 2.934100 
# 
# 
# High freq. dielectric constant tensor:
#      x y z
#    x 1.666510 0.000000 -0.015720 
#    y 0.000000 1.646040 0.000000 
#    z -0.015720 0.000000 1.619010 
# 
# From -- ./inp_files/52763.got.cif
#   From: 2010.06.25/outbox.cif.g09.slc.cpg/sg10_27_cif.got.tgz:52763.got - 2010.06.27 22:07:45.
