data_PCOD8066035
_publ_section_title
;
Structure prediction by ZEFSAII (Michael W. Deem and Ramdas Pophale) SiO2 
 PCOD8066035
Probable space group: P 2/M
;
_chemical_formula_sum "Si O2"
_cell_formula_units_Z 28
_cell_length_a 14.955586
_cell_length_b 8.722373
_cell_length_c 11.192747
_cell_angle_alpha 90.000000
_cell_angle_beta 112.702430
_cell_angle_gamma 90.000000
_cell_volume 1346.949698
_symmetry_space_group_name_H-M "P 2/M"
_symmetry_group_IT_number 10
_symmetry_cell_setting 'monoclinic'
loop_
_space_group_symop_operation_xyz
x,y,z
-x,y,-z
-x,-y,-z
x,-y,z
loop_
_atom_site_type_symbol
_atom_site_label
_atom_site_fract_x
_atom_site_fract_y
_atom_site_fract_z
Si Si1 0.051843 0.319838 0.404102
Si Si2 0.743280 0.822378 0.454729
Si Si3 0.619023 0.819088 0.936464
Si Si4 0.407948 0.818310 0.811030
Si Si5 0.390442 0.329109 0.441072
Si Si6 0.944636 0.818753 0.849779
Si Si7 0.246785 0.329818 0.165220
O O1 0.035642 0.500000 0.382919
O O2 0.163874 0.282868 0.480095
O O3 0.014971 0.247301 0.257341
O O4 0.000000 0.258614 0.500000
O O5 0.680225 0.754317 0.313074
O O6 0.673169 0.801651 0.530303
O O7 0.773994 0.000000 0.457027
O O8 0.516100 0.768686 0.821665
O O9 0.718705 0.745731 0.940056
O O10 0.632203 0.000000 0.934469
O O11 0.611429 0.758617 0.066844
O O12 0.404321 0.000000 0.805855
O O13 0.500000 0.270091 0.500000
O O14 0.383149 0.500000 0.496355
O O15 0.348373 0.337440 0.286859
O O16 0.833173 0.769594 0.806697
O O17 0.952519 0.000000 0.843032
O O18 0.000000 0.761801 0.000000
O O19 0.203721 0.500000 0.122438
#
# Coordination Sequence:
#
# PCOD8066035 Si02
#       7
#     4   4   4   4   4   4   4
#     4  11  25  45  67  92 125 165 208 260 325 391
#     4  11  21  35  59  88 118 153 202 254 304 363
#     4   9  17  34  57  80 117 162 206 249 296 358
#     4   8  17  33  54  83 117 159 203 251 303 354
#     4  10  21  36  55  83 122 163 198 239 298 363
#     4  11  25  45  69  95 122 158 208 266 324 382
#     4  11  22  36  57  86 122 158 196 244 302 363
#
# _framework density 20.787710000000001
#
# number of rings (size 3 to 8) (size 9 to 14) (size 15 to 20)
#    0.000    1.857    1.429    3.429    0.000    4.286 
#    0.000    7.857    0.000    0.000    0.000    0.000 
#    0.000    0.000    0.000    0.000    0.000    0.000 
#
# Total GULP energy -346886.081164 kJ/mol
# GULP energy per Si atom -12388.788613 kJ/mol
# Density = 2.074040 g / cm^3
# Si number density = 20.787710 Si / 1000 Ang^3
#
#
#
# Elastic Constant Matrix: (Units=GPa)
#
#
# Indices 1 2 3 4 5 6 
#
# 1 105.3098 22.8095 44.0634 0.0000 -14.1991 0.0000
# 2 22.8095 52.7796 31.8574 0.0000 -5.9138 0.0000
# 3 44.0634 31.8574 112.1798 0.0000 -4.5364 0.0000
# 4 0.0000 0.0000 0.0000 22.0091 0.0000 -8.9989
# 5 -14.1991 -5.9138 -4.5364 0.0000 36.6714 0.0000
# 6 0.0000 0.0000 0.0000 -8.9989 0.0000 12.3689
#
#
#
# Elastic Compliance Matrix: (Units=1/GPa)
#
#
# Indices 1 2 3 4 5 6 
#
# 1 0.012193 -0.002465 -0.003934 0.000000 0.003837 0.000000
# 2 -0.002465 0.023675 -0.005668 0.000000 0.002162 0.000000
# 3 -0.003934 -0.005668 0.012031 0.000000 -0.000949 0.000000
# 4 0.000000 0.000000 0.000000 0.064675 0.000000 0.047054
# 5 0.003837 0.002162 -0.000949 0.000000 0.028986 0.000000
# 6 0.000000 0.000000 0.000000 0.047054 0.000000 0.115082
#
#
# Mechanical properties :
#
#
# Convention : Reuss Voigt Hill
#
# Bulk Modulus (GPa) = 42.07791 51.96997 47.02394
# Shear Modulus (GPa) = 17.31919 25.64580 21.48249
#
# Velocity S-wave (km/s) = 2.88956 3.51622 3.21818
# Velocity P-wave (km/s) = 5.60521 6.44513 6.03979
#
# Compressibility (1/GPa) = 0.02376544
#
# Stress axis : x y z
#
# Youngs Moduli (GPa) = 82.01314 42.23818 83.12009
#
# Poissons Ratio (x) = 0.10411 0.32701
# Poissons Ratio (y) = 0.20215 0.47111
# Poissons Ratio (z) = 0.32266 0.23940
#
# Static dielectric constant tensor:
#      x y z
#    x 3.907850 0.000000 0.129220 
#    y 0.000000 3.608380 0.000000 
#    z 0.129220 0.000000 4.431920 
# 
# 
# High freq. dielectric constant tensor:
#      x y z
#    x 1.809710 0.000000 -0.000790 
#    y 0.000000 1.797790 0.000000 
#    z -0.000790 0.000000 1.819530 
# 
# From -- ./inp_files/49333.got.cif
#   From: 2010.06.25/outbox.cif.g09.slc.cpg/sg10_25_cif.got.tgz:49333.got - 2010.06.27 22:07:45.
