data_PCOD8066783
_publ_section_title
;
Structure prediction by ZEFSAII (Michael W. Deem and Ramdas Pophale) SiO2 
 PCOD8066783
Probable space group: P 2/M
;
_chemical_formula_sum "Si O2"
_cell_formula_units_Z 20
_cell_length_a 9.589329
_cell_length_b 7.309460
_cell_length_c 21.482256
_cell_angle_alpha 90.000000
_cell_angle_beta 38.875311
_cell_angle_gamma 90.000000
_cell_volume 945.051486
_symmetry_space_group_name_H-M "P 2/M"
_symmetry_group_IT_number 10
_symmetry_cell_setting 'monoclinic'
loop_
_space_group_symop_operation_xyz
x,y,z
-x,y,-z
-x,-y,-z
x,-y,z
loop_
_atom_site_type_symbol
_atom_site_label
_atom_site_fract_x
_atom_site_fract_y
_atom_site_fract_z
Si Si1 0.978329 0.000000 0.404783
Si Si2 0.366099 0.000000 0.364282
Si Si3 0.083180 0.283730 0.035112
Si Si4 0.987346 0.285480 0.297053
Si Si5 0.550094 0.283935 0.915392
Si Si6 0.739900 0.714214 0.257578
O O1 0.226690 0.000000 0.348132
O O2 0.930140 0.179518 0.380029
O O3 0.800172 0.000000 0.520744
O O4 0.516870 0.181001 0.316059
O O5 0.062312 0.500000 0.041348
O O6 0.940874 0.214724 0.143616
O O7 0.000000 0.194662 0.000000
O O8 0.340043 0.225379 0.947345
O O9 0.995085 0.500000 0.310067
O O10 0.224885 0.205879 0.192068
O O11 0.807080 0.244712 0.305707
O O12 0.581210 0.500000 0.911079
O O13 0.500000 0.198289 0.000000
O O14 0.693811 0.500000 0.263637
#
# Coordination Sequence:
#
# PCOD8066783 Si02
#       6
#     2   2   4   4   4   4
#     4  11  27  47  63  87 119 157 206 259 318 369
#     4  11  27  47  63  85 123 158 198 264 320 365
#     4   9  17  29  52  89 128 164 197 234 290 355
#     4  10  21  39  67  96 122 160 207 249 298 362
#     4   9  15  29  54  87 126 161 194 237 288 350
#     4  10  21  40  66  95 124 160 205 250 301 361
#
# _framework density 21.162869000000001
#
# number of rings (size 3 to 8) (size 9 to 14) (size 15 to 20)
#    0.000    2.200    2.000    0.600    2.800    3.200 
#    0.000    6.000    0.000    0.000    0.000    0.000 
#    0.000    0.000    0.000    0.000    0.000    0.000 
#
# Total GULP energy -247927.189779 kJ/mol
# GULP energy per Si atom -12396.359489 kJ/mol
# Density = 2.111470 g / cm^3
# Si number density = 21.162869 Si / 1000 Ang^3
#
#
#
# Elastic Constant Matrix: (Units=GPa)
#
#
# Indices 1 2 3 4 5 6 
#
# 1 130.5693 37.1330 20.3208 0.0000 4.8825 0.0000
# 2 37.1330 85.5446 22.5962 0.0000 1.2294 0.0000
# 3 20.3208 22.5962 60.4979 0.0000 -0.2718 0.0000
# 4 0.0000 0.0000 0.0000 33.7150 0.0000 4.4470
# 5 4.8825 1.2294 -0.2718 0.0000 39.0099 0.0000
# 6 0.0000 0.0000 0.0000 4.4470 0.0000 24.4964
#
#
#
# Elastic Compliance Matrix: (Units=1/GPa)
#
#
# Indices 1 2 3 4 5 6 
#
# 1 0.008936 -0.003406 -0.001734 0.000000 -0.001023 0.000000
# 2 -0.003406 0.014275 -0.004188 0.000000 -0.000053 0.000000
# 3 -0.001734 -0.004188 0.018678 0.000000 0.000479 0.000000
# 4 0.000000 0.000000 0.000000 0.030388 0.000000 -0.005517
# 5 -0.001023 -0.000053 0.000479 0.000000 0.025768 0.000000
# 6 0.000000 0.000000 0.000000 -0.005517 0.000000 0.041824
#
#
# Mechanical properties :
#
#
# Convention : Reuss Voigt Hill
#
# Bulk Modulus (GPa) = 43.04163 48.52352 45.78257
# Shear Modulus (GPa) = 30.07180 32.54837 31.31009
#
# Velocity S-wave (km/s) = 3.77366 3.92598 3.85058
# Velocity P-wave (km/s) = 6.27454 6.59769 6.43814
#
# Compressibility (1/GPa) = 0.02323332
#
# Stress axis : x y z
#
# Youngs Moduli (GPa) = 111.91296 70.05107 53.53809
#
# Poissons Ratio (x) = 0.23860 0.09283
# Poissons Ratio (y) = 0.38118 0.22422
# Poissons Ratio (z) = 0.19404 0.29338
#
# Static dielectric constant tensor:
#      x y z
#    x 4.065130 0.000000 0.012500 
#    y 0.000000 3.557490 0.000000 
#    z 0.012500 0.000000 3.767800 
# 
# 
# High freq. dielectric constant tensor:
#      x y z
#    x 1.839500 0.000000 -0.001120 
#    y 0.000000 1.819820 0.000000 
#    z -0.001120 0.000000 1.818590 
# 
# From -- ./inp_files/81893.got.cif
#   From: 2010.06.25/outbox.cif.g09.slc.cpg/sg10_41_cif.got.tgz:81893.got - 2010.06.27 22:07:45.
