data_PCOD8066191
_publ_section_title
;
Structure prediction by ZEFSAII (Michael W. Deem and Ramdas Pophale) SiO2 
 PCOD8066191
Probable space group: P 2/M
;
_chemical_formula_sum "Si O2"
_cell_formula_units_Z 28
_cell_length_a 22.788384
_cell_length_b 10.275955
_cell_length_c 19.506653
_cell_angle_alpha 90.000000
_cell_angle_beta 161.650816
_cell_angle_gamma 90.000000
_cell_volume 1438.014757
_symmetry_space_group_name_H-M "P 2/M"
_symmetry_group_IT_number 10
_symmetry_cell_setting 'monoclinic'
loop_
_space_group_symop_operation_xyz
x,y,z
-x,y,-z
-x,-y,-z
x,-y,z
loop_
_atom_site_type_symbol
_atom_site_label
_atom_site_fract_x
_atom_site_fract_y
_atom_site_fract_z
Si Si1 0.282195 0.147372 0.762713
Si Si2 0.100932 0.849734 0.910278
Si Si3 0.292426 0.851424 0.469089
Si Si4 0.221695 0.354610 0.805476
Si Si5 0.592269 0.644296 0.296271
Si Si6 0.068437 0.269843 0.409364
Si Si7 0.463079 0.848616 0.384723
O O1 0.181666 0.248687 0.702366
O O2 0.183300 0.160339 0.579010
O O3 0.253934 0.000000 0.758270
O O4 0.500000 0.181832 0.000000
O O5 0.927528 0.825178 0.769023
O O6 0.065384 0.792647 0.795890
O O7 0.141049 0.000000 0.942701
O O8 0.282498 0.784752 0.147238
O O9 0.404668 0.753741 0.642069
O O10 0.354198 0.826907 0.459412
O O11 0.339833 0.000000 0.544204
O O12 0.224055 0.500000 0.775762
O O13 0.061160 0.353459 0.684589
O O14 0.420312 0.319496 0.057610
O O15 0.566199 0.500000 0.299796
O O16 0.780561 0.639530 0.460405
O O17 0.500000 0.782940 0.500000
O O18 0.419673 0.000000 0.348175
#
# Coordination Sequence:
#
# PCOD8066191 Si02
#       7
#     4   4   4   4   4   4   4
#     4  11  24  41  59  82 111 147 189 233 282 334
#     4   9  18  31  50  78 109 140 178 222 271 322
#     4   9  18  32  52  79 109 143 181 221 267 320
#     4  11  24  39  58  83 110 146 189 232 282 335
#     4  10  21  37  56  81 112 146 182 230 276 323
#     4  11  21  37  59  80 107 145 185 232 275 331
#     4   9  17  30  50  79 113 143 174 217 268 321
#
# _framework density 19.471288999999999
#
# number of rings (size 3 to 8) (size 9 to 14) (size 15 to 20)
#    0.000    2.000    1.429    2.143    0.000    5.429 
#    0.000    2.857    0.000    0.429    0.000    4.000 
#    0.000    0.000    0.000    0.000    0.000    0.000 
#
# Total GULP energy -347155.801956 kJ/mol
# GULP energy per Si atom -12398.421498 kJ/mol
# Density = 1.942697 g / cm^3
# Si number density = 19.471289 Si / 1000 Ang^3
#
#
#
# Elastic Constant Matrix: (Units=GPa)
#
#
# Indices 1 2 3 4 5 6 
#
# 1 116.1632 41.5942 43.1981 0.0000 -9.5472 0.0000
# 2 41.5942 80.9025 19.3576 0.0000 -7.5268 0.0000
# 3 43.1981 19.3576 106.1595 0.0000 -15.9860 0.0000
# 4 0.0000 0.0000 0.0000 11.1209 0.0000 4.2151
# 5 -9.5472 -7.5268 -15.9860 0.0000 29.8530 0.0000
# 6 0.0000 0.0000 0.0000 4.2151 0.0000 14.6932
#
#
#
# Elastic Compliance Matrix: (Units=1/GPa)
#
#
# Indices 1 2 3 4 5 6 
#
# 1 0.011926 -0.005170 -0.003842 0.000000 0.000453 0.000000
# 2 -0.005170 0.015296 -0.000385 0.000000 0.001997 0.000000
# 3 -0.003842 -0.000385 0.011806 0.000000 0.004996 0.000000
# 4 0.000000 0.000000 0.000000 0.100891 0.000000 -0.028943
# 5 0.000453 0.001997 0.004996 0.000000 0.036821 0.000000
# 6 0.000000 0.000000 0.000000 -0.028943 0.000000 0.076362
#
#
# Mechanical properties :
#
#
# Convention : Reuss Voigt Hill
#
# Bulk Modulus (GPa) = 49.41993 56.83612 53.12802
# Shear Modulus (GPa) = 17.94434 24.40510 21.17472
#
# Velocity S-wave (km/s) = 3.03905 3.54416 3.30128
# Velocity P-wave (km/s) = 6.14414 6.78242 6.47115
#
# Compressibility (1/GPa) = 0.02023475
#
# Stress axis : x y z
#
# Youngs Moduli (GPa) = 83.85274 65.37476 84.70564
#
# Poissons Ratio (x) = 0.33798 0.32542
# Poissons Ratio (y) = 0.43351 0.03259
# Poissons Ratio (z) = 0.32215 0.02515
#
# Static dielectric constant tensor:
#      x y z
#    x 3.507550 0.000000 0.006060 
#    y 0.000000 3.266560 0.000000 
#    z 0.006060 0.000000 3.797160 
# 
# 
# High freq. dielectric constant tensor:
#      x y z
#    x 1.752340 0.000000 0.012510 
#    y 0.000000 1.729580 0.000000 
#    z 0.012510 0.000000 1.770720 
# 
# From -- ./inp_files/79581.got.cif
#   From: 2010.06.25/outbox.cif.g09.slc.cpg/sg10_40_cif.got.tgz:79581.got - 2010.06.27 22:07:45.
