data_PCOD8066453
_publ_section_title
;
Structure prediction by ZEFSAII (Michael W. Deem and Ramdas Pophale) SiO2 
 PCOD8066453
Probable space group: P 2/M
;
_chemical_formula_sum "Si O2"
_cell_formula_units_Z 32
_cell_length_a 12.787539
_cell_length_b 9.158136
_cell_length_c 14.421469
_cell_angle_alpha 90.000000
_cell_angle_beta 100.592998
_cell_angle_gamma 90.000000
_cell_volume 1660.116032
_symmetry_space_group_name_H-M "P 2/M"
_symmetry_group_IT_number 10
_symmetry_cell_setting 'monoclinic'
loop_
_space_group_symop_operation_xyz
x,y,z
-x,y,-z
-x,-y,-z
x,-y,z
loop_
_atom_site_type_symbol
_atom_site_label
_atom_site_fract_x
_atom_site_fract_y
_atom_site_fract_z
Si Si1 0.777339 0.337915 0.642035
Si Si2 0.537938 0.328552 0.607752
Si Si3 0.502011 0.829376 0.220073
Si Si4 0.040669 0.172426 0.408739
Si Si5 0.318428 0.674225 0.076672
Si Si6 0.889328 0.662160 0.856509
Si Si7 0.693610 0.169205 0.113668
Si Si8 0.069297 0.171440 0.796699
O O1 0.775060 0.500000 0.597762
O O2 0.659475 0.277788 0.634871
O O3 0.840482 0.232405 0.583477
O O4 0.830848 0.340454 0.749802
O O5 0.500000 0.283968 0.500000
O O6 0.521962 0.500000 0.624912
O O7 0.474209 0.235909 0.674193
O O8 0.402640 0.744975 0.159903
O O9 0.609328 0.802179 0.180444
O O10 0.474096 0.000000 0.221054
O O11 0.000000 0.235008 0.500000
O O12 0.965654 0.226380 0.311576
O O13 0.046217 0.000000 0.411876
O O14 0.331051 0.500000 0.084235
O O15 0.197471 0.721844 0.083830
O O16 0.342133 0.732177 0.978114
O O17 0.926732 0.500000 0.891110
O O18 0.995158 0.760567 0.865885
O O19 0.809233 0.219229 0.168631
O O20 0.694217 0.000000 0.082968
O O21 0.054292 0.000000 0.801952
#
# Coordination Sequence:
#
# PCOD8066453 Si02
#       8
#     4   4   4   4   4   4   4   4
#     4   9  17  33  53  75 106 141 178 225 277 327
#     4  10  21  38  59  84 115 150 189 236 288 338
#     4  11  23  39  60  84 116 153 192 238 285 341
#     4   9  18  32  53  80 106 140 186 230 274 332
#     4  11  22  38  61  86 112 148 193 239 288 343
#     4   9  18  34  56  80 108 140 180 233 281 330
#     4  10  23  40  55  80 118 155 189 235 290 342
#     4   9  19  36  55  77 111 150 185 227 285 341
#
# _framework density 19.275759999999998
#
# number of rings (size 3 to 8) (size 9 to 14) (size 15 to 20)
#    0.000    2.250    1.250    1.125    0.000    6.500 
#    0.000    3.750    0.000    0.000    0.000    0.000 
#    0.000    0.000    0.000    0.000    0.000    0.000 
#
# Total GULP energy -396798.348317 kJ/mol
# GULP energy per Si atom -12399.948385 kJ/mol
# Density = 1.923189 g / cm^3
# Si number density = 19.275760 Si / 1000 Ang^3
#
#
#
# Elastic Constant Matrix: (Units=GPa)
#
#
# Indices 1 2 3 4 5 6 
#
# 1 110.4090 45.4735 48.8839 0.0000 -10.9025 0.0000
# 2 45.4735 61.1292 49.6662 0.0000 -7.1611 0.0000
# 3 48.8839 49.6662 101.7600 0.0000 -18.8843 0.0000
# 4 0.0000 0.0000 0.0000 29.1194 0.0000 -5.6263
# 5 -10.9025 -7.1611 -18.8843 0.0000 28.3252 0.0000
# 6 0.0000 0.0000 0.0000 -5.6263 0.0000 23.1075
#
#
#
# Elastic Compliance Matrix: (Units=1/GPa)
#
#
# Indices 1 2 3 4 5 6 
#
# 1 0.013534 -0.008023 -0.002277 0.000000 0.001663 0.000000
# 2 -0.008023 0.031990 -0.012361 0.000000 -0.003241 0.000000
# 3 -0.002277 -0.012361 0.018500 0.000000 0.008333 0.000000
# 4 0.000000 0.000000 0.000000 0.036037 0.000000 0.008774
# 5 0.001663 -0.003241 0.008333 0.000000 0.040680 0.000000
# 6 0.000000 0.000000 0.000000 0.008774 0.000000 0.045412
#
#
# Mechanical properties :
#
#
# Convention : Reuss Voigt Hill
#
# Bulk Modulus (GPa) = 53.46891 62.37172 57.92032
# Shear Modulus (GPa) = 21.03401 24.72872 22.88136
#
# Velocity S-wave (km/s) = 3.30694 3.58563 3.44910
# Velocity P-wave (km/s) = 6.51001 7.04061 6.78050
#
# Compressibility (1/GPa) = 0.01870246
#
# Stress axis : x y z
#
# Youngs Moduli (GPa) = 73.88803 31.25947 54.05284
#
# Poissons Ratio (x) = 0.25079 0.12309
# Poissons Ratio (y) = 0.59279 0.66815
# Poissons Ratio (z) = 0.16826 0.38640
#
# Static dielectric constant tensor:
#      x y z
#    x 3.696960 0.000000 -0.107300 
#    y 0.000000 3.527610 0.000000 
#    z -0.107300 0.000000 3.607000 
# 
# 
# High freq. dielectric constant tensor:
#      x y z
#    x 1.755490 0.000000 -0.007110 
#    y 0.000000 1.742040 0.000000 
#    z -0.007110 0.000000 1.748330 
# 
# From -- ./inp_files/63757.got.cif
#   From: 2010.06.25/outbox.cif.g09.slc.cpg/sg10_32_cif.got.tgz:63757.got - 2010.06.27 22:07:45.
