data_PCOD8066924
_publ_section_title
;
Structure prediction by ZEFSAII (Michael W. Deem and Ramdas Pophale) SiO2 
 PCOD8066924
Probable space group: P 2/M
;
_chemical_formula_sum "Si O2"
_cell_formula_units_Z 24
_cell_length_a 10.098932
_cell_length_b 16.813979
_cell_length_c 8.499439
_cell_angle_alpha 90.000000
_cell_angle_beta 119.959774
_cell_angle_gamma 90.000000
_cell_volume 1250.382070
_symmetry_space_group_name_H-M "P 2/M"
_symmetry_group_IT_number 10
_symmetry_cell_setting 'monoclinic'
loop_
_space_group_symop_operation_xyz
x,y,z
-x,y,-z
-x,-y,-z
x,-y,z
loop_
_atom_site_type_symbol
_atom_site_label
_atom_site_fract_x
_atom_site_fract_y
_atom_site_fract_z
Si Si1 0.182861 0.231836 0.932845
Si Si2 0.173628 0.743243 0.281798
Si Si3 0.373343 0.333754 0.816251
Si Si4 0.387123 0.087311 0.075702
Si Si5 0.331896 0.589593 0.472822
Si Si6 0.432232 0.799325 0.620512
O O1 0.236869 0.300347 0.844205
O O2 0.001778 0.233141 0.813998
O O3 0.239741 0.243701 0.145898
O O4 0.250201 0.144445 0.934525
O O5 0.205333 0.649822 0.330539
O O6 0.252171 0.799644 0.463242
O O7 0.325036 0.397927 0.657855
O O8 0.457669 0.258947 0.782870
O O9 0.500000 0.375737 0.000000
O O10 0.486818 0.118060 0.285702
O O11 0.320897 0.000000 0.081880
O O12 0.500000 0.077856 0.000000
O O13 0.500000 0.605109 0.500000
O O14 0.278828 0.500000 0.403605
O O15 0.500000 0.761750 0.500000
#
# Coordination Sequence:
#
# PCOD8066924 Si02
#       6
#     4   4   4   4   4   4
#     4  11  20  39  57  86 112 158 197 233 278 357
#     4  10  22  36  61  84 114 154 199 231 287 342
#     4  11  18  33  60  84 111 153 198 232 276 346
#     4  11  22  38  60  87 117 149 191 248 294 328
#     4  10  22  38  58  89 121 146 187 246 292 329
#     4  11  18  34  57  84 109 148 195 239 270 345
#
# _framework density 19.194133999999998
#
# number of rings (size 3 to 8) (size 9 to 14) (size 15 to 20)
#    0.000    1.333    5.000    3.000    0.000    3.333 
#    0.000    6.667    0.000    2.000    0.000    0.000 
#    0.000    0.000    0.000    0.000    0.000    0.000 
#
# Total GULP energy -297334.381782 kJ/mol
# GULP energy per Si atom -12388.932574 kJ/mol
# Density = 1.915045 g / cm^3
# Si number density = 19.194134 Si / 1000 Ang^3
#
#
#
# Elastic Constant Matrix: (Units=GPa)
#
#
# Indices 1 2 3 4 5 6 
#
# 1 76.8392 36.5755 21.1802 0.0000 -3.7534 0.0000
# 2 36.5755 112.7303 26.9816 0.0000 19.2542 0.0000
# 3 21.1802 26.9816 79.9163 0.0000 1.4685 0.0000
# 4 0.0000 0.0000 0.0000 18.7584 0.0000 -3.3194
# 5 -3.7534 19.2542 1.4685 0.0000 31.6118 0.0000
# 6 0.0000 0.0000 0.0000 -3.3194 0.0000 17.7514
#
#
#
# Elastic Compliance Matrix: (Units=1/GPa)
#
#
# Indices 1 2 3 4 5 6 
#
# 1 0.016753 -0.005776 -0.002593 0.000000 0.005628 0.000000
# 2 -0.005776 0.012805 -0.002639 0.000000 -0.008362 0.000000
# 3 -0.002593 -0.002639 0.014079 0.000000 0.000645 0.000000
# 4 0.000000 0.000000 0.000000 0.055134 0.000000 0.010310
# 5 0.005628 -0.008362 0.000645 0.000000 0.037365 0.000000
# 6 0.000000 0.000000 0.000000 0.010310 0.000000 0.058261
#
#
# Mechanical properties :
#
#
# Convention : Reuss Voigt Hill
#
# Bulk Modulus (GPa) = 46.25117 48.77340 47.51228
# Shear Modulus (GPa) = 22.35924 25.94092 24.15008
#
# Velocity S-wave (km/s) = 3.41676 3.68027 3.55096
# Velocity P-wave (km/s) = 6.30195 6.59734 6.45133
#
# Compressibility (1/GPa) = 0.02162107
#
# Stress axis : x y z
#
# Youngs Moduli (GPa) = 59.68939 78.09672 71.02566
#
# Poissons Ratio (x) = 0.45110 0.18420
# Poissons Ratio (y) = 0.34478 0.18741
# Poissons Ratio (z) = 0.15480 0.20607
#
# Static dielectric constant tensor:
#      x y z
#    x 3.450150 0.000000 -0.176360 
#    y 0.000000 3.485120 0.000000 
#    z -0.176360 0.000000 3.796410 
# 
# 
# High freq. dielectric constant tensor:
#      x y z
#    x 1.743160 0.000000 -0.011860 
#    y 0.000000 1.720170 0.000000 
#    z -0.011860 0.000000 1.759700 
# 
# From -- ./inp_files/25562.got.cif
#   From: 2010.06.25/outbox.cif.g09.slc.cpg/sg10_13_cif.got.tgz:25562.got - 2010.06.27 22:07:45.
