data_PCOD8066477
_publ_section_title
;
Structure prediction by ZEFSAII (Michael W. Deem and Ramdas Pophale) SiO2 
 PCOD8066477
Probable space group: P 2/M
;
_chemical_formula_sum "Si O2"
_cell_formula_units_Z 28
_cell_length_a 26.222679
_cell_length_b 8.754630
_cell_length_c 9.499421
_cell_angle_alpha 90.000000
_cell_angle_beta 140.565775
_cell_angle_gamma 90.000000
_cell_volume 1385.214403
_symmetry_space_group_name_H-M "P 2/M"
_symmetry_group_IT_number 10
_symmetry_cell_setting 'monoclinic'
loop_
_space_group_symop_operation_xyz
x,y,z
-x,y,-z
-x,-y,-z
x,-y,z
loop_
_atom_site_type_symbol
_atom_site_label
_atom_site_fract_x
_atom_site_fract_y
_atom_site_fract_z
Si Si1 0.990765 0.323714 0.141295
Si Si2 0.830319 0.828404 0.792414
Si Si3 0.721624 0.820698 0.305504
Si Si4 0.925199 0.179302 0.434625
Si Si5 0.244143 0.319686 0.921759
Si Si6 0.407011 0.676107 0.772418
Si Si7 0.676523 0.174630 0.655536
O O1 0.009333 0.500000 0.210308
O O2 0.054881 0.222854 0.362509
O O3 0.899673 0.285742 0.990715
O O4 0.000000 0.277242 0.000000
O O5 0.797068 0.784140 0.567485
O O6 0.760596 0.813711 0.756055
O O7 0.865354 0.000000 0.866421
O O8 0.734637 0.730133 0.190237
O O9 0.640338 0.768649 0.208854
O O10 0.715528 0.000000 0.260589
O O11 0.842655 0.258673 0.213241
O O12 0.000000 0.237950 0.500000
O O13 0.912232 0.000000 0.390366
O O14 0.244038 0.500000 0.931046
O O15 0.313414 0.254255 0.171571
O O16 0.380489 0.500000 0.722715
O O17 0.390159 0.739851 0.579911
O O18 0.500000 0.698298 0.000000
O O19 0.649466 0.000000 0.619213
#
# Coordination Sequence:
#
# PCOD8066477 Si02
#       7
#     4   4   4   4   4   4   4
#     4  11  23  35  50  76 107 141 185 237 290 340
#     4   9  19  35  55  78 104 141 188 235 282 336
#     4  10  21  38  61  87 117 155 196 236 284 345
#     4  11  24  40  57  78 109 151 197 243 292 347
#     4  12  24  38  58  85 118 152 192 244 297 346
#     4  10  21  39  64  94 125 153 185 230 283 337
#     4  10  21  38  60  85 114 150 192 232 277 340
#
# _framework density 20.213479
#
# number of rings (size 3 to 8) (size 9 to 14) (size 15 to 20)
#    0.000    1.571    0.000    6.000    0.000   12.571 
#    0.000    0.714    0.000    4.286    0.000    0.000 
#    0.000    0.000    0.000    0.000    0.000    0.000 
#
# Total GULP energy -347315.454455 kJ/mol
# GULP energy per Si atom -12404.123373 kJ/mol
# Density = 2.016747 g / cm^3
# Si number density = 20.213479 Si / 1000 Ang^3
#
#
#
# Elastic Constant Matrix: (Units=GPa)
#
#
# Indices 1 2 3 4 5 6 
#
# 1 38.7843 11.8203 19.7434 0.0000 -8.7237 0.0000
# 2 11.8203 84.1806 36.9982 0.0000 -1.3362 0.0000
# 3 19.7434 36.9982 109.7120 0.0000 -9.7865 0.0000
# 4 0.0000 0.0000 0.0000 25.2767 0.0000 1.8597
# 5 -8.7237 -1.3362 -9.7865 0.0000 33.3178 0.0000
# 6 0.0000 0.0000 0.0000 1.8597 0.0000 30.9898
#
#
#
# Elastic Compliance Matrix: (Units=1/GPa)
#
#
# Indices 1 2 3 4 5 6 
#
# 1 0.030029 -0.002342 -0.004026 0.000000 0.006586 0.000000
# 2 -0.002342 0.014152 -0.004472 0.000000 -0.001359 0.000000
# 3 -0.004026 -0.004472 0.011540 0.000000 0.002156 0.000000
# 4 0.000000 0.000000 0.000000 0.039738 0.000000 -0.002385
# 5 0.006586 -0.001359 0.002156 0.000000 0.032317 0.000000
# 6 0.000000 0.000000 0.000000 -0.002385 0.000000 0.032412
#
#
# Mechanical properties :
#
#
# Convention : Reuss Voigt Hill
#
# Bulk Modulus (GPa) = 29.37849 41.08895 35.23372
# Shear Modulus (GPa) = 25.87787 28.85787 27.36787
#
# Velocity S-wave (km/s) = 3.58191 3.78253 3.68359
# Velocity P-wave (km/s) = 5.62783 6.28079 5.96325
#
# Compressibility (1/GPa) = 0.03403850
#
# Stress axis : x y z
#
# Youngs Moduli (GPa) = 33.30165 70.66069 86.65608
#
# Poissons Ratio (x) = 0.16551 0.34892
# Poissons Ratio (y) = 0.07800 0.38755
# Poissons Ratio (z) = 0.13409 0.31601
#
# Static dielectric constant tensor:
#      x y z
#    x 3.545750 0.000000 -0.191880 
#    y 0.000000 3.742720 0.000000 
#    z -0.191880 0.000000 3.831160 
# 
# 
# High freq. dielectric constant tensor:
#      x y z
#    x 1.775390 0.000000 -0.014600 
#    y 0.000000 1.798550 0.000000 
#    z -0.014600 0.000000 1.796570 
# 
# From -- ./inp_files/37282.got.cif
#   From: 2010.06.25/outbox.cif.g09.slc.cpg/sg10_19_cif.got.tgz:37282.got - 2010.06.27 22:07:45.
