data_PCOD8066517
_publ_section_title
;
Structure prediction by ZEFSAII (Michael W. Deem and Ramdas Pophale) SiO2 
 PCOD8066517
Probable space group: P 2/M
;
_chemical_formula_sum "Si O2"
_cell_formula_units_Z 24
_cell_length_a 14.510341
_cell_length_b 7.456826
_cell_length_c 17.159298
_cell_angle_alpha 90.000000
_cell_angle_beta 37.251657
_cell_angle_gamma 90.000000
_cell_volume 1123.864677
_symmetry_space_group_name_H-M "P 2/M"
_symmetry_group_IT_number 10
_symmetry_cell_setting 'monoclinic'
loop_
_space_group_symop_operation_xyz
x,y,z
-x,y,-z
-x,-y,-z
x,-y,z
loop_
_atom_site_type_symbol
_atom_site_label
_atom_site_fract_x
_atom_site_fract_y
_atom_site_fract_z
Si Si1 0.296263 0.288512 0.990796
Si Si2 0.661852 0.000000 0.294798
Si Si3 0.179265 0.710958 0.525877
Si Si4 0.831294 0.709006 0.087120
Si Si5 0.695632 0.000000 0.448326
Si Si6 0.362107 0.713236 0.251445
Si Si7 0.169035 0.288551 0.237705
O O1 0.309049 0.500000 0.990757
O O2 0.189869 0.237748 0.989226
O O3 0.466204 0.210117 0.864081
O O4 0.221511 0.205865 0.119262
O O5 0.712314 0.819557 0.217699
O O6 0.734963 0.000000 0.330983
O O7 0.482284 0.000000 0.417230
O O8 0.199813 0.500000 0.529136
O O9 0.277063 0.778232 0.386475
O O10 0.004454 0.761297 0.626908
O O11 0.233394 0.818792 0.564734
O O12 0.796421 0.500000 0.124732
O O13 0.000000 0.761842 0.000000
O O14 0.359602 0.500000 0.250778
O O15 0.274352 0.791878 0.235267
O O16 0.189951 0.500000 0.220594
#
# Coordination Sequence:
#
# PCOD8066517 Si02
#       7
#     4   2   4   4   2   4   4
#     4   9  17  30  53  86 120 154 194 244 300 355
#     4  11  25  44  62  87 121 158 203 254 308 359
#     4  10  21  38  61  85 118 159 200 247 301 354
#     4  10  22  40  65  93 122 156 200 251 306 366
#     4  11  26  42  61  89 119 158 208 253 299 364
#     4   9  16  30  54  84 119 159 199 239 291 357
#     4   9  17  30  53  86 121 156 197 243 293 353
#
# _framework density 21.354883000000001
#
# number of rings (size 3 to 8) (size 9 to 14) (size 15 to 20)
#    0.000    2.333    0.000    2.250    2.333    6.667 
#    0.000    3.333    0.000    0.000    0.000    4.667 
#    0.000    0.000    0.000    0.000    0.000    0.000 
#
# Total GULP energy -297621.235289 kJ/mol
# GULP energy per Si atom -12400.884804 kJ/mol
# Density = 2.130628 g / cm^3
# Si number density = 21.354883 Si / 1000 Ang^3
#
#
#
# Elastic Constant Matrix: (Units=GPa)
#
#
# Indices 1 2 3 4 5 6 
#
# 1 145.8753 21.1453 33.2605 0.0000 7.6703 0.0000
# 2 21.1453 59.0937 13.6436 0.0000 6.1269 0.0000
# 3 33.2605 13.6436 106.1533 0.0000 4.2600 0.0000
# 4 0.0000 0.0000 0.0000 8.5151 0.0000 -4.5161
# 5 7.6703 6.1269 4.2600 0.0000 39.2250 0.0000
# 6 0.0000 0.0000 0.0000 -4.5161 0.0000 -7.8924
#
#
#
# Elastic Compliance Matrix: (Units=1/GPa)
#
#
# Indices 1 2 3 4 5 6 
#
# 1 0.007697 -0.002173 -0.002095 0.000000 -0.000938 0.000000
# 2 -0.002173 0.018299 -0.001580 0.000000 -0.002262 0.000000
# 3 -0.002095 -0.001580 0.010298 0.000000 -0.000462 0.000000
# 4 0.000000 0.000000 0.000000 0.090097 0.000000 -0.051554
# 5 -0.000938 -0.002262 -0.000462 0.000000 0.026081 0.000000
# 6 0.000000 0.000000 0.000000 -0.051554 0.000000 -0.097204
#
#
# Mechanical properties :
#
#
# Convention : Reuss Voigt Hill
#
# Bulk Modulus (GPa) = 40.65344 49.69121 45.17232
# Shear Modulus (GPa) = 66.52113 24.17438 45.34776
#
# Velocity S-wave (km/s) = 5.58730 3.36822 4.61318
# Velocity P-wave (km/s) = 7.79117 6.20051 7.04090
#
# Compressibility (1/GPa) = 0.02459817
#
# Stress axis : x y z
#
# Youngs Moduli (GPa) = 129.91825 54.64687 97.10325
#
# Poissons Ratio (x) = 0.11877 0.20340
# Poissons Ratio (y) = 0.28236 0.15345
# Poissons Ratio (z) = 0.27214 0.08636
#
# Static dielectric constant tensor:
#      x y z
#    x 4.085030 0.000000 0.050430 
#    y 0.000000 3.466710 0.000000 
#    z 0.050430 0.000000 4.015900 
# 
# 
# High freq. dielectric constant tensor:
#      x y z
#    x 1.849640 0.000000 -0.000380 
#    y 0.000000 1.817310 0.000000 
#    z -0.000380 0.000000 1.844220 
# 
# From -- ./inp_files/66384.got.cif
#   From: 2010.06.25/outbox.cif.g09.slc.cpg/sg10_34_cif.got.tgz:66384.got - 2010.06.27 22:07:45.
