data_PCOD8066174
_publ_section_title
;
Structure prediction by ZEFSAII (Michael W. Deem and Ramdas Pophale) SiO2 
 PCOD8066174
Probable space group: P 2/M
;
_chemical_formula_sum "Si O2"
_cell_formula_units_Z 28
_cell_length_a 8.850996
_cell_length_b 14.168678
_cell_length_c 18.481197
_cell_angle_alpha 90.000000
_cell_angle_beta 135.920856
_cell_angle_gamma 90.000000
_cell_volume 1612.290157
_symmetry_space_group_name_H-M "P 2/M"
_symmetry_group_IT_number 10
_symmetry_cell_setting 'monoclinic'
loop_
_space_group_symop_operation_xyz
x,y,z
-x,y,-z
-x,-y,-z
x,-y,z
loop_
_atom_site_type_symbol
_atom_site_label
_atom_site_fract_x
_atom_site_fract_y
_atom_site_fract_z
Si Si1 0.995077 0.392988 0.380044
Si Si2 0.590464 0.107919 0.108496
Si Si3 0.017570 0.784204 0.297131
Si Si4 0.235023 0.107919 0.108496
Si Si5 0.373825 0.215796 0.297131
Si Si6 0.645056 0.392988 0.380044
Si Si7 0.679544 0.893934 0.500000
O O1 0.971370 0.500000 0.343673
O O2 0.991564 0.325214 0.309473
O O3 0.222336 0.380987 0.500001
O O4 0.797541 0.366907 0.365027
O O5 0.400497 0.121195 0.100332
O O6 0.786684 0.175195 0.196403
O O7 0.674101 0.000000 0.134640
O O8 0.500000 0.139613 0.000000
O O9 0.175994 0.794454 0.283996
O O10 0.107055 0.840857 0.397639
O O11 0.302526 0.175194 0.196403
O O12 0.229818 0.000000 0.134639
O O13 0.000000 0.139614 0.000000
O O14 0.436854 0.325214 0.309472
O O15 0.585865 0.159143 0.397640
O O16 0.559650 0.500000 0.343672
O O17 0.500000 0.894707 0.500000
O O18 0.744806 0.000000 0.500000
#
# Coordination Sequence:
#
# PCOD8066174 Si02
#       7
#     4   4   4   4   4   4   4
#     4   9  18  33  52  74 104 141 178 218 263 312
#     4  10  21  37  56  78 104 138 180 222 262 309
#     4  11  20  32  52  78 108 141 175 217 264 312
#     4  10  21  37  56  78 104 138 180 222 262 309
#     4  11  20  32  52  78 108 141 175 217 264 312
#     4   9  18  33  52  74 104 141 178 218 263 312
#     4   9  18  30  44  69 106 142 171 203 252 309
#
# _framework density 17.366602
#
# number of rings (size 3 to 8) (size 9 to 14) (size 15 to 20)
#    0.000    2.143    1.429    3.429    0.000    3.429 
#    0.000    1.429    0.000    4.286    0.000    0.000 
#    0.000    0.000    0.000    0.000    0.000    0.000 
#
# Total GULP energy -347285.470511 kJ/mol
# GULP energy per Si atom -12403.052518 kJ/mol
# Density = 1.732707 g / cm^3
# Si number density = 17.366602 Si / 1000 Ang^3
#
#
#
# Elastic Constant Matrix: (Units=GPa)
#
#
# Indices 1 2 3 4 5 6 
#
# 1 58.5165 34.2255 41.3996 0.0000 -0.4298 0.0000
# 2 34.2255 109.3908 61.8457 0.0000 -0.3242 0.0000
# 3 41.3996 61.8457 119.6948 0.0000 -0.2884 0.0000
# 4 0.0000 0.0000 0.0000 18.1045 0.0000 0.1328
# 5 -0.4298 -0.3242 -0.2884 0.0000 26.8704 0.0000
# 6 0.0000 0.0000 0.0000 0.1328 0.0000 29.4287
#
#
#
# Elastic Compliance Matrix: (Units=1/GPa)
#
#
# Indices 1 2 3 4 5 6 
#
# 1 0.023772 -0.003939 -0.006186 0.000000 0.000266 0.000000
# 2 -0.003939 0.013567 -0.005647 0.000000 0.000040 0.000000
# 3 -0.006186 -0.005647 0.013412 0.000000 -0.000023 0.000000
# 4 0.000000 0.000000 0.000000 0.055237 0.000000 -0.000249
# 5 0.000266 0.000040 -0.000023 0.000000 0.037220 0.000000
# 6 0.000000 0.000000 0.000000 -0.000249 0.000000 0.033982
#
#
# Mechanical properties :
#
#
# Convention : Reuss Voigt Hill
#
# Bulk Modulus (GPa) = 52.06891 62.50486 57.28689
# Shear Modulus (GPa) = 23.24104 24.88946 24.06525
#
# Velocity S-wave (km/s) = 3.66219 3.78984 3.72656
# Velocity P-wave (km/s) = 6.92311 7.43102 7.18156
#
# Compressibility (1/GPa) = 0.01920532
#
# Stress axis : x y z
#
# Youngs Moduli (GPa) = 42.06677 73.70819 74.55987
#
# Poissons Ratio (x) = 0.29037 0.46122
# Poissons Ratio (y) = 0.16572 0.42107
# Poissons Ratio (z) = 0.26022 0.41626
#
# Static dielectric constant tensor:
#      x y z
#    x 3.121800 0.000000 -0.000240 
#    y 0.000000 3.269050 0.000000 
#    z -0.000240 0.000000 3.141840 
# 
# 
# High freq. dielectric constant tensor:
#      x y z
#    x 1.668070 0.000000 0.000130 
#    y 0.000000 1.671750 0.000000 
#    z 0.000130 0.000000 1.656950 
# 
# From -- ./inp_files/24887.got.cif
#   From: 2010.06.25/outbox.cif.g09.slc.cpg/sg10_13_cif.got.tgz:24887.got - 2010.06.27 22:07:45.
