data_PCOD8066665
_publ_section_title
;
Structure prediction by ZEFSAII (Michael W. Deem and Ramdas Pophale) SiO2 
 PCOD8066665
Probable space group: P 2/M
;
_chemical_formula_sum "Si O2"
_cell_formula_units_Z 32
_cell_length_a 13.947379
_cell_length_b 9.210800
_cell_length_c 23.085261
_cell_angle_alpha 90.000000
_cell_angle_beta 31.604101
_cell_angle_gamma 90.000000
_cell_volume 1554.156944
_symmetry_space_group_name_H-M "P 2/M"
_symmetry_group_IT_number 10
_symmetry_cell_setting 'monoclinic'
loop_
_space_group_symop_operation_xyz
x,y,z
-x,y,-z
-x,-y,-z
x,-y,z
loop_
_atom_site_type_symbol
_atom_site_label
_atom_site_fract_x
_atom_site_fract_y
_atom_site_fract_z
Si Si1 0.230318 0.667575 0.775722
Si Si2 0.177808 0.333294 0.989305
Si Si3 0.923760 0.671931 0.385164
Si Si4 0.321264 0.835775 0.017648
Si Si5 0.165495 0.167686 0.455754
Si Si6 0.704481 0.672029 0.386703
Si Si7 0.733275 0.163763 0.821104
Si Si8 0.423989 0.832247 0.771318
O O1 0.292585 0.500000 0.744055
O O2 0.216989 0.723141 0.716058
O O3 0.383473 0.759626 0.730083
O O4 0.039318 0.686076 0.908583
O O5 0.235553 0.500000 0.951918
O O6 0.213243 0.282121 0.036349
O O7 0.297142 0.237889 0.885099
O O8 0.914648 0.500000 0.394435
O O9 0.821989 0.738684 0.492552
O O10 0.830435 0.731818 0.374088
O O11 0.133285 0.723962 0.278856
O O12 0.535973 0.820616 0.893195
O O13 0.258009 0.000000 0.035308
O O14 0.280501 0.797445 0.104545
O O15 0.361658 0.187818 0.323071
O O16 0.000000 0.223485 0.500000
O O17 0.131954 0.000000 0.489421
O O18 0.500000 0.734041 0.500000
O O19 0.703042 0.500000 0.391269
O O20 0.806760 0.000000 0.774724
O O21 0.371165 0.000000 0.794603
#
# Coordination Sequence:
#
# PCOD8066665 Si02
#       8
#     4   4   4   4   4   4   4   4
#     4  10  21  39  61  87 123 163 196 236 300 364
#     4  11  23  37  58  87 122 160 198 245 304 361
#     4  11  22  36  60  92 119 148 195 246 293 355
#     4   9  19  36  57  82 114 158 204 241 286 348
#     4  10  24  45  64  83 114 158 201 246 306 366
#     4   9  18  34  58  86 118 155 191 233 292 354
#     4   9  19  36  57  81 116 158 196 239 295 353
#     4  11  24  41  62  87 115 154 206 257 300 355
#
# _framework density 20.589941
#
# number of rings (size 3 to 8) (size 9 to 14) (size 15 to 20)
#    0.000    2.000    0.000    3.750    1.750    6.750 
#    0.000    2.500    0.000    3.375    0.000    0.000 
#    0.000    0.000    0.000    0.000    0.000    0.000 
#
# Total GULP energy -396849.962777 kJ/mol
# GULP energy per Si atom -12401.561337 kJ/mol
# Density = 2.054308 g / cm^3
# Si number density = 20.589941 Si / 1000 Ang^3
#
#
#
# Elastic Constant Matrix: (Units=GPa)
#
#
# Indices 1 2 3 4 5 6 
#
# 1 83.8924 39.1791 19.9587 0.0000 -3.1645 0.0000
# 2 39.1791 80.7304 38.9059 0.0000 -2.1418 0.0000
# 3 19.9587 38.9059 102.7797 0.0000 0.0096 0.0000
# 4 0.0000 0.0000 0.0000 32.5651 0.0000 4.9338
# 5 -3.1645 -2.1418 0.0096 0.0000 28.8850 0.0000
# 6 0.0000 0.0000 0.0000 4.9338 0.0000 32.7252
#
#
#
# Elastic Compliance Matrix: (Units=1/GPa)
#
#
# Indices 1 2 3 4 5 6 
#
# 1 0.015455 -0.007367 -0.000212 0.000000 0.001147 0.000000
# 2 -0.007367 0.018700 -0.005648 0.000000 0.000581 0.000000
# 3 -0.000212 -0.005648 0.011909 0.000000 -0.000446 0.000000
# 4 0.000000 0.000000 0.000000 0.031426 0.000000 -0.004738
# 5 0.001147 0.000581 -0.000446 0.000000 0.034789 0.000000
# 6 0.000000 0.000000 0.000000 -0.004738 0.000000 0.031272
#
#
# Mechanical properties :
#
#
# Convention : Reuss Voigt Hill
#
# Bulk Modulus (GPa) = 51.00068 51.49887 51.24978
# Shear Modulus (GPa) = 28.32211 30.12564 29.22388
#
# Velocity S-wave (km/s) = 3.71284 3.82923 3.77148
# Velocity P-wave (km/s) = 6.57295 6.67957 6.62648
#
# Compressibility (1/GPa) = 0.01960758
#
# Stress axis : x y z
#
# Youngs Moduli (GPa) = 64.70595 53.47695 83.97177
#
# Poissons Ratio (x) = 0.39399 0.01783
# Poissons Ratio (y) = 0.47672 0.47426
# Poissons Ratio (z) = 0.01374 0.30203
#
# Static dielectric constant tensor:
#      x y z
#    x 3.831130 0.000000 -0.067050 
#    y 0.000000 3.539530 0.000000 
#    z -0.067050 0.000000 3.745530 
# 
# 
# High freq. dielectric constant tensor:
#      x y z
#    x 1.808350 0.000000 -0.000530 
#    y 0.000000 1.787200 0.000000 
#    z -0.000530 0.000000 1.814390 
# 
# From -- ./inp_files/89575.got.cif
#   From: 2010.06.25/outbox.cif.g09.slc.cpg/sg10_45_cif.got.tgz:89575.got - 2010.06.27 22:07:45.
