data_PCOD8066717
_publ_section_title
;
Structure prediction by ZEFSAII (Michael W. Deem and Ramdas Pophale) SiO2 
 PCOD8066717
Probable space group: P 2/M
;
_chemical_formula_sum "Si O2"
_cell_formula_units_Z 28
_cell_length_a 8.870914
_cell_length_b 8.768901
_cell_length_c 28.494700
_cell_angle_alpha 90.000000
_cell_angle_beta 38.978059
_cell_angle_gamma 90.000000
_cell_volume 1394.260657
_symmetry_space_group_name_H-M "P 2/M"
_symmetry_group_IT_number 10
_symmetry_cell_setting 'monoclinic'
loop_
_space_group_symop_operation_xyz
x,y,z
-x,y,-z
-x,-y,-z
x,-y,z
loop_
_atom_site_type_symbol
_atom_site_label
_atom_site_fract_x
_atom_site_fract_y
_atom_site_fract_z
Si Si1 0.820986 0.821778 0.641766
Si Si2 0.229676 0.177807 0.075972
Si Si3 0.476856 0.179371 0.641123
Si Si4 0.928589 0.675194 0.069512
Si Si5 0.674170 0.679231 0.499350
Si Si6 0.626968 0.674999 0.779781
Si Si7 0.032956 0.322326 0.217081
O O1 0.633892 0.768720 0.647506
O O2 0.705640 0.787976 0.719815
O O3 0.058356 0.723156 0.579010
O O4 0.883067 0.000000 0.622501
O O5 0.069256 0.213672 0.069871
O O6 0.130548 0.271097 0.143574
O O7 0.214079 0.000000 0.091665
O O8 0.500000 0.229575 0.000000
O O9 0.601726 0.239993 0.564532
O O10 0.210989 0.240522 0.710514
O O11 0.463335 0.000000 0.640983
O O12 0.998578 0.500000 0.063136
O O13 0.648845 0.703564 0.143080
O O14 0.000000 0.721942 0.000000
O O15 0.500000 0.734687 0.500000
O O16 0.653872 0.500000 0.511913
O O17 0.677177 0.500000 0.752940
O O18 0.770746 0.719105 0.791603
O O19 0.978354 0.500000 0.228158
#
# Coordination Sequence:
#
# PCOD8066717 Si02
#       7
#     4   4   4   4   4   4   4
#     4  11  24  40  60  87 119 156 196 240 292 350
#     4  11  24  40  59  87 122 158 197 243 296 352
#     4  11  24  41  61  89 123 156 195 241 292 351
#     4  10  21  39  63  89 118 155 199 246 296 350
#     4  11  24  41  62  89 119 153 197 245 292 346
#     4  10  22  39  60  88 119 152 195 245 294 348
#     4  11  23  40  63  89 118 155 199 244 292 348
#
# _framework density 20.082328
#
# number of rings (size 3 to 8) (size 9 to 14) (size 15 to 20)
#    0.000    1.286    0.000    5.143    0.000   15.143 
#    0.000    0.000    0.000    0.000    0.000    0.000 
#    0.000    0.000    0.000    0.000    0.000    0.000 
#
# Total GULP energy -347406.469282 kJ/mol
# GULP energy per Si atom -12407.373903 kJ/mol
# Density = 2.003662 g / cm^3
# Si number density = 20.082328 Si / 1000 Ang^3
#
#
#
# Elastic Constant Matrix: (Units=GPa)
#
#
# Indices 1 2 3 4 5 6 
#
# 1 133.0622 39.1470 48.1946 0.0000 -3.0421 0.0000
# 2 39.1470 51.7757 24.5097 0.0000 -0.7065 0.0000
# 3 48.1946 24.5097 125.1618 0.0000 4.6613 0.0000
# 4 0.0000 0.0000 0.0000 49.4780 0.0000 14.8186
# 5 -3.0421 -0.7065 4.6613 0.0000 41.7735 0.0000
# 6 0.0000 0.0000 0.0000 14.8186 0.0000 45.8429
#
#
#
# Elastic Compliance Matrix: (Units=1/GPa)
#
#
# Indices 1 2 3 4 5 6 
#
# 1 0.010486 -0.006599 -0.002781 0.000000 0.000962 0.000000
# 2 -0.006599 0.025468 -0.002455 0.000000 0.000224 0.000000
# 3 -0.002781 -0.002455 0.009590 0.000000 -0.001314 0.000000
# 4 0.000000 0.000000 0.000000 0.022377 0.000000 -0.007233
# 5 0.000962 0.000224 -0.001314 0.000000 0.024159 0.000000
# 6 0.000000 0.000000 0.000000 -0.007233 0.000000 0.024152
#
#
# Mechanical properties :
#
#
# Convention : Reuss Voigt Hill
#
# Bulk Modulus (GPa) = 45.71418 59.30025 52.50722
# Shear Modulus (GPa) = 33.96874 40.62879 37.29876
#
# Velocity S-wave (km/s) = 4.11722 4.50278 4.31431
# Velocity P-wave (km/s) = 6.73905 7.52503 7.14286
#
# Compressibility (1/GPa) = 0.02187505
#
# Stress axis : x y z
#
# Youngs Moduli (GPa) = 95.36535 39.26452 104.27180
#
# Poissons Ratio (x) = 0.25909 0.29002
# Poissons Ratio (y) = 0.62927 0.25597
# Poissons Ratio (z) = 0.26525 0.09639
#
# Static dielectric constant tensor:
#      x y z
#    x 4.052200 0.000000 -0.339760 
#    y 0.000000 3.663550 0.000000 
#    z -0.339760 0.000000 4.393400 
# 
# 
# High freq. dielectric constant tensor:
#      x y z
#    x 1.802880 0.000000 -0.001130 
#    y 0.000000 1.788340 0.000000 
#    z -0.001130 0.000000 1.802960 
# 
# From -- ./inp_files/37077.got.cif
#   From: 2010.06.25/outbox.cif.g09.slc.cpg/sg10_19_cif.got.tgz:37077.got - 2010.06.27 22:07:45.
