data_PCOD8066901
_publ_section_title
;
Structure prediction by ZEFSAII (Michael W. Deem and Ramdas Pophale) SiO2 
 PCOD8066901
Probable space group: P 2/M
;
_chemical_formula_sum "Si O2"
_cell_formula_units_Z 16
_cell_length_a 5.152556
_cell_length_b 21.347183
_cell_length_c 5.806480
_cell_angle_alpha 90.000000
_cell_angle_beta 89.940696
_cell_angle_gamma 90.000000
_cell_volume 638.669234
_symmetry_space_group_name_H-M "P 2/M"
_symmetry_group_IT_number 10
_symmetry_cell_setting 'monoclinic'
loop_
_space_group_symop_operation_xyz
x,y,z
-x,y,-z
-x,-y,-z
x,-y,z
loop_
_atom_site_type_symbol
_atom_site_label
_atom_site_fract_x
_atom_site_fract_y
_atom_site_fract_z
Si Si1 0.750723 0.802169 0.863939
Si Si2 0.000000 0.723136 0.500000
Si Si3 0.749917 0.930627 0.655153
Si Si4 0.744068 0.367563 0.150536
Si Si5 0.853950 0.500000 0.251155
O O1 0.786232 0.768107 0.620741
O O2 0.744416 0.877832 0.850437
O O3 0.500000 0.778019 0.000000
O O4 0.000000 0.778557 0.000000
O O5 0.805884 0.680894 0.351823
O O6 0.500000 0.921319 0.500000
O O7 0.000000 0.920430 0.500000
O O8 0.752059 0.000000 0.770283
O O9 0.679888 0.436714 0.253803
O O10 0.500000 0.343739 0.000000
O O11 0.000000 0.371977 0.000000
O O12 0.000000 0.500000 0.500000
O O13 0.000000 0.500000 0.000000
#
# Coordination Sequence:
#
# PCOD8066901 Si02
#       5
#     4   2   4   4   2
#     4  12  28  46  73 108 144 198 256 307 386 463
#     4  12  28  51  73 106 162 206 254 324 384 460
#     4  10  21  43  73 103 139 187 244 310 383 451
#     4  11  26  49  77 114 150 203 259 318 390 471
#     4  10  21  48  82 119 157 203 266 339 405 478
#
# _framework density 25.052088999999999
#
# number of rings (size 3 to 8) (size 9 to 14) (size 15 to 20)
#    0.000    1.000    2.500    2.625    0.000    8.000 
#    0.000    2.500    0.000    0.000    0.000    0.875 
#    0.000    0.000    0.000    0.000    0.000    0.000 
#
# Total GULP energy -198310.574111 kJ/mol
# GULP energy per Si atom -12394.410882 kJ/mol
# Density = 2.499507 g / cm^3
# Si number density = 25.052089 Si / 1000 Ang^3
#
#
#
# Elastic Constant Matrix: (Units=GPa)
#
#
# Indices 1 2 3 4 5 6 
#
# 1 191.6810 38.7799 61.2729 0.0000 0.7905 0.0000
# 2 38.7799 185.4406 64.7960 0.0000 -4.3275 0.0000
# 3 61.2729 64.7960 132.8969 0.0000 2.0725 0.0000
# 4 0.0000 0.0000 0.0000 61.1709 0.0000 19.0771
# 5 0.7905 -4.3275 2.0725 0.0000 49.6642 0.0000
# 6 0.0000 0.0000 0.0000 19.0771 0.0000 26.2907
#
#
#
# Elastic Compliance Matrix: (Units=1/GPa)
#
#
# Indices 1 2 3 4 5 6 
#
# 1 0.006138 -0.000356 -0.002656 0.000000 -0.000018 0.000000
# 2 -0.000356 0.006545 -0.003038 0.000000 0.000703 0.000000
# 3 -0.002656 -0.003038 0.010241 0.000000 -0.000650 0.000000
# 4 0.000000 0.000000 0.000000 0.021129 0.000000 -0.015332
# 5 -0.000018 0.000703 -0.000650 0.000000 0.020224 0.000000
# 6 0.000000 0.000000 0.000000 -0.015332 0.000000 0.049161
#
#
# Mechanical properties :
#
#
# Convention : Reuss Voigt Hill
#
# Bulk Modulus (GPa) = 92.39122 93.30179 92.84650
# Shear Modulus (GPa) = 38.71594 50.43647 44.57621
#
# Velocity S-wave (km/s) = 3.93544 4.49181 4.22280
# Velocity P-wave (km/s) = 7.59013 8.01410 7.80499
#
# Compressibility (1/GPa) = 0.01082354
#
# Stress axis : x y z
#
# Youngs Moduli (GPa) = 162.91487 152.79092 97.65031
#
# Poissons Ratio (x) = 0.05438 0.25938
# Poissons Ratio (y) = 0.05798 0.29665
# Poissons Ratio (z) = 0.43274 0.46417
#
# Static dielectric constant tensor:
#      x y z
#    x 4.311330 0.000000 0.041860 
#    y 0.000000 5.261370 0.000000 
#    z 0.041860 0.000000 4.465280 
# 
# 
# High freq. dielectric constant tensor:
#      x y z
#    x 1.995230 0.000000 0.004080 
#    y 0.000000 2.036940 0.000000 
#    z 0.004080 0.000000 1.988360 
# 
# From -- ./inp_files/1306.got.cif
#   From: 2010.06.25/outbox.cif.g09.slc.cpg/sg10_1_cif.got.tgz:1306.got - 2010.06.27 22:07:45.
