data_PCOD8066831
_publ_section_title
;
Structure prediction by ZEFSAII (Michael W. Deem and Ramdas Pophale) SiO2 
 PCOD8066831
Probable space group: P 2/M
;
_chemical_formula_sum "Si O2"
_cell_formula_units_Z 26
_cell_length_a 25.940030
_cell_length_b 7.990112
_cell_length_c 5.070944
_cell_angle_alpha 90.000000
_cell_angle_beta 80.417750
_cell_angle_gamma 90.000000
_cell_volume 1036.358610
_symmetry_space_group_name_H-M "P 2/M"
_symmetry_group_IT_number 10
_symmetry_cell_setting 'monoclinic'
loop_
_space_group_symop_operation_xyz
x,y,z
-x,y,-z
-x,-y,-z
x,-y,z
loop_
_atom_site_type_symbol
_atom_site_label
_atom_site_fract_x
_atom_site_fract_y
_atom_site_fract_z
Si Si1 0.322083 0.807033 0.848733
Si Si2 0.536301 0.500000 0.718804
Si Si3 0.384541 0.799051 0.291018
Si Si4 0.102321 0.822214 0.270797
Si Si5 0.965957 0.691229 0.263373
Si Si6 0.190475 0.500000 0.505282
Si Si7 0.776903 0.814935 0.763393
Si Si8 0.119262 0.500000 0.050651
O O1 0.362011 0.732618 0.032118
O O2 0.261742 0.760353 0.965098
O O3 0.329611 0.000000 0.886341
O O4 0.338348 0.756961 0.540568
O O5 0.500000 0.500000 0.500000
O O6 0.567847 0.675762 0.683796
O O7 0.500000 0.500000 0.000000
O O8 0.399993 0.000000 0.286708
O O9 0.086171 0.790102 0.592506
O O10 0.164399 0.827088 0.179609
O O11 0.078526 0.000000 0.199541
O O12 0.083373 0.671707 0.084833
O O13 0.948446 0.500000 0.198138
O O14 0.000000 0.688883 0.500000
O O15 0.000000 0.777945 0.000000
O O16 0.225798 0.667740 0.452198
O O17 0.166341 0.500000 0.812744
O O18 0.144456 0.500000 0.323944
O O19 0.760798 0.000000 0.660427
#
# Coordination Sequence:
#
# PCOD8066831 Si02
#       8
#     4   2   4   4   4   2   4   2
#     4   9  19  38  63  90 126 169 210 251 304 373
#     4  12  26  42  66  98 128 165 214 271 316 362
#     4  10  22  41  64  91 128 171 210 257 311 369
#     4  10  21  40  65  91 124 160 199 257 312 365
#     4  10  22  41  64  87 116 157 199 250 313 373
#     4  10  22  36  57  81 118 160 194 242 294 348
#     4   9  20  38  61  93 126 162 207 253 306 366
#     4  10  22  40  55  83 116 147 194 237 292 366
#
# _framework density 25.087838999999999
#
# number of rings (size 3 to 8) (size 9 to 14) (size 15 to 20)
#    0.000    2.154    0.769    0.923    0.000    8.000 
#    0.000    7.692    0.000    0.000    0.000    0.000 
#    0.000    0.000    0.000    0.000    0.000    0.000 
#
# Total GULP energy -322102.456176 kJ/mol
# GULP energy per Si atom -12388.556007 kJ/mol
# Density = 2.503074 g / cm^3
# Si number density = 25.087839 Si / 1000 Ang^3
#
#
#
# Elastic Constant Matrix: (Units=GPa)
#
#
# Indices 1 2 3 4 5 6 
#
# 1 75.4128 15.0985 13.1781 0.0000 -19.5154 0.0000
# 2 15.0985 191.7860 63.7154 0.0000 -19.3676 0.0000
# 3 13.1781 63.7154 131.4457 0.0000 -29.3442 0.0000
# 4 0.0000 0.0000 0.0000 17.5020 0.0000 -2.7958
# 5 -19.5154 -19.3676 -29.3442 0.0000 44.1015 0.0000
# 6 0.0000 0.0000 0.0000 -2.7958 0.0000 27.1425
#
#
#
# Elastic Compliance Matrix: (Units=1/GPa)
#
#
# Indices 1 2 3 4 5 6 
#
# 1 0.015034 -0.000604 0.000249 0.000000 0.006552 0.000000
# 2 -0.000604 0.006267 -0.002845 0.000000 0.000592 0.000000
# 3 0.000249 -0.002845 0.010226 0.000000 0.005665 0.000000
# 4 0.000000 0.000000 0.000000 0.058092 0.000000 0.005984
# 5 0.006552 0.000592 0.005665 0.000000 0.029604 0.000000
# 6 0.000000 0.000000 0.000000 0.005984 0.000000 0.037459
#
#
# Mechanical properties :
#
#
# Convention : Reuss Voigt Hill
#
# Bulk Modulus (GPa) = 39.80076 64.73649 52.26862
# Shear Modulus (GPa) = 29.16164 38.19270 33.67717
#
# Velocity S-wave (km/s) = 3.41307 3.90598 3.66781
# Velocity P-wave (km/s) = 5.60634 6.79722 6.23030
#
# Compressibility (1/GPa) = 0.02512515
#
# Stress axis : x y z
#
# Youngs Moduli (GPa) = 66.51777 159.57570 97.78522
#
# Poissons Ratio (x) = 0.09645 -0.02431
# Poissons Ratio (y) = 0.04020 0.27819
# Poissons Ratio (z) = -0.01653 0.45398
#
# Static dielectric constant tensor:
#      x y z
#    x 4.417720 0.000000 -0.270220 
#    y 0.000000 6.058430 0.000000 
#    z -0.270220 0.000000 5.094960 
# 
# 
# High freq. dielectric constant tensor:
#      x y z
#    x 1.986780 0.000000 -0.004020 
#    y 0.000000 2.006140 0.000000 
#    z -0.004020 0.000000 2.014770 
# 
# From -- ./inp_files/13542.got.cif
#   From: 2010.06.25/outbox.cif.g09.slc.cpg/sg10_7_cif.got.tgz:13542.got - 2010.06.27 22:07:45.
