data_PCOD8066501
_publ_section_title
;
Structure prediction by ZEFSAII (Michael W. Deem and Ramdas Pophale) SiO2 
 PCOD8066501
Probable space group: P 2/M
;
_chemical_formula_sum "Si O2"
_cell_formula_units_Z 24
_cell_length_a 5.401618
_cell_length_b 26.739722
_cell_length_c 8.118731
_cell_angle_alpha 90.000000
_cell_angle_beta 71.819006
_cell_angle_gamma 90.000000
_cell_volume 1114.107442
_symmetry_space_group_name_H-M "P 2/M"
_symmetry_group_IT_number 10
_symmetry_cell_setting 'monoclinic'
loop_
_space_group_symop_operation_xyz
x,y,z
-x,y,-z
-x,-y,-z
x,-y,z
loop_
_atom_site_type_symbol
_atom_site_label
_atom_site_fract_x
_atom_site_fract_y
_atom_site_fract_z
Si Si1 0.411356 0.702814 0.699351
Si Si2 0.799942 0.555939 0.891582
Si Si3 0.692650 0.000000 0.608581
Si Si4 0.000000 0.878615 0.000000
Si Si5 0.187748 0.899762 0.303687
Si Si6 0.456951 0.191251 0.826212
Si Si7 0.092047 0.345011 0.297136
O O1 0.500000 0.686865 0.500000
O O2 0.412588 0.762694 0.713156
O O3 0.620318 0.679639 0.785821
O O4 0.118080 0.680554 0.785110
O O5 0.823661 0.500000 0.812123
O O6 0.888204 0.595738 0.736873
O O7 0.500000 0.566542 0.000000
O O8 0.000000 0.561879 0.000000
O O9 0.500000 0.000000 0.500000
O O10 0.623567 0.948161 0.718020
O O11 0.000000 0.000000 0.500000
O O12 0.918113 0.911106 0.858890
O O13 0.210457 0.843463 0.873457
O O14 0.310486 0.844517 0.282591
O O15 0.000000 0.900482 0.500000
O O16 0.500000 0.212963 0.000000
O O17 0.000000 0.334578 0.500000
#
# Coordination Sequence:
#
# PCOD8066501 Si02
#       7
#     4   4   2   2   4   4   4
#     4  10  23  38  62  87 122 161 206 255 311 373
#     4  10  21  38  60  88 120 159 206 252 308 372
#     4  10  24  43  69 105 128 167 225 265 327 402
#     4  10  24  43  60 100 130 164 225 266 312 410
#     4  10  24  42  71  94 131 172 214 273 328 387
#     4  10  24  41  60  93 125 165 215 261 315 388
#     4  10  22  40  58  90 121 158 208 255 308 373
#
# _framework density 21.541909
#
# number of rings (size 3 to 8) (size 9 to 14) (size 15 to 20)
#    0.000    2.000    0.000    1.000   11.667    3.333 
#    0.000    3.750    0.000    6.000    0.000    0.000 
#    0.000    0.000    0.000    0.000    0.000    0.000 
#
# Total GULP energy -297318.306313 kJ/mol
# GULP energy per Si atom -12388.262763 kJ/mol
# Density = 2.149288 g / cm^3
# Si number density = 21.541909 Si / 1000 Ang^3
#
#
#
# Elastic Constant Matrix: (Units=GPa)
#
#
# Indices 1 2 3 4 5 6 
#
# 1 169.3312 53.9500 35.9738 0.0000 15.8169 0.0000
# 2 53.9500 148.4151 45.5608 0.0000 17.4363 0.0000
# 3 35.9738 45.5608 58.2522 0.0000 4.9633 0.0000
# 4 0.0000 0.0000 0.0000 12.8982 0.0000 37.8601
# 5 15.8169 17.4363 4.9633 0.0000 19.2625 0.0000
# 6 0.0000 0.0000 0.0000 37.8601 0.0000 1.8157
#
#
#
# Elastic Compliance Matrix: (Units=1/GPa)
#
#
# Indices 1 2 3 4 5 6 
#
# 1 0.007364 -0.001189 -0.003266 0.000000 -0.004129 0.000000
# 2 -0.001189 0.009898 -0.006469 0.000000 -0.006316 0.000000
# 3 -0.003266 -0.006469 0.024043 0.000000 0.002342 0.000000
# 4 0.000000 0.000000 0.000000 -0.001288 0.000000 0.026852
# 5 -0.004129 -0.006316 0.002342 0.000000 0.060419 0.000000
# 6 0.000000 0.000000 0.000000 0.026852 0.000000 -0.009148
#
#
# Mechanical properties :
#
#
# Convention : Reuss Voigt Hill
#
# Bulk Modulus (GPa) = 51.39359 71.88532 61.63945
# Shear Modulus (GPa) = 41.79826 22.82955 32.31390
#
# Velocity S-wave (km/s) = 4.40969 3.25895 3.87725
# Velocity P-wave (km/s) = 7.05949 6.89952 6.97997
#
# Compressibility (1/GPa) = 0.01945768
#
# Stress axis : x y z
#
# Youngs Moduli (GPa) = 135.79692 101.02954 41.59130
#
# Poissons Ratio (x) = 0.12015 0.13582
# Poissons Ratio (y) = 0.16150 0.26905
# Poissons Ratio (z) = 0.44347 0.65356
#
# Static dielectric constant tensor:
#      x y z
#    x 4.373140 0.000000 0.114590 
#    y 0.000000 4.087000 0.000000 
#    z 0.114590 0.000000 3.525540 
# 
# 
# High freq. dielectric constant tensor:
#      x y z
#    x 1.861580 0.000000 0.006860 
#    y 0.000000 1.855910 0.000000 
#    z 0.006860 0.000000 1.822020 
# 
# From -- ./inp_files/15550.got.cif
#   From: 2010.06.25/outbox.cif.g09.slc.cpg/sg10_8_cif.got.tgz:15550.got - 2010.06.27 22:07:45.
