data_PCOD8066091
_publ_section_title
;
Structure prediction by ZEFSAII (Michael W. Deem and Ramdas Pophale) SiO2 
 PCOD8066091
Probable space group: P 2/M
;
_chemical_formula_sum "Si O2"
_cell_formula_units_Z 32
_cell_length_a 12.304368
_cell_length_b 8.716300
_cell_length_c 14.407563
_cell_angle_alpha 90.000000
_cell_angle_beta 90.087718
_cell_angle_gamma 90.000000
_cell_volume 1545.188614
_symmetry_space_group_name_H-M "P 2/M"
_symmetry_group_IT_number 10
_symmetry_cell_setting 'monoclinic'
loop_
_space_group_symop_operation_xyz
x,y,z
-x,y,-z
-x,-y,-z
x,-y,z
loop_
_atom_site_type_symbol
_atom_site_label
_atom_site_fract_x
_atom_site_fract_y
_atom_site_fract_z
Si Si1 0.378385 0.179499 0.527995
Si Si2 0.884019 0.175695 0.170936
Si Si3 0.280145 0.326539 0.357771
Si Si4 0.830073 0.678664 0.986535
Si Si5 0.684505 0.319519 0.278386
Si Si6 0.453521 0.327412 0.209481
Si Si7 0.384072 0.822543 0.035497
Si Si8 0.123853 0.175367 0.211287
O O1 0.500000 0.233518 0.500000
O O2 0.291518 0.218153 0.447122
O O3 0.335034 0.268526 0.616909
O O4 0.376774 0.000000 0.549444
O O5 0.788047 0.237780 0.234686
O O6 0.995004 0.191801 0.229458
O O7 0.859727 0.000000 0.144794
O O8 0.901970 0.268578 0.074342
O O9 0.253154 0.500000 0.388739
O O10 0.397576 0.320277 0.309282
O O11 0.184639 0.273361 0.289084
O O12 0.847642 0.500000 0.968820
O O13 0.706142 0.719357 0.015658
O O14 0.853398 0.770135 0.893065
O O15 0.704655 0.500000 0.276183
O O16 0.578211 0.274179 0.218418
O O17 0.445249 0.500000 0.168694
O O18 0.385167 0.210638 0.145559
O O19 0.361634 0.000000 0.014713
O O20 0.500000 0.765730 0.000000
O O21 0.162472 0.000000 0.218875
#
# Coordination Sequence:
#
# PCOD8066091 Si02
#       8
#     4   4   4   4   4   4   4   4
#     4  11  23  39  64  96 129 166 206 250 305 371
#     4  11  25  44  64  90 125 164 209 260 312 366
#     4  11  22  39  64  94 126 158 201 254 306 365
#     4  12  24  39  62  91 123 162 211 260 306 366
#     4  11  23  41  65  93 128 165 205 255 311 372
#     4  10  21  36  57  87 122 160 198 247 308 364
#     4  11  23  36  54  83 121 164 206 251 305 367
#     4  11  24  43  66  91 124 165 210 260 310 364
#
# _framework density 20.709447000000001
#
# number of rings (size 3 to 8) (size 9 to 14) (size 15 to 20)
#    0.000    1.000    2.500    4.500    0.000    8.500 
#    0.000    0.625    0.000    3.750    0.000    0.000 
#    0.000    0.000    0.000    0.000    0.000    0.000 
#
# Total GULP energy -396898.389851 kJ/mol
# GULP energy per Si atom -12403.074683 kJ/mol
# Density = 2.066231 g / cm^3
# Si number density = 20.709447 Si / 1000 Ang^3
#
#
#
# Elastic Constant Matrix: (Units=GPa)
#
#
# Indices 1 2 3 4 5 6 
#
# 1 87.1304 25.9915 12.9284 0.0000 9.8738 0.0000
# 2 25.9915 73.0457 -0.4277 0.0000 1.3153 0.0000
# 3 12.9284 -0.4277 59.6090 0.0000 11.0566 0.0000
# 4 0.0000 0.0000 0.0000 36.4708 0.0000 2.1988
# 5 9.8738 1.3153 11.0566 0.0000 25.3942 0.0000
# 6 0.0000 0.0000 0.0000 2.1988 0.0000 27.4885
#
#
#
# Elastic Compliance Matrix: (Units=1/GPa)
#
#
# Indices 1 2 3 4 5 6 
#
# 1 0.013713 -0.004819 -0.002248 0.000000 -0.004104 0.000000
# 2 -0.004819 0.015400 0.001040 0.000000 0.000623 0.000000
# 3 -0.002248 0.001040 0.018623 0.000000 -0.007288 0.000000
# 4 0.000000 0.000000 0.000000 0.027552 0.000000 -0.002204
# 5 -0.004104 0.000623 -0.007288 0.000000 0.044116 0.000000
# 6 0.000000 0.000000 0.000000 -0.002204 0.000000 0.036555
#
#
# Mechanical properties :
#
#
# Convention : Reuss Voigt Hill
#
# Bulk Modulus (GPa) = 28.02467 32.97439 30.49953
# Shear Modulus (GPa) = 27.79242 29.95687 28.87464
#
# Velocity S-wave (km/s) = 3.66733 3.80746 3.73805
# Velocity P-wave (km/s) = 5.61196 5.94019 5.77841
#
# Compressibility (1/GPa) = 0.03568284
#
# Stress axis : x y z
#
# Youngs Moduli (GPa) = 72.92325 64.93696 53.69761
#
# Poissons Ratio (x) = 0.31291 0.12069
# Poissons Ratio (y) = 0.35140 -0.05585
# Poissons Ratio (z) = 0.16390 -0.06754
#
# Static dielectric constant tensor:
#      x y z
#    x 3.929410 0.000000 0.047660 
#    y 0.000000 3.741730 0.000000 
#    z 0.047660 0.000000 3.610690 
# 
# 
# High freq. dielectric constant tensor:
#      x y z
#    x 1.815630 0.000000 0.007600 
#    y 0.000000 1.818210 0.000000 
#    z 0.007600 0.000000 1.801790 
# 
# From -- ./inp_files/63792.got.cif
#   From: 2010.06.25/outbox.cif.g09.slc.cpg/sg10_32_cif.got.tgz:63792.got - 2010.06.27 22:07:45.
