data_PCOD8066676
_publ_section_title
;
Structure prediction by ZEFSAII (Michael W. Deem and Ramdas Pophale) SiO2 
 PCOD8066676
Probable space group: P 2/M
;
_chemical_formula_sum "Si O2"
_cell_formula_units_Z 18
_cell_length_a 11.824889
_cell_length_b 9.801232
_cell_length_c 16.465100
_cell_angle_alpha 90.000000
_cell_angle_beta 26.351281
_cell_angle_gamma 90.000000
_cell_volume 847.034741
_symmetry_space_group_name_H-M "P 2/M"
_symmetry_group_IT_number 10
_symmetry_cell_setting 'monoclinic'
loop_
_space_group_symop_operation_xyz
x,y,z
-x,y,-z
-x,-y,-z
x,-y,z
loop_
_atom_site_type_symbol
_atom_site_label
_atom_site_fract_x
_atom_site_fract_y
_atom_site_fract_z
Si Si1 0.500000 0.715202 0.500000
Si Si2 0.286071 0.656594 0.200949
Si Si3 0.717009 0.352241 0.525164
Si Si4 0.032294 0.155161 0.890838
Si Si5 0.529790 0.158788 0.777257
O O1 0.384140 0.628050 0.501247
O O2 0.735024 0.799880 0.313938
O O3 0.325579 0.500000 0.204247
O O4 0.300159 0.757250 0.268660
O O5 0.017196 0.678573 0.330516
O O6 0.500000 0.701480 0.000000
O O7 0.668701 0.500000 0.599389
O O8 0.575240 0.226911 0.659891
O O9 0.090268 0.000000 0.873814
O O10 0.769474 0.173357 0.009516
O O11 0.000000 0.230476 0.000000
O O12 0.614057 0.000000 0.721386
#
# Coordination Sequence:
#
# PCOD8066676 Si02
#       5
#     2   4   4   4   4
#     4  12  22  40  68  92 125 172 221 262 311 382
#     4  10  22  42  65  90 126 168 210 262 325 382
#     4  11  24  41  63  93 129 167 213 264 319 380
#     4  10  21  39  61  92 130 166 207 260 321 378
#     4  11  23  41  65  94 128 164 214 266 316 381
#
# _framework density 21.250603999999999
#
# number of rings (size 3 to 8) (size 9 to 14) (size 15 to 20)
#    0.000    1.333    2.222    3.333    0.000    4.889 
#    0.000    4.444    0.000    0.000    0.000    0.000 
#    0.000    0.000    0.000    0.000    0.000    0.000 
#
# Total GULP energy -223109.329272 kJ/mol
# GULP energy per Si atom -12394.962737 kJ/mol
# Density = 2.120224 g / cm^3
# Si number density = 21.250604 Si / 1000 Ang^3
#
#
#
# Elastic Constant Matrix: (Units=GPa)
#
#
# Indices 1 2 3 4 5 6 
#
# 1 120.8530 51.2256 30.1688 0.0000 -4.6697 0.0000
# 2 51.2256 116.5675 53.5626 0.0000 -1.7280 0.0000
# 3 30.1688 53.5626 133.9472 0.0000 -0.6036 0.0000
# 4 0.0000 0.0000 0.0000 27.5787 0.0000 2.7703
# 5 -4.6697 -1.7280 -0.6036 0.0000 34.2560 0.0000
# 6 0.0000 0.0000 0.0000 2.7703 0.0000 24.7102
#
#
#
# Elastic Compliance Matrix: (Units=1/GPa)
#
#
# Indices 1 2 3 4 5 6 
#
# 1 0.010257 -0.004203 -0.000624 0.000000 0.001175 0.000000
# 2 -0.004203 0.012240 -0.003948 0.000000 -0.000025 0.000000
# 3 -0.000624 -0.003948 0.009184 0.000000 -0.000122 0.000000
# 4 0.000000 0.000000 0.000000 0.036673 0.000000 -0.004111
# 5 0.001175 -0.000025 -0.000122 0.000000 0.029349 0.000000
# 6 0.000000 0.000000 0.000000 -0.004111 0.000000 0.040930
#
#
# Mechanical properties :
#
#
# Convention : Reuss Voigt Hill
#
# Bulk Modulus (GPa) = 70.76792 71.25355 71.01073
# Shear Modulus (GPa) = 31.07643 33.06968 32.07306
#
# Velocity S-wave (km/s) = 3.82825 3.94912 3.88916
# Velocity P-wave (km/s) = 7.27424 7.37543 7.32501
#
# Compressibility (1/GPa) = 0.01413070
#
# Stress axis : x y z
#
# Youngs Moduli (GPa) = 97.49044 81.70265 108.88215
#
# Poissons Ratio (x) = 0.34343 0.06795
# Poissons Ratio (y) = 0.40979 0.42983
# Poissons Ratio (z) = 0.06085 0.32254
#
# Static dielectric constant tensor:
#      x y z
#    x 3.941410 0.000000 -0.047320 
#    y 0.000000 3.682510 0.000000 
#    z -0.047320 0.000000 3.893690 
# 
# 
# High freq. dielectric constant tensor:
#      x y z
#    x 1.838770 0.000000 -0.012590 
#    y 0.000000 1.821990 0.000000 
#    z -0.012590 0.000000 1.841980 
# 
# From -- ./inp_files/76125.got.cif
#   From: 2010.06.25/outbox.cif.g09.slc.cpg/sg10_39_cif.got.tgz:76125.got - 2010.06.27 22:07:45.
