data_PCOD8066651
_publ_section_title
;
Structure prediction by ZEFSAII (Michael W. Deem and Ramdas Pophale) SiO2 
 PCOD8066651
Probable space group: P 2/M
;
_chemical_formula_sum "Si O2"
_cell_formula_units_Z 28
_cell_length_a 20.885944
_cell_length_b 8.985592
_cell_length_c 14.057317
_cell_angle_alpha 90.000000
_cell_angle_beta 147.035648
_cell_angle_gamma 90.000000
_cell_volume 1435.475027
_symmetry_space_group_name_H-M "P 2/M"
_symmetry_group_IT_number 10
_symmetry_cell_setting 'monoclinic'
loop_
_space_group_symop_operation_xyz
x,y,z
-x,y,-z
-x,-y,-z
x,-y,z
loop_
_atom_site_type_symbol
_atom_site_label
_atom_site_fract_x
_atom_site_fract_y
_atom_site_fract_z
Si Si1 0.824823 0.830468 0.344936
Si Si2 0.656201 0.676230 0.453086
Si Si3 0.868723 0.324321 0.845845
Si Si4 0.921790 0.829770 0.261211
Si Si5 0.225618 0.324960 0.070916
Si Si6 0.379743 0.675702 0.805716
Si Si7 0.466496 0.175291 0.351559
O O1 0.846870 0.797032 0.262151
O O2 0.724926 0.720775 0.255738
O O3 0.941754 0.798746 0.550552
O O4 0.783919 0.000000 0.308574
O O5 0.637431 0.500000 0.436829
O O6 0.786450 0.720575 0.653863
O O7 0.642713 0.736804 0.328862
O O8 0.557914 0.753330 0.393652
O O9 0.882001 0.500000 0.870407
O O10 0.805567 0.265686 0.862606
O O11 0.000000 0.253720 0.000000
O O12 0.902071 0.000000 0.204036
O O13 0.883728 0.715190 0.132564
O O14 0.249961 0.500000 0.100183
O O15 0.338123 0.239746 0.169752
O O16 0.386248 0.500000 0.809744
O O17 0.500000 0.741574 0.000000
O O18 0.500000 0.221097 0.500000
O O19 0.465501 0.000000 0.334705
#
# Coordination Sequence:
#
# PCOD8066651 Si02
#       7
#     4   4   4   4   4   4   4
#     4   9  20  40  62  82 113 156 195 235 287 349
#     4  10  21  39  61  82 115 157 192 239 292 340
#     4   9  19  35  56  84 116 151 191 230 281 348
#     4   9  20  39  60  85 117 151 190 238 290 340
#     4  11  22  35  60  90 116 149 191 237 288 346
#     4  10  23  39  57  86 120 150 192 248 293 336
#     4  11  23  39  59  83 117 152 191 240 285 336
#
# _framework density 19.505738000000001
#
# number of rings (size 3 to 8) (size 9 to 14) (size 15 to 20)
#    0.000    2.143    1.429    1.714    4.000    2.571 
#    0.000    1.429    0.000    2.143    0.000    0.000 
#    0.000    0.000    0.000    0.000    0.000    0.000 
#
# Total GULP energy -347250.957260 kJ/mol
# GULP energy per Si atom -12401.819902 kJ/mol
# Density = 1.946134 g / cm^3
# Si number density = 19.505738 Si / 1000 Ang^3
#
#
#
# Elastic Constant Matrix: (Units=GPa)
#
#
# Indices 1 2 3 4 5 6 
#
# 1 110.2668 27.2283 70.2347 0.0000 3.6927 0.0000
# 2 27.2283 27.6609 29.9685 0.0000 -2.7419 0.0000
# 3 70.2347 29.9685 135.9797 0.0000 -5.8087 0.0000
# 4 0.0000 0.0000 0.0000 26.7368 0.0000 0.0016
# 5 3.6927 -2.7419 -5.8087 0.0000 41.9008 0.0000
# 6 0.0000 0.0000 0.0000 0.0016 0.0000 25.5800
#
#
#
# Elastic Compliance Matrix: (Units=1/GPa)
#
#
# Indices 1 2 3 4 5 6 
#
# 1 0.015134 -0.008635 -0.006031 0.000000 -0.002735 0.000000
# 2 -0.008635 0.052534 -0.006980 0.000000 0.003231 0.000000
# 3 -0.006031 -0.006980 0.012082 0.000000 0.001750 0.000000
# 4 0.000000 0.000000 0.000000 0.037402 0.000000 -0.000002
# 5 -0.002735 0.003231 0.001750 0.000000 0.024561 0.000000
# 6 0.000000 0.000000 0.000000 -0.000002 0.000000 0.039093
#
#
# Mechanical properties :
#
#
# Convention : Reuss Voigt Hill
#
# Bulk Modulus (GPa) = 27.42766 58.75226 43.08996
# Shear Modulus (GPa) = 21.16404 28.60856 24.88630
#
# Velocity S-wave (km/s) = 3.29753 3.83387 3.57577
# Velocity P-wave (km/s) = 5.34697 7.05578 6.25996
#
# Compressibility (1/GPa) = 0.03645954
#
# Stress axis : x y z
#
# Youngs Moduli (GPa) = 66.07701 19.03516 82.76768
#
# Poissons Ratio (x) = 0.16436 0.49914
# Poissons Ratio (y) = 0.57055 0.57773
# Poissons Ratio (z) = 0.39849 0.13287
#
# Static dielectric constant tensor:
#      x y z
#    x 3.572600 0.000000 -0.104920 
#    y 0.000000 3.269790 0.000000 
#    z -0.104920 0.000000 3.832870 
# 
# 
# High freq. dielectric constant tensor:
#      x y z
#    x 1.762820 0.000000 -0.000510 
#    y 0.000000 1.737080 0.000000 
#    z -0.000510 0.000000 1.774410 
# 
# From -- ./inp_files/49361.got.cif
#   From: 2010.06.25/outbox.cif.g09.slc.cpg/sg10_25_cif.got.tgz:49361.got - 2010.06.27 22:07:45.
