data_PCOD8066998
_publ_section_title
;
Structure prediction by ZEFSAII (Michael W. Deem and Ramdas Pophale) SiO2 
 PCOD8066998
Probable space group: P 2/M
;
_chemical_formula_sum "Si O2"
_cell_formula_units_Z 22
_cell_length_a 5.055576
_cell_length_b 8.308353
_cell_length_c 25.284645
_cell_angle_alpha 90.000000
_cell_angle_beta 118.068502
_cell_angle_gamma 90.000000
_cell_volume 937.132264
_symmetry_space_group_name_H-M "P 2/M"
_symmetry_group_IT_number 10
_symmetry_cell_setting 'monoclinic'
loop_
_space_group_symop_operation_xyz
x,y,z
-x,y,-z
-x,-y,-z
x,-y,z
loop_
_atom_site_type_symbol
_atom_site_label
_atom_site_fract_x
_atom_site_fract_y
_atom_site_fract_z
Si Si1 0.857314 0.682243 0.821392
Si Si2 0.828088 0.684810 0.630063
Si Si3 0.647244 0.000000 0.957908
Si Si4 0.817513 0.813680 0.432214
Si Si5 0.196290 0.186476 0.759346
Si Si6 0.231941 0.323796 0.069449
O O1 0.884523 0.500000 0.804234
O O2 0.520215 0.739625 0.780140
O O3 0.941398 0.698995 0.891372
O O4 0.092125 0.787142 0.810035
O O5 0.732950 0.500000 0.620463
O O6 0.533860 0.789277 0.590474
O O7 0.079724 0.717014 0.609734
O O8 0.956179 0.728240 0.699347
O O9 0.555777 0.165528 0.918202
O O10 0.500000 0.000000 0.000000
O O11 0.000000 0.000000 0.000000
O O12 0.000000 0.749386 0.500000
O O13 0.886044 0.000000 0.428817
O O14 0.210023 0.000000 0.746783
O O15 0.404714 0.500000 0.086970
O O16 0.000000 0.330081 0.000000
#
# Coordination Sequence:
#
# PCOD8066998 Si02
#       6
#     4   4   2   4   4   4
#     4  11  24  44  68  96 131 171 220 275 331 400
#     4  12  25  43  67  96 134 175 221 273 326 388
#     4  10  22  38  60  90 122 160 206 256 307 386
#     4  11  24  43  68  99 136 176 219 268 325 388
#     4  12  26  44  68  96 131 174 222 274 331 394
#     4   9  21  42  67  95 131 172 214 269 337 401
#
# _framework density 23.475874000000001
#
# number of rings (size 3 to 8) (size 9 to 14) (size 15 to 20)
#    0.000    1.091    0.000    6.000    2.545    6.909 
#    0.000    5.455    0.000    0.000    0.000    0.000 
#    0.000    0.000    0.000    0.000    0.000    0.000 
#
# Total GULP energy -272832.233518 kJ/mol
# GULP energy per Si atom -12401.465160 kJ/mol
# Density = 2.342244 g / cm^3
# Si number density = 23.475874 Si / 1000 Ang^3
#
#
#
# Elastic Constant Matrix: (Units=GPa)
#
#
# Indices 1 2 3 4 5 6 
#
# 1 91.9119 21.3134 3.3381 0.0000 -10.6027 0.0000
# 2 21.3134 157.1001 12.5548 0.0000 -34.8107 0.0000
# 3 3.3381 12.5548 115.2266 0.0000 6.7813 0.0000
# 4 0.0000 0.0000 0.0000 55.9343 0.0000 -38.9327
# 5 -10.6027 -34.8107 6.7813 0.0000 54.2568 0.0000
# 6 0.0000 0.0000 0.0000 -38.9327 0.0000 90.8328
#
#
#
# Elastic Compliance Matrix: (Units=1/GPa)
#
#
# Indices 1 2 3 4 5 6 
#
# 1 0.011337 -0.001185 -0.000287 0.000000 0.001491 0.000000
# 2 -0.001185 0.007684 -0.001087 0.000000 0.004835 0.000000
# 3 -0.000287 -0.001087 0.008915 0.000000 -0.001868 0.000000
# 4 0.000000 0.000000 0.000000 0.025480 0.000000 0.010921
# 5 0.001491 0.004835 -0.001868 0.000000 0.022058 0.000000
# 6 0.000000 0.000000 0.000000 0.010921 0.000000 0.015690
#
#
# Mechanical properties :
#
#
# Convention : Reuss Voigt Hill
#
# Bulk Modulus (GPa) = 43.82476 48.73902 46.28189
# Shear Modulus (GPa) = 48.12841 62.00695 55.06768
#
# Velocity S-wave (km/s) = 4.53274 5.14494 4.84851
# Velocity P-wave (km/s) = 6.78991 7.49001 7.14853
#
# Compressibility (1/GPa) = 0.02281815
#
# Stress axis : x y z
#
# Youngs Moduli (GPa) = 88.20555 130.13627 112.16680
#
# Poissons Ratio (x) = 0.15417 0.03221
# Poissons Ratio (y) = 0.10450 0.12198
# Poissons Ratio (z) = 0.02533 0.14152
#
# Static dielectric constant tensor:
#      x y z
#    x 3.858820 0.000000 -0.070410 
#    y 0.000000 4.780810 0.000000 
#    z -0.070410 0.000000 4.267850 
# 
# 
# High freq. dielectric constant tensor:
#      x y z
#    x 1.920430 0.000000 -0.006750 
#    y 0.000000 1.950190 0.000000 
#    z -0.006750 0.000000 1.938380 
# 
# From -- ./inp_files/87358.got.cif
#   From: 2010.06.25/outbox.cif.g09.slc.cpg/sg10_44_cif.got.tgz:87358.got - 2010.06.27 22:07:45.
