data_PCOD8066586
_publ_section_title
;
Structure prediction by ZEFSAII (Michael W. Deem and Ramdas Pophale) SiO2 
 PCOD8066586
Probable space group: P 2/M
;
_chemical_formula_sum "Si O2"
_cell_formula_units_Z 24
_cell_length_a 15.568202
_cell_length_b 7.691487
_cell_length_c 14.802527
_cell_angle_alpha 90.000000
_cell_angle_beta 140.519871
_cell_angle_gamma 90.000000
_cell_volume 1126.970051
_symmetry_space_group_name_H-M "P 2/M"
_symmetry_group_IT_number 10
_symmetry_cell_setting 'monoclinic'
loop_
_space_group_symop_operation_xyz
x,y,z
-x,y,-z
-x,-y,-z
x,-y,z
loop_
_atom_site_type_symbol
_atom_site_label
_atom_site_fract_x
_atom_site_fract_y
_atom_site_fract_z
Si Si1 0.554239 0.206535 0.448798
Si Si2 0.654499 0.195358 0.870846
Si Si3 0.867592 0.199756 0.450136
Si Si4 0.311210 0.500000 0.768310
Si Si5 0.067507 0.302520 0.964131
Si Si6 0.853999 0.797869 0.647841
Si Si7 0.376750 0.500000 0.019844
O O1 0.500000 0.282728 0.500000
O O2 0.454528 0.269927 0.288676
O O3 0.704441 0.276505 0.548767
O O4 0.553487 0.000000 0.451602
O O5 0.663716 0.324218 0.962276
O O6 0.615098 0.000000 0.870832
O O7 0.802002 0.184190 0.945983
O O8 0.749125 0.324306 0.321535
O O9 0.894463 0.236861 0.577107
O O10 0.000000 0.243882 0.500000
O O11 0.821796 0.000000 0.398192
O O12 0.466282 0.500000 0.870368
O O13 0.289424 0.500000 0.857839
O O14 0.116343 0.500000 0.017858
O O15 0.962861 0.299782 0.796659
O O16 0.000000 0.228443 0.000000
O O17 0.859473 0.000000 0.676079
#
# Coordination Sequence:
#
# PCOD8066586 Si02
#       7
#     4   4   4   2   4   4   2
#     4   9  18  35  61  92 123 162 213 258 310 381
#     4  11  23  42  68  91 129 174 210 267 327 379
#     4  10  23  41  66  98 126 162 219 268 319 391
#     4  11  25  44  68  88 132 171 200 274 336 372
#     4  11  24  40  60  95 137 173 217 264 313 387
#     4  10  21  38  62  92 125 164 213 266 320 380
#     4  11  26  44  62  98 124 162 224 260 315 409
#
# _framework density 21.296042
#
# number of rings (size 3 to 8) (size 9 to 14) (size 15 to 20)
#    0.000    1.667    0.833    2.750    3.500    5.333 
#    1.500    2.083    0.000    0.000    0.000    0.000 
#    0.000    0.000    0.000    0.000    0.000    0.000 
#
# Total GULP energy -297695.204753 kJ/mol
# GULP energy per Si atom -12403.966865 kJ/mol
# Density = 2.124757 g / cm^3
# Si number density = 21.296042 Si / 1000 Ang^3
#
#
#
# Elastic Constant Matrix: (Units=GPa)
#
#
# Indices 1 2 3 4 5 6 
#
# 1 112.5884 14.5105 21.1064 0.0000 -8.8621 0.0000
# 2 14.5105 79.6362 17.9188 0.0000 -12.6097 0.0000
# 3 21.1064 17.9188 104.1716 0.0000 -3.3877 0.0000
# 4 0.0000 0.0000 0.0000 25.8214 0.0000 -5.6316
# 5 -8.8621 -12.6097 -3.3877 0.0000 40.9809 0.0000
# 6 0.0000 0.0000 0.0000 -5.6316 0.0000 15.0025
#
#
#
# Elastic Compliance Matrix: (Units=1/GPa)
#
#
# Indices 1 2 3 4 5 6 
#
# 1 0.009461 -0.001098 -0.001677 0.000000 0.001569 0.000000
# 2 -0.001098 0.013823 -0.002030 0.000000 0.003848 0.000000
# 3 -0.001677 -0.002030 0.010284 0.000000 -0.000137 0.000000
# 4 0.000000 0.000000 0.000000 0.042181 0.000000 0.015834
# 5 0.001569 0.003848 -0.000137 0.000000 0.025914 0.000000
# 6 0.000000 0.000000 0.000000 0.015834 0.000000 0.072599
#
#
# Mechanical properties :
#
#
# Convention : Reuss Voigt Hill
#
# Bulk Modulus (GPa) = 41.73944 44.82974 43.28459
# Shear Modulus (GPa) = 26.06078 32.55167 29.30623
#
# Velocity S-wave (km/s) = 3.50199 3.91389 3.71365
# Velocity P-wave (km/s) = 5.99951 6.44369 6.22556
#
# Compressibility (1/GPa) = 0.02395816
#
# Stress axis : x y z
#
# Youngs Moduli (GPa) = 105.69302 72.34156 97.23763
#
# Poissons Ratio (x) = 0.07944 0.16307
# Poissons Ratio (y) = 0.11606 0.19741
# Poissons Ratio (z) = 0.17725 0.14686
#
# Static dielectric constant tensor:
#      x y z
#    x 4.123000 0.000000 -0.047300 
#    y 0.000000 3.884050 0.000000 
#    z -0.047300 0.000000 3.842310 
# 
# 
# High freq. dielectric constant tensor:
#      x y z
#    x 1.846120 0.000000 0.000900 
#    y 0.000000 1.830650 0.000000 
#    z 0.000900 0.000000 1.838150 
# 
# From -- ./inp_files/66721.got.cif
#   From: 2010.06.25/outbox.cif.g09.slc.cpg/sg10_34_cif.got.tgz:66721.got - 2010.06.27 22:07:45.
