data_PCOD8066896
_publ_section_title
;
Structure prediction by ZEFSAII (Michael W. Deem and Ramdas Pophale) SiO2 
 PCOD8066896
Probable space group: P 2/M
;
_chemical_formula_sum "Si O2"
_cell_formula_units_Z 28
_cell_length_a 19.596835
_cell_length_b 8.623646
_cell_length_c 14.672752
_cell_angle_alpha 90.000000
_cell_angle_beta 32.147344
_cell_angle_gamma 90.000000
_cell_volume 1319.411825
_symmetry_space_group_name_H-M "P 2/M"
_symmetry_group_IT_number 10
_symmetry_cell_setting 'monoclinic'
loop_
_space_group_symop_operation_xyz
x,y,z
-x,y,-z
-x,-y,-z
x,-y,z
loop_
_atom_site_type_symbol
_atom_site_label
_atom_site_fract_x
_atom_site_fract_y
_atom_site_fract_z
Si Si1 0.961103 0.681503 0.775842
Si Si2 0.107930 0.178539 0.954139
Si Si3 0.256950 0.327007 0.637469
Si Si4 0.518829 0.316299 0.877240
Si Si5 0.220756 0.180053 0.493096
Si Si6 0.535884 0.326797 0.365626
Si Si7 0.689029 0.684367 0.029150
O O1 0.988578 0.500000 0.739501
O O2 0.839351 0.727217 0.848594
O O3 0.087623 0.768889 0.594784
O O4 0.928338 0.725805 0.916091
O O5 0.233687 0.253482 0.764356
O O6 0.131249 0.000000 0.953994
O O7 0.000000 0.199079 0.000000
O O8 0.197056 0.500000 0.698818
O O9 0.197510 0.219359 0.625783
O O10 0.408470 0.335277 0.447838
O O11 0.512256 0.500000 0.885310
O O12 0.658056 0.269228 0.683858
O O13 0.500000 0.248981 0.000000
O O14 0.400366 0.248399 0.950656
O O15 0.243975 0.000000 0.452928
O O16 0.500000 0.235713 0.500000
O O17 0.583835 0.500000 0.338778
O O18 0.641791 0.245589 0.180878
O O19 0.669938 0.500000 0.055642
#
# Coordination Sequence:
#
# PCOD8066896 Si02
#       7
#     4   4   4   4   4   4   4
#     4  11  22  37  61  87 118 162 209 250 297 352
#     4  11  22  34  49  77 122 165 206 253 299 351
#     4  11  20  33  57  82 111 155 210 255 293 347
#     4  10  21  42  72  98 118 148 195 251 308 367
#     4  12  24  39  59  86 124 159 194 244 302 360
#     4   9  16  28  51  82 115 148 189 244 297 341
#     4   9  18  35  59  92 123 148 194 258 306 349
#
# _framework density 21.221577
#
# number of rings (size 3 to 8) (size 9 to 14) (size 15 to 20)
#    0.000    1.571    2.857    3.429    0.000    3.143 
#    0.000    2.143    0.000    6.000    0.000    0.000 
#    0.000    0.000    0.000    0.000    0.000    0.000 
#
# Total GULP energy -347059.691809 kJ/mol
# GULP energy per Si atom -12394.988993 kJ/mol
# Density = 2.117328 g / cm^3
# Si number density = 21.221577 Si / 1000 Ang^3
#
#
#
# Elastic Constant Matrix: (Units=GPa)
#
#
# Indices 1 2 3 4 5 6 
#
# 1 104.6209 5.9988 51.2338 0.0000 -5.3263 0.0000
# 2 5.9988 33.2918 -2.7220 0.0000 -0.7414 0.0000
# 3 51.2338 -2.7220 85.3049 0.0000 -12.4992 0.0000
# 4 0.0000 0.0000 0.0000 16.2833 0.0000 -0.4458
# 5 -5.3263 -0.7414 -12.4992 0.0000 36.0737 0.0000
# 6 0.0000 0.0000 0.0000 -0.4458 0.0000 2.4313
#
#
#
# Elastic Compliance Matrix: (Units=1/GPa)
#
#
# Indices 1 2 3 4 5 6 
#
# 1 0.013904 -0.003231 -0.008599 0.000000 -0.000993 0.000000
# 2 -0.003231 0.030901 0.003107 0.000000 0.001235 0.000000
# 3 -0.008599 0.003107 0.017709 0.000000 0.004930 0.000000
# 4 0.000000 0.000000 0.000000 0.061722 0.000000 0.011319
# 5 -0.000993 0.001235 0.004930 0.000000 0.029308 0.000000
# 6 0.000000 0.000000 0.000000 0.011319 0.000000 0.413386
#
#
# Mechanical properties :
#
#
# Convention : Reuss Voigt Hill
#
# Bulk Modulus (GPa) = 22.18835 36.91544 29.55189
# Shear Modulus (GPa) = 8.34169 22.20479 15.27324
#
# Velocity S-wave (km/s) = 1.98476 3.23821 2.68564
# Velocity P-wave (km/s) = 3.96619 5.60485 4.85515
#
# Compressibility (1/GPa) = 0.04506871
#
# Stress axis : x y z
#
# Youngs Moduli (GPa) = 71.92067 32.36130 56.46855
#
# Poissons Ratio (x) = 0.10455 0.48560
# Poissons Ratio (y) = 0.23235 -0.17546
# Poissons Ratio (z) = 0.61848 -0.10055
#
# Static dielectric constant tensor:
#      x y z
#    x 4.034380 0.000000 -0.219620 
#    y 0.000000 3.430580 0.000000 
#    z -0.219620 0.000000 3.929490 
# 
# 
# High freq. dielectric constant tensor:
#      x y z
#    x 1.825270 0.000000 -0.025920 
#    y 0.000000 1.792900 0.000000 
#    z -0.025920 0.000000 1.833020 
# 
# From -- ./inp_files/70188.got.cif
#   From: 2010.06.25/outbox.cif.g09.slc.cpg/sg10_36_cif.got.tgz:70188.got - 2010.06.27 22:07:45.
