data_PCOD8066535
_publ_section_title
;
Structure prediction by ZEFSAII (Michael W. Deem and Ramdas Pophale) SiO2 
 PCOD8066535
Probable space group: P 2/M
;
_chemical_formula_sum "Si O2"
_cell_formula_units_Z 28
_cell_length_a 11.584082
_cell_length_b 8.526921
_cell_length_c 14.498694
_cell_angle_alpha 90.000000
_cell_angle_beta 69.219368
_cell_angle_gamma 90.000000
_cell_volume 1338.964668
_symmetry_space_group_name_H-M "P 2/M"
_symmetry_group_IT_number 10
_symmetry_cell_setting 'monoclinic'
loop_
_space_group_symop_operation_xyz
x,y,z
-x,y,-z
-x,-y,-z
x,-y,z
loop_
_atom_site_type_symbol
_atom_site_label
_atom_site_fract_x
_atom_site_fract_y
_atom_site_fract_z
Si Si1 0.815802 0.682586 0.801364
Si Si2 0.378965 0.814299 0.651568
Si Si3 0.674724 0.319231 0.147436
Si Si4 0.345134 0.185645 0.457306
Si Si5 0.884097 0.814270 0.594731
Si Si6 0.546598 0.182090 0.885878
Si Si7 0.112633 0.816729 0.031203
O O1 0.784868 0.500000 0.810253
O O2 0.896734 0.729705 0.689630
O O3 0.689629 0.779833 0.834533
O O4 0.893553 0.725590 0.870332
O O5 0.301772 0.727021 0.752907
O O6 0.521613 0.758033 0.616072
O O7 0.322553 0.760404 0.569433
O O8 0.367972 0.000000 0.669093
O O9 0.706290 0.500000 0.122383
O O10 0.532321 0.282088 0.164516
O O11 0.759280 0.215788 0.056671
O O12 0.238435 0.251614 0.421439
O O13 0.342345 0.000000 0.457524
O O14 0.000000 0.765681 0.500000
O O15 0.878580 0.000000 0.611639
O O16 0.526314 0.000000 0.869628
O O17 0.500000 0.228238 0.000000
O O18 0.101790 0.000000 0.055376
O O19 0.000000 0.756733 0.000000
#
# Coordination Sequence:
#
# PCOD8066535 Si02
#       7
#     4   4   4   4   4   4   4
#     4  12  25  41  64  94 129 162 197 254 322 374
#     4   9  17  33  58  83 113 154 200 247 296 352
#     4  12  24  37  58  92 129 160 196 245 310 372
#     4   8  16  33  57  84 111 148 201 254 294 338
#     4  10  21  38  61  87 118 160 210 253 294 356
#     4  11  22  38  64  91 121 161 207 252 298 360
#     4  11  25  45  66  86 114 159 211 253 293 357
#
# _framework density 20.911677999999998
#
# number of rings (size 3 to 8) (size 9 to 14) (size 15 to 20)
#    0.000    1.571    1.429    5.143    0.000    4.286 
#    0.000    5.000    0.000    0.000    0.000    0.000 
#    0.000    0.000    0.000    0.000    0.000    0.000 
#
# Total GULP energy -347312.967531 kJ/mol
# GULP energy per Si atom -12404.034555 kJ/mol
# Density = 2.086408 g / cm^3
# Si number density = 20.911678 Si / 1000 Ang^3
#
#
#
# Elastic Constant Matrix: (Units=GPa)
#
#
# Indices 1 2 3 4 5 6 
#
# 1 91.2172 11.9225 39.9949 0.0000 14.1487 0.0000
# 2 11.9225 54.2312 30.1143 0.0000 4.2723 0.0000
# 3 39.9949 30.1143 154.3794 0.0000 15.4653 0.0000
# 4 0.0000 0.0000 0.0000 14.2650 0.0000 -1.6000
# 5 14.1487 4.2723 15.4653 0.0000 29.3974 0.0000
# 6 0.0000 0.0000 0.0000 -1.6000 0.0000 16.7796
#
#
#
# Elastic Compliance Matrix: (Units=1/GPa)
#
#
# Indices 1 2 3 4 5 6 
#
# 1 0.013007 -0.000987 -0.002707 0.000000 -0.004692 0.000000
# 2 -0.000987 0.020779 -0.003740 0.000000 -0.000578 0.000000
# 3 -0.002707 -0.003740 0.008153 0.000000 -0.002443 0.000000
# 4 0.000000 0.000000 0.000000 0.070860 0.000000 0.006757
# 5 -0.004692 -0.000578 -0.002443 0.000000 0.037644 0.000000
# 6 0.000000 0.000000 0.000000 0.006757 0.000000 0.060241
#
#
# Mechanical properties :
#
#
# Convention : Reuss Voigt Hill
#
# Bulk Modulus (GPa) = 36.93926 51.54347 44.24137
# Shear Modulus (GPa) = 21.31532 26.60814 23.96173
#
# Velocity S-wave (km/s) = 3.19611 3.57095 3.38872
# Velocity P-wave (km/s) = 5.59669 6.45786 6.04264
#
# Compressibility (1/GPa) = 0.02707147
#
# Stress axis : x y z
#
# Youngs Moduli (GPa) = 76.88424 48.12639 122.65291
#
# Poissons Ratio (x) = 0.04748 0.33203
# Poissons Ratio (y) = 0.07585 0.45870
# Poissons Ratio (z) = 0.20813 0.17998
#
# Static dielectric constant tensor:
#      x y z
#    x 3.931510 0.000000 0.227280 
#    y 0.000000 3.438030 0.000000 
#    z 0.227280 0.000000 3.983920 
# 
# 
# High freq. dielectric constant tensor:
#      x y z
#    x 1.810720 0.000000 0.011900 
#    y 0.000000 1.795460 0.000000 
#    z 0.011900 0.000000 1.834290 
# 
# From -- ./inp_files/63354.got.cif
#   From: 2010.06.25/outbox.cif.g09.slc.cpg/sg10_32_cif.got.tgz:63354.got - 2010.06.27 22:07:45.
