data_PCOD8066760
_publ_section_title
;
Structure prediction by ZEFSAII (Michael W. Deem and Ramdas Pophale) SiO2 
 PCOD8066760
Probable space group: P 2/M
;
_chemical_formula_sum "Si O2"
_cell_formula_units_Z 28
_cell_length_a 11.698752
_cell_length_b 8.733064
_cell_length_c 15.045203
_cell_angle_alpha 90.000000
_cell_angle_beta 118.556461
_cell_angle_gamma 90.000000
_cell_volume 1350.112923
_symmetry_space_group_name_H-M "P 2/M"
_symmetry_group_IT_number 10
_symmetry_cell_setting 'monoclinic'
loop_
_space_group_symop_operation_xyz
x,y,z
-x,y,-z
-x,-y,-z
x,-y,z
loop_
_atom_site_type_symbol
_atom_site_label
_atom_site_fract_x
_atom_site_fract_y
_atom_site_fract_z
Si Si1 0.084019 0.818851 0.116351
Si Si2 0.878645 0.181426 0.514269
Si Si3 0.636829 0.320228 0.810335
Si Si4 0.630558 0.171174 0.993672
Si Si5 0.739609 0.327520 0.193019
Si Si6 0.030402 0.672315 0.280359
Si Si7 0.622778 0.820195 0.316354
O O1 0.230957 0.758961 0.170826
O O2 0.020793 0.761466 0.184025
O O3 0.085689 0.000000 0.116247
O O4 0.000000 0.758415 0.000000
O O5 0.876695 0.246767 0.613449
O O6 0.741395 0.236186 0.422028
O O7 0.000000 0.242852 0.500000
O O8 0.886359 0.000000 0.522278
O O9 0.652405 0.500000 0.805038
O O10 0.512426 0.262691 0.706072
O O11 0.606518 0.274532 0.899632
O O12 0.736366 0.256672 0.093123
O O13 0.679848 0.000000 0.985552
O O14 0.500000 0.160175 0.000000
O O15 0.681799 0.500000 0.173525
O O16 0.658409 0.220357 0.228433
O O17 0.890174 0.328760 0.275477
O O18 0.080033 0.500000 0.280578
O O19 0.599634 0.000000 0.314396
#
# Coordination Sequence:
#
# PCOD8066760 Si02
#       7
#     4   4   4   4   4   4   4
#     4  11  25  46  71  95 124 167 217 263 311 377
#     4  10  21  39  64  94 128 170 216 263 316 376
#     4  12  25  41  63  90 127 166 207 262 322 380
#     4  11  22  35  55  84 120 161 205 252 305 373
#     4  11  22  35  56  89 126 163 203 254 316 375
#     4  11  24  40  63  95 130 166 209 264 321 377
#     4  11  22  38  61  90 126 165 209 258 310 374
#
# _framework density 20.739007000000001
#
# number of rings (size 3 to 8) (size 9 to 14) (size 15 to 20)
#    0.000    1.000    2.857    4.286    0.000    7.143 
#    0.000    0.714    0.000    4.286    0.000    0.000 
#    0.000    0.000    0.000    0.000    0.000    0.000 
#
# Total GULP energy -347224.232739 kJ/mol
# GULP energy per Si atom -12400.865455 kJ/mol
# Density = 2.069180 g / cm^3
# Si number density = 20.739007 Si / 1000 Ang^3
#
#
#
# Elastic Constant Matrix: (Units=GPa)
#
#
# Indices 1 2 3 4 5 6 
#
# 1 85.4145 23.1550 33.5004 0.0000 15.0011 0.0000
# 2 23.1550 71.3720 38.5965 0.0000 5.6522 0.0000
# 3 33.5004 38.5965 124.4541 0.0000 13.3728 0.0000
# 4 0.0000 0.0000 0.0000 27.0430 0.0000 2.2790
# 5 15.0011 5.6522 13.3728 0.0000 34.5682 0.0000
# 6 0.0000 0.0000 0.0000 2.2790 0.0000 28.8520
#
#
#
# Elastic Compliance Matrix: (Units=1/GPa)
#
#
# Indices 1 2 3 4 5 6 
#
# 1 0.014297 -0.002951 -0.002419 0.000000 -0.004786 0.000000
# 2 -0.002951 0.017463 -0.004645 0.000000 0.000222 0.000000
# 3 -0.002419 -0.004645 0.010363 0.000000 -0.002200 0.000000
# 4 0.000000 0.000000 0.000000 0.037226 0.000000 -0.002940
# 5 -0.004786 0.000222 -0.002200 0.000000 0.031820 0.000000
# 6 0.000000 0.000000 0.000000 -0.002940 0.000000 0.034892
#
#
# Mechanical properties :
#
#
# Convention : Reuss Voigt Hill
#
# Bulk Modulus (GPa) = 45.26439 52.41603 48.84021
# Shear Modulus (GPa) = 28.82583 30.49190 29.65887
#
# Velocity S-wave (km/s) = 3.73223 3.83857 3.78577
# Velocity P-wave (km/s) = 6.35970 6.70635 6.53532
#
# Compressibility (1/GPa) = 0.02209242
#
# Stress axis : x y z
#
# Youngs Moduli (GPa) = 69.94520 57.26402 96.49539
#
# Poissons Ratio (x) = 0.16900 0.23342
# Poissons Ratio (y) = 0.20642 0.44824
# Poissons Ratio (z) = 0.16919 0.26600
#
# Static dielectric constant tensor:
#      x y z
#    x 3.751730 0.000000 0.233810 
#    y 0.000000 3.878360 0.000000 
#    z 0.233810 0.000000 3.901140 
# 
# 
# High freq. dielectric constant tensor:
#      x y z
#    x 1.801510 0.000000 0.018230 
#    y 0.000000 1.818110 0.000000 
#    z 0.018230 0.000000 1.812010 
# 
# From -- ./inp_files/49654.got.cif
#   From: 2010.06.25/outbox.cif.g09.slc.cpg/sg10_25_cif.got.tgz:49654.got - 2010.06.27 22:07:45.
