data_PCOD8066993
_publ_section_title
;
Structure prediction by ZEFSAII (Michael W. Deem and Ramdas Pophale) SiO2 
 PCOD8066993
Probable space group: P 2/M
;
_chemical_formula_sum "Si O2"
_cell_formula_units_Z 32
_cell_length_a 9.049585
_cell_length_b 13.160143
_cell_length_c 12.997397
_cell_angle_alpha 90.000000
_cell_angle_beta 87.447559
_cell_angle_gamma 90.000000
_cell_volume 1546.374111
_symmetry_space_group_name_H-M "P 2/M"
_symmetry_group_IT_number 10
_symmetry_cell_setting 'monoclinic'
loop_
_space_group_symop_operation_xyz
x,y,z
-x,y,-z
-x,-y,-z
x,-y,z
loop_
_atom_site_type_symbol
_atom_site_label
_atom_site_fract_x
_atom_site_fract_y
_atom_site_fract_z
Si Si1 0.229862 0.111953 0.751877
Si Si2 0.520478 0.889042 0.616474
Si Si3 0.857796 0.614156 0.728882
Si Si4 0.608915 0.240605 0.081008
Si Si5 0.646261 0.616940 0.430737
Si Si6 0.075786 0.249780 0.598337
Si Si7 0.160172 0.618332 0.041485
Si Si8 0.447505 0.691296 0.274710
O O1 0.358100 0.100330 0.666100
O O2 0.291550 0.163214 0.854840
O O3 0.105032 0.173890 0.692911
O O4 0.167801 0.000000 0.783543
O O5 0.500000 0.854709 0.500000
O O6 0.603446 0.801351 0.677450
O O7 0.601347 0.000000 0.622208
O O8 0.916624 0.500000 0.733015
O O9 0.853807 0.663119 0.842695
O O10 0.687898 0.616508 0.695276
O O11 0.963693 0.668429 0.646450
O O12 0.488339 0.299793 0.154073
O O13 0.500000 0.186214 0.000000
O O14 0.718501 0.320739 0.026157
O O15 0.500000 0.644200 0.500000
O O16 0.695327 0.500000 0.441841
O O17 0.781475 0.691417 0.451574
O O18 0.598090 0.644200 0.316310
O O19 0.000000 0.196332 0.500000
O O20 0.207114 0.500000 0.040516
O O21 0.000000 0.635103 0.000000
#
# Coordination Sequence:
#
# PCOD8066993 Si02
#       8
#     4   4   4   4   4   4   4   4
#     4  10  23  43  64  92 125 160 207 264 323 377
#     4   9  18  34  61  89 116 152 200 257 313 361
#     4  11  24  40  59  91 131 166 206 258 307 366
#     4  11  21  40  66  96 120 161 208 265 317 374
#     4  11  23  39  61  90 126 168 213 254 306 374
#     4  12  25  41  64  91 127 173 209 253 310 375
#     4  10  22  38  60  88 124 168 209 255 313 371
#     4  11  21  37  61  90 124 163 207 257 311 367
#
# _framework density 20.693570999999999
#
# number of rings (size 3 to 8) (size 9 to 14) (size 15 to 20)
#    0.000    1.375    3.750    2.625    1.750    3.750 
#    0.000    0.625    0.000    3.375    0.000    0.000 
#    0.000    0.000    0.000    0.000    0.000    0.000 
#
# Total GULP energy -396542.926319 kJ/mol
# GULP energy per Si atom -12391.966447 kJ/mol
# Density = 2.064647 g / cm^3
# Si number density = 20.693571 Si / 1000 Ang^3
#
#
#
# Elastic Constant Matrix: (Units=GPa)
#
#
# Indices 1 2 3 4 5 6 
#
# 1 86.4093 30.4660 41.8446 0.0000 12.0667 0.0000
# 2 30.4660 86.3602 34.1965 0.0000 6.0547 0.0000
# 3 41.8446 34.1965 121.8157 0.0000 9.7647 0.0000
# 4 0.0000 0.0000 0.0000 3.5858 0.0000 -0.7882
# 5 12.0667 6.0547 9.7647 0.0000 40.6389 0.0000
# 6 0.0000 0.0000 0.0000 -0.7882 0.0000 19.9296
#
#
#
# Elastic Compliance Matrix: (Units=1/GPa)
#
#
# Indices 1 2 3 4 5 6 
#
# 1 0.015175 -0.003570 -0.003968 0.000000 -0.003020 0.000000
# 2 -0.003570 0.013914 -0.002650 0.000000 -0.000376 0.000000
# 3 -0.003968 -0.002650 0.010390 0.000000 -0.000923 0.000000
# 4 0.000000 0.000000 0.000000 0.281326 0.000000 0.011127
# 5 -0.003020 -0.000376 -0.000923 0.000000 0.025782 0.000000
# 6 0.000000 0.000000 0.000000 0.011127 0.000000 0.050617
#
#
# Mechanical properties :
#
#
# Convention : Reuss Voigt Hill
#
# Bulk Modulus (GPa) = 52.34707 56.39994 54.37350
# Shear Modulus (GPa) = 11.79389 25.36941 18.58165
#
# Velocity S-wave (km/s) = 2.38991 3.50516 2.99982
# Velocity P-wave (km/s) = 5.74167 6.61026 6.19122
#
# Compressibility (1/GPa) = 0.01910327
#
# Stress axis : x y z
#
# Youngs Moduli (GPa) = 65.89709 71.86766 96.24544
#
# Poissons Ratio (x) = 0.25659 0.38194
# Poissons Ratio (y) = 0.23527 0.25500
# Poissons Ratio (z) = 0.26151 0.19041
#
# Static dielectric constant tensor:
#      x y z
#    x 3.684620 0.000000 0.154670 
#    y 0.000000 4.072720 0.000000 
#    z 0.154670 0.000000 4.027980 
# 
# 
# High freq. dielectric constant tensor:
#      x y z
#    x 1.799530 0.000000 0.003660 
#    y 0.000000 1.796140 0.000000 
#    z 0.003660 0.000000 1.825630 
# 
# From -- ./inp_files/42967.got.cif
#   From: 2010.06.25/outbox.cif.g09.slc.cpg/sg10_22_cif.got.tgz:42967.got - 2010.06.27 22:07:45.
