data_PCOD8066720
_publ_section_title
;
Structure prediction by ZEFSAII (Michael W. Deem and Ramdas Pophale) SiO2 
 PCOD8066720
Probable space group: P 2/M
;
_chemical_formula_sum "Si O2"
_cell_formula_units_Z 32
_cell_length_a 11.802311
_cell_length_b 8.590266
_cell_length_c 28.489360
_cell_angle_alpha 90.000000
_cell_angle_beta 31.035267
_cell_angle_gamma 90.000000
_cell_volume 1489.156288
_symmetry_space_group_name_H-M "P 2/M"
_symmetry_group_IT_number 10
_symmetry_cell_setting 'monoclinic'
loop_
_space_group_symop_operation_xyz
x,y,z
-x,y,-z
-x,-y,-z
x,-y,z
loop_
_atom_site_type_symbol
_atom_site_label
_atom_site_fract_x
_atom_site_fract_y
_atom_site_fract_z
Si Si1 0.439575 0.817408 0.785508
Si Si2 0.915380 0.680515 0.333573
Si Si3 0.133086 0.318506 0.407528
Si Si4 0.642563 0.322785 0.341870
Si Si5 0.586801 0.317393 0.830897
Si Si6 0.095506 0.680033 0.843592
Si Si7 0.782575 0.178300 0.470026
Si Si8 0.627688 0.818112 0.001718
O O1 0.636589 0.768215 0.680734
O O2 0.482806 0.770562 0.823724
O O3 0.212480 0.736138 0.849886
O O4 0.406322 0.000000 0.794100
O O5 0.891386 0.500000 0.354659
O O6 0.839359 0.715345 0.307769
O O7 0.756199 0.778439 0.424612
O O8 0.164252 0.739450 0.250108
O O9 0.185853 0.500000 0.394006
O O10 0.000000 0.254761 0.500000
O O11 0.982570 0.286972 0.415954
O O12 0.560303 0.500000 0.377350
O O13 0.727706 0.292171 0.259862
O O14 0.438274 0.210250 0.423046
O O15 0.574754 0.500000 0.824931
O O16 0.456195 0.279145 0.924302
O O17 0.025961 0.500000 0.872563
O O18 0.884795 0.782465 0.905398
O O19 0.849066 0.000000 0.453284
O O20 0.589326 0.000000 0.024453
O O21 0.500000 0.764081 0.000000
#
# Coordination Sequence:
#
# PCOD8066720 Si02
#       8
#     4   4   4   4   4   4   4   4
#     4  12  25  42  65  96 133 169 211 267 332 390
#     4  10  21  39  63  89 123 166 214 266 318 378
#     4  11  23  40  62  87 121 170 223 270 316 379
#     4  10  22  40  62  89 123 167 215 267 320 378
#     4  11  23  42  70  98 128 172 222 269 319 387
#     4  11  24  44  69  96 127 168 219 266 316 385
#     4  12  24  36  56  89 126 166 211 263 323 385
#     4  11  25  45  70 102 138 171 207 264 331 387
#
# _framework density 21.488678
#
# number of rings (size 3 to 8) (size 9 to 14) (size 15 to 20)
#    0.000    1.000    1.250    5.625    0.000   10.000 
#    0.000    2.500    0.000    0.000    0.000    0.000 
#    0.000    0.000    0.000    0.000    0.000    0.000 
#
# Total GULP energy -397007.482187 kJ/mol
# GULP energy per Si atom -12406.483818 kJ/mol
# Density = 2.143977 g / cm^3
# Si number density = 21.488678 Si / 1000 Ang^3
#
#
#
# Elastic Constant Matrix: (Units=GPa)
#
#
# Indices 1 2 3 4 5 6 
#
# 1 112.9323 20.5650 31.8547 0.0000 -13.3289 0.0000
# 2 20.5650 60.7177 20.1711 0.0000 -0.3529 0.0000
# 3 31.8547 20.1711 76.4296 0.0000 -4.1876 0.0000
# 4 0.0000 0.0000 0.0000 32.6305 0.0000 -3.7077
# 5 -13.3289 -0.3529 -4.1876 0.0000 39.8666 0.0000
# 6 0.0000 0.0000 0.0000 -3.7077 0.0000 21.1205
#
#
#
# Elastic Compliance Matrix: (Units=1/GPa)
#
#
# Indices 1 2 3 4 5 6 
#
# 1 0.010695 -0.002390 -0.003653 0.000000 0.003171 0.000000
# 2 -0.002390 0.018591 -0.003968 0.000000 -0.001051 0.000000
# 3 -0.003653 -0.003968 0.015675 0.000000 0.000390 0.000000
# 4 0.000000 0.000000 0.000000 0.031270 0.000000 0.005489
# 5 0.003171 -0.001051 0.000390 0.000000 0.026175 0.000000
# 6 0.000000 0.000000 0.000000 0.005489 0.000000 0.048311
#
#
# Mechanical properties :
#
#
# Convention : Reuss Voigt Hill
#
# Bulk Modulus (GPa) = 40.09809 43.91791 42.00800
# Shear Modulus (GPa) = 27.92476 30.55611 29.24044
#
# Velocity S-wave (km/s) = 3.60878 3.77498 3.69282
# Velocity P-wave (km/s) = 6.00542 6.28353 6.14605
#
# Compressibility (1/GPa) = 0.02493884
#
# Stress axis : x y z
#
# Youngs Moduli (GPa) = 93.50404 53.78850 63.79609
#
# Poissons Ratio (x) = 0.12857 0.23303
# Poissons Ratio (y) = 0.22351 0.25314
# Poissons Ratio (z) = 0.34155 0.21343
#
# Static dielectric constant tensor:
#      x y z
#    x 4.019840 0.000000 -0.012770 
#    y 0.000000 3.737040 0.000000 
#    z -0.012770 0.000000 3.832950 
# 
# 
# High freq. dielectric constant tensor:
#      x y z
#    x 1.859590 0.000000 -0.000360 
#    y 0.000000 1.839500 0.000000 
#    z -0.000360 0.000000 1.842580 
# 
# From -- ./inp_files/94943.got.cif
#   From: 2010.06.25/outbox.cif.g09.slc.cpg/sg10_48_cif.got.tgz:94943.got - 2010.06.27 22:07:45.
