data_PCOD8066939
_publ_section_title
;
Structure prediction by ZEFSAII (Michael W. Deem and Ramdas Pophale) SiO2 
 PCOD8066939
Probable space group: P 2/M
;
_chemical_formula_sum "Si O2"
_cell_formula_units_Z 28
_cell_length_a 15.501312
_cell_length_b 18.049405
_cell_length_c 8.569259
_cell_angle_alpha 90.000000
_cell_angle_beta 142.686128
_cell_angle_gamma 90.000000
_cell_volume 1453.372437
_symmetry_space_group_name_H-M "P 2/M"
_symmetry_group_IT_number 10
_symmetry_cell_setting 'monoclinic'
loop_
_space_group_symop_operation_xyz
x,y,z
-x,y,-z
-x,-y,-z
x,-y,z
loop_
_atom_site_type_symbol
_atom_site_label
_atom_site_fract_x
_atom_site_fract_y
_atom_site_fract_z
Si Si1 0.654464 0.253554 0.890330
Si Si2 0.413807 0.585050 0.112576
Si Si3 0.119922 0.817393 0.556941
Si Si4 0.889929 0.710215 0.708571
Si Si5 0.290998 0.418963 0.593168
Si Si6 0.666641 0.205985 0.569424
Si Si7 0.849247 0.086491 0.699613
O O1 0.650773 0.344605 0.886313
O O2 0.718566 0.232817 0.814517
O O3 0.501304 0.215278 0.690108
O O4 0.744872 0.214898 0.156122
O O5 0.383401 0.500000 0.135249
O O6 0.583811 0.598986 0.350793
O O7 0.351566 0.590855 0.851798
O O8 0.053441 0.746953 0.368974
O O9 0.157000 0.881676 0.486172
O O10 0.000000 0.849051 0.500000
O O11 0.855924 0.624680 0.638721
O O12 0.738884 0.746462 0.536517
O O13 0.000000 0.727136 0.000000
O O14 0.234908 0.500000 0.482049
O O15 0.722094 0.121822 0.621114
O O16 0.820056 0.000000 0.647988
O O17 0.000000 0.104651 0.000000
#
# Coordination Sequence:
#
# PCOD8066939 Si02
#       7
#     4   4   4   4   4   4   4
#     4  11  20  36  60  86 118 152 190 251 279 333
#     4   9  17  32  55  82 112 152 198 245 292 334
#     4  11  22  37  60  88 111 145 196 238 285 340
#     4  11  20  33  53  77 113 149 189 240 284 339
#     4   9  17  30  50  78 108 145 192 237 290 343
#     4  10  22  37  56  88 116 148 192 231 295 338
#     4  10  22  42  64  86 120 155 183 227 286 350
#
# _framework density 19.265536000000001
#
# number of rings (size 3 to 8) (size 9 to 14) (size 15 to 20)
#    0.000    1.857    2.857    4.286    0.000    2.857 
#    0.000    5.714    0.000    3.429    0.000    0.000 
#    0.000    0.000    0.000    0.000    0.000    0.000 
#
# Total GULP energy -346902.481411 kJ/mol
# GULP energy per Si atom -12389.374336 kJ/mol
# Density = 1.922169 g / cm^3
# Si number density = 19.265536 Si / 1000 Ang^3
#
#
#
# Elastic Constant Matrix: (Units=GPa)
#
#
# Indices 1 2 3 4 5 6 
#
# 1 85.4960 47.1830 18.4619 0.0000 -11.5352 0.0000
# 2 47.1830 153.7146 38.3288 0.0000 -2.6987 0.0000
# 3 18.4619 38.3288 85.6265 0.0000 -12.8791 0.0000
# 4 0.0000 0.0000 0.0000 26.8200 0.0000 0.5811
# 5 -11.5352 -2.6987 -12.8791 0.0000 24.9768 0.0000
# 6 0.0000 0.0000 0.0000 0.5811 0.0000 19.1478
#
#
#
# Elastic Compliance Matrix: (Units=1/GPa)
#
#
# Indices 1 2 3 4 5 6 
#
# 1 0.015064 -0.004435 -0.000313 0.000000 0.006317 0.000000
# 2 -0.004435 0.008651 -0.003343 0.000000 -0.002837 0.000000
# 3 -0.000313 -0.003343 0.014273 0.000000 0.006854 0.000000
# 4 0.000000 0.000000 0.000000 0.037310 0.000000 -0.001132
# 5 0.006317 -0.002837 0.006854 0.000000 0.046182 0.000000
# 6 0.000000 0.000000 0.000000 -0.001132 0.000000 0.052260
#
#
# Mechanical properties :
#
#
# Convention : Reuss Voigt Hill
#
# Bulk Modulus (GPa) = 45.85692 59.19827 52.52760
# Shear Modulus (GPa) = 25.35633 28.91315 27.13474
#
# Velocity S-wave (km/s) = 3.63181 3.87818 3.75702
# Velocity P-wave (km/s) = 6.43747 7.13078 6.79297
#
# Compressibility (1/GPa) = 0.02180696
#
# Stress axis : x y z
#
# Youngs Moduli (GPa) = 66.38454 115.59895 70.06082
#
# Poissons Ratio (x) = 0.51268 0.02190
# Poissons Ratio (y) = 0.29442 0.23420
# Poissons Ratio (z) = 0.02075 0.38642
#
# Static dielectric constant tensor:
#      x y z
#    x 3.709700 0.000000 -0.054040 
#    y 0.000000 3.740790 0.000000 
#    z -0.054040 0.000000 3.442940 
# 
# 
# High freq. dielectric constant tensor:
#      x y z
#    x 1.738390 0.000000 -0.008000 
#    y 0.000000 1.748570 0.000000 
#    z -0.008000 0.000000 1.747950 
# 
# From -- ./inp_files/30154.got.cif
#   From: 2010.06.25/outbox.cif.g09.slc.cpg/sg10_16_cif.got.tgz:30154.got - 2010.06.27 22:07:45.
