data_PCOD8066371
_publ_section_title
;
Structure prediction by ZEFSAII (Michael W. Deem and Ramdas Pophale) SiO2 
 PCOD8066371
Probable space group: P 2/M
;
_chemical_formula_sum "Si O2"
_cell_formula_units_Z 28
_cell_length_a 11.860499
_cell_length_b 7.409428
_cell_length_c 15.177646
_cell_angle_alpha 90.000000
_cell_angle_beta 105.301964
_cell_angle_gamma 90.000000
_cell_volume 1286.518617
_symmetry_space_group_name_H-M "P 2/M"
_symmetry_group_IT_number 10
_symmetry_cell_setting 'monoclinic'
loop_
_space_group_symop_operation_xyz
x,y,z
-x,y,-z
-x,-y,-z
x,-y,z
loop_
_atom_site_type_symbol
_atom_site_label
_atom_site_fract_x
_atom_site_fract_y
_atom_site_fract_z
Si Si1 0.378768 0.000000 0.076510
Si Si2 0.007081 0.708244 0.098903
Si Si3 0.339689 0.714672 0.538315
Si Si4 0.167017 0.714106 0.786752
Si Si5 0.356138 0.000000 0.864519
Si Si6 0.892129 0.712792 0.421299
Si Si7 0.591359 0.285721 0.636159
Si Si8 0.728041 0.708889 0.830990
O O1 0.510679 0.000000 0.143111
O O2 0.310990 0.179893 0.092229
O O3 0.369431 0.000000 0.971125
O O4 0.974305 0.500000 0.081596
O O5 0.136134 0.737352 0.163189
O O6 0.915359 0.787740 0.150836
O O7 0.000000 0.799820 0.000000
O O8 0.335209 0.500000 0.538813
O O9 0.227235 0.797347 0.563860
O O10 0.344904 0.785354 0.438902
O O11 0.457080 0.780733 0.612187
O O12 0.193012 0.500000 0.797638
O O13 0.101275 0.760750 0.681098
O O14 0.289496 0.820207 0.817360
O O15 0.890930 0.500000 0.434482
O O16 0.000000 0.795180 0.500000
O O17 0.597290 0.500000 0.638029
O O18 0.658880 0.208647 0.733952
O O19 0.699856 0.500000 0.844401
#
# Coordination Sequence:
#
# PCOD8066371 Si02
#       8
#     2   4   4   4   2   4   4   4
#     4  11  26  43  61  89 120 153 206 261 311 370
#     4   9  18  34  59  89 117 150 198 251 304 361
#     4   8  14  26  46  77 114 151 195 236 286 350
#     4  10  22  40  64  92 124 164 207 248 302 371
#     4  11  26  45  62  86 121 161 203 255 312 371
#     4   9  18  30  52  86 123 159 197 243 294 356
#     4   8  15  27  49  80 112 151 194 239 289 350
#     4  10  21  37  62  90 120 156 198 252 310 364
#
# _framework density 21.764161999999999
#
# number of rings (size 3 to 8) (size 9 to 14) (size 15 to 20)
#    0.000    2.714    0.000    1.714    4.000    2.857 
#    0.000    3.214    0.000    2.571    0.000    0.000 
#    0.000    0.000    0.000    0.000    0.000    0.000 
#
# Total GULP energy -347059.548621 kJ/mol
# GULP energy per Si atom -12394.983879 kJ/mol
# Density = 2.171463 g / cm^3
# Si number density = 21.764162 Si / 1000 Ang^3
#
#
#
# Elastic Constant Matrix: (Units=GPa)
#
#
# Indices 1 2 3 4 5 6 
#
# 1 122.1713 19.1059 40.5359 0.0000 -4.5635 0.0000
# 2 19.1059 66.5386 12.7677 0.0000 3.9076 0.0000
# 3 40.5359 12.7677 120.1366 0.0000 8.3083 0.0000
# 4 0.0000 0.0000 0.0000 2.6441 0.0000 3.0654
# 5 -4.5635 3.9076 8.3083 0.0000 36.0978 0.0000
# 6 0.0000 0.0000 0.0000 3.0654 0.0000 7.9718
#
#
#
# Elastic Compliance Matrix: (Units=1/GPa)
#
#
# Indices 1 2 3 4 5 6 
#
# 1 0.009680 -0.002300 -0.003174 0.000000 0.002203 0.000000
# 2 -0.002300 0.015949 -0.000792 0.000000 -0.001835 0.000000
# 3 -0.003174 -0.000792 0.009655 0.000000 -0.002538 0.000000
# 4 0.000000 0.000000 0.000000 0.682430 0.000000 -0.262417
# 5 0.002203 -0.001835 -0.002538 0.000000 0.028764 0.000000
# 6 0.000000 0.000000 0.000000 -0.262417 0.000000 0.226351
#
#
# Mechanical properties :
#
#
# Convention : Reuss Voigt Hill
#
# Bulk Modulus (GPa) = 43.95324 50.40729 47.18026
# Shear Modulus (GPa) = 5.03552 25.10521 15.07037
#
# Velocity S-wave (km/s) = 1.52273 3.40002 2.63428
# Velocity P-wave (km/s) = 4.83018 6.21486 5.56575
#
# Compressibility (1/GPa) = 0.02275145
#
# Stress axis : x y z
#
# Youngs Moduli (GPa) = 103.30138 62.69976 103.57781
#
# Poissons Ratio (x) = 0.14421 0.32878
# Poissons Ratio (y) = 0.23759 0.08204
# Poissons Ratio (z) = 0.32791 0.04966
#
# Static dielectric constant tensor:
#      x y z
#    x 4.174000 0.000000 0.048690 
#    y 0.000000 3.459490 0.000000 
#    z 0.048690 0.000000 4.187490 
# 
# 
# High freq. dielectric constant tensor:
#      x y z
#    x 1.855550 0.000000 0.002560 
#    y 0.000000 1.828550 0.000000 
#    z 0.002560 0.000000 1.862750 
# 
# From -- ./inp_files/63533.got.cif
#   From: 2010.06.25/outbox.cif.g09.slc.cpg/sg10_32_cif.got.tgz:63533.got - 2010.06.27 22:07:45.
