data_PCOD8066996
_publ_section_title
;
Structure prediction by ZEFSAII (Michael W. Deem and Ramdas Pophale) SiO2 
 PCOD8066996
Probable space group: P 2/M
;
_chemical_formula_sum "Si O2"
_cell_formula_units_Z 22
_cell_length_a 5.179578
_cell_length_b 8.250361
_cell_length_c 24.309588
_cell_angle_alpha 90.000000
_cell_angle_beta 110.441434
_cell_angle_gamma 90.000000
_cell_volume 973.415530
_symmetry_space_group_name_H-M "P 2/M"
_symmetry_group_IT_number 10
_symmetry_cell_setting 'monoclinic'
loop_
_space_group_symop_operation_xyz
x,y,z
-x,y,-z
-x,-y,-z
x,-y,z
loop_
_atom_site_type_symbol
_atom_site_label
_atom_site_fract_x
_atom_site_fract_y
_atom_site_fract_z
Si Si1 0.188314 0.000000 0.459897
Si Si2 0.274488 0.807080 0.866607
Si Si3 0.119383 0.186620 0.734684
Si Si4 0.533130 0.318571 0.676526
Si Si5 0.114500 0.806563 0.066298
Si Si6 0.957161 0.322916 0.432108
O O1 0.500000 0.000000 0.500000
O O2 0.121995 0.165524 0.420352
O O3 0.000000 0.000000 0.500000
O O4 0.578773 0.739711 0.901383
O O5 0.169977 0.744980 0.799736
O O6 0.073166 0.737610 0.898456
O O7 0.272303 0.000000 0.867980
O O8 0.796473 0.202445 0.696069
O O9 0.313564 0.283750 0.708071
O O10 0.205193 0.000000 0.737128
O O11 0.645325 0.500000 0.692247
O O12 0.365360 0.298970 0.606621
O O13 0.111903 0.000000 0.065969
O O14 0.000000 0.739578 0.000000
O O15 0.057592 0.500000 0.415420
O O16 0.000000 0.326931 0.500000
#
# Coordination Sequence:
#
# PCOD8066996 Si02
#       6
#     2   4   4   4   4   4
#     4  10  22  38  60  90 118 152 198 242 291 372
#     4   9  17  29  45  72 110 150 192 236 294 355
#     4  11  23  39  62  88 121 163 203 252 306 364
#     4  11  24  42  63  89 121 158 204 255 305 372
#     4   9  15  24  42  70 109 152 189 232 291 357
#     4   9  21  42  65  90 124 162 200 255 321 376
#
# _framework density 22.600830999999999
#
# number of rings (size 3 to 8) (size 9 to 14) (size 15 to 20)
#    0.000    2.182    0.000    2.727    2.545    8.364 
#    0.000    5.455    0.000    0.000    0.000    0.000 
#    0.000   50.909    0.000    0.000    0.000    0.000 
#
# Total GULP energy -272704.030200 kJ/mol
# GULP energy per Si atom -12395.637736 kJ/mol
# Density = 2.254939 g / cm^3
# Si number density = 22.600831 Si / 1000 Ang^3
#
#
#
# Elastic Constant Matrix: (Units=GPa)
#
#
# Indices 1 2 3 4 5 6 
#
# 1 139.2663 4.0998 39.5111 0.0000 11.1035 0.0000
# 2 4.0998 98.4455 0.1075 0.0000 18.0013 0.0000
# 3 39.5111 0.1075 133.4398 0.0000 11.9257 0.0000
# 4 0.0000 0.0000 0.0000 -9.1948 0.0000 -7.9512
# 5 11.1035 18.0013 11.9257 0.0000 43.4671 0.0000
# 6 0.0000 0.0000 0.0000 -7.9512 0.0000 9.9882
#
#
#
# Elastic Compliance Matrix: (Units=1/GPa)
#
#
# Indices 1 2 3 4 5 6 
#
# 1 0.007924 -0.000075 -0.002222 0.000000 -0.001383 0.000000
# 2 -0.000075 0.011013 0.000430 0.000000 -0.004660 0.000000
# 3 -0.002222 0.000430 0.008321 0.000000 -0.001893 0.000000
# 4 0.000000 0.000000 0.000000 -0.064414 0.000000 -0.051278
# 5 -0.001383 -0.004660 -0.001893 0.000000 0.025808 0.000000
# 6 0.000000 0.000000 0.000000 -0.051278 0.000000 0.059298
#
#
# Mechanical properties :
#
#
# Convention : Reuss Voigt Hill
#
# Bulk Modulus (GPa) = 42.51295 50.95425 46.73360
# Shear Modulus (GPa) = 83.99941 30.68098 57.34019
#
# Velocity S-wave (km/s) = 6.10305 3.68845 5.04241
# Velocity P-wave (km/s) = 8.27733 6.38230 7.39080
#
# Compressibility (1/GPa) = 0.02352224
#
# Stress axis : x y z
#
# Youngs Moduli (GPa) = 126.20682 90.80534 120.17899
#
# Poissons Ratio (x) = 0.00677 0.26709
# Poissons Ratio (y) = 0.00941 -0.05163
# Poissons Ratio (z) = 0.28049 -0.03901
#
# Static dielectric constant tensor:
#      x y z
#    x 4.177690 0.000000 0.084060 
#    y 0.000000 4.830130 0.000000 
#    z 0.084060 0.000000 4.290670 
# 
# 
# High freq. dielectric constant tensor:
#      x y z
#    x 1.886380 0.000000 0.010880 
#    y 0.000000 1.865560 0.000000 
#    z 0.010880 0.000000 1.900610 
# 
# From -- ./inp_files/87354.got.cif
#   From: 2010.06.25/outbox.cif.g09.slc.cpg/sg10_44_cif.got.tgz:87354.got - 2010.06.27 22:07:45.
