data_PCOD8066524
_publ_section_title
;
Structure prediction by ZEFSAII (Michael W. Deem and Ramdas Pophale) SiO2 
 PCOD8066524
Probable space group: P 2/M
;
_chemical_formula_sum "Si O2"
_cell_formula_units_Z 28
_cell_length_a 22.336878
_cell_length_b 9.053664
_cell_length_c 8.882266
_cell_angle_alpha 90.000000
_cell_angle_beta 126.647908
_cell_angle_gamma 90.000000
_cell_volume 1441.177632
_symmetry_space_group_name_H-M "P 2/M"
_symmetry_group_IT_number 10
_symmetry_cell_setting 'monoclinic'
loop_
_space_group_symop_operation_xyz
x,y,z
-x,y,-z
-x,-y,-z
x,-y,z
loop_
_atom_site_type_symbol
_atom_site_label
_atom_site_fract_x
_atom_site_fract_y
_atom_site_fract_z
Si Si1 0.858032 0.830440 0.139649
Si Si2 0.142796 0.674398 0.547478
Si Si3 0.277895 0.829439 0.590007
Si Si4 0.290976 0.171420 0.264602
Si Si5 0.574024 0.674623 0.696095
Si Si6 0.992388 0.170754 0.815946
Si Si7 0.429629 0.829343 0.992486
O O1 0.859241 0.725767 0.284209
O O2 0.929735 0.796635 0.147045
O O3 0.857035 0.000000 0.193103
O O4 0.786408 0.793287 0.932640
O O5 0.143027 0.500000 0.543941
O O6 0.217080 0.731240 0.580344
O O7 0.070426 0.730818 0.353108
O O8 0.283312 0.779974 0.425576
O O9 0.356752 0.799716 0.785102
O O10 0.253713 0.000000 0.566765
O O11 0.354778 0.266464 0.284600
O O12 0.312792 0.000000 0.283772
O O13 0.500000 0.730249 0.500000
O O14 0.578426 0.500000 0.707114
O O15 0.573682 0.732396 0.864400
O O16 0.968890 0.000000 0.765695
O O17 0.000000 0.217666 0.000000
O O18 0.436650 0.000000 0.050526
O O19 0.500000 0.778453 0.000000
#
# Coordination Sequence:
#
# PCOD8066524 Si02
#       7
#     4   4   4   4   4   4   4
#     4  10  21  38  61  87 114 148 191 237 285 338
#     4  12  25  38  56  85 121 157 191 231 281 339
#     4  10  21  39  62  87 115 148 191 240 289 341
#     4  10  21  39  64  89 112 145 192 243 288 334
#     4  11  24  39  56  83 120 158 192 230 283 347
#     4  10  21  40  65  88 112 147 192 240 289 340
#     4  10  21  38  62  89 114 146 193 246 291 334
#
# _framework density 19.428553999999998
#
# number of rings (size 3 to 8) (size 9 to 14) (size 15 to 20)
#    0.000    1.571    0.000    4.714    0.000   12.571 
#    0.000    1.429    0.000    0.000    0.000    0.000 
#    0.000    0.000    0.000    0.000    0.000    0.000 
#
# Total GULP energy -347373.567384 kJ/mol
# GULP energy per Si atom -12406.198835 kJ/mol
# Density = 1.938433 g / cm^3
# Si number density = 19.428554 Si / 1000 Ang^3
#
#
#
# Elastic Constant Matrix: (Units=GPa)
#
#
# Indices 1 2 3 4 5 6 
#
# 1 163.8143 76.4059 90.8231 0.0000 -2.1284 0.0000
# 2 76.4059 96.2252 71.6035 0.0000 -0.9613 0.0000
# 3 90.8231 71.6035 149.3550 0.0000 -7.2269 0.0000
# 4 0.0000 0.0000 0.0000 12.6881 0.0000 20.8092
# 5 -2.1284 -0.9613 -7.2269 0.0000 41.4990 0.0000
# 6 0.0000 0.0000 0.0000 20.8092 0.0000 -9.6244
#
#
#
# Elastic Compliance Matrix: (Units=1/GPa)
#
#
# Indices 1 2 3 4 5 6 
#
# 1 0.010975 -0.005817 -0.003897 0.000000 -0.000251 0.000000
# 2 -0.005817 0.019279 -0.005747 0.000000 -0.000853 0.000000
# 3 -0.003897 -0.005747 0.011905 0.000000 0.001740 0.000000
# 4 0.000000 0.000000 0.000000 0.017337 0.000000 0.037485
# 5 -0.000251 -0.000853 0.001740 0.000000 0.024367 0.000000
# 6 0.000000 0.000000 0.000000 0.037485 0.000000 -0.022856
#
#
# Mechanical properties :
#
#
# Convention : Reuss Voigt Hill
#
# Bulk Modulus (GPa) = 88.99326 98.56217 93.77772
# Shear Modulus (GPa) = 52.26038 20.28332 36.27185
#
# Velocity S-wave (km/s) = 5.19203 3.23460 4.32549
# Velocity P-wave (km/s) = 9.04697 8.04928 8.56267
#
# Compressibility (1/GPa) = 0.01123681
#
# Stress axis : x y z
#
# Youngs Moduli (GPa) = 91.11464 51.87045 84.00079
#
# Poissons Ratio (x) = 0.30173 0.32738
# Poissons Ratio (y) = 0.53002 0.48271
# Poissons Ratio (z) = 0.35511 0.29807
#
# Static dielectric constant tensor:
#      x y z
#    x 3.749790 0.000000 0.002020 
#    y 0.000000 3.446790 0.000000 
#    z 0.002020 0.000000 3.779880 
# 
# 
# High freq. dielectric constant tensor:
#      x y z
#    x 1.776720 0.000000 0.000840 
#    y 0.000000 1.744900 0.000000 
#    z 0.000840 0.000000 1.777900 
# 
# From -- ./inp_files/34286.got.cif
#   From: 2010.06.25/outbox.cif.g09.slc.cpg/sg10_18_cif.got.tgz:34286.got - 2010.06.27 22:07:45.
