data_PCOD8066167
_publ_section_title
;
Structure prediction by ZEFSAII (Michael W. Deem and Ramdas Pophale) SiO2 
 PCOD8066167
Probable space group: P 2/M
;
_chemical_formula_sum "Si O2"
_cell_formula_units_Z 32
_cell_length_a 15.242570
_cell_length_b 9.082246
_cell_length_c 22.808422
_cell_angle_alpha 90.000000
_cell_angle_beta 30.883537
_cell_angle_gamma 90.000000
_cell_volume 1620.740415
_symmetry_space_group_name_H-M "P 2/M"
_symmetry_group_IT_number 10
_symmetry_cell_setting 'monoclinic'
loop_
_space_group_symop_operation_xyz
x,y,z
-x,y,-z
-x,-y,-z
x,-y,z
loop_
_atom_site_type_symbol
_atom_site_label
_atom_site_fract_x
_atom_site_fract_y
_atom_site_fract_z
Si Si1 0.108143 0.331020 0.695464
Si Si2 0.535934 0.828181 0.913770
Si Si3 0.336358 0.668969 0.676789
Si Si4 0.048885 0.169586 0.906707
Si Si5 0.670512 0.174295 0.519812
Si Si6 0.173871 0.169004 0.074652
Si Si7 0.203778 0.327872 0.444617
Si Si8 0.188931 0.671397 0.320576
O O1 0.084480 0.500000 0.690232
O O2 0.254878 0.313132 0.659763
O O3 0.161020 0.236709 0.608733
O O4 0.928564 0.271496 0.821804
O O5 0.702748 0.754539 0.790616
O O6 0.574908 0.000000 0.894417
O O7 0.500000 0.767684 0.000000
O O8 0.373488 0.792216 0.965554
O O9 0.382159 0.500000 0.664133
O O10 0.205857 0.726851 0.800307
O O11 0.505671 0.765828 0.580613
O O12 0.887008 0.198719 0.957016
O O13 0.108291 0.000000 0.868528
O O14 0.000000 0.214393 0.000000
O O15 0.671248 0.232056 0.586210
O O16 0.670050 0.000000 0.518653
O O17 0.139586 0.000000 0.112325
O O18 0.233713 0.500000 0.439306
O O19 0.251067 0.288017 0.350570
O O20 0.008985 0.284104 0.571109
O O21 0.212982 0.500000 0.295326
#
# Coordination Sequence:
#
# PCOD8066167 Si02
#       8
#     4   4   4   4   4   4   4   4
#     4  10  21  37  57  80 111 148 186 232 282 334
#     4  10  22  37  55  83 120 155 191 237 285 339
#     4  10  21  37  55  79 112 148 187 231 279 330
#     4   9  18  34  56  80 109 146 187 231 281 337
#     4  12  24  35  55  85 113 146 188 229 278 340
#     4   9  19  36  54  77 111 149 186 230 283 337
#     4   9  20  40  61  84 114 148 188 237 291 340
#     4   9  20  40  63  84 112 149 190 238 289 342
#
# _framework density 19.744060999999999
#
# number of rings (size 3 to 8) (size 9 to 14) (size 15 to 20)
#    0.000    2.250    0.000    3.000    1.750    6.000 
#    0.000    2.500    0.000    0.000    0.000    0.000 
#    0.000    0.000    0.000    0.000    0.000    0.000 
#
# Total GULP energy -396881.845394 kJ/mol
# GULP energy per Si atom -12402.557669 kJ/mol
# Density = 1.969912 g / cm^3
# Si number density = 19.744061 Si / 1000 Ang^3
#
#
#
# Elastic Constant Matrix: (Units=GPa)
#
#
# Indices 1 2 3 4 5 6 
#
# 1 57.9104 25.6024 29.5328 0.0000 14.4520 0.0000
# 2 25.6024 93.3644 35.8055 0.0000 8.3776 0.0000
# 3 29.5328 35.8055 86.0654 0.0000 15.2727 0.0000
# 4 0.0000 0.0000 0.0000 34.8176 0.0000 2.7852
# 5 14.4520 8.3776 15.2727 0.0000 30.1117 0.0000
# 6 0.0000 0.0000 0.0000 2.7852 0.0000 21.3313
#
#
#
# Elastic Compliance Matrix: (Units=1/GPa)
#
#
# Indices 1 2 3 4 5 6 
#
# 1 0.023451 -0.003784 -0.005124 0.000000 -0.007604 0.000000
# 2 -0.003784 0.013379 -0.004318 0.000000 0.000284 0.000000
# 3 -0.005124 -0.004318 0.015961 0.000000 -0.004435 0.000000
# 4 0.000000 0.000000 0.000000 0.029024 0.000000 -0.003790
# 5 -0.007604 0.000284 -0.004435 0.000000 0.039029 0.000000
# 6 0.000000 0.000000 0.000000 -0.003790 0.000000 0.047374
#
#
# Mechanical properties :
#
#
# Convention : Reuss Voigt Hill
#
# Bulk Modulus (GPa) = 37.96487 46.58017 42.27252
# Shear Modulus (GPa) = 24.57614 27.01210 25.79412
#
# Velocity S-wave (km/s) = 3.53191 3.70281 3.61837
# Velocity P-wave (km/s) = 5.99189 6.47490 6.23807
#
# Compressibility (1/GPa) = 0.02634014
#
# Stress axis : x y z
#
# Youngs Moduli (GPa) = 42.64142 74.74546 62.65416
#
# Poissons Ratio (x) = 0.28280 0.32103
# Poissons Ratio (y) = 0.16134 0.27054
# Poissons Ratio (z) = 0.21849 0.32275
#
# Static dielectric constant tensor:
#      x y z
#    x 3.685940 0.000000 0.032530 
#    y 0.000000 3.507760 0.000000 
#    z 0.032530 0.000000 3.466940 
# 
# 
# High freq. dielectric constant tensor:
#      x y z
#    x 1.777270 0.000000 0.002440 
#    y 0.000000 1.764230 0.000000 
#    z 0.002440 0.000000 1.762350 
# 
# From -- ./inp_files/89531.got.cif
#   From: 2010.06.25/outbox.cif.g09.slc.cpg/sg10_45_cif.got.tgz:89531.got - 2010.06.27 22:07:45.
