data_PCOD8066759
_publ_section_title
;
Structure prediction by ZEFSAII (Michael W. Deem and Ramdas Pophale) SiO2 
 PCOD8066759
Probable space group: P 2/M
;
_chemical_formula_sum "Si O2"
_cell_formula_units_Z 32
_cell_length_a 8.870152
_cell_length_b 13.322489
_cell_length_c 12.279407
_cell_angle_alpha 90.000000
_cell_angle_beta 85.433237
_cell_angle_gamma 90.000000
_cell_volume 1446.481388
_symmetry_space_group_name_H-M "P 2/M"
_symmetry_group_IT_number 10
_symmetry_cell_setting 'monoclinic'
loop_
_space_group_symop_operation_xyz
x,y,z
-x,y,-z
-x,-y,-z
x,-y,z
loop_
_atom_site_type_symbol
_atom_site_label
_atom_site_fract_x
_atom_site_fract_y
_atom_site_fract_z
Si Si1 0.861667 0.384240 0.373831
Si Si2 0.554291 0.295566 0.795647
Si Si3 0.642471 0.707275 0.557837
Si Si4 0.214512 0.239592 0.044980
Si Si5 0.977074 0.887590 0.175523
Si Si6 0.071874 0.802847 0.391299
Si Si7 0.638329 0.115609 0.133866
Si Si8 0.746177 0.613230 0.140315
O O1 0.916318 0.500000 0.376524
O O2 0.732973 0.368646 0.473551
O O3 0.796399 0.357035 0.258999
O O4 0.003309 0.310429 0.383807
O O5 0.584513 0.342499 0.674078
O O6 0.709618 0.294497 0.855696
O O7 0.485164 0.182034 0.794676
O O8 0.433818 0.368384 0.860861
O O9 0.500000 0.751687 0.500000
O O10 0.749563 0.796776 0.594653
O O11 0.059169 0.186750 0.087734
O O12 0.334991 0.157590 0.990725
O O13 0.169474 0.319032 0.953863
O O14 0.042607 0.872997 0.291551
O O15 0.797863 0.868840 0.187048
O O16 0.013878 0.000000 0.134813
O O17 0.000000 0.857041 0.500000
O O18 0.585908 0.000000 0.133756
O O19 0.787564 0.500000 0.110214
#
# Coordination Sequence:
#
# PCOD8066759 Si02
#       8
#     4   4   4   4   4   4   4   4
#     4  10  22  41  66  94 124 164 209 255 305 364
#     4  11  22  39  61  93 126 166 203 256 314 362
#     4  11  22  39  63  92 122 165 208 255 305 365
#     4  11  22  38  63  93 127 163 206 257 309 362
#     4  11  23  41  65  95 123 159 210 257 308 370
#     4  10  22  40  66  91 125 165 201 257 314 361
#     4  10  22  38  62  91 124 165 206 252 311 373
#     4  10  21  39  64  93 128 168 207 250 306 370
#
# _framework density 22.122648999999999
#
# number of rings (size 3 to 8) (size 9 to 14) (size 15 to 20)
#    0.000    1.500    2.500    3.750    1.750    6.750 
#    0.000    0.625    0.000    9.750    0.000    0.000 
#    0.000    0.000    0.000    0.000    0.000    0.000 
#
# Total GULP energy -396711.568928 kJ/mol
# GULP energy per Si atom -12397.236529 kJ/mol
# Density = 2.207230 g / cm^3
# Si number density = 22.122649 Si / 1000 Ang^3
#
#
#
# Elastic Constant Matrix: (Units=GPa)
#
#
# Indices 1 2 3 4 5 6 
#
# 1 74.4113 16.5330 30.9887 0.0000 7.3091 0.0000
# 2 16.5330 88.2948 48.7944 0.0000 -5.5172 0.0000
# 3 30.9887 48.7944 150.5650 0.0000 5.8984 0.0000
# 4 0.0000 0.0000 0.0000 25.2604 0.0000 -1.7127
# 5 7.3091 -5.5172 5.8984 0.0000 39.8027 0.0000
# 6 0.0000 0.0000 0.0000 -1.7127 0.0000 18.3807
#
#
#
# Elastic Compliance Matrix: (Units=1/GPa)
#
#
# Indices 1 2 3 4 5 6 
#
# 1 0.015089 -0.001620 -0.002477 0.000000 -0.002628 0.000000
# 2 -0.001620 0.014241 -0.004396 0.000000 0.002923 0.000000
# 3 -0.002477 -0.004396 0.008632 0.000000 -0.001434 0.000000
# 4 0.000000 0.000000 0.000000 0.039839 0.000000 0.003712
# 5 -0.002628 0.002923 -0.001434 0.000000 0.026224 0.000000
# 6 0.000000 0.000000 0.000000 0.003712 0.000000 0.054751
#
#
# Mechanical properties :
#
#
# Convention : Reuss Voigt Hill
#
# Bulk Modulus (GPa) = 47.67757 56.21147 51.94452
# Shear Modulus (GPa) = 27.35878 31.15240 29.25559
#
# Velocity S-wave (km/s) = 3.52047 3.75663 3.64046
# Velocity P-wave (km/s) = 6.17440 6.65436 6.41887
#
# Compressibility (1/GPa) = 0.02097423
#
# Stress axis : x y z
#
# Youngs Moduli (GPa) = 66.27456 70.21842 115.84245
#
# Poissons Ratio (x) = 0.11379 0.28699
# Poissons Ratio (y) = 0.10740 0.50927
# Poissons Ratio (z) = 0.16419 0.30870
#
# Static dielectric constant tensor:
#      x y z
#    x 3.971440 0.000000 0.052400 
#    y 0.000000 3.727560 0.000000 
#    z 0.052400 0.000000 4.322960 
# 
# 
# High freq. dielectric constant tensor:
#      x y z
#    x 1.874830 0.000000 0.010000 
#    y 0.000000 1.838400 0.000000 
#    z 0.010000 0.000000 1.887000 
# 
# From -- ./inp_files/42972.got.cif
#   From: 2010.06.25/outbox.cif.g09.slc.cpg/sg10_22_cif.got.tgz:42972.got - 2010.06.27 22:07:45.
