data_PCOD8066246
_publ_section_title
;
Structure prediction by ZEFSAII (Michael W. Deem and Ramdas Pophale) SiO2 
 PCOD8066246
Probable space group: P 2/M
;
_chemical_formula_sum "Si O2"
_cell_formula_units_Z 28
_cell_length_a 16.459928
_cell_length_b 9.304506
_cell_length_c 11.067064
_cell_angle_alpha 90.000000
_cell_angle_beta 54.630244
_cell_angle_gamma 90.000000
_cell_volume 1382.108701
_symmetry_space_group_name_H-M "P 2/M"
_symmetry_group_IT_number 10
_symmetry_cell_setting 'monoclinic'
loop_
_space_group_symop_operation_xyz
x,y,z
-x,y,-z
-x,-y,-z
x,-y,z
loop_
_atom_site_type_symbol
_atom_site_label
_atom_site_fract_x
_atom_site_fract_y
_atom_site_fract_z
Si Si1 0.754169 0.161538 0.242947
Si Si2 0.885293 0.659855 0.281734
Si Si3 0.568824 0.666036 0.054303
Si Si4 0.077200 0.160292 0.096614
Si Si5 0.768283 0.169717 0.834455
Si Si6 0.431653 0.665818 0.673229
Si Si7 0.892427 0.660336 0.558300
O O1 0.784777 0.254109 0.333205
O O2 0.665702 0.235899 0.245977
O O3 0.721718 0.000000 0.306851
O O4 0.853539 0.158866 0.079022
O O5 0.881794 0.500000 0.228033
O O6 0.883291 0.651548 0.425090
O O7 0.986061 0.734795 0.149910
O O8 0.598383 0.500000 0.010907
O O9 0.520439 0.687320 0.231999
O O10 0.500000 0.714522 0.000000
O O11 0.666206 0.762841 0.967425
O O12 0.142973 0.213614 0.152042
O O13 0.035146 0.000000 0.157439
O O14 0.802402 0.237487 0.678427
O O15 0.753096 0.000000 0.837408
O O16 0.500000 0.713113 0.500000
O O17 0.401218 0.500000 0.682387
O O18 0.881928 0.500000 0.624243
O O19 0.000000 0.726939 0.500000
#
# Coordination Sequence:
#
# PCOD8066246 Si02
#       7
#     4   4   4   4   4   4   4
#     4  11  23  40  60  86 123 160 199 246 303 362
#     4  11  23  37  58  88 121 159 206 251 294 352
#     4  10  22  41  65  91 120 157 201 253 311 366
#     4  10  21  37  57  84 120 159 197 242 295 351
#     4  11  22  37  61  90 119 155 199 244 295 357
#     4  10  22  41  65  91 120 157 205 256 307 365
#     4  10  21  38  57  82 118 159 202 247 295 348
#
# _framework density 20.258897999999999
#
# number of rings (size 3 to 8) (size 9 to 14) (size 15 to 20)
#    0.000    1.571    2.857    1.714    0.000    6.571 
#    0.000    2.857    0.000    0.000    0.000    0.000 
#    0.000    0.000    0.000    0.000    0.000    0.000 
#
# Total GULP energy -347104.250129 kJ/mol
# GULP energy per Si atom -12396.580362 kJ/mol
# Density = 2.021279 g / cm^3
# Si number density = 20.258898 Si / 1000 Ang^3
#
#
#
# Elastic Constant Matrix: (Units=GPa)
#
#
# Indices 1 2 3 4 5 6 
#
# 1 103.1546 51.5021 31.7956 0.0000 15.1412 0.0000
# 2 51.5021 103.5416 31.7364 0.0000 -0.4410 0.0000
# 3 31.7956 31.7364 91.3419 0.0000 6.1600 0.0000
# 4 0.0000 0.0000 0.0000 5.9312 0.0000 -3.3479
# 5 15.1412 -0.4410 6.1600 0.0000 23.2391 0.0000
# 6 0.0000 0.0000 0.0000 -3.3479 0.0000 19.1193
#
#
#
# Elastic Compliance Matrix: (Units=1/GPa)
#
#
# Indices 1 2 3 4 5 6 
#
# 1 0.015238 -0.006927 -0.002259 0.000000 -0.009461 0.000000
# 2 -0.006927 0.013992 -0.002823 0.000000 0.005527 0.000000
# 3 -0.002259 -0.002823 0.012849 0.000000 -0.001987 0.000000
# 4 0.000000 0.000000 0.000000 0.187092 0.000000 0.032761
# 5 -0.009461 0.005527 -0.001987 0.000000 0.049826 0.000000
# 6 0.000000 0.000000 0.000000 0.032761 0.000000 0.058040
#
#
# Mechanical properties :
#
#
# Convention : Reuss Voigt Hill
#
# Bulk Modulus (GPa) = 55.37010 58.67849 57.02429
# Shear Modulus (GPa) = 13.62114 21.85819 17.73967
#
# Velocity S-wave (km/s) = 2.59579 3.28829 2.96235
# Velocity P-wave (km/s) = 6.03115 6.59123 6.31740
#
# Compressibility (1/GPa) = 0.01806029
#
# Stress axis : x y z
#
# Youngs Moduli (GPa) = 65.62664 71.46759 77.82557
#
# Poissons Ratio (x) = 0.49506 0.17584
# Poissons Ratio (y) = 0.45460 0.21971
# Poissons Ratio (z) = 0.14827 0.20176
#
# Static dielectric constant tensor:
#      x y z
#    x 3.708400 0.000000 0.224030 
#    y 0.000000 3.969100 0.000000 
#    z 0.224030 0.000000 3.641490 
# 
# 
# High freq. dielectric constant tensor:
#      x y z
#    x 1.788180 0.000000 0.016490 
#    y 0.000000 1.795700 0.000000 
#    z 0.016490 0.000000 1.784570 
# 
# From -- ./inp_files/49590.got.cif
#   From: 2010.06.25/outbox.cif.g09.slc.cpg/sg10_25_cif.got.tgz:49590.got - 2010.06.27 22:07:45.
