data_PCOD8066176
_publ_section_title
;
Structure prediction by ZEFSAII (Michael W. Deem and Ramdas Pophale) SiO2 
 PCOD8066176
Probable space group: P 2/M
;
_chemical_formula_sum "Si O2"
_cell_formula_units_Z 28
_cell_length_a 24.497208
_cell_length_b 8.884475
_cell_length_c 22.208414
_cell_angle_alpha 90.000000
_cell_angle_beta 17.118112
_cell_angle_gamma 90.000000
_cell_volume 1422.717930
_symmetry_space_group_name_H-M "P 2/M"
_symmetry_group_IT_number 10
_symmetry_cell_setting 'monoclinic'
loop_
_space_group_symop_operation_xyz
x,y,z
-x,y,-z
-x,-y,-z
x,-y,z
loop_
_atom_site_type_symbol
_atom_site_label
_atom_site_fract_x
_atom_site_fract_y
_atom_site_fract_z
Si Si1 0.391354 0.176242 0.326017
Si Si2 0.635878 0.175646 0.179766
Si Si3 0.570078 0.333567 0.364377
Si Si4 0.995476 0.666436 0.938980
Si Si5 0.048509 0.824360 0.767139
Si Si6 0.544085 0.679126 0.867806
Si Si7 0.215636 0.820493 0.284364
O O1 0.549943 0.219944 0.206451
O O2 0.193708 0.219890 0.562684
O O3 0.420552 0.281942 0.238393
O O4 0.400563 0.000000 0.298417
O O5 0.514531 0.245560 0.362371
O O6 0.623620 0.000000 0.203505
O O7 0.848203 0.232469 0.955431
O O8 0.500000 0.253139 0.500000
O O9 0.479926 0.500000 0.456499
O O10 0.788838 0.342007 0.133504
O O11 0.083651 0.500000 0.852780
O O12 0.108606 0.754415 0.768291
O O13 0.000000 0.746863 0.000000
O O14 0.049212 0.000000 0.777940
O O15 0.538989 0.500000 0.883142
O O16 0.713470 0.750420 0.727484
O O17 0.345608 0.750351 0.095368
O O18 0.000000 0.777475 0.500000
O O19 0.240769 0.000000 0.259223
#
# Coordination Sequence:
#
# PCOD8066176 Si02
#       7
#     4   4   4   4   4   4   4
#     4  10  21  37  56  78 109 148 190 232 278 336
#     4   9  19  35  52  72  99 133 176 227 277 327
#     4   9  18  31  47  69  96 127 165 214 272 336
#     4   9  18  31  47  69  96 127 165 214 272 336
#     4   9  19  35  52  72  99 133 176 227 277 327
#     4  11  23  38  59  92 128 158 194 242 288 338
#     4  10  21  40  67  93 122 162 201 237 280 331
#
# _framework density 19.68064
#
# number of rings (size 3 to 8) (size 9 to 14) (size 15 to 20)
#    0.000    2.429    0.000    2.571    2.000    4.000 
#    0.000    2.857    0.000    0.000    0.000    0.000 
#    0.000    0.000    0.000    0.000    0.000    0.000 
#
# Total GULP energy -347049.458652 kJ/mol
# GULP energy per Si atom -12394.623523 kJ/mol
# Density = 1.963585 g / cm^3
# Si number density = 19.680640 Si / 1000 Ang^3
#
#
#
# Elastic Constant Matrix: (Units=GPa)
#
#
# Indices 1 2 3 4 5 6 
#
# 1 139.6443 56.9077 76.2555 0.0000 21.4832 0.0000
# 2 56.9077 80.7923 49.1629 0.0000 7.2924 0.0000
# 3 76.2555 49.1629 114.0585 0.0000 2.5110 0.0000
# 4 0.0000 0.0000 0.0000 24.7491 0.0000 4.4281
# 5 21.4832 7.2924 2.5110 0.0000 38.1632 0.0000
# 6 0.0000 0.0000 0.0000 4.4281 0.0000 29.4382
#
#
#
# Elastic Compliance Matrix: (Units=1/GPa)
#
#
# Indices 1 2 3 4 5 6 
#
# 1 0.014089 -0.005005 -0.007119 0.000000 -0.006506 0.000000
# 2 -0.005005 0.018846 -0.004767 0.000000 -0.000470 0.000000
# 3 -0.007119 -0.004767 0.015496 0.000000 0.003899 0.000000
# 4 0.000000 0.000000 0.000000 0.041523 0.000000 -0.006246
# 5 -0.006506 -0.000470 0.003899 0.000000 0.029699 0.000000
# 6 0.000000 0.000000 0.000000 -0.006246 0.000000 0.034909
#
#
# Mechanical properties :
#
#
# Convention : Reuss Voigt Hill
#
# Bulk Modulus (GPa) = 68.26173 77.68305 72.97239
# Shear Modulus (GPa) = 25.87650 28.61470 27.24560
#
# Velocity S-wave (km/s) = 3.62998 3.81721 3.72477
# Velocity P-wave (km/s) = 7.23388 7.68021 7.46038
#
# Compressibility (1/GPa) = 0.01464950
#
# Stress axis : x y z
#
# Youngs Moduli (GPa) = 70.97769 53.06280 64.53372
#
# Poissons Ratio (x) = 0.26556 0.45942
# Poissons Ratio (y) = 0.35521 0.30762
# Poissons Ratio (z) = 0.50529 0.25294
#
# Static dielectric constant tensor:
#      x y z
#    x 3.699160 0.000000 -0.149570 
#    y 0.000000 3.635440 0.000000 
#    z -0.149570 0.000000 3.856760 
# 
# 
# High freq. dielectric constant tensor:
#      x y z
#    x 1.770810 0.000000 0.000410 
#    y 0.000000 1.753130 0.000000 
#    z 0.000410 0.000000 1.770360 
# 
# From -- ./inp_files/86430.got.cif
#   From: 2010.06.25/outbox.cif.g09.slc.cpg/sg10_44_cif.got.tgz:86430.got - 2010.06.27 22:07:45.
