data_PCOD8066877
_publ_section_title
;
Structure prediction by ZEFSAII (Michael W. Deem and Ramdas Pophale) SiO2 
 PCOD8066877
Probable space group: P 2/M
;
_chemical_formula_sum "Si O2"
_cell_formula_units_Z 32
_cell_length_a 13.927516
_cell_length_b 20.623779
_cell_length_c 13.761447
_cell_angle_alpha 90.000000
_cell_angle_beta 158.900684
_cell_angle_gamma 90.000000
_cell_volume 1422.955202
_symmetry_space_group_name_H-M "P 2/M"
_symmetry_group_IT_number 10
_symmetry_cell_setting 'monoclinic'
loop_
_space_group_symop_operation_xyz
x,y,z
-x,y,-z
-x,-y,-z
x,-y,z
loop_
_atom_site_type_symbol
_atom_site_label
_atom_site_fract_x
_atom_site_fract_y
_atom_site_fract_z
Si Si1 0.481698 0.571688 0.365672
Si Si2 0.353089 0.073626 0.963130
Si Si3 0.866886 0.638781 0.594711
Si Si4 0.892819 0.234857 0.122492
Si Si5 0.725299 0.298115 0.791336
Si Si6 0.566923 0.728169 0.173318
Si Si7 0.175560 0.851300 0.515539
Si Si8 0.234555 0.572405 0.798594
O O1 0.500000 0.574223 0.500000
O O2 0.367113 0.500000 0.229432
O O3 0.751856 0.582415 0.557355
O O4 0.307423 0.635244 0.175090
O O5 0.062315 0.103730 0.669476
O O6 0.316941 0.000000 0.964285
O O7 0.500000 0.078686 0.000000
O O8 0.541617 0.110392 0.220106
O O9 0.663081 0.661943 0.316958
O O10 0.918379 0.701822 0.709043
O O11 0.141694 0.614308 0.804020
O O12 0.080642 0.171739 0.317160
O O13 0.728583 0.235277 0.866209
O O14 0.695557 0.240684 0.027158
O O15 0.500000 0.285281 0.500000
O O16 0.000000 0.307088 0.000000
O O17 0.793740 0.784642 0.393080
O O18 0.500000 0.710635 0.000000
O O19 0.298768 0.500000 0.896871
O O20 0.000000 0.571442 0.500000
O O21 0.500000 0.602142 0.000000
#
# Coordination Sequence:
#
# PCOD8066877 Si02
#       8
#     4   4   4   4   4   4   4   4
#     4  10  21  41  67  95 125 163 214 275 349 425
#     4  11  23  38  60  92 133 186 231 265 307 362
#     4  11  24  40  66  91 127 167 217 275 333 402
#     4  11  24  40  64  97 127 170 214 269 332 392
#     4  11  24  43  70  95 131 165 210 276 350 415
#     4  11  25  40  62  95 129 177 219 271 327 385
#     4  11  23  39  63  88 135 170 226 265 311 370
#     4  10  24  43  61  83 115 160 212 267 325 388
#
# _framework density 22.488410999999999
#
# number of rings (size 3 to 8) (size 9 to 14) (size 15 to 20)
#    0.000    1.250    2.500    3.000    7.000    2.250 
#    0.000    4.375    0.000    1.125    0.000    0.000 
#    0.000   10.000    0.000    0.000    0.000    0.000 
#
# Total GULP energy -396492.518075 kJ/mol
# GULP energy per Si atom -12390.391190 kJ/mol
# Density = 2.243723 g / cm^3
# Si number density = 22.488411 Si / 1000 Ang^3
#
#
#
# Elastic Constant Matrix: (Units=GPa)
#
#
# Indices 1 2 3 4 5 6 
#
# 1 103.1640 31.0309 36.9273 0.0000 3.8108 0.0000
# 2 31.0309 115.4227 36.6939 0.0000 -12.1240 0.0000
# 3 36.9273 36.6939 119.3037 0.0000 -0.6858 0.0000
# 4 0.0000 0.0000 0.0000 31.1926 0.0000 2.7363
# 5 3.8108 -12.1240 -0.6858 0.0000 33.5960 0.0000
# 6 0.0000 0.0000 0.0000 2.7363 0.0000 18.1693
#
#
#
# Elastic Compliance Matrix: (Units=1/GPa)
#
#
# Indices 1 2 3 4 5 6 
#
# 1 0.011521 -0.002433 -0.002831 0.000000 -0.002243 0.000000
# 2 -0.002433 0.010523 -0.002460 0.000000 0.004023 0.000000
# 3 -0.002831 -0.002460 0.010013 0.000000 -0.000362 0.000000
# 4 0.000000 0.000000 0.000000 0.032488 0.000000 -0.004893
# 5 -0.002243 0.004023 -0.000362 0.000000 0.031464 0.000000
# 6 0.000000 0.000000 0.000000 -0.004893 0.000000 0.055775
#
#
# Mechanical properties :
#
#
# Convention : Reuss Voigt Hill
#
# Bulk Modulus (GPa) = 60.20939 60.79938 60.50439
# Shear Modulus (GPa) = 28.94059 32.14080 30.54070
#
# Velocity S-wave (km/s) = 3.59125 3.78460 3.68919
# Velocity P-wave (km/s) = 6.63534 6.79648 6.71639
#
# Compressibility (1/GPa) = 0.01660870
#
# Stress axis : x y z
#
# Youngs Moduli (GPa) = 86.79629 95.03316 99.87307
#
# Poissons Ratio (x) = 0.23123 0.28270
# Poissons Ratio (y) = 0.21119 0.24571
# Poissons Ratio (z) = 0.24569 0.23380
#
# Static dielectric constant tensor:
#      x y z
#    x 3.970010 0.000000 -0.014360 
#    y 0.000000 4.281360 0.000000 
#    z -0.014360 0.000000 4.304850 
# 
# 
# High freq. dielectric constant tensor:
#      x y z
#    x 1.861620 0.000000 0.003350 
#    y 0.000000 1.867150 0.000000 
#    z 0.003350 0.000000 1.904400 
# 
# From -- ./inp_files/67963.got.cif
#   From: 2010.06.25/outbox.cif.g09.slc.cpg/sg10_34_cif.got.tgz:67963.got - 2010.06.27 22:07:45.
