data_PCOD8066015
_publ_section_title
;
Structure prediction by ZEFSAII (Michael W. Deem and Ramdas Pophale) SiO2 
 PCOD8066015
Probable space group: P 2/M
;
_chemical_formula_sum "Si O2"
_cell_formula_units_Z 28
_cell_length_a 5.057796
_cell_length_b 33.018062
_cell_length_c 9.290379
_cell_angle_alpha 90.000000
_cell_angle_beta 115.699679
_cell_angle_gamma 90.000000
_cell_volume 1398.007188
_symmetry_space_group_name_H-M "P 2/M"
_symmetry_group_IT_number 10
_symmetry_cell_setting 'monoclinic'
loop_
_space_group_symop_operation_xyz
x,y,z
-x,y,-z
-x,-y,-z
x,-y,z
loop_
_atom_site_type_symbol
_atom_site_label
_atom_site_fract_x
_atom_site_fract_y
_atom_site_fract_z
Si Si1 0.647435 0.168483 0.688848
Si Si2 0.334541 0.246504 0.108255
Si Si3 0.143312 0.118605 0.686187
Si Si4 0.159777 0.044794 0.894606
Si Si5 0.675933 0.602695 0.396516
Si Si6 0.673492 0.454957 0.895066
Si Si7 0.325640 0.694704 0.606371
O O1 0.500000 0.178405 0.500000
O O2 0.667523 0.208550 0.786310
O O3 0.473482 0.134262 0.738959
O O4 0.975118 0.152395 0.740252
O O5 0.512072 0.282259 0.227018
O O6 0.500000 0.235303 0.000000
O O7 0.000000 0.260409 0.000000
O O8 0.113650 0.075427 0.753825
O O9 0.000000 0.111889 0.500000
O O10 0.033804 0.000000 0.824631
O O11 0.500000 0.041248 0.000000
O O12 0.000000 0.061228 0.000000
O O13 0.500000 0.602498 0.500000
O O14 0.502007 0.575319 0.245597
O O15 0.700240 0.648536 0.343803
O O16 0.000000 0.584562 0.500000
O O17 0.694268 0.500000 0.829425
O O18 0.500000 0.457986 0.000000
O O19 0.000000 0.437770 0.000000
O O20 0.500000 0.698971 0.500000
O O21 0.000000 0.712585 0.500000
#
# Coordination Sequence:
#
# PCOD8066015 Si02
#       7
#     4   4   4   4   4   4   4
#     4  10  22  39  57  79 111 148 181 220 278 335
#     4  12  25  38  58  89 115 142 189 237 278 330
#     4  10  21  37  58  82 107 142 186 225 266 322
#     4  10  21  36  55  80 110 144 178 217 272 327
#     4  10  21  37  59  85 110 146 195 238 279 334
#     4  10  21  36  55  82 117 154 188 230 290 346
#     4  10  22  41  61  81 113 154 189 228 287 345
#
# _framework density 20.028510000000001
#
# number of rings (size 3 to 8) (size 9 to 14) (size 15 to 20)
#    0.000    1.714    0.000    3.857    0.000    7.143 
#    0.000    0.000    0.000    5.143    0.000    0.000 
#    0.000    0.000    0.000    0.000    0.000    0.000 
#
# Total GULP energy -347217.194041 kJ/mol
# GULP energy per Si atom -12400.614073 kJ/mol
# Density = 1.998292 g / cm^3
# Si number density = 20.028510 Si / 1000 Ang^3
#
#
#
# Elastic Constant Matrix: (Units=GPa)
#
#
# Indices 1 2 3 4 5 6 
#
# 1 140.0668 35.0736 54.6898 0.0000 8.8445 0.0000
# 2 35.0736 110.0421 75.8815 0.0000 3.2354 0.0000
# 3 54.6898 75.8815 97.0173 0.0000 9.2347 0.0000
# 4 0.0000 0.0000 0.0000 33.4085 0.0000 -2.4081
# 5 8.8445 3.2354 9.2347 0.0000 36.3773 0.0000
# 6 0.0000 0.0000 0.0000 -2.4081 0.0000 23.7271
#
#
#
# Elastic Compliance Matrix: (Units=1/GPa)
#
#
# Indices 1 2 3 4 5 6 
#
# 1 0.009276 0.001346 -0.006206 0.000000 -0.000800 0.000000
# 2 0.001346 0.020098 -0.016681 0.000000 0.002120 0.000000
# 3 -0.006206 -0.016681 0.027225 0.000000 -0.003919 0.000000
# 4 0.000000 0.000000 0.000000 0.030153 0.000000 0.003060
# 5 -0.000800 0.002120 -0.003919 0.000000 0.028490 0.000000
# 6 0.000000 0.000000 0.000000 0.003060 0.000000 0.042456
#
#
# Mechanical properties :
#
#
# Convention : Reuss Voigt Hill
#
# Bulk Modulus (GPa) = 73.96689 75.37957 74.67323
# Shear Modulus (GPa) = 24.35621 30.80133 27.57877
#
# Velocity S-wave (km/s) = 3.49101 3.92583 3.71479
# Velocity P-wave (km/s) = 7.29798 7.63330 7.46753
#
# Compressibility (1/GPa) = 0.01351956
#
# Stress axis : x y z
#
# Youngs Moduli (GPa) = 107.80588 49.75528 36.73032
#
# Poissons Ratio (x) = -0.06699 0.22795
# Poissons Ratio (y) = -0.14515 0.61268
# Poissons Ratio (z) = 0.66904 0.82995
#
# Static dielectric constant tensor:
#      x y z
#    x 4.155270 0.000000 0.022590 
#    y 0.000000 3.981640 0.000000 
#    z 0.022590 0.000000 3.528540 
# 
# 
# High freq. dielectric constant tensor:
#      x y z
#    x 1.807650 0.000000 -0.002910 
#    y 0.000000 1.782150 0.000000 
#    z -0.002910 0.000000 1.773980 
# 
# From -- ./inp_files/5549.got.cif
#   From: 2010.06.25/outbox.cif.g09.slc.cpg/sg10_3_cif.got.tgz:5549.got - 2010.06.27 22:07:45.
