data_PCOD8066507
_publ_section_title
;
Structure prediction by ZEFSAII (Michael W. Deem and Ramdas Pophale) SiO2 
 PCOD8066507
Probable space group: P 2/M
;
_chemical_formula_sum "Si O2"
_cell_formula_units_Z 32
_cell_length_a 8.863011
_cell_length_b 23.453634
_cell_length_c 15.407628
_cell_angle_alpha 90.000000
_cell_angle_beta 149.638290
_cell_angle_gamma 90.000000
_cell_volume 1618.868759
_symmetry_space_group_name_H-M "P 2/M"
_symmetry_group_IT_number 10
_symmetry_cell_setting 'monoclinic'
loop_
_space_group_symop_operation_xyz
x,y,z
-x,y,-z
-x,-y,-z
x,-y,z
loop_
_atom_site_type_symbol
_atom_site_label
_atom_site_fract_x
_atom_site_fract_y
_atom_site_fract_z
Si Si1 0.026162 0.564275 0.300159
Si Si2 0.374313 0.435725 0.300158
Si Si3 0.178971 0.741824 0.499998
Si Si4 0.192162 0.066847 0.177943
Si Si5 0.820797 0.871963 0.500000
Si Si6 0.332074 0.673249 0.173087
Si Si7 0.841659 0.066848 0.177937
Si Si8 0.312814 0.326752 0.826913
O O1 0.898849 0.500000 0.239809
O O2 0.762359 0.607051 0.193891
O O3 0.288143 0.570852 0.500001
O O4 0.146607 0.579069 0.264405
O O5 0.320576 0.500000 0.239808
O O6 0.319309 0.392948 0.193890
O O7 0.234128 0.806738 0.499992
O O8 0.495613 0.710092 0.668495
O O9 0.000000 0.737964 0.500000
O O10 0.990129 0.710090 0.331506
O O11 0.503704 0.098783 0.331285
O O12 0.011892 0.083261 0.174594
O O13 0.259999 0.000000 0.207157
O O14 0.000000 0.086792 0.000000
O O15 0.000000 0.877592 0.500000
O O16 0.009830 0.901224 0.668704
O O17 0.488534 0.678868 0.159023
O O18 0.000000 0.698343 0.000000
O O19 0.861413 0.000000 0.207119
O O20 0.500000 0.086801 0.000000
O O21 0.500000 0.301658 0.000000
#
# Coordination Sequence:
#
# PCOD8066507 Si02
#       8
#     4   4   4   4   4   4   4   4
#     4   9  18  34  57  85 115 144 179 228 284 341
#     4   9  18  34  57  85 115 144 179 228 284 341
#     4   9  22  42  59  80 114 151 192 241 286 333
#     4  10  21  38  60  89 124 158 195 239 287 342
#     4  11  22  38  61  87 119 156 196 243 292 345
#     4  11  22  39  60  83 111 147 190 235 284 340
#     4  10  21  38  60  89 124 158 195 239 287 342
#     4  11  22  39  60  83 111 147 190 235 284 340
#
# _framework density 19.766891000000001
#
# number of rings (size 3 to 8) (size 9 to 14) (size 15 to 20)
#    0.000    2.000    1.250    3.000    0.000    5.000 
#    0.000    8.750    0.000    0.000    0.000    0.000 
#    0.000    0.000    0.000    0.000    0.000    0.000 
#
# Total GULP energy -396902.667348 kJ/mol
# GULP energy per Si atom -12403.208355 kJ/mol
# Density = 1.972190 g / cm^3
# Si number density = 19.766891 Si / 1000 Ang^3
#
#
#
# Elastic Constant Matrix: (Units=GPa)
#
#
# Indices 1 2 3 4 5 6 
#
# 1 93.5720 49.0817 64.8885 0.0000 1.5123 0.0000
# 2 49.0817 97.0610 77.4786 0.0000 0.9458 0.0000
# 3 64.8885 77.4786 178.6984 0.0000 1.3106 0.0000
# 4 0.0000 0.0000 0.0000 37.1758 0.0000 0.3966
# 5 1.5123 0.9458 1.3106 0.0000 37.1697 0.0000
# 6 0.0000 0.0000 0.0000 0.3966 0.0000 25.0838
#
#
#
# Elastic Compliance Matrix: (Units=1/GPa)
#
#
# Indices 1 2 3 4 5 6 
#
# 1 0.015854 -0.005230 -0.003486 0.000000 -0.000389 0.000000
# 2 -0.005230 0.017482 -0.005680 0.000000 -0.000032 0.000000
# 3 -0.003486 -0.005680 0.009325 0.000000 -0.000042 0.000000
# 4 0.000000 0.000000 0.000000 0.026904 0.000000 -0.000425
# 5 -0.000389 -0.000032 -0.000042 0.000000 0.026922 0.000000
# 6 0.000000 0.000000 0.000000 -0.000425 0.000000 0.039873
#
#
# Mechanical properties :
#
#
# Convention : Reuss Voigt Hill
#
# Bulk Modulus (GPa) = 72.11083 83.58097 77.84590
# Shear Modulus (GPa) = 29.45031 31.74471 30.59751
#
# Velocity S-wave (km/s) = 3.86408 4.01178 3.93863
# Velocity P-wave (km/s) = 7.51452 7.98964 7.75572
#
# Compressibility (1/GPa) = 0.01386754
#
# Stress axis : x y z
#
# Youngs Moduli (GPa) = 63.07364 57.20049 107.23695
#
# Poissons Ratio (x) = 0.29919 0.37387
# Poissons Ratio (y) = 0.32991 0.60914
# Poissons Ratio (z) = 0.21990 0.32492
#
# Static dielectric constant tensor:
#      x y z
#    x 3.482690 0.000000 0.009930 
#    y 0.000000 3.617890 0.000000 
#    z 0.009930 0.000000 3.781660 
# 
# 
# High freq. dielectric constant tensor:
#      x y z
#    x 1.764360 0.000000 0.000640 
#    y 0.000000 1.765180 0.000000 
#    z 0.000640 0.000000 1.783770 
# 
# From -- ./inp_files/62712.got.cif
#   From: 2010.06.25/outbox.cif.g09.slc.cpg/sg10_32_cif.got.tgz:62712.got - 2010.06.27 22:07:45.
