data_PCOD8066853
_publ_section_title
;
Structure prediction by ZEFSAII (Michael W. Deem and Ramdas Pophale) SiO2 
 PCOD8066853
Probable space group: P 2/M
;
_chemical_formula_sum "Si O2"
_cell_formula_units_Z 32
_cell_length_a 11.804427
_cell_length_b 18.135994
_cell_length_c 14.718967
_cell_angle_alpha 90.000000
_cell_angle_beta 30.374045
_cell_angle_gamma 90.000000
_cell_volume 1593.336846
_symmetry_space_group_name_H-M "P 2/M"
_symmetry_group_IT_number 10
_symmetry_cell_setting 'monoclinic'
loop_
_space_group_symop_operation_xyz
x,y,z
-x,y,-z
-x,-y,-z
x,-y,z
loop_
_atom_site_type_symbol
_atom_site_label
_atom_site_fract_x
_atom_site_fract_y
_atom_site_fract_z
Si Si1 0.226872 0.820932 0.808464
Si Si2 0.045710 0.799714 0.742898
Si Si3 0.422010 0.311108 0.791637
Si Si4 0.357206 0.917353 0.454498
Si Si5 0.474354 0.219632 0.918999
Si Si6 0.963152 0.584470 0.918607
Si Si7 0.685932 0.333794 0.442486
Si Si8 0.739564 0.082347 0.684716
O O1 0.152429 0.784086 0.766981
O O2 0.304353 0.756198 0.820945
O O3 0.420702 0.880495 0.657949
O O4 0.000000 0.861630 0.000000
O O5 0.131607 0.875598 0.640190
O O6 0.154443 0.728103 0.620365
O O7 0.780529 0.801328 0.926783
O O8 0.563081 0.274294 0.777729
O O9 0.562308 0.360578 0.621663
O O10 0.242203 0.363088 0.966832
O O11 0.375421 0.915931 0.333869
O O12 0.339972 0.000000 0.504440
O O13 0.618657 0.144572 0.827654
O O14 0.500000 0.258234 0.000000
O O15 0.900920 0.500000 0.943304
O O16 0.175553 0.603312 0.707012
O O17 0.000000 0.598901 0.000000
O O18 0.500000 0.303072 0.500000
O O19 0.000000 0.102529 0.500000
O O20 0.709610 0.000000 0.747961
#
# Coordination Sequence:
#
# PCOD8066853 Si02
#       8
#     4   4   4   4   4   4   4   4
#     4  12  20  35  60  83 117 166 209 255 323 384
#     4  12  21  36  60  87 121 164 213 263 316 393
#     4  12  22  40  64  94 129 169 214 267 321 388
#     4  11  23  37  54  87 125 161 211 269 324 386
#     4  12  25  40  64  92 123 162 225 280 329 382
#     4  11  23  38  62 102 143 171 208 261 317 386
#     4  12  20  35  65  95 129 177 214 247 318 390
#     4  10  21  41  62  83 121 166 213 275 339 390
#
# _framework density 20.083638000000001
#
# number of rings (size 3 to 8) (size 9 to 14) (size 15 to 20)
#    0.000    0.500    7.500    1.500    0.000    2.750 
#    0.000    0.000    0.000    0.375    0.000    0.875 
#    0.000    0.000    0.000    0.000    0.000    0.000 
#
# Total GULP energy -396605.430695 kJ/mol
# GULP energy per Si atom -12393.919709 kJ/mol
# Density = 2.003793 g / cm^3
# Si number density = 20.083638 Si / 1000 Ang^3
#
#
#
# Elastic Constant Matrix: (Units=GPa)
#
#
# Indices 1 2 3 4 5 6 
#
# 1 88.5834 23.6332 26.5491 0.0000 12.3432 0.0000
# 2 23.6332 100.9864 34.7273 0.0000 -0.2956 0.0000
# 3 26.5491 34.7273 106.2952 0.0000 7.2199 0.0000
# 4 0.0000 0.0000 0.0000 32.8203 0.0000 -0.5763
# 5 12.3432 -0.2956 7.2199 0.0000 34.5190 0.0000
# 6 0.0000 0.0000 0.0000 -0.5763 0.0000 13.0162
#
#
#
# Elastic Compliance Matrix: (Units=1/GPa)
#
#
# Indices 1 2 3 4 5 6 
#
# 1 0.013175 -0.002325 -0.002242 0.000000 -0.004262 0.000000
# 2 -0.002325 0.011592 -0.003317 0.000000 0.001624 0.000000
# 3 -0.002242 -0.003317 0.011157 0.000000 -0.001560 0.000000
# 4 0.000000 0.000000 0.000000 0.030493 0.000000 0.001350
# 5 -0.004262 0.001624 -0.001560 0.000000 0.030834 0.000000
# 6 0.000000 0.000000 0.000000 0.001350 0.000000 0.076887
#
#
# Mechanical properties :
#
#
# Convention : Reuss Voigt Hill
#
# Bulk Modulus (GPa) = 49.60971 51.74267 50.67619
# Shear Modulus (GPa) = 25.42945 30.13481 27.78213
#
# Velocity S-wave (km/s) = 3.56220 3.87779 3.72334
# Velocity P-wave (km/s) = 6.45556 6.77268 6.61602
#
# Compressibility (1/GPa) = 0.02015734
#
# Stress axis : x y z
#
# Youngs Moduli (GPa) = 75.90284 86.26857 89.62797
#
# Poissons Ratio (x) = 0.20056 0.20091
# Poissons Ratio (y) = 0.17646 0.29727
# Poissons Ratio (z) = 0.17014 0.28613
#
# Static dielectric constant tensor:
#      x y z
#    x 3.622090 0.000000 0.095460 
#    y 0.000000 3.494020 0.000000 
#    z 0.095460 0.000000 3.963210 
# 
# 
# High freq. dielectric constant tensor:
#      x y z
#    x 1.764700 0.000000 0.007130 
#    y 0.000000 1.756920 0.000000 
#    z 0.007130 0.000000 1.799090 
# 
# From -- ./inp_files/51988.got.cif
#   From: 2010.06.25/outbox.cif.g09.slc.cpg/sg10_26_cif.got.tgz:51988.got - 2010.06.27 22:07:45.
