data_PCOD8066715
_publ_section_title
;
Structure prediction by ZEFSAII (Michael W. Deem and Ramdas Pophale) SiO2 
 PCOD8066715
Probable space group: P 2/M
;
_chemical_formula_sum "Si O2"
_cell_formula_units_Z 28
_cell_length_a 16.021850
_cell_length_b 7.972554
_cell_length_c 14.591008
_cell_angle_alpha 90.000000
_cell_angle_beta 47.271900
_cell_angle_gamma 90.000000
_cell_volume 1369.101533
_symmetry_space_group_name_H-M "P 2/M"
_symmetry_group_IT_number 10
_symmetry_cell_setting 'monoclinic'
loop_
_space_group_symop_operation_xyz
x,y,z
-x,y,-z
-x,-y,-z
x,-y,z
loop_
_atom_site_type_symbol
_atom_site_label
_atom_site_fract_x
_atom_site_fract_y
_atom_site_fract_z
Si Si1 0.605353 0.500000 0.543876
Si Si2 0.847908 0.312147 0.957548
Si Si3 0.363237 0.198474 0.000115
Si Si4 0.279421 0.804722 0.451239
Si Si5 0.199330 0.188697 0.822917
Si Si6 0.073991 0.194062 0.730112
Si Si7 0.616151 0.806437 0.813308
Si Si8 0.345291 0.500000 0.693160
O O1 0.630284 0.674150 0.576562
O O2 0.474827 0.500000 0.620752
O O3 0.678722 0.500000 0.397089
O O4 0.848373 0.500000 0.994823
O O5 0.728641 0.282875 0.996623
O O6 0.953291 0.286581 0.808935
O O7 0.870458 0.191661 0.029248
O O8 0.341933 0.265726 0.120326
O O9 0.347254 0.000000 0.001851
O O10 0.490765 0.260610 0.876592
O O11 0.155801 0.756924 0.583799
O O12 0.286859 0.776782 0.335899
O O13 0.309988 0.000000 0.453541
O O14 0.127958 0.245098 0.787679
O O15 0.296662 0.326055 0.769279
O O16 0.248093 0.000000 0.770761
O O17 0.047566 0.000000 0.746107
O O18 0.594703 0.000000 0.847855
#
# Coordination Sequence:
#
# PCOD8066715 Si02
#       8
#     2   4   4   4   4   4   4   2
#     4  11  24  38  59  86 128 163 200 246 294 355
#     4  12  25  36  58  88 121 158 198 249 303 356
#     4   9  18  38  62  87 118 150 193 247 301 355
#     4  10  21  39  63  89 117 159 206 243 297 359
#     4  11  23  41  62  86 119 158 203 249 299 352
#     4  10  22  40  60  84 114 157 206 245 295 356
#     4   8  17  36  64  89 114 152 195 244 300 358
#     4  11  24  40  56  90 125 162 203 243 299 353
#
# _framework density 20.451369
#
# number of rings (size 3 to 8) (size 9 to 14) (size 15 to 20)
#    0.000    1.857    2.143    2.571    4.000    2.286 
#    1.286    2.857    0.000    4.286    0.000    0.000 
#    0.000    0.000    0.000    0.000    0.000    0.000 
#
# Total GULP energy -346967.935495 kJ/mol
# GULP energy per Si atom -12391.711982 kJ/mol
# Density = 2.040482 g / cm^3
# Si number density = 20.451369 Si / 1000 Ang^3
#
#
#
# Elastic Constant Matrix: (Units=GPa)
#
#
# Indices 1 2 3 4 5 6 
#
# 1 62.8680 13.0011 41.6234 0.0000 0.2646 0.0000
# 2 13.0011 81.3875 16.5542 0.0000 -5.6853 0.0000
# 3 41.6234 16.5542 132.4434 0.0000 8.5206 0.0000
# 4 0.0000 0.0000 0.0000 17.6745 0.0000 -6.5809
# 5 0.2646 -5.6853 8.5206 0.0000 24.9388 0.0000
# 6 0.0000 0.0000 0.0000 -6.5809 0.0000 20.7623
#
#
#
# Elastic Compliance Matrix: (Units=1/GPa)
#
#
# Indices 1 2 3 4 5 6 
#
# 1 0.020453 -0.001883 -0.006289 0.000000 0.001502 0.000000
# 2 -0.001883 0.013085 -0.001265 0.000000 0.003435 0.000000
# 3 -0.006289 -0.001265 0.009917 0.000000 -0.003610 0.000000
# 4 0.000000 0.000000 0.000000 0.064149 0.000000 0.020333
# 5 0.001502 0.003435 -0.003610 0.000000 0.042099 0.000000
# 6 0.000000 0.000000 0.000000 0.020333 0.000000 0.054609
#
#
# Mechanical properties :
#
#
# Convention : Reuss Voigt Hill
#
# Bulk Modulus (GPa) = 40.68099 46.56180 43.62140
# Shear Modulus (GPa) = 21.60941 26.37647 23.99294
#
# Velocity S-wave (km/s) = 3.25410 3.59516 3.42887
# Velocity P-wave (km/s) = 5.83555 6.32851 6.08702
#
# Compressibility (1/GPa) = 0.02458151
#
# Stress axis : x y z
#
# Youngs Moduli (GPa) = 48.89160 76.42402 100.83441
#
# Poissons Ratio (x) = 0.14391 0.63417
# Poissons Ratio (y) = 0.09207 0.12752
# Poissons Ratio (z) = 0.30749 0.09665
#
# Static dielectric constant tensor:
#      x y z
#    x 3.452740 0.000000 0.158240 
#    y 0.000000 3.646410 0.000000 
#    z 0.158240 0.000000 4.036510 
# 
# 
# High freq. dielectric constant tensor:
#      x y z
#    x 1.769990 0.000000 0.007020 
#    y 0.000000 1.796490 0.000000 
#    z 0.007020 0.000000 1.810160 
# 
# From -- ./inp_files/66436.got.cif
#   From: 2010.06.25/outbox.cif.g09.slc.cpg/sg10_34_cif.got.tgz:66436.got - 2010.06.27 22:07:45.
