data_PCOD8066446
_publ_section_title
;
Structure prediction by ZEFSAII (Michael W. Deem and Ramdas Pophale) SiO2 
 PCOD8066446
Probable space group: P 2/M
;
_chemical_formula_sum "Si O2"
_cell_formula_units_Z 24
_cell_length_a 8.582725
_cell_length_b 13.797467
_cell_length_c 14.250061
_cell_angle_alpha 90.000000
_cell_angle_beta 44.369229
_cell_angle_gamma 90.000000
_cell_volume 1180.027421
_symmetry_space_group_name_H-M "P 2/M"
_symmetry_group_IT_number 10
_symmetry_cell_setting 'monoclinic'
loop_
_space_group_symop_operation_xyz
x,y,z
-x,y,-z
-x,-y,-z
x,-y,z
loop_
_atom_site_type_symbol
_atom_site_label
_atom_site_fract_x
_atom_site_fract_y
_atom_site_fract_z
Si Si1 0.459705 0.213342 0.697176
Si Si2 0.228115 0.108895 0.958015
Si Si3 0.727069 0.391071 0.856340
Si Si4 0.120025 0.112562 0.544023
Si Si5 0.996863 0.784960 0.217667
Si Si6 0.252823 0.609722 0.371748
O O1 0.619470 0.136703 0.577066
O O2 0.241528 0.217568 0.728169
O O3 0.577087 0.318427 0.648963
O O4 0.405283 0.174772 0.825343
O O5 0.179974 0.155104 0.079992
O O6 0.324581 0.000000 0.928788
O O7 0.000000 0.104606 0.000000
O O8 0.782443 0.500000 0.865512
O O9 0.695884 0.385239 0.759285
O O10 0.929123 0.326036 0.805796
O O11 0.500000 0.353366 0.000000
O O12 0.008085 0.169385 0.677386
O O13 0.000000 0.145436 0.500000
O O14 0.089586 0.000000 0.577649
O O15 0.289698 0.500000 0.394208
O O16 0.000000 0.643252 0.500000
#
# Coordination Sequence:
#
# PCOD8066446 Si02
#       6
#     4   4   4   4   4   4
#     4  11  21  36  60  87 116 149 188 240 289 333
#     4   9  19  35  54  80 114 148 182 224 279 337
#     4  10  21  38  59  82 113 153 191 231 283 343
#     4  11  24  40  58  83 117 156 195 234 280 339
#     4  11  22  36  60  89 115 148 191 239 287 336
#     4  10  21  38  59  81 111 152 190 229 284 344
#
# _framework density 20.338508999999998
#
# number of rings (size 3 to 8) (size 9 to 14) (size 15 to 20)
#    0.000    1.667    0.000    5.000    0.000    3.333 
#    0.000    0.000    0.000   16.000    0.000    0.000 
#    0.000    0.000    0.000    0.000    0.000    0.000 
#
# Total GULP energy -297687.432072 kJ/mol
# GULP energy per Si atom -12403.643003 kJ/mol
# Density = 2.029222 g / cm^3
# Si number density = 20.338509 Si / 1000 Ang^3
#
#
#
# Elastic Constant Matrix: (Units=GPa)
#
#
# Indices 1 2 3 4 5 6 
#
# 1 76.6671 56.9486 37.1294 0.0000 6.3294 0.0000
# 2 56.9486 135.9596 52.3895 0.0000 -4.2072 0.0000
# 3 37.1294 52.3895 137.2601 0.0000 17.4251 0.0000
# 4 0.0000 0.0000 0.0000 41.2985 0.0000 3.0405
# 5 6.3294 -4.2072 17.4251 0.0000 27.0164 0.0000
# 6 0.0000 0.0000 0.0000 3.0405 0.0000 40.7784
#
#
#
# Elastic Compliance Matrix: (Units=1/GPa)
#
#
# Indices 1 2 3 4 5 6 
#
# 1 0.020196 -0.007897 -0.001843 0.000000 -0.004772 0.000000
# 2 -0.007897 0.012080 -0.003211 0.000000 0.005802 0.000000
# 3 -0.001843 -0.003211 0.009823 0.000000 -0.006404 0.000000
# 4 0.000000 0.000000 0.000000 0.024348 0.000000 -0.001815
# 5 -0.004772 0.005802 -0.006404 0.000000 0.043166 0.000000
# 6 0.000000 0.000000 0.000000 -0.001815 0.000000 0.024658
#
#
# Mechanical properties :
#
#
# Convention : Reuss Voigt Hill
#
# Bulk Modulus (GPa) = 61.74341 71.42465 66.58403
# Shear Modulus (GPa) = 30.19858 35.37995 32.78927
#
# Velocity S-wave (km/s) = 3.85749 4.17532 4.01955
# Velocity P-wave (km/s) = 7.08972 7.64451 7.37234
#
# Compressibility (1/GPa) = 0.01619606
#
# Stress axis : x y z
#
# Youngs Moduli (GPa) = 49.51537 82.78381 101.80652
#
# Poissons Ratio (x) = 0.65372 0.18765
# Poissons Ratio (y) = 0.39101 0.32691
# Poissons Ratio (z) = 0.09126 0.26582
#
# Static dielectric constant tensor:
#      x y z
#    x 3.328890 0.000000 0.099660 
#    y 0.000000 3.910360 0.000000 
#    z 0.099660 0.000000 3.943010 
# 
# 
# High freq. dielectric constant tensor:
#      x y z
#    x 1.770600 0.000000 0.004700 
#    y 0.000000 1.808390 0.000000 
#    z 0.004700 0.000000 1.816030 
# 
# From -- ./inp_files/61654.got.cif
#   From: 2010.06.25/outbox.cif.g09.slc.cpg/sg10_31_cif.got.tgz:61654.got - 2010.06.27 22:07:45.
