data_PCOD8066198
_publ_section_title
;
Structure prediction by ZEFSAII (Michael W. Deem and Ramdas Pophale) SiO2 
 PCOD8066198
Probable space group: P 2/M
;
_chemical_formula_sum "Si O2"
_cell_formula_units_Z 32
_cell_length_a 10.913569
_cell_length_b 9.343699
_cell_length_c 28.659728
_cell_angle_alpha 90.000000
_cell_angle_beta 148.597943
_cell_angle_gamma 90.000000
_cell_volume 1522.751363
_symmetry_space_group_name_H-M "P 2/M"
_symmetry_group_IT_number 10
_symmetry_cell_setting 'monoclinic'
loop_
_space_group_symop_operation_xyz
x,y,z
-x,y,-z
-x,-y,-z
x,-y,z
loop_
_atom_site_type_symbol
_atom_site_label
_atom_site_fract_x
_atom_site_fract_y
_atom_site_fract_z
Si Si1 0.753977 0.162582 0.602929
Si Si2 0.971478 0.336217 0.600148
Si Si3 0.348221 0.665280 0.269802
Si Si4 0.496023 0.340049 0.218322
Si Si5 0.747513 0.829974 0.937197
Si Si6 0.761769 0.837775 0.451069
Si Si7 0.513496 0.166182 0.056760
Si Si8 0.042356 0.161956 0.233087
O O1 0.500000 0.201529 0.500000
O O2 0.938762 0.273974 0.641356
O O3 0.772422 0.184095 0.664565
O O4 0.824122 0.000000 0.612716
O O5 0.889224 0.500000 0.570377
O O6 0.802929 0.242858 0.512777
O O7 0.244006 0.319390 0.675855
O O8 0.383307 0.500000 0.295468
O O9 0.322248 0.682405 0.205635
O O10 0.565684 0.757672 0.358133
O O11 0.109291 0.728368 0.213874
O O12 0.468525 0.500000 0.188597
O O13 0.446689 0.227240 0.161855
O O14 0.675694 0.773941 0.966185
O O15 0.737641 0.000000 0.932680
O O16 0.000000 0.773561 0.000000
O O17 0.000000 0.836974 0.500000
O O18 0.678534 0.000000 0.434681
O O19 0.775022 0.193512 0.162121
O O20 0.456199 0.000000 0.032686
O O21 0.500000 0.236119 0.000000
O O22 0.058671 0.000000 0.218974
#
# Coordination Sequence:
#
# PCOD8066198 Si02
#       8
#     4   4   4   4   4   4   4   4
#     4  10  21  37  56  82 118 155 198 253 306 361
#     4  11  22  37  59  84 116 157 202 246 298 362
#     4  11  23  39  59  85 123 163 203 250 303 362
#     4  10  23  40  58  85 122 162 195 241 308 364
#     4  10  22  39  65  98 122 151 203 255 299 362
#     4  11  22  36  56  85 118 157 204 252 303 359
#     4   9  19  37  61  90 126 160 193 248 314 364
#     4  10  21  37  60  86 117 160 205 250 307 366
#
# _framework density 21.014593000000001
#
# number of rings (size 3 to 8) (size 9 to 14) (size 15 to 20)
#    0.000    1.750    1.250    2.625    1.750    5.500 
#    0.000    0.625    0.000    0.750    0.000    0.000 
#    0.000    0.000    0.000    0.000    0.000    0.000 
#
# Total GULP energy -396741.086964 kJ/mol
# GULP energy per Si atom -12398.158968 kJ/mol
# Density = 2.096676 g / cm^3
# Si number density = 21.014593 Si / 1000 Ang^3
#
#
#
# Elastic Constant Matrix: (Units=GPa)
#
#
# Indices 1 2 3 4 5 6 
#
# 1 139.7479 49.3443 35.2688 0.0000 -2.3906 0.0000
# 2 49.3443 92.7377 23.7210 0.0000 -2.3795 0.0000
# 3 35.2688 23.7210 78.3676 0.0000 -8.6640 0.0000
# 4 0.0000 0.0000 0.0000 24.1975 0.0000 0.7582
# 5 -2.3906 -2.3795 -8.6640 0.0000 28.5860 0.0000
# 6 0.0000 0.0000 0.0000 0.7582 0.0000 28.6535
#
#
#
# Elastic Compliance Matrix: (Units=1/GPa)
#
#
# Indices 1 2 3 4 5 6 
#
# 1 0.009405 -0.004249 -0.002999 0.000000 -0.000476 0.000000
# 2 -0.004249 0.013608 -0.002194 0.000000 0.000112 0.000000
# 3 -0.002999 -0.002194 0.015237 0.000000 0.004185 0.000000
# 4 0.000000 0.000000 0.000000 0.041361 0.000000 -0.001094
# 5 -0.000476 0.000112 0.004185 0.000000 0.036220 0.000000
# 6 0.000000 0.000000 0.000000 -0.001094 0.000000 0.034929
#
#
# Mechanical properties :
#
#
# Convention : Reuss Voigt Hill
#
# Bulk Modulus (GPa) = 51.64010 58.61349 55.12680
# Shear Modulus (GPa) = 28.39301 29.78868 29.09085
#
# Velocity S-wave (km/s) = 3.67973 3.76909 3.72468
# Velocity P-wave (km/s) = 6.53305 6.84790 6.69232
#
# Compressibility (1/GPa) = 0.01936479
#
# Stress axis : x y z
#
# Youngs Moduli (GPa) = 106.32782 73.48492 65.63028
#
# Poissons Ratio (x) = 0.31226 0.19683
# Poissons Ratio (y) = 0.45182 0.14401
# Poissons Ratio (z) = 0.31888 0.16125
#
# Static dielectric constant tensor:
#      x y z
#    x 4.079140 0.000000 0.026320 
#    y 0.000000 3.636260 0.000000 
#    z 0.026320 0.000000 3.619900 
# 
# 
# High freq. dielectric constant tensor:
#      x y z
#    x 1.836330 0.000000 0.001370 
#    y 0.000000 1.803770 0.000000 
#    z 0.001370 0.000000 1.813590 
# 
# From -- ./inp_files/95022.got.cif
#   From: 2010.06.25/outbox.cif.g09.slc.cpg/sg10_48_cif.got.tgz:95022.got - 2010.06.27 22:07:45.
