data_PCOD8066122
_publ_section_title
;
Structure prediction by ZEFSAII (Michael W. Deem and Ramdas Pophale) SiO2 
 PCOD8066122
Probable space group: P 2/M
;
_chemical_formula_sum "Si O2"
_cell_formula_units_Z 28
_cell_length_a 14.794403
_cell_length_b 11.277844
_cell_length_c 9.622884
_cell_angle_alpha 90.000000
_cell_angle_beta 124.551086
_cell_angle_gamma 90.000000
_cell_volume 1322.379496
_symmetry_space_group_name_H-M "P 2/M"
_symmetry_group_IT_number 10
_symmetry_cell_setting 'monoclinic'
loop_
_space_group_symop_operation_xyz
x,y,z
-x,y,-z
-x,-y,-z
x,-y,z
loop_
_atom_site_type_symbol
_atom_site_label
_atom_site_fract_x
_atom_site_fract_y
_atom_site_fract_z
Si Si1 0.753454 0.262426 0.018559
Si Si2 0.600322 0.500000 0.276548
Si Si3 0.756827 0.292645 0.515095
Si Si4 0.642010 0.500000 0.995795
Si Si5 0.124910 0.634677 0.124677
Si Si6 0.595086 0.131587 0.489860
Si Si7 0.540152 0.868649 0.892580
Si Si8 0.870423 0.139936 0.372720
O O1 0.833748 0.190471 0.191637
O O2 0.723171 0.390484 0.049136
O O3 0.807677 0.275577 0.914693
O O4 0.639769 0.193390 0.901388
O O5 0.661632 0.382769 0.384435
O O6 0.468419 0.500000 0.200487
O O7 0.600308 0.500000 0.113795
O O8 0.848524 0.357943 0.687130
O O9 0.705287 0.206663 0.587719
O O10 0.808727 0.217869 0.435153
O O11 0.146395 0.500000 0.093672
O O12 0.000000 0.671688 0.000000
O O13 0.500000 0.191591 0.500000
O O14 0.561970 0.127717 0.299227
O O15 0.618476 0.000000 0.569639
O O16 0.580265 0.000000 0.969146
O O17 0.500000 0.802894 0.000000
O O18 0.000000 0.158683 0.500000
O O19 0.840171 0.000000 0.361086
#
# Coordination Sequence:
#
# PCOD8066122 Si02
#       8
#     4   2   4   2   4   4   4   4
#     4  12  22  42  65  93 129 176 208 270 328 381
#     4  11  24  39  62  99 139 169 209 265 321 397
#     4  12  22  43  66  95 128 176 212 265 333 385
#     4  11  24  39  60  99 137 169 213 261 319 387
#     4  11  25  44  64  91 128 170 224 273 318 384
#     4  10  21  37  58  87 122 163 208 254 304 377
#     4  10  21  36  59  91 123 162 207 252 310 384
#     4  11  25  44  68  97 125 162 221 280 329 387
#
# _framework density 21.173952
#
# number of rings (size 3 to 8) (size 9 to 14) (size 15 to 20)
#    0.000    1.000    2.857    4.286    2.000    1.143 
#    0.000    3.929    0.000    5.143    0.000    0.000 
#    0.000    0.000    0.000    0.000    0.000    0.000 
#
# Total GULP energy -347088.422325 kJ/mol
# GULP energy per Si atom -12396.015083 kJ/mol
# Density = 2.112576 g / cm^3
# Si number density = 21.173952 Si / 1000 Ang^3
#
#
#
# Elastic Constant Matrix: (Units=GPa)
#
#
# Indices 1 2 3 4 5 6 
#
# 1 91.5734 41.2639 21.5446 0.0000 -6.3327 0.0000
# 2 41.2639 99.1455 20.1460 0.0000 5.3495 0.0000
# 3 21.5446 20.1460 95.3714 0.0000 3.8795 0.0000
# 4 0.0000 0.0000 0.0000 25.9319 0.0000 8.6106
# 5 -6.3327 5.3495 3.8795 0.0000 39.4180 0.0000
# 6 0.0000 0.0000 0.0000 8.6106 0.0000 16.5210
#
#
#
# Elastic Compliance Matrix: (Units=1/GPa)
#
#
# Indices 1 2 3 4 5 6 
#
# 1 0.014195 -0.005648 -0.002146 0.000000 0.003258 0.000000
# 2 -0.005648 0.012844 -0.001335 0.000000 -0.002519 0.000000
# 3 -0.002146 -0.001335 0.011304 0.000000 -0.001276 0.000000
# 4 0.000000 0.000000 0.000000 0.046633 0.000000 -0.024305
# 5 0.003258 -0.002519 -0.001276 0.000000 0.026360 0.000000
# 6 0.000000 0.000000 0.000000 -0.024305 0.000000 0.073196
#
#
# Mechanical properties :
#
#
# Convention : Reuss Voigt Hill
#
# Bulk Modulus (GPa) = 49.78677 50.22216 50.00446
# Shear Modulus (GPa) = 23.86797 29.91656 26.89227
#
# Velocity S-wave (km/s) = 3.36107 3.76293 3.56766
# Velocity P-wave (km/s) = 6.21503 6.53068 6.37481
#
# Compressibility (1/GPa) = 0.02008566
#
# Stress axis : x y z
#
# Youngs Moduli (GPa) = 70.44521 77.85801 88.46392
#
# Poissons Ratio (x) = 0.43972 0.18987
# Poissons Ratio (y) = 0.39786 0.11808
# Poissons Ratio (z) = 0.15120 0.10392
#
# Static dielectric constant tensor:
#      x y z
#    x 3.820890 0.000000 0.045170 
#    y 0.000000 4.050040 0.000000 
#    z 0.045170 0.000000 3.757310 
# 
# 
# High freq. dielectric constant tensor:
#      x y z
#    x 1.829990 0.000000 0.000010 
#    y 0.000000 1.836040 0.000000 
#    z 0.000010 0.000000 1.833810 
# 
# From -- ./inp_files/28726.got.cif
#   From: 2010.06.25/outbox.cif.g09.slc.cpg/sg10_15_cif.got.tgz:28726.got - 2010.06.27 22:07:45.
