data_PCOD8066355
_publ_section_title
;
Structure prediction by ZEFSAII (Michael W. Deem and Ramdas Pophale) SiO2 
 PCOD8066355
Probable space group: P 2/M
;
_chemical_formula_sum "Si O2"
_cell_formula_units_Z 28
_cell_length_a 14.583453
_cell_length_b 11.103729
_cell_length_c 9.908072
_cell_angle_alpha 90.000000
_cell_angle_beta 118.637976
_cell_angle_gamma 90.000000
_cell_volume 1408.145081
_symmetry_space_group_name_H-M "P 2/M"
_symmetry_group_IT_number 10
_symmetry_cell_setting 'monoclinic'
loop_
_space_group_symop_operation_xyz
x,y,z
-x,y,-z
-x,-y,-z
x,-y,z
loop_
_atom_site_type_symbol
_atom_site_label
_atom_site_fract_x
_atom_site_fract_y
_atom_site_fract_z
Si Si1 0.600772 0.000000 0.979993
Si Si2 0.604985 0.355972 0.317575
Si Si3 0.603925 0.000000 0.660012
Si Si4 0.918758 0.862619 0.333099
Si Si5 0.294110 0.755660 0.866541
Si Si6 0.369262 0.362461 0.176413
Si Si7 0.057915 0.137397 0.172964
Si Si8 0.719051 0.237379 0.642013
O O1 0.579593 0.000000 0.803553
O O2 0.500000 0.000000 0.000000
O O3 0.665924 0.113054 0.072188
O O4 0.618255 0.500000 0.349461
O O5 0.635334 0.319867 0.187279
O O6 0.486884 0.307811 0.258359
O O7 0.678267 0.277458 0.467253
O O8 0.500000 0.000000 0.500000
O O9 0.669150 0.883608 0.665093
O O10 0.822513 0.770359 0.272330
O O11 0.000000 0.814797 0.500000
O O12 0.971014 0.855860 0.225223
O O13 0.884173 0.000000 0.342684
O O14 0.293913 0.686907 0.007743
O O15 0.386385 0.500000 0.159735
O O16 0.312726 0.343552 0.278815
O O17 0.156421 0.221034 0.278690
O O18 0.096931 0.000000 0.179375
O O19 0.000000 0.187223 0.000000
#
# Coordination Sequence:
#
# PCOD8066355 Si02
#       8
#     2   4   2   4   4   4   4   4
#     4  12  26  40  60  98 136 168 198 256 329 389
#     4  11  25  43  64  91 126 172 220 256 303 378
#     4  12  26  40  60  97 138 168 198 253 329 395
#     4  10  21  39  59  88 122 160 205 252 309 385
#     4  12  23  40  66  91 127 163 209 265 314 373
#     4  11  23  41  64  89 122 170 216 254 303 374
#     4  10  21  37  61  88 122 160 207 254 313 381
#     4  12  23  40  64  93 127 165 207 262 317 376
#
# _framework density 19.884315000000001
#
# number of rings (size 3 to 8) (size 9 to 14) (size 15 to 20)
#    0.000    0.857    2.857    5.143    2.000    2.286 
#    0.000    0.000    0.000   17.143    0.000    0.000 
#    0.000    0.000    0.000    0.000    0.000    0.000 
#
# Total GULP energy -347248.474396 kJ/mol
# GULP energy per Si atom -12401.731228 kJ/mol
# Density = 1.983906 g / cm^3
# Si number density = 19.884315 Si / 1000 Ang^3
#
#
#
# Elastic Constant Matrix: (Units=GPa)
#
#
# Indices 1 2 3 4 5 6 
#
# 1 59.7357 17.3996 13.1873 0.0000 8.9407 0.0000
# 2 17.3996 58.6291 25.1850 0.0000 1.6337 0.0000
# 3 13.1873 25.1850 111.1146 0.0000 6.6497 0.0000
# 4 0.0000 0.0000 0.0000 26.6926 0.0000 14.9393
# 5 8.9407 1.6337 6.6497 0.0000 36.4148 0.0000
# 6 0.0000 0.0000 0.0000 14.9393 0.0000 -15.5789
#
#
#
# Elastic Compliance Matrix: (Units=1/GPa)
#
#
# Indices 1 2 3 4 5 6 
#
# 1 0.019078 -0.005185 -0.000832 0.000000 -0.004300 0.000000
# 2 -0.005185 0.020305 -0.004053 0.000000 0.001102 0.000000
# 3 -0.000832 -0.004053 0.010104 0.000000 -0.001459 0.000000
# 4 0.000000 0.000000 0.000000 0.024379 0.000000 0.023378
# 5 -0.004300 0.001102 -0.001459 0.000000 0.028734 0.000000
# 6 0.000000 0.000000 0.000000 0.023378 0.000000 -0.041771
#
#
# Mechanical properties :
#
#
# Convention : Reuss Voigt Hill
#
# Bulk Modulus (GPa) = 34.07310 37.89146 35.98228
# Shear Modulus (GPa) = 55.09550 21.08620 38.09085
#
# Velocity S-wave (km/s) = 5.26955 3.25998 4.38153
# Velocity P-wave (km/s) = 7.36187 5.76778 6.61303
#
# Compressibility (1/GPa) = 0.02934866
#
# Stress axis : x y z
#
# Youngs Moduli (GPa) = 52.41723 49.24803 98.96690
#
# Poissons Ratio (x) = 0.25534 0.08231
# Poissons Ratio (y) = 0.27177 0.40111
# Poissons Ratio (z) = 0.04360 0.19960
#
# Static dielectric constant tensor:
#      x y z
#    x 3.487570 0.000000 0.097590 
#    y 0.000000 3.578620 0.000000 
#    z 0.097590 0.000000 3.670100 
# 
# 
# High freq. dielectric constant tensor:
#      x y z
#    x 1.776800 0.000000 -0.003350 
#    y 0.000000 1.764090 0.000000 
#    z -0.003350 0.000000 1.794370 
# 
# From -- ./inp_files/28539.got.cif
#   From: 2010.06.25/outbox.cif.g09.slc.cpg/sg10_15_cif.got.tgz:28539.got - 2010.06.27 22:07:45.
