data_PCOD8066750
_publ_section_title
;
Structure prediction by ZEFSAII (Michael W. Deem and Ramdas Pophale) SiO2 
 PCOD8066750
Probable space group: P 2/M
;
_chemical_formula_sum "Si O2"
_cell_formula_units_Z 24
_cell_length_a 25.183641
_cell_length_b 7.635821
_cell_length_c 19.301829
_cell_angle_alpha 90.000000
_cell_angle_beta 161.066734
_cell_angle_gamma 90.000000
_cell_volume 1204.322509
_symmetry_space_group_name_H-M "P 2/M"
_symmetry_group_IT_number 10
_symmetry_cell_setting 'monoclinic'
loop_
_space_group_symop_operation_xyz
x,y,z
-x,y,-z
-x,-y,-z
x,-y,z
loop_
_atom_site_type_symbol
_atom_site_label
_atom_site_fract_x
_atom_site_fract_y
_atom_site_fract_z
Si Si1 0.572366 0.500000 0.979133
Si Si2 0.987319 0.802649 0.310191
Si Si3 0.161485 0.708668 0.161296
Si Si4 0.485438 0.295179 0.634349
Si Si5 0.187023 0.704788 0.037729
Si Si6 0.759358 0.500000 0.352207
Si Si7 0.657096 0.197320 0.979596
O O1 0.383032 0.500000 0.766616
O O2 0.608088 0.325154 0.980539
O O3 0.689876 0.500000 0.189648
O O4 0.136139 0.674873 0.509227
O O5 0.041430 0.000000 0.395978
O O6 0.938211 0.798929 0.168769
O O7 0.831741 0.742612 0.163989
O O8 0.169878 0.500000 0.169693
O O9 0.317884 0.781193 0.396049
O O10 0.160302 0.781124 0.081555
O O11 0.000000 0.778184 0.000000
O O12 0.472056 0.500000 0.633755
O O13 0.626447 0.255166 0.752714
O O14 0.522109 0.201165 0.752205
O O15 0.148076 0.500000 0.985878
O O16 0.666114 0.000000 0.020254
#
# Coordination Sequence:
#
# PCOD8066750 Si02
#       7
#     2   4   4   4   4   2   4
#     4  11  25  43  63  88 121 158 191 231 290 359
#     4  10  21  39  64  92 119 151 196 247 295 345
#     4   9  17  27  44  75 110 149 197 240 279 332
#     4   9  16  30  52  78 110 149 191 238 291 341
#     4   9  16  30  52  78 110 149 191 238 291 341
#     4  11  25  43  63  88 121 158 191 231 290 359
#     4  10  21  39  64  92 119 151 196 247 295 345
#
# _framework density 19.928218000000001
#
# number of rings (size 3 to 8) (size 9 to 14) (size 15 to 20)
#    0.000    2.333    1.667    1.000    0.000    6.000 
#    0.000    4.167    0.000    5.000    0.000    0.000 
#    0.000    0.000    0.000    0.000    0.000    0.000 
#
# Total GULP energy -297638.696186 kJ/mol
# GULP energy per Si atom -12401.612341 kJ/mol
# Density = 1.988286 g / cm^3
# Si number density = 19.928218 Si / 1000 Ang^3
#
#
#
# Elastic Constant Matrix: (Units=GPa)
#
#
# Indices 1 2 3 4 5 6 
#
# 1 138.2328 56.2011 82.1880 0.0000 4.3067 0.0000
# 2 56.2011 88.8182 54.7682 0.0000 0.6962 0.0000
# 3 82.1880 54.7682 128.8673 0.0000 6.7633 0.0000
# 4 0.0000 0.0000 0.0000 2.1034 0.0000 10.0514
# 5 4.3067 0.6962 6.7633 0.0000 18.8027 0.0000
# 6 0.0000 0.0000 0.0000 10.0514 0.0000 5.4929
#
#
#
# Elastic Compliance Matrix: (Units=1/GPa)
#
#
# Indices 1 2 3 4 5 6 
#
# 1 0.012677 -0.004130 -0.006304 0.000000 -0.000483 0.000000
# 2 -0.004130 0.016663 -0.004551 0.000000 0.001966 0.000000
# 3 -0.006304 -0.004551 0.013892 0.000000 -0.003385 0.000000
# 4 0.000000 0.000000 0.000000 -0.061388 0.000000 0.112335
# 5 -0.000483 0.001966 -0.003385 0.000000 0.054439 0.000000
# 6 0.000000 0.000000 0.000000 0.112335 0.000000 -0.023508
#
#
# Mechanical properties :
#
#
# Convention : Reuss Voigt Hill
#
# Bulk Modulus (GPa) = 75.40511 82.47031 78.93771
# Shear Modulus (GPa) = 106.00789 16.13052 61.06921
#
# Velocity S-wave (km/s) = 7.30139 2.84814 5.54176
# Velocity P-wave (km/s) = 10.44035 7.23114 8.98027
#
# Compressibility (1/GPa) = 0.01326170
#
# Stress axis : x y z
#
# Youngs Moduli (GPa) = 78.88532 60.01244 71.98264
#
# Poissons Ratio (x) = 0.24786 0.45379
# Poissons Ratio (y) = 0.32581 0.32758
# Poissons Ratio (z) = 0.49730 0.27311
#
# Static dielectric constant tensor:
#      x y z
#    x 3.642860 0.000000 -0.005450 
#    y 0.000000 3.570410 0.000000 
#    z -0.005450 0.000000 3.642520 
# 
# 
# High freq. dielectric constant tensor:
#      x y z
#    x 1.772450 0.000000 -0.004130 
#    y 0.000000 1.769540 0.000000 
#    z -0.004130 0.000000 1.773850 
# 
# From -- ./inp_files/31215.got.cif
#   From: 2010.06.25/outbox.cif.g09.slc.cpg/sg10_16_cif.got.tgz:31215.got - 2010.06.27 22:07:45.
