data_PCOD8066870
_publ_section_title
;
Structure prediction by ZEFSAII (Michael W. Deem and Ramdas Pophale) SiO2 
 PCOD8066870
Probable space group: P 2/M
;
_chemical_formula_sum "Si O2"
_cell_formula_units_Z 24
_cell_length_a 22.648544
_cell_length_b 7.719950
_cell_length_c 9.228891
_cell_angle_alpha 90.000000
_cell_angle_beta 134.740972
_cell_angle_gamma 90.000000
_cell_volume 1146.156292
_symmetry_space_group_name_H-M "P 2/M"
_symmetry_group_IT_number 10
_symmetry_cell_setting 'monoclinic'
loop_
_space_group_symop_operation_xyz
x,y,z
-x,y,-z
-x,-y,-z
x,-y,z
loop_
_atom_site_type_symbol
_atom_site_label
_atom_site_fract_x
_atom_site_fract_y
_atom_site_fract_z
Si Si1 0.805041 0.308492 0.683996
Si Si2 0.351979 0.197079 0.422100
Si Si3 0.334866 0.703982 0.064751
Si Si4 0.514998 0.701116 0.866269
Si Si5 0.077571 0.000000 0.030536
Si Si6 0.956290 0.000000 0.573793
Si Si7 0.174174 0.699368 0.608385
O O1 0.844216 0.500000 0.771356
O O2 0.719475 0.306326 0.623890
O O3 0.786734 0.273133 0.483296
O O4 0.868784 0.171277 0.856875
O O5 0.345959 0.207114 0.238724
O O6 0.439241 0.270036 0.626594
O O7 0.341827 0.000000 0.453958
O O8 0.346874 0.500000 0.105574
O O9 0.403345 0.779993 0.070904
O O10 0.243983 0.749596 0.846057
O O11 0.531395 0.500000 0.918960
O O12 0.500000 0.786788 0.000000
O O13 0.040475 0.000000 0.809167
O O14 0.000000 0.000000 0.000000
O O15 0.903575 0.173696 0.508129
O O16 0.000000 0.000000 0.500000
O O17 0.144908 0.500000 0.579389
#
# Coordination Sequence:
#
# PCOD8066870 Si02
#       7
#     4   4   4   4   2   2   4
#     4  11  23  43  70  96 130 172 216 268 324 384
#     4  12  25  39  61  96 134 170 218 267 319 383
#     4  10  22  40  63  92 129 171 219 266 316 383
#     4  10  21  41  66  92 126 171 221 269 318 378
#     4  12  24  46  68 101 130 163 218 266 325 394
#     4  12  28  44  68  95 136 169 204 272 329 384
#     4  10  23  44  68  96 127 171 218 261 322 388
#
# _framework density 20.939554000000001
#
# number of rings (size 3 to 8) (size 9 to 14) (size 15 to 20)
#    0.000    1.167    2.500    3.000    3.500    7.000 
#    0.000    0.000    0.000    0.000    0.000    0.000 
#    0.000    0.000    0.000    0.000    0.000    0.000 
#
# Total GULP energy -297626.142365 kJ/mol
# GULP energy per Si atom -12401.089265 kJ/mol
# Density = 2.089189 g / cm^3
# Si number density = 20.939554 Si / 1000 Ang^3
#
#
#
# Elastic Constant Matrix: (Units=GPa)
#
#
# Indices 1 2 3 4 5 6 
#
# 1 111.0174 42.4342 37.0716 0.0000 -16.8841 0.0000
# 2 42.4342 81.0112 28.5151 0.0000 9.0336 0.0000
# 3 37.0716 28.5151 128.1212 0.0000 -5.7480 0.0000
# 4 0.0000 0.0000 0.0000 27.9180 0.0000 2.5289
# 5 -16.8841 9.0336 -5.7480 0.0000 40.9820 0.0000
# 6 0.0000 0.0000 0.0000 2.5289 0.0000 34.8217
#
#
#
# Elastic Compliance Matrix: (Units=1/GPa)
#
#
# Indices 1 2 3 4 5 6 
#
# 1 0.013419 -0.007084 -0.002001 0.000000 0.006809 0.000000
# 2 -0.007084 0.017618 -0.002190 0.000000 -0.007109 0.000000
# 3 -0.002001 -0.002190 0.008912 0.000000 0.000909 0.000000
# 4 0.000000 0.000000 0.000000 0.036056 0.000000 -0.002619
# 5 0.006809 -0.007109 0.000909 0.000000 0.028901 0.000000
# 6 0.000000 0.000000 0.000000 -0.002619 0.000000 0.028908
#
#
# Mechanical properties :
#
#
# Convention : Reuss Voigt Hill
#
# Bulk Modulus (GPa) = 57.47296 59.57684 58.52490
# Shear Modulus (GPa) = 30.83277 34.88624 32.85950
#
# Velocity S-wave (km/s) = 3.84143 4.08615 3.96568
# Velocity P-wave (km/s) = 6.86893 7.12571 6.99850
#
# Compressibility (1/GPa) = 0.01739949
#
# Stress axis : x y z
#
# Youngs Moduli (GPa) = 74.52103 56.75867 112.20505
#
# Poissons Ratio (x) = 0.40208 0.22448
# Poissons Ratio (y) = 0.52791 0.24577
# Poissons Ratio (z) = 0.14909 0.12432
#
# Static dielectric constant tensor:
#      x y z
#    x 3.869620 0.000000 -0.204590 
#    y 0.000000 3.835520 0.000000 
#    z -0.204590 0.000000 3.646060 
# 
# 
# High freq. dielectric constant tensor:
#      x y z
#    x 1.827340 0.000000 -0.008370 
#    y 0.000000 1.823300 0.000000 
#    z -0.008370 0.000000 1.827760 
# 
# From -- ./inp_files/33982.got.cif
#   From: 2010.06.25/outbox.cif.g09.slc.cpg/sg10_17_cif.got.tgz:33982.got - 2010.06.27 22:07:45.
