data_PCOD8066583
_publ_section_title
;
Structure prediction by ZEFSAII (Michael W. Deem and Ramdas Pophale) SiO2 
 PCOD8066583
Probable space group: P 2/M
;
_chemical_formula_sum "Si O2"
_cell_formula_units_Z 24
_cell_length_a 9.229101
_cell_length_b 15.065535
_cell_length_c 15.479816
_cell_angle_alpha 90.000000
_cell_angle_beta 35.117930
_cell_angle_gamma 90.000000
_cell_volume 1238.154599
_symmetry_space_group_name_H-M "P 2/M"
_symmetry_group_IT_number 10
_symmetry_cell_setting 'monoclinic'
loop_
_space_group_symop_operation_xyz
x,y,z
-x,y,-z
-x,-y,-z
x,-y,z
loop_
_atom_site_type_symbol
_atom_site_label
_atom_site_fract_x
_atom_site_fract_y
_atom_site_fract_z
Si Si1 0.258450 0.099514 0.920407
Si Si2 0.115029 0.602153 0.037056
Si Si3 0.250681 0.903077 0.435457
Si Si4 0.789672 0.396414 0.362085
Si Si5 0.984780 0.734541 0.408471
Si Si6 0.473236 0.749403 0.913526
O O1 0.490355 0.108837 0.741945
O O2 0.291232 0.166763 0.984301
O O3 0.242435 0.000000 0.965930
O O4 0.000000 0.125880 0.000000
O O5 0.196327 0.500000 0.005846
O O6 0.916476 0.628507 0.208735
O O7 0.365480 0.660418 0.922551
O O8 0.000000 0.622311 0.000000
O O9 0.215472 0.815462 0.512243
O O10 0.000000 0.900826 0.500000
O O11 0.258584 0.000000 0.479662
O O12 0.500000 0.367413 0.500000
O O13 0.817516 0.500000 0.368594
O O14 0.923956 0.346497 0.375233
O O15 0.000000 0.700544 0.500000
O O16 0.258663 0.773598 0.256138
O O17 0.500000 0.730318 0.000000
#
# Coordination Sequence:
#
# PCOD8066583 Si02
#       6
#     4   4   4   4   4   4
#     4  10  21  38  62  91 123 161 208 257 304 362
#     4  10  23  42  63  85 118 165 204 246 310 372
#     4   9  17  35  62  86 117 161 200 238 296 366
#     4  10  23  42  61  87 122 158 204 257 307 363
#     4  11  22  38  62  92 119 160 204 247 305 369
#     4  12  23  38  60  92 124 157 204 257 309 366
#
# _framework density 19.383686000000001
#
# number of rings (size 3 to 8) (size 9 to 14) (size 15 to 20)
#    0.000    1.667    5.000    0.500    2.333    3.000 
#    0.000    0.000    0.000    0.500    0.000    0.000 
#    0.000    0.000    0.000    0.000    0.000    0.000 
#
# Total GULP energy -297494.500925 kJ/mol
# GULP energy per Si atom -12395.604205 kJ/mol
# Density = 1.933957 g / cm^3
# Si number density = 19.383686 Si / 1000 Ang^3
#
#
#
# Elastic Constant Matrix: (Units=GPa)
#
#
# Indices 1 2 3 4 5 6 
#
# 1 107.0297 62.4809 37.0061 0.0000 5.1274 0.0000
# 2 62.4809 106.8460 28.5774 0.0000 4.1641 0.0000
# 3 37.0061 28.5774 86.3872 0.0000 -4.3766 0.0000
# 4 0.0000 0.0000 0.0000 25.2650 0.0000 -14.2265
# 5 5.1274 4.1641 -4.3766 0.0000 38.2325 0.0000
# 6 0.0000 0.0000 0.0000 -14.2265 0.0000 30.7217
#
#
#
# Elastic Compliance Matrix: (Units=1/GPa)
#
#
# Indices 1 2 3 4 5 6 
#
# 1 0.015429 -0.007862 -0.004094 0.000000 -0.001681 0.000000
# 2 -0.007862 0.014362 -0.001417 0.000000 -0.000672 0.000000
# 3 -0.004094 -0.001417 0.013915 0.000000 0.002296 0.000000
# 4 0.000000 0.000000 0.000000 0.053542 0.000000 0.024794
# 5 -0.001681 -0.000672 0.002296 0.000000 0.026717 0.000000
# 6 0.000000 0.000000 0.000000 0.024794 0.000000 0.044032
#
#
# Mechanical properties :
#
#
# Convention : Reuss Voigt Hill
#
# Bulk Modulus (GPa) = 58.96361 61.82130 60.39245
# Shear Modulus (GPa) = 24.95073 30.32375 27.63724
#
# Velocity S-wave (km/s) = 3.59165 3.95953 3.78007
# Velocity P-wave (km/s) = 6.90545 7.27094 7.09055
#
# Compressibility (1/GPa) = 0.01695961
#
# Stress axis : x y z
#
# Youngs Moduli (GPa) = 64.81415 69.62835 71.86702
#
# Poissons Ratio (x) = 0.54741 0.29420
# Poissons Ratio (y) = 0.50956 0.10185
# Poissons Ratio (z) = 0.26533 0.09868
#
# Static dielectric constant tensor:
#      x y z
#    x 3.354420 0.000000 -0.222190 
#    y 0.000000 3.928000 0.000000 
#    z -0.222190 0.000000 3.457090 
# 
# 
# High freq. dielectric constant tensor:
#      x y z
#    x 1.735910 0.000000 -0.016830 
#    y 0.000000 1.771320 0.000000 
#    z -0.016830 0.000000 1.757410 
# 
# From -- ./inp_files/61660.got.cif
#   From: 2010.06.25/outbox.cif.g09.slc.cpg/sg10_31_cif.got.tgz:61660.got - 2010.06.27 22:07:45.
