data_PCOD8066109
_publ_section_title
;
Structure prediction by ZEFSAII (Michael W. Deem and Ramdas Pophale) SiO2 
 PCOD8066109
Probable space group: P 2/M
;
_chemical_formula_sum "Si O2"
_cell_formula_units_Z 32
_cell_length_a 24.327998
_cell_length_b 14.020758
_cell_length_c 8.823684
_cell_angle_alpha 90.000000
_cell_angle_beta 31.483274
_cell_angle_gamma 90.000000
_cell_volume 1571.831391
_symmetry_space_group_name_H-M "P 2/M"
_symmetry_group_IT_number 10
_symmetry_cell_setting 'monoclinic'
loop_
_space_group_symop_operation_xyz
x,y,z
-x,y,-z
-x,-y,-z
x,-y,z
loop_
_atom_site_type_symbol
_atom_site_label
_atom_site_fract_x
_atom_site_fract_y
_atom_site_fract_z
Si Si1 0.307200 0.608455 0.103258
Si Si2 0.684912 0.732859 0.198558
Si Si3 0.007258 0.892550 0.661547
Si Si4 0.813269 0.232894 0.179932
Si Si5 0.760712 0.107365 0.819106
Si Si6 0.662264 0.108717 0.728406
Si Si7 0.478256 0.726492 0.883971
Si Si8 0.882378 0.390967 0.240773
O O1 0.346981 0.500000 0.014371
O O2 0.187909 0.618580 0.443157
O O3 0.306121 0.642161 0.932176
O O4 0.383440 0.669671 0.030125
O O5 0.785170 0.737627 0.074300
O O6 0.578991 0.721056 0.541543
O O7 0.681174 0.827824 0.103365
O O8 0.000000 0.890300 0.500000
O O9 0.120947 0.853344 0.443411
O O10 0.989894 0.000000 0.763697
O O11 0.920368 0.825963 0.940334
O O12 0.718135 0.166845 0.462573
O O13 0.827229 0.329328 0.240450
O O14 0.736692 0.111592 0.699033
O O15 0.751431 0.000000 0.905543
O O16 0.639096 0.000000 0.732660
O O17 0.553124 0.161996 0.023346
O O18 0.500000 0.682184 0.000000
O O19 0.885402 0.500000 0.175423
O O20 0.000000 0.354525 0.000000
#
# Coordination Sequence:
#
# PCOD8066109 Si02
#       8
#     4   4   4   4   4   4   4   4
#     4  11  25  47  71  95 127 164 209 267 324 380
#     4  12  24  40  64  94 129 165 219 264 319 379
#     4  10  21  36  58  93 131 170 216 260 313 377
#     4  12  23  38  65  93 129 172 211 265 322 380
#     4  10  22  40  61  89 129 172 216 262 311 376
#     4  11  24  42  62  93 130 170 217 261 314 379
#     4  12  24  44  65  95 129 167 214 268 317 378
#     4  10  23  43  68  96 128 166 208 259 324 390
#
# _framework density 20.358419000000001
#
# number of rings (size 3 to 8) (size 9 to 14) (size 15 to 20)
#    0.000    1.000    5.000    0.750    3.500    3.000 
#    0.000    3.125    0.000    2.625    0.000    0.000 
#    0.000    0.000    0.000    0.000    0.000    0.000 
#
# Total GULP energy -396920.644552 kJ/mol
# GULP energy per Si atom -12403.770142 kJ/mol
# Density = 2.031208 g / cm^3
# Si number density = 20.358419 Si / 1000 Ang^3
#
#
#
# Elastic Constant Matrix: (Units=GPa)
#
#
# Indices 1 2 3 4 5 6 
#
# 1 93.1086 35.2186 22.3210 0.0000 10.5488 0.0000
# 2 35.2186 115.3953 38.3142 0.0000 6.5250 0.0000
# 3 22.3210 38.3142 108.9901 0.0000 4.0433 0.0000
# 4 0.0000 0.0000 0.0000 26.8399 0.0000 1.8714
# 5 10.5488 6.5250 4.0433 0.0000 27.6141 0.0000
# 6 0.0000 0.0000 0.0000 1.8714 0.0000 17.1128
#
#
#
# Elastic Compliance Matrix: (Units=1/GPa)
#
#
# Indices 1 2 3 4 5 6 
#
# 1 0.012719 -0.003220 -0.001328 0.000000 -0.003903 0.000000
# 2 -0.003220 0.010718 -0.003077 0.000000 -0.000852 0.000000
# 3 -0.001328 -0.003077 0.010540 0.000000 -0.000309 0.000000
# 4 0.000000 0.000000 0.000000 0.037544 0.000000 -0.004106
# 5 -0.003903 -0.000852 -0.000309 0.000000 0.037951 0.000000
# 6 0.000000 0.000000 0.000000 -0.004106 0.000000 0.058885
#
#
# Mechanical properties :
#
#
# Convention : Reuss Voigt Hill
#
# Bulk Modulus (GPa) = 53.39747 56.57794 54.98771
# Shear Modulus (GPa) = 26.33661 29.08936 27.71299
#
# Velocity S-wave (km/s) = 3.60063 3.78413 3.69352
# Velocity P-wave (km/s) = 6.60089 6.85158 6.72740
#
# Compressibility (1/GPa) = 0.01872748
#
# Stress axis : x y z
#
# Youngs Moduli (GPa) = 78.62404 93.29732 94.87474
#
# Poissons Ratio (x) = 0.30043 0.12599
# Poissons Ratio (y) = 0.25318 0.29192
# Poissons Ratio (z) = 0.10441 0.28706
#
# Static dielectric constant tensor:
#      x y z
#    x 3.815800 0.000000 -0.071410 
#    y 0.000000 3.847980 0.000000 
#    z -0.071410 0.000000 3.702400 
# 
# 
# High freq. dielectric constant tensor:
#      x y z
#    x 1.802380 0.000000 -0.003270 
#    y 0.000000 1.795380 0.000000 
#    z -0.003270 0.000000 1.798170 
# 
# From -- ./inp_files/36367.got.cif
#   From: 2010.06.25/outbox.cif.g09.slc.cpg/sg10_19_cif.got.tgz:36367.got - 2010.06.27 22:07:45.
