data_PCOD8066409
_publ_section_title
;
Structure prediction by ZEFSAII (Michael W. Deem and Ramdas Pophale) SiO2 
 PCOD8066409
Probable space group: P 2/M
;
_chemical_formula_sum "Si O2"
_cell_formula_units_Z 32
_cell_length_a 14.378625
_cell_length_b 19.529363
_cell_length_c 9.366185
_cell_angle_alpha 90.000000
_cell_angle_beta 139.069190
_cell_angle_gamma 90.000000
_cell_volume 1723.086323
_symmetry_space_group_name_H-M "P 2/M"
_symmetry_group_IT_number 10
_symmetry_cell_setting 'monoclinic'
loop_
_space_group_symop_operation_xyz
x,y,z
-x,y,-z
-x,-y,-z
x,-y,z
loop_
_atom_site_type_symbol
_atom_site_label
_atom_site_fract_x
_atom_site_fract_y
_atom_site_fract_z
Si Si1 0.567423 0.182538 0.923222
Si Si2 0.799359 0.291227 0.150439
Si Si3 0.885212 0.688916 0.553224
Si Si4 0.144946 0.422875 0.252628
Si Si5 0.708385 0.214555 0.544563
Si Si6 0.604402 0.076365 0.739766
Si Si7 0.836676 0.922530 0.794113
Si Si8 0.334060 0.327196 0.289251
O O1 0.454973 0.221784 0.692654
O O2 0.598168 0.109654 0.887589
O O3 0.500000 0.171804 0.000000
O O4 0.716782 0.221764 0.095266
O O5 0.816547 0.330973 0.320447
O O6 0.957126 0.278958 0.273348
O O7 0.709761 0.332795 0.927994
O O8 0.880417 0.617773 0.630995
O O9 0.799796 0.748459 0.531013
O O10 0.191502 0.500000 0.344673
O O11 0.266843 0.389483 0.298349
O O12 0.000000 0.421684 0.000000
O O13 0.758877 0.135255 0.608444
O O14 0.722286 0.254095 0.712621
O O15 0.500000 0.112114 0.500000
O O16 0.765205 0.078687 0.867730
O O17 0.547386 0.000000 0.696750
O O18 0.820559 0.000000 0.709713
O O19 0.000000 0.902129 0.000000
O O20 0.500000 0.335231 0.500000
#
# Coordination Sequence:
#
# PCOD8066409 Si02
#       8
#     4   4   4   4   4   4   4   4
#     4  12  23  37  55  86 120 157 197 246 308 360
#     4  11  22  38  58  89 120 154 198 245 294 351
#     4  10  23  40  59  87 123 158 195 242 301 357
#     4  10  21  41  65  91 123 157 200 247 292 351
#     4  11  22  35  57  86 114 155 194 248 298 355
#     4  10  21  38  57  79 111 151 201 253 304 364
#     4  10  22  37  57  85 115 150 197 256 310 357
#     4  11  22  36  62  92 120 155 200 245 295 353
#
# _framework density 18.571328000000001
#
# number of rings (size 3 to 8) (size 9 to 14) (size 15 to 20)
#    0.000    1.375    5.000    0.750    3.500    0.500 
#    0.000    1.875    0.000    0.750    0.000    4.375 
#    0.000    0.000    0.000    0.000    0.000    0.000 
#
# Total GULP energy -396670.453962 kJ/mol
# GULP energy per Si atom -12395.951686 kJ/mol
# Density = 1.852906 g / cm^3
# Si number density = 18.571328 Si / 1000 Ang^3
#
#
#
# Elastic Constant Matrix: (Units=GPa)
#
#
# Indices 1 2 3 4 5 6 
#
# 1 121.4893 51.7284 54.4005 0.0000 0.8688 0.0000
# 2 51.7284 117.0025 43.9588 0.0000 -5.3007 0.0000
# 3 54.4005 43.9588 113.1948 0.0000 -3.6552 0.0000
# 4 0.0000 0.0000 0.0000 25.1785 0.0000 1.7333
# 5 0.8688 -5.3007 -3.6552 0.0000 38.0862 0.0000
# 6 0.0000 0.0000 0.0000 1.7333 0.0000 16.6658
#
#
#
# Elastic Compliance Matrix: (Units=1/GPa)
#
#
# Indices 1 2 3 4 5 6 
#
# 1 0.011684 -0.003624 -0.004246 0.000000 -0.001178 0.000000
# 2 -0.003624 0.011171 -0.002552 0.000000 0.001392 0.000000
# 3 -0.004246 -0.002552 0.011894 0.000000 0.000883 0.000000
# 4 0.000000 0.000000 0.000000 0.040003 0.000000 -0.004160
# 5 -0.001178 0.001392 0.000883 0.000000 0.026562 0.000000
# 6 0.000000 0.000000 0.000000 -0.004160 0.000000 0.060436
#
#
# Mechanical properties :
#
#
# Convention : Reuss Voigt Hill
#
# Bulk Modulus (GPa) = 71.90993 72.42910 72.16952
# Shear Modulus (GPa) = 26.70556 29.42603 28.06579
#
# Velocity S-wave (km/s) = 3.79621 3.98488 3.89169
# Velocity P-wave (km/s) = 7.61708 7.76257 7.69017
#
# Compressibility (1/GPa) = 0.01390628
#
# Stress axis : x y z
#
# Youngs Moduli (GPa) = 85.58879 89.52032 84.07379
#
# Poissons Ratio (x) = 0.32440 0.35697
# Poissons Ratio (y) = 0.31015 0.21452
# Poissons Ratio (z) = 0.36340 0.22842
#
# Static dielectric constant tensor:
#      x y z
#    x 3.155880 0.000000 0.539170 
#    y 0.000000 3.371900 0.000000 
#    z 0.539170 0.000000 2.965270 
# 
# 
# High freq. dielectric constant tensor:
#      x y z
#    x 1.738210 0.000000 0.010830 
#    y 0.000000 1.702690 0.000000 
#    z 0.010830 0.000000 1.715090 
# 
# From -- ./inp_files/30309.got.cif
#   From: 2010.06.25/outbox.cif.g09.slc.cpg/sg10_16_cif.got.tgz:30309.got - 2010.06.27 22:07:45.
