data_PCOD8066372
_publ_section_title
;
Structure prediction by ZEFSAII (Michael W. Deem and Ramdas Pophale) SiO2 
 PCOD8066372
Probable space group: P 2/M
;
_chemical_formula_sum "Si O2"
_cell_formula_units_Z 32
_cell_length_a 22.535435
_cell_length_b 8.936327
_cell_length_c 14.997389
_cell_angle_alpha 90.000000
_cell_angle_beta 148.171085
_cell_angle_gamma 90.000000
_cell_volume 1592.825238
_symmetry_space_group_name_H-M "P 2/M"
_symmetry_group_IT_number 10
_symmetry_cell_setting 'monoclinic'
loop_
_space_group_symop_operation_xyz
x,y,z
-x,y,-z
-x,-y,-z
x,-y,z
loop_
_atom_site_type_symbol
_atom_site_label
_atom_site_fract_x
_atom_site_fract_y
_atom_site_fract_z
Si Si1 0.763277 0.176135 0.516226
Si Si2 0.039972 0.336601 0.651048
Si Si3 0.772460 0.323050 0.856530
Si Si4 0.748121 0.824331 0.132765
Si Si5 0.359926 0.326648 0.485658
Si Si6 0.997891 0.823756 0.099254
Si Si7 0.617935 0.326999 0.821595
Si Si8 0.201964 0.322606 0.617997
O O1 0.669671 0.229240 0.466103
O O2 0.734265 0.255253 0.385544
O O3 0.885938 0.225845 0.707215
O O4 0.754801 0.000000 0.492480
O O5 0.080249 0.500000 0.739028
O O6 0.141891 0.219833 0.785622
O O7 0.000000 0.358746 0.500000
O O8 0.930124 0.278052 0.563568
O O9 0.781876 0.500000 0.867586
O O10 0.712925 0.266280 0.690217
O O11 0.697941 0.268617 0.844530
O O12 0.896554 0.253867 0.023537
O O13 0.746136 0.746638 0.226312
O O14 0.745466 0.000000 0.143882
O O15 0.640573 0.769135 0.939676
O O16 0.333793 0.500000 0.472291
O O17 0.490147 0.302452 0.627882
O O18 0.978815 0.000000 0.078911
O O19 0.000000 0.766792 0.000000
O O20 0.641499 0.500000 0.873726
O O21 0.217387 0.500000 0.642874
#
# Coordination Sequence:
#
# PCOD8066372 Si02
#       8
#     4   4   4   4   4   4   4   4
#     4  11  23  38  59  87 123 160 197 241 293 352
#     4   8  16  32  53  77 108 147 187 231 283 339
#     4  10  21  37  62  91 117 151 198 247 293 346
#     4  11  22  36  56  85 119 153 195 243 293 350
#     4  10  21  40  63  86 115 154 201 248 294 348
#     4  10  21  38  57  84 124 163 191 232 295 355
#     4  10  22  40  61  86 118 155 197 248 300 345
#     4  10  21  38  60  84 115 155 199 242 292 350
#
# _framework density 20.090088999999999
#
# number of rings (size 3 to 8) (size 9 to 14) (size 15 to 20)
#    0.000    2.000    1.250    3.000    1.750    6.500 
#    0.000    0.625    0.000    6.000    0.000    0.000 
#    0.000    0.000    0.000    0.000    0.000    0.000 
#
# Total GULP energy -396867.076890 kJ/mol
# GULP energy per Si atom -12402.096153 kJ/mol
# Density = 2.004436 g / cm^3
# Si number density = 20.090089 Si / 1000 Ang^3
#
#
#
# Elastic Constant Matrix: (Units=GPa)
#
#
# Indices 1 2 3 4 5 6 
#
# 1 116.8789 35.1620 26.2414 0.0000 -4.4756 0.0000
# 2 35.1620 74.8578 23.9303 0.0000 -6.0597 0.0000
# 3 26.2414 23.9303 59.5456 0.0000 -1.8345 0.0000
# 4 0.0000 0.0000 0.0000 24.0116 0.0000 8.5290
# 5 -4.4756 -6.0597 -1.8345 0.0000 31.6249 0.0000
# 6 0.0000 0.0000 0.0000 8.5290 0.0000 -24.5130
#
#
#
# Elastic Compliance Matrix: (Units=1/GPa)
#
#
# Indices 1 2 3 4 5 6 
#
# 1 0.010423 -0.003888 -0.003014 0.000000 0.000555 0.000000
# 2 -0.003888 0.016992 -0.005041 0.000000 0.002413 0.000000
# 3 -0.003014 -0.005041 0.020141 0.000000 -0.000224 0.000000
# 4 0.000000 0.000000 0.000000 0.037066 0.000000 0.012897
# 5 0.000555 0.002413 -0.000224 0.000000 0.032149 0.000000
# 6 0.000000 0.000000 0.000000 0.012897 0.000000 -0.036307
#
#
# Mechanical properties :
#
#
# Convention : Reuss Voigt Hill
#
# Bulk Modulus (GPa) = 42.24621 46.88330 44.56476
# Shear Modulus (GPa) = 44.54807 17.28796 30.91801
#
# Velocity S-wave (km/s) = 4.71405 2.93665 3.92722
# Velocity P-wave (km/s) = 7.12066 5.90641 6.54177
#
# Compressibility (1/GPa) = 0.02367076
#
# Stress axis : x y z
#
# Youngs Moduli (GPa) = 95.93816 58.85280 49.64966
#
# Poissons Ratio (x) = 0.22879 0.14965
# Poissons Ratio (y) = 0.37297 0.25028
# Poissons Ratio (z) = 0.28916 0.29668
#
# Static dielectric constant tensor:
#      x y z
#    x 3.727100 0.000000 -0.001530 
#    y 0.000000 3.456940 0.000000 
#    z -0.001530 0.000000 3.596620 
# 
# 
# High freq. dielectric constant tensor:
#      x y z
#    x 1.783960 0.000000 -0.008080 
#    y 0.000000 1.772990 0.000000 
#    z -0.008080 0.000000 1.779300 
# 
# From -- ./inp_files/71683.got.cif
#   From: 2010.06.25/outbox.cif.g09.slc.cpg/sg10_36_cif.got.tgz:71683.got - 2010.06.27 22:07:45.
