data_PCOD8066121
_publ_section_title
;
Structure prediction by ZEFSAII (Michael W. Deem and Ramdas Pophale) SiO2 
 PCOD8066121
Probable space group: P 2/M
;
_chemical_formula_sum "Si O2"
_cell_formula_units_Z 28
_cell_length_a 26.770113
_cell_length_b 11.083307
_cell_length_c 26.263327
_cell_angle_alpha 90.000000
_cell_angle_beta 11.172295
_cell_angle_gamma 90.000000
_cell_volume 1509.848671
_symmetry_space_group_name_H-M "P 2/M"
_symmetry_group_IT_number 10
_symmetry_cell_setting 'monoclinic'
loop_
_space_group_symop_operation_xyz
x,y,z
-x,y,-z
-x,-y,-z
x,-y,z
loop_
_atom_site_type_symbol
_atom_site_label
_atom_site_fract_x
_atom_site_fract_y
_atom_site_fract_z
Si Si1 0.249944 0.500000 0.478778
Si Si2 0.249926 0.858411 0.561930
Si Si3 0.749981 0.500000 0.047850
Si Si4 0.249956 0.759823 0.449201
Si Si5 0.249996 0.143790 0.220813
Si Si6 0.749940 0.746370 0.108746
Si Si7 0.250193 0.360809 0.782748
Si Si8 0.749927 0.142634 0.894185
O O1 0.249940 0.615929 0.442101
O O2 0.000074 0.500000 0.763379
O O3 0.499858 0.500000 0.263595
O O4 0.250055 0.788524 0.508637
O O5 0.499967 0.822485 0.343806
O O6 0.250244 0.000000 0.550417
O O7 0.999446 0.822702 0.844226
O O8 0.750019 0.617075 0.082456
O O9 0.999942 0.813935 0.673341
O O10 0.499913 0.813887 0.173343
O O11 0.250017 0.193889 0.163278
O O12 0.000000 0.194037 0.500000
O O13 0.250023 0.000000 0.220651
O O14 0.500000 0.194054 0.000000
O O15 0.750321 0.727237 0.168646
O O16 0.500000 0.330729 0.500000
O O17 0.251281 0.500000 0.799674
O O18 0.000000 0.331518 0.000000
O O19 0.749846 0.000000 0.893456
#
# Coordination Sequence:
#
# PCOD8066121 Si02
#       8
#     2   4   2   4   4   4   4   4
#     4  12  24  40  58  83 120 151 200 234 286 332
#     4  12  25  40  60  86 120 160 199 231 276 349
#     4  12  20  40  60  89 110 151 192 242 290 334
#     4  12  23  39  57  84 118 156 190 239 283 340
#     4   9  17  31  52  80 112 146 188 237 286 337
#     4  12  22  40  64  87 119 153 191 240 293 341
#     4  10  21  36  59  91 119 143 183 244 302 344
#     4  11  22  36  57  86 121 155 189 234 293 347
#
# _framework density 18.544903999999999
#
# number of rings (size 3 to 8) (size 9 to 14) (size 15 to 20)
#    0.000    0.857    3.571    5.143    0.000    2.286 
#    0.000    0.000    0.000    8.571    0.000   10.000 
#    0.000    0.000    0.000    0.000    0.000    0.000 
#
# Total GULP energy -347338.009150 kJ/mol
# GULP energy per Si atom -12404.928898 kJ/mol
# Density = 1.850269 g / cm^3
# Si number density = 18.544904 Si / 1000 Ang^3
#
#
#
# Elastic Constant Matrix: (Units=GPa)
#
#
# Indices 1 2 3 4 5 6 
#
# 1 135.0616 24.2999 70.4752 0.0000 -0.3058 0.0000
# 2 24.2999 86.8027 27.3186 0.0000 -0.1588 0.0000
# 3 70.4752 27.3186 184.0533 0.0000 -4.5387 0.0000
# 4 0.0000 0.0000 0.0000 36.5340 0.0000 -11.6251
# 5 -0.3058 -0.1588 -4.5387 0.0000 36.7390 0.0000
# 6 0.0000 0.0000 0.0000 -11.6251 0.0000 -49.6497
#
#
#
# Elastic Compliance Matrix: (Units=1/GPa)
#
#
# Indices 1 2 3 4 5 6 
#
# 1 0.009460 -0.001580 -0.003396 0.000000 -0.000348 0.000000
# 2 -0.001580 0.012350 -0.001231 0.000000 -0.000112 0.000000
# 3 -0.003396 -0.001231 0.006937 0.000000 0.000823 0.000000
# 4 0.000000 0.000000 0.000000 0.025474 0.000000 -0.005965
# 5 -0.000348 -0.000112 0.000823 0.000000 0.027317 0.000000
# 6 0.000000 0.000000 0.000000 -0.005965 0.000000 -0.018745
#
#
# Mechanical properties :
#
#
# Convention : Reuss Voigt Hill
#
# Bulk Modulus (GPa) = 61.22910 72.23389 66.73149
# Shear Modulus (GPa) = 61.99561 23.64626 42.82093
#
# Velocity S-wave (km/s) = 5.78814 3.57470 4.81046
# Velocity P-wave (km/s) = 8.81807 7.48821 8.18021
#
# Compressibility (1/GPa) = 0.01633210
#
# Stress axis : x y z
#
# Youngs Moduli (GPa) = 105.71205 80.97268 144.16195
#
# Poissons Ratio (x) = 0.12793 0.48961
# Poissons Ratio (y) = 0.16702 0.17744
# Poissons Ratio (z) = 0.35902 0.09966
#
# Static dielectric constant tensor:
#      x y z
#    x 3.525070 0.000000 -0.014920 
#    y 0.000000 3.415080 0.000000 
#    z -0.014920 0.000000 3.635810 
# 
# 
# High freq. dielectric constant tensor:
#      x y z
#    x 1.724460 0.000000 -0.003020 
#    y 0.000000 1.700920 0.000000 
#    z -0.003020 0.000000 1.746630 
# 
# From -- ./inp_files/94016.got.cif
#   From: 2010.06.25/outbox.cif.g09.slc.cpg/sg10_48_cif.got.tgz:94016.got - 2010.06.27 22:07:45.
