data_PCOD8066928
_publ_section_title
;
Structure prediction by ZEFSAII (Michael W. Deem and Ramdas Pophale) SiO2 
 PCOD8066928
Probable space group: P 2/M
;
_chemical_formula_sum "Si O2"
_cell_formula_units_Z 24
_cell_length_a 11.802416
_cell_length_b 15.942791
_cell_length_c 14.234020
_cell_angle_alpha 90.000000
_cell_angle_beta 149.871629
_cell_angle_gamma 90.000000
_cell_volume 1344.354622
_symmetry_space_group_name_H-M "P 2/M"
_symmetry_group_IT_number 10
_symmetry_cell_setting 'monoclinic'
loop_
_space_group_symop_operation_xyz
x,y,z
-x,y,-z
-x,-y,-z
x,-y,z
loop_
_atom_site_type_symbol
_atom_site_label
_atom_site_fract_x
_atom_site_fract_y
_atom_site_fract_z
Si Si1 0.373647 0.000000 0.236074
Si Si2 0.853960 0.312480 0.615044
Si Si3 0.558346 0.597593 0.767375
Si Si4 0.290580 0.402390 0.916946
Si Si5 0.247096 0.408262 0.281419
Si Si6 0.046664 0.000000 0.175978
Si Si7 0.666525 0.137125 0.532341
O O1 0.189901 0.000000 0.184840
O O2 0.525317 0.916242 0.354148
O O3 0.225557 0.000000 0.034153
O O4 0.675271 0.357810 0.421422
O O5 0.878459 0.343747 0.740877
O O6 0.780353 0.215993 0.563302
O O7 0.095979 0.337261 0.744007
O O8 0.506605 0.500000 0.721357
O O9 0.746826 0.622774 0.823238
O O10 0.642953 0.622978 0.929880
O O11 0.211695 0.500000 0.854357
O O12 0.500000 0.386149 0.000000
O O13 0.500000 0.416042 0.500000
O O14 0.127662 0.500000 0.202692
O O15 0.117656 0.916600 0.281767
O O16 0.500000 0.161896 0.500000
#
# Coordination Sequence:
#
# PCOD8066928 Si02
#       7
#     2   4   4   4   4   2   4
#     4   8  15  29  46  65  95 135 168 187 221 289
#     4  11  19  30  49  73 101 129 159 205 252 286
#     4   9  18  32  49  69  95 128 163 200 246 297
#     4  10  22  37  50  67  93 131 179 216 244 287
#     4   8  14  26  44  67  96 127 155 187 237 296
#     4   8  15  29  46  65  99 138 159 184 229 285
#     4   9  17  28  45  72 101 129 162 194 233 293
#
# _framework density 17.852430999999999
#
# number of rings (size 3 to 8) (size 9 to 14) (size 15 to 20)
#    0.000    2.833    0.000    5.000    0.000    2.667 
#    0.000    8.333    0.000    0.000    0.000    2.333 
#    0.000    6.667    0.000    0.000    0.000    0.000 
#
# Total GULP energy -297378.263872 kJ/mol
# GULP energy per Si atom -12390.760995 kJ/mol
# Density = 1.781180 g / cm^3
# Si number density = 17.852431 Si / 1000 Ang^3
#
#
#
# Elastic Constant Matrix: (Units=GPa)
#
#
# Indices 1 2 3 4 5 6 
#
# 1 44.3412 29.3650 27.2641 0.0000 11.0016 0.0000
# 2 29.3650 89.9608 63.4391 0.0000 15.6615 0.0000
# 3 27.2641 63.4391 109.0000 0.0000 10.7196 0.0000
# 4 0.0000 0.0000 0.0000 14.2590 0.0000 9.5543
# 5 11.0016 15.6615 10.7196 0.0000 23.1853 0.0000
# 6 0.0000 0.0000 0.0000 9.5543 0.0000 14.6933
#
#
#
# Elastic Compliance Matrix: (Units=1/GPa)
#
#
# Indices 1 2 3 4 5 6 
#
# 1 0.030891 -0.006272 -0.003197 0.000000 -0.008943 0.000000
# 2 -0.006272 0.021671 -0.010368 0.000000 -0.006868 0.000000
# 3 -0.003197 -0.010368 0.015893 0.000000 0.001172 0.000000
# 4 0.000000 0.000000 0.000000 0.124282 0.000000 -0.080814
# 5 -0.008943 -0.006868 0.001172 0.000000 0.051472 0.000000
# 6 0.000000 0.000000 0.000000 -0.080814 0.000000 0.120608
#
#
# Mechanical properties :
#
#
# Convention : Reuss Voigt Hill
#
# Bulk Modulus (GPa) = 34.74621 53.71540 44.23081
# Shear Modulus (GPa) = 12.07488 18.64309 15.35899
#
# Velocity S-wave (km/s) = 2.60354 3.23505 2.93632
# Velocity P-wave (km/s) = 5.34258 6.64138 6.02707
#
# Compressibility (1/GPa) = 0.02878012
#
# Stress axis : x y z
#
# Youngs Moduli (GPa) = 32.37235 46.14567 62.92093
#
# Poissons Ratio (x) = 0.28943 0.20114
# Poissons Ratio (y) = 0.20304 0.65237
# Poissons Ratio (z) = 0.10348 0.47844
#
# Static dielectric constant tensor:
#      x y z
#    x 3.231000 0.000000 -0.173820 
#    y 0.000000 3.144920 0.000000 
#    z -0.173820 0.000000 3.864030 
# 
# 
# High freq. dielectric constant tensor:
#      x y z
#    x 1.645740 0.000000 -0.001930 
#    y 0.000000 1.668080 0.000000 
#    z -0.001930 0.000000 1.703580 
# 
# From -- ./inp_files/65194.got.cif
#   From: 2010.06.25/outbox.cif.g09.slc.cpg/sg10_33_cif.got.tgz:65194.got - 2010.06.27 22:07:45.
