data_PCOD8066401
_publ_section_title
;
Structure prediction by ZEFSAII (Michael W. Deem and Ramdas Pophale) SiO2 
 PCOD8066401
Probable space group: P 2/M
;
_chemical_formula_sum "Si O2"
_cell_formula_units_Z 32
_cell_length_a 21.283889
_cell_length_b 8.604845
_cell_length_c 12.633705
_cell_angle_alpha 90.000000
_cell_angle_beta 126.474974
_cell_angle_gamma 90.000000
_cell_volume 1860.560487
_symmetry_space_group_name_H-M "P 2/M"
_symmetry_group_IT_number 10
_symmetry_cell_setting 'monoclinic'
loop_
_space_group_symop_operation_xyz
x,y,z
-x,y,-z
-x,-y,-z
x,-y,z
loop_
_atom_site_type_symbol
_atom_site_label
_atom_site_fract_x
_atom_site_fract_y
_atom_site_fract_z
Si Si1 0.675713 0.179748 0.358635
Si Si2 0.589688 0.680487 0.077540
Si Si3 0.417212 0.818854 0.527252
Si Si4 0.000197 0.683879 0.384382
Si Si5 0.168732 0.320899 0.543121
Si Si6 0.417519 0.319166 0.305461
Si Si7 0.168613 0.679011 0.794953
Si Si8 0.678080 0.820611 0.971447
O O1 0.634405 0.286929 0.230778
O O2 0.642154 0.225302 0.439152
O O3 0.768114 0.213440 0.451702
O O4 0.659602 0.000000 0.316075
O O5 0.599049 0.500000 0.057787
O O6 0.500000 0.729033 0.000000
O O7 0.625989 0.781063 0.020622
O O8 0.504681 0.773723 0.649964
O O9 0.390907 0.724743 0.397172
O O10 0.414784 0.000000 0.497837
O O11 0.000805 0.500000 0.399423
O O12 0.917732 0.729518 0.246204
O O13 0.000000 0.761696 0.500000
O O14 0.082564 0.731063 0.411531
O O15 0.185883 0.500000 0.532542
O O16 0.172421 0.295402 0.672868
O O17 0.436878 0.500000 0.319293
O O18 0.348465 0.278421 0.156005
O O19 0.186861 0.500000 0.840146
O O20 0.231381 0.785824 0.915682
O O21 0.667899 0.000000 0.933897
#
# Coordination Sequence:
#
# PCOD8066401 Si02
#       8
#     4   4   4   4   4   4   4   4
#     4  11  22  33  49  74 104 135 164 200 248 301
#     4  11  23  36  50  69  96 132 172 208 244 293
#     4  10  21  38  56  75 101 131 165 208 259 301
#     4   7  12  24  44  69  95 129 168 203 242 285
#     4   9  16  28  48  71 100 135 169 205 242 288
#     4  11  22  37  57  77  96 125 171 217 254 293
#     4   9  16  29  48  71 100 133 170 206 242 291
#     4  12  23  34  50  73 104 135 165 203 254 304
#
# _framework density 17.199117000000001
#
# number of rings (size 3 to 8) (size 9 to 14) (size 15 to 20)
#    0.000    2.000    1.250    6.375    0.000    5.000 
#    0.000    0.625    0.000    2.250    0.000    0.875 
#    0.000    7.000    0.000    0.000    0.000    0.000 
#
# Total GULP energy -396691.228665 kJ/mol
# GULP energy per Si atom -12396.600896 kJ/mol
# Density = 1.715997 g / cm^3
# Si number density = 17.199117 Si / 1000 Ang^3
#
#
#
# Elastic Constant Matrix: (Units=GPa)
#
#
# Indices 1 2 3 4 5 6 
#
# 1 99.1372 19.3206 53.0261 0.0000 18.3627 0.0000
# 2 19.3206 43.8401 19.2087 0.0000 -1.8261 0.0000
# 3 53.0261 19.2087 76.6848 0.0000 10.7234 0.0000
# 4 0.0000 0.0000 0.0000 18.7259 0.0000 -0.5925
# 5 18.3627 -1.8261 10.7234 0.0000 24.6960 0.0000
# 6 0.0000 0.0000 0.0000 -0.5925 0.0000 15.3438
#
#
#
# Elastic Compliance Matrix: (Units=1/GPa)
#
#
# Indices 1 2 3 4 5 6 
#
# 1 0.018000 -0.003854 -0.010189 0.000000 -0.009245 0.000000
# 2 -0.003854 0.027037 -0.005097 0.000000 0.007078 0.000000
# 3 -0.010189 -0.005097 0.021672 0.000000 -0.002211 0.000000
# 4 0.000000 0.000000 0.000000 0.053467 0.000000 0.002065
# 5 -0.009245 0.007078 -0.002211 0.000000 0.048850 0.000000
# 6 0.000000 0.000000 0.000000 0.002065 0.000000 0.065253
#
#
# Mechanical properties :
#
#
# Convention : Reuss Voigt Hill
#
# Bulk Modulus (GPa) = 35.17523 44.75256 39.96390
# Shear Modulus (GPa) = 17.72831 20.29357 19.01094
#
# Velocity S-wave (km/s) = 3.21404 3.43872 3.32828
# Velocity P-wave (km/s) = 5.85402 6.46863 6.16898
#
# Compressibility (1/GPa) = 0.02842909
#
# Stress axis : x y z
#
# Youngs Moduli (GPa) = 55.55515 36.98663 46.14291
#
# Poissons Ratio (x) = 0.14253 0.47014
# Poissons Ratio (y) = 0.21409 0.23521
# Poissons Ratio (z) = 0.56603 0.18854
#
# Static dielectric constant tensor:
#      x y z
#    x 3.428120 0.000000 0.274260 
#    y 0.000000 3.099640 0.000000 
#    z 0.274260 0.000000 3.123220 
# 
# 
# High freq. dielectric constant tensor:
#      x y z
#    x 1.659760 0.000000 0.023950 
#    y 0.000000 1.660880 0.000000 
#    z 0.023950 0.000000 1.638770 
# 
# From -- ./inp_files/54943.got.cif
#   From: 2010.06.25/outbox.cif.g09.slc.cpg/sg10_28_cif.got.tgz:54943.got - 2010.06.27 22:07:45.
