data_PCOD8066467
_publ_section_title
;
Structure prediction by ZEFSAII (Michael W. Deem and Ramdas Pophale) SiO2 
 PCOD8066467
Probable space group: P 2/M
;
_chemical_formula_sum "Si O2"
_cell_formula_units_Z 18
_cell_length_a 8.298808
_cell_length_b 21.841268
_cell_length_c 9.521120
_cell_angle_alpha 90.000000
_cell_angle_beta 31.726320
_cell_angle_gamma 90.000000
_cell_volume 907.514871
_symmetry_space_group_name_H-M "P 2/M"
_symmetry_group_IT_number 10
_symmetry_cell_setting 'monoclinic'
loop_
_space_group_symop_operation_xyz
x,y,z
-x,y,-z
-x,-y,-z
x,-y,z
loop_
_atom_site_type_symbol
_atom_site_label
_atom_site_fract_x
_atom_site_fract_y
_atom_site_fract_z
Si Si1 0.641932 0.000000 0.743635
Si Si2 0.729150 0.257964 0.587311
Si Si3 0.098323 0.678707 0.086572
Si Si4 0.355356 0.869735 0.258464
Si Si5 0.859113 0.568319 0.749089
O O1 0.531251 0.065011 0.755097
O O2 0.000000 0.000000 0.500000
O O3 0.500000 0.000000 0.000000
O O4 0.585841 0.189123 0.686073
O O5 0.000000 0.263294 0.500000
O O6 0.872966 0.272925 0.329252
O O7 0.454926 0.303164 0.835118
O O8 0.043062 0.612667 0.197603
O O9 0.000000 0.674415 0.000000
O O10 0.000000 0.877712 0.500000
O O11 0.500000 0.856153 0.000000
O O12 0.989152 0.500000 0.684028
O O13 0.000000 0.594304 0.500000
O O14 0.500000 0.565838 0.000000
#
# Coordination Sequence:
#
# PCOD8066467 Si02
#       5
#     2   4   4   4   4
#     4   8  14  24  40  68 105 130 159 216 275 310
#     4  11  21  36  57  80 107 144 185 221 263 320
#     4  12  24  37  55  82 113 143 176 221 271 313
#     4   9  16  27  46  74 103 134 171 218 269 312
#     4  10  21  38  60  82 105 138 178 217 261 317
#
# _framework density 19.834385999999999
#
# number of rings (size 3 to 8) (size 9 to 14) (size 15 to 20)
#    0.000    1.778    0.000    7.333    0.000    0.444 
#    0.000    0.000    0.000    6.667    0.000    4.667 
#    0.000    0.000    0.000    0.000    0.000    0.000 
#
# Total GULP energy -223018.037349 kJ/mol
# GULP energy per Si atom -12389.890964 kJ/mol
# Density = 1.978924 g / cm^3
# Si number density = 19.834386 Si / 1000 Ang^3
#
#
#
# Elastic Constant Matrix: (Units=GPa)
#
#
# Indices 1 2 3 4 5 6 
#
# 1 61.8238 62.9041 35.8470 0.0000 20.4468 0.0000
# 2 62.9041 173.0082 54.5283 0.0000 25.0724 0.0000
# 3 35.8470 54.5283 154.5111 0.0000 12.7253 0.0000
# 4 0.0000 0.0000 0.0000 34.0593 0.0000 1.9225
# 5 20.4468 25.0724 12.7253 0.0000 31.9793 0.0000
# 6 0.0000 0.0000 0.0000 1.9225 0.0000 5.5166
#
#
#
# Elastic Compliance Matrix: (Units=1/GPa)
#
#
# Indices 1 2 3 4 5 6 
#
# 1 0.030332 -0.008362 -0.003132 0.000000 -0.011592 0.000000
# 2 -0.008362 0.009444 -0.001265 0.000000 -0.001555 0.000000
# 3 -0.003132 -0.001265 0.007649 0.000000 -0.000050 0.000000
# 4 0.000000 0.000000 0.000000 0.029950 0.000000 -0.010437
# 5 -0.011592 -0.001555 -0.000050 0.000000 0.039921 0.000000
# 6 0.000000 0.000000 0.000000 -0.010437 0.000000 0.184908
#
#
# Mechanical properties :
#
#
# Convention : Reuss Voigt Hill
#
# Bulk Modulus (GPa) = 45.64278 77.32244 61.48261
# Shear Modulus (GPa) = 14.92430 30.04860 22.48645
#
# Velocity S-wave (km/s) = 2.74605 3.89649 3.37071
# Velocity P-wave (km/s) = 5.75468 7.70144 6.79811
#
# Compressibility (1/GPa) = 0.02190927
#
# Stress axis : x y z
#
# Youngs Moduli (GPa) = 32.96819 105.88382 130.73448
#
# Poissons Ratio (x) = 0.88536 0.40941
# Poissons Ratio (y) = 0.27567 0.16538
# Poissons Ratio (z) = 0.10324 0.13394
#
# Static dielectric constant tensor:
#      x y z
#    x 2.904520 0.000000 -0.038020 
#    y 0.000000 4.906300 0.000000 
#    z -0.038020 0.000000 3.927250 
# 
# 
# High freq. dielectric constant tensor:
#      x y z
#    x 1.691670 0.000000 -0.005610 
#    y 0.000000 1.806170 0.000000 
#    z -0.005610 0.000000 1.808320 
# 
# From -- ./inp_files/4486.got.cif
#   From: 2010.06.25/outbox.cif.g09.slc.cpg/sg10_3_cif.got.tgz:4486.got - 2010.06.27 22:07:45.
