data_PCOD8066581
_publ_section_title
;
Structure prediction by ZEFSAII (Michael W. Deem and Ramdas Pophale) SiO2 
 PCOD8066581
Probable space group: P 2/M
;
_chemical_formula_sum "Si O2"
_cell_formula_units_Z 28
_cell_length_a 10.158728
_cell_length_b 8.386968
_cell_length_c 29.798248
_cell_angle_alpha 90.000000
_cell_angle_beta 146.439620
_cell_angle_gamma 90.000000
_cell_volume 1403.509067
_symmetry_space_group_name_H-M "P 2/M"
_symmetry_group_IT_number 10
_symmetry_cell_setting 'monoclinic'
loop_
_space_group_symop_operation_xyz
x,y,z
-x,y,-z
-x,-y,-z
x,-y,z
loop_
_atom_site_type_symbol
_atom_site_label
_atom_site_fract_x
_atom_site_fract_y
_atom_site_fract_z
Si Si1 0.879360 0.184628 0.012007
Si Si2 0.334290 0.687467 0.729216
Si Si3 0.826404 0.315639 0.824955
Si Si4 0.837574 0.185002 0.578631
Si Si5 0.067833 0.816675 0.239412
Si Si6 0.587188 0.313573 0.592906
Si Si7 0.392626 0.315093 0.847588
O O1 0.986849 0.289988 0.082186
O O2 0.932084 0.000000 0.036563
O O3 0.597493 0.214257 0.930118
O O4 0.000000 0.241348 0.000000
O O5 0.288069 0.500000 0.714649
O O6 0.564769 0.737623 0.766539
O O7 0.366752 0.746983 0.789406
O O8 0.109371 0.776626 0.643222
O O9 0.829869 0.500000 0.811722
O O10 0.899971 0.207362 0.804213
O O11 0.766904 0.284746 0.602679
O O12 0.669666 0.235391 0.489607
O O13 0.801804 0.000000 0.579199
O O14 0.309954 0.765010 0.332945
O O15 0.852122 0.708976 0.195601
O O16 0.009990 0.000000 0.233151
O O17 0.554700 0.500000 0.591458
O O18 0.463911 0.500000 0.868596
#
# Coordination Sequence:
#
# PCOD8066581 Si02
#       7
#     4   4   4   4   4   4   4
#     4  11  23  39  62  93 127 159 200 254 308 356
#     4  10  21  38  62  91 122 159 205 252 299 361
#     4  11  24  43  65  89 122 164 206 248 304 368
#     4  11  21  34  59  93 125 157 201 255 305 352
#     4  12  25  42  62  91 127 161 201 252 310 364
#     4  11  21  37  60  87 123 163 204 249 300 360
#     4  11  22  39  65  92 121 161 206 250 300 362
#
# _framework density 19.949995999999999
#
# number of rings (size 3 to 8) (size 9 to 14) (size 15 to 20)
#    0.000    1.000    2.857    6.000    0.000    2.857 
#    0.000    3.571    0.000    4.286    0.000    0.000 
#    0.000    0.000    0.000    0.000    0.000    0.000 
#
# Total GULP energy -347432.599045 kJ/mol
# GULP energy per Si atom -12408.307109 kJ/mol
# Density = 1.990459 g / cm^3
# Si number density = 19.949996 Si / 1000 Ang^3
#
#
#
# Elastic Constant Matrix: (Units=GPa)
#
#
# Indices 1 2 3 4 5 6 
#
# 1 83.2424 14.3612 32.8093 0.0000 -0.4115 0.0000
# 2 14.3612 67.7708 19.0090 0.0000 2.0538 0.0000
# 3 32.8093 19.0090 121.2537 0.0000 7.7243 0.0000
# 4 0.0000 0.0000 0.0000 32.9311 0.0000 -2.1199
# 5 -0.4115 2.0538 7.7243 0.0000 32.1332 0.0000
# 6 0.0000 0.0000 0.0000 -2.1199 0.0000 22.7766
#
#
#
# Elastic Compliance Matrix: (Units=1/GPa)
#
#
# Indices 1 2 3 4 5 6 
#
# 1 0.013729 -0.001968 -0.003479 0.000000 0.001138 0.000000
# 2 -0.001968 0.015722 -0.001896 0.000000 -0.000574 0.000000
# 3 -0.003479 -0.001896 0.009628 0.000000 -0.002238 0.000000
# 4 0.000000 0.000000 0.000000 0.030549 0.000000 0.002843
# 5 0.001138 -0.000574 -0.002238 0.000000 0.031710 0.000000
# 6 0.000000 0.000000 0.000000 0.002843 0.000000 0.044169
#
#
# Mechanical properties :
#
#
# Convention : Reuss Voigt Hill
#
# Bulk Modulus (GPa) = 40.99315 44.95842 42.97578
# Shear Modulus (GPa) = 29.70452 31.30734 30.50593
#
# Velocity S-wave (km/s) = 3.86288 3.96572 3.91464
# Velocity P-wave (km/s) = 6.36304 6.59953 6.48236
#
# Compressibility (1/GPa) = 0.02439432
#
# Stress axis : x y z
#
# Youngs Moduli (GPa) = 72.83604 63.60606 103.86106
#
# Poissons Ratio (x) = 0.12518 0.36133
# Poissons Ratio (y) = 0.14335 0.19688
# Poissons Ratio (z) = 0.25339 0.12057
#
# Static dielectric constant tensor:
#      x y z
#    x 3.388660 0.000000 0.062230 
#    y 0.000000 3.574560 0.000000 
#    z 0.062230 0.000000 3.765210 
# 
# 
# High freq. dielectric constant tensor:
#      x y z
#    x 1.755350 0.000000 0.008420 
#    y 0.000000 1.786980 0.000000 
#    z 0.008420 0.000000 1.791700 
# 
# From -- ./inp_files/92091.got.cif
#   From: 2010.06.25/outbox.cif.g09.slc.cpg/sg10_47_cif.got.tgz:92091.got - 2010.06.27 22:07:45.
