data_PCOD8066403
_publ_section_title
;
Structure prediction by ZEFSAII (Michael W. Deem and Ramdas Pophale) SiO2 
 PCOD8066403
Probable space group: P 2/M
;
_chemical_formula_sum "Si O2"
_cell_formula_units_Z 32
_cell_length_a 11.830606
_cell_length_b 8.861742
_cell_length_c 19.436838
_cell_angle_alpha 90.000000
_cell_angle_beta 50.918531
_cell_angle_gamma 90.000000
_cell_volume 1581.807075
_symmetry_space_group_name_H-M "P 2/M"
_symmetry_group_IT_number 10
_symmetry_cell_setting 'monoclinic'
loop_
_space_group_symop_operation_xyz
x,y,z
-x,y,-z
-x,-y,-z
x,-y,z
loop_
_atom_site_type_symbol
_atom_site_label
_atom_site_fract_x
_atom_site_fract_y
_atom_site_fract_z
Si Si1 0.092732 0.172455 0.311402
Si Si2 0.601151 0.677811 0.571659
Si Si3 0.843573 0.321980 0.581299
Si Si4 0.306412 0.826247 0.724898
Si Si5 0.666290 0.825557 0.886217
Si Si6 0.381619 0.319925 0.952061
Si Si7 0.778666 0.175218 0.392909
Si Si8 0.832633 0.177657 0.077005
O O1 0.186483 0.265940 0.330282
O O2 0.175830 0.187814 0.207793
O O3 0.930169 0.239603 0.365064
O O4 0.085044 0.000000 0.338420
O O5 0.601982 0.500000 0.565092
O O6 0.723398 0.742947 0.576097
O O7 0.450587 0.727845 0.662493
O O8 0.639810 0.742689 0.481101
O O9 0.840557 0.500000 0.580710
O O10 0.000000 0.255880 0.500000
O O11 0.213653 0.795748 0.691720
O O12 0.211727 0.778887 0.827701
O O13 0.353529 0.000000 0.712507
O O14 0.542446 0.753905 0.883870
O O15 0.626306 0.000000 0.916181
O O16 0.681401 0.733003 0.950708
O O17 0.393904 0.500000 0.944456
O O18 0.275629 0.264932 0.932209
O O19 0.761107 0.000000 0.415626
O O20 0.816022 0.000000 0.069696
O O21 0.000000 0.228385 0.000000
#
# Coordination Sequence:
#
# PCOD8066403 Si02
#       8
#     4   4   4   4   4   4   4   4
#     4  10  22  36  60  91 117 150 198 249 295 348
#     4  11  23  39  60  87 120 161 201 244 296 358
#     4  10  21  38  56  80 119 160 195 233 289 351
#     4  10  23  41  63  89 117 154 201 249 302 355
#     4  10  21  39  64  92 121 156 202 250 296 359
#     4  11  23  40  62  90 125 159 196 245 305 365
#     4  10  21  39  61  88 120 155 199 253 301 348
#     4  10  23  43  68  91 118 159 204 254 306 362
#
# _framework density 20.230025000000001
#
# number of rings (size 3 to 8) (size 9 to 14) (size 15 to 20)
#    0.000    1.750    1.250    3.000    3.500    5.000 
#    0.000    0.000    0.000    0.000    0.000    0.000 
#    0.000    0.000    0.000    0.000    0.000    0.000 
#
# Total GULP energy -396776.411000 kJ/mol
# GULP energy per Si atom -12399.262844 kJ/mol
# Density = 2.018398 g / cm^3
# Si number density = 20.230025 Si / 1000 Ang^3
#
#
#
# Elastic Constant Matrix: (Units=GPa)
#
#
# Indices 1 2 3 4 5 6 
#
# 1 102.2445 43.5068 48.3974 0.0000 9.7489 0.0000
# 2 43.5068 68.6319 36.2031 0.0000 2.0927 0.0000
# 3 48.3974 36.2031 134.2719 0.0000 -1.1756 0.0000
# 4 0.0000 0.0000 0.0000 8.0586 0.0000 2.2515
# 5 9.7489 2.0927 -1.1756 0.0000 30.4605 0.0000
# 6 0.0000 0.0000 0.0000 2.2515 0.0000 30.7284
#
#
#
# Elastic Compliance Matrix: (Units=1/GPa)
#
#
# Indices 1 2 3 4 5 6 
#
# 1 0.015056 -0.007608 -0.003414 0.000000 -0.004428 0.000000
# 2 -0.007608 0.020886 -0.002881 0.000000 0.000889 0.000000
# 3 -0.003414 -0.002881 0.009470 0.000000 0.001656 0.000000
# 4 0.000000 0.000000 0.000000 0.126684 0.000000 -0.009282
# 5 -0.004428 0.000889 0.001656 0.000000 0.034249 0.000000
# 6 0.000000 0.000000 0.000000 -0.009282 0.000000 0.033223
#
#
# Mechanical properties :
#
#
# Convention : Reuss Voigt Hill
#
# Bulk Modulus (GPa) = 56.80440 62.37366 59.58903
# Shear Modulus (GPa) = 18.29859 25.65224 21.97542
#
# Velocity S-wave (km/s) = 3.01080 3.56480 3.29945
# Velocity P-wave (km/s) = 6.34246 6.91686 6.63587
#
# Compressibility (1/GPa) = 0.01760427
#
# Stress axis : x y z
#
# Youngs Moduli (GPa) = 66.41728 47.87822 105.60098
#
# Poissons Ratio (x) = 0.36428 0.36055
# Poissons Ratio (y) = 0.50533 0.30427
# Poissons Ratio (z) = 0.22677 0.13795
#
# Static dielectric constant tensor:
#      x y z
#    x 3.843900 0.000000 -0.022310 
#    y 0.000000 3.531210 0.000000 
#    z -0.022310 0.000000 3.742020 
# 
# 
# High freq. dielectric constant tensor:
#      x y z
#    x 1.796980 0.000000 0.001510 
#    y 0.000000 1.780980 0.000000 
#    z 0.001510 0.000000 1.796750 
# 
# From -- ./inp_files/83542.got.cif
#   From: 2010.06.25/outbox.cif.g09.slc.cpg/sg10_42_cif.got.tgz:83542.got - 2010.06.27 22:07:45.
