data_PCOD8066086
_publ_section_title
;
Structure prediction by ZEFSAII (Michael W. Deem and Ramdas Pophale) SiO2 
 PCOD8066086
Probable space group: P 2/M
;
_chemical_formula_sum "Si O2"
_cell_formula_units_Z 32
_cell_length_a 15.238004
_cell_length_b 8.925724
_cell_length_c 22.841461
_cell_angle_alpha 90.000000
_cell_angle_beta 31.245605
_cell_angle_gamma 90.000000
_cell_volume 1611.454669
_symmetry_space_group_name_H-M "P 2/M"
_symmetry_group_IT_number 10
_symmetry_cell_setting 'monoclinic'
loop_
_space_group_symop_operation_xyz
x,y,z
-x,y,-z
-x,-y,-z
x,-y,z
loop_
_atom_site_type_symbol
_atom_site_label
_atom_site_fract_x
_atom_site_fract_y
_atom_site_fract_z
Si Si1 0.103583 0.327863 0.699321
Si Si2 0.514551 0.677923 0.924528
Si Si3 0.334174 0.670886 0.678730
Si Si4 0.045479 0.172892 0.908133
Si Si5 0.669201 0.176481 0.519535
Si Si6 0.186670 0.824861 0.066583
Si Si7 0.200258 0.322513 0.447383
Si Si8 0.179496 0.676839 0.328155
O O1 0.058237 0.500000 0.712236
O O2 0.250229 0.311895 0.663478
O O3 0.168165 0.250877 0.603643
O O4 0.933830 0.245791 0.815680
O O5 0.497303 0.500000 0.930580
O O6 0.692700 0.734687 0.795231
O O7 0.500000 0.733311 0.000000
O O8 0.369088 0.749627 0.967631
O O9 0.386349 0.500000 0.661671
O O10 0.204357 0.724371 0.802189
O O11 0.498782 0.773525 0.584590
O O12 0.887030 0.208821 0.956125
O O13 0.099585 0.000000 0.870373
O O14 0.000000 0.213750 0.000000
O O15 0.666803 0.234687 0.587713
O O16 0.684661 0.000000 0.507563
O O17 0.201846 0.000000 0.070045
O O18 0.220452 0.500000 0.444758
O O19 0.242504 0.273879 0.356796
O O20 0.011464 0.265784 0.572797
O O21 0.173019 0.500000 0.330833
#
# Coordination Sequence:
#
# PCOD8066086 Si02
#       8
#     4   4   4   4   4   4   4   4
#     4  10  21  38  59  80 109 147 188 231 277 334
#     4  10  21  36  57  85 115 150 194 239 288 341
#     4  10  21  37  56  81 110 145 190 235 277 325
#     4   9  19  37  59  82 114 154 189 227 284 346
#     4  12  24  35  53  84 116 146 183 227 282 341
#     4  10  21  37  56  83 116 149 187 232 287 343
#     4   9  18  36  60  81 107 147 193 236 281 334
#     4   8  17  36  59  82 109 145 190 239 285 330
#
# _framework density 19.857832999999999
#
# number of rings (size 3 to 8) (size 9 to 14) (size 15 to 20)
#    0.000    2.250    0.000    3.375    1.750    5.000 
#    0.000    5.000    0.000    0.000    0.000    0.000 
#    0.000    0.000    0.000    0.000    0.000    0.000 
#
# Total GULP energy -396845.261107 kJ/mol
# GULP energy per Si atom -12401.414410 kJ/mol
# Density = 1.981264 g / cm^3
# Si number density = 19.857833 Si / 1000 Ang^3
#
#
#
# Elastic Constant Matrix: (Units=GPa)
#
#
# Indices 1 2 3 4 5 6 
#
# 1 57.2975 31.7637 34.4467 0.0000 12.0599 0.0000
# 2 31.7637 57.3314 26.3002 0.0000 4.7668 0.0000
# 3 34.4467 26.3002 95.1542 0.0000 12.8205 0.0000
# 4 0.0000 0.0000 0.0000 26.2550 0.0000 -3.0143
# 5 12.0599 4.7668 12.8205 0.0000 31.6716 0.0000
# 6 0.0000 0.0000 0.0000 -3.0143 0.0000 25.4755
#
#
#
# Elastic Compliance Matrix: (Units=1/GPa)
#
#
# Indices 1 2 3 4 5 6 
#
# 1 0.029972 -0.013148 -0.006288 0.000000 -0.006888 0.000000
# 2 -0.013148 0.025763 -0.002658 0.000000 0.002205 0.000000
# 3 -0.006288 -0.002658 0.013902 0.000000 -0.002833 0.000000
# 4 0.000000 0.000000 0.000000 0.038612 0.000000 0.004569
# 5 -0.006888 0.002205 -0.002833 0.000000 0.035012 0.000000
# 6 0.000000 0.000000 0.000000 0.004569 0.000000 0.039794
#
#
# Mechanical properties :
#
#
# Convention : Reuss Voigt Hill
#
# Bulk Modulus (GPa) = 39.29522 43.86715 41.58119
# Shear Modulus (GPa) = 21.21103 24.49859 22.85481
#
# Velocity S-wave (km/s) = 3.27179 3.51622 3.39620
# Velocity P-wave (km/s) = 5.83987 6.21479 6.03024
#
# Compressibility (1/GPa) = 0.02544839
#
# Stress axis : x y z
#
# Youngs Moduli (GPa) = 33.36473 38.81513 71.93252
#
# Poissons Ratio (x) = 0.51035 0.45230
# Poissons Ratio (y) = 0.43869 0.19121
# Poissons Ratio (z) = 0.20979 0.10318
#
# Static dielectric constant tensor:
#      x y z
#    x 3.624130 0.000000 0.086800 
#    y 0.000000 3.430630 0.000000 
#    z 0.086800 0.000000 3.821670 
# 
# 
# High freq. dielectric constant tensor:
#      x y z
#    x 1.779600 0.000000 0.002810 
#    y 0.000000 1.759070 0.000000 
#    z 0.002810 0.000000 1.772980 
# 
# From -- ./inp_files/89530.got.cif
#   From: 2010.06.25/outbox.cif.g09.slc.cpg/sg10_45_cif.got.tgz:89530.got - 2010.06.27 22:07:45.
