data_PCOD8066755
_publ_section_title
;
Structure prediction by ZEFSAII (Michael W. Deem and Ramdas Pophale) SiO2 
 PCOD8066755
Probable space group: P 2/M
;
_chemical_formula_sum "Si O2"
_cell_formula_units_Z 32
_cell_length_a 23.308390
_cell_length_b 8.814451
_cell_length_c 14.418390
_cell_angle_alpha 90.000000
_cell_angle_beta 148.263589
_cell_angle_gamma 90.000000
_cell_volume 1558.189068
_symmetry_space_group_name_H-M "P 2/M"
_symmetry_group_IT_number 10
_symmetry_cell_setting 'monoclinic'
loop_
_space_group_symop_operation_xyz
x,y,z
-x,y,-z
-x,-y,-z
x,-y,z
loop_
_atom_site_type_symbol
_atom_site_label
_atom_site_fract_x
_atom_site_fract_y
_atom_site_fract_z
Si Si1 0.996735 0.824870 0.273374
Si Si2 0.107846 0.328101 0.587954
Si Si3 0.502991 0.323765 0.896047
Si Si4 0.083163 0.175843 0.190132
Si Si5 0.398799 0.675640 0.416375
Si Si6 0.766388 0.674979 0.969039
Si Si7 0.318098 0.322524 0.499883
Si Si8 0.692082 0.822922 0.042924
O O1 0.082342 0.726794 0.449444
O O2 0.024537 0.793661 0.205965
O O3 0.008290 0.000000 0.317091
O O4 0.873947 0.774788 0.124319
O O5 0.153021 0.500000 0.646606
O O6 0.195935 0.217127 0.752397
O O7 0.000000 0.316799 0.500000
O O8 0.533492 0.500000 0.925088
O O9 0.387742 0.286500 0.688047
O O10 0.500000 0.279695 0.000000
O O11 0.593259 0.220612 0.973180
O O12 0.199290 0.254608 0.347696
O O13 0.103953 0.000000 0.198982
O O14 0.000000 0.244690 0.000000
O O15 0.500000 0.753909 0.500000
O O16 0.428762 0.500000 0.470091
O O17 0.288577 0.698471 0.206188
O O18 0.378421 0.746321 0.490837
O O19 0.796963 0.500000 0.028813
O O20 0.682950 0.730158 0.934074
O O21 0.303098 0.500000 0.464021
O O22 0.688209 0.000000 0.015712
#
# Coordination Sequence:
#
# PCOD8066755 Si02
#       8
#     4   4   4   4   4   4   4   4
#     4  11  23  38  59  88 121 159 203 248 303 366
#     4  11  23  40  63  90 121 161 203 251 308 364
#     4  10  23  43  65  91 123 163 210 260 308 362
#     4  10  23  42  62  88 128 171 205 248 309 371
#     4   9  18  34  59  88 118 151 195 250 305 358
#     4  11  21  36  60  89 120 157 198 249 305 362
#     4  10  21  39  64  93 122 160 210 261 308 360
#     4  12  25  40  62  90 124 162 201 251 307 368
#
# _framework density 20.536660999999999
#
# number of rings (size 3 to 8) (size 9 to 14) (size 15 to 20)
#    0.000    1.500    1.250    3.750    1.750    4.500 
#    0.000    0.625    0.000    2.625    0.000    0.000 
#    0.000    0.000    0.000    0.000    0.000    0.000 
#
# Total GULP energy -396903.706720 kJ/mol
# GULP energy per Si atom -12403.240835 kJ/mol
# Density = 2.048992 g / cm^3
# Si number density = 20.536661 Si / 1000 Ang^3
#
#
#
# Elastic Constant Matrix: (Units=GPa)
#
#
# Indices 1 2 3 4 5 6 
#
# 1 113.2422 40.0592 53.4054 0.0000 -9.0655 0.0000
# 2 40.0592 55.3344 33.6473 0.0000 -3.4353 0.0000
# 3 53.4054 33.6473 107.6709 0.0000 -10.2928 0.0000
# 4 0.0000 0.0000 0.0000 21.1684 0.0000 0.3386
# 5 -9.0655 -3.4353 -10.2928 0.0000 39.1349 0.0000
# 6 0.0000 0.0000 0.0000 0.3386 0.0000 45.7348
#
#
#
# Elastic Compliance Matrix: (Units=1/GPa)
#
#
# Indices 1 2 3 4 5 6 
#
# 1 0.013481 -0.007023 -0.004362 0.000000 0.001359 0.000000
# 2 -0.007023 0.025971 -0.004688 0.000000 -0.000580 0.000000
# 3 -0.004362 -0.004688 0.013110 0.000000 0.002026 0.000000
# 4 0.000000 0.000000 0.000000 0.047246 0.000000 -0.000350
# 5 0.001359 -0.000580 0.002026 0.000000 0.026349 0.000000
# 6 0.000000 0.000000 0.000000 -0.000350 0.000000 0.021868
#
#
# Mechanical properties :
#
#
# Convention : Reuss Voigt Hill
#
# Bulk Modulus (GPa) = 48.98152 58.94124 53.96138
# Shear Modulus (GPa) = 26.74154 31.15000 28.94577
#
# Velocity S-wave (km/s) = 3.61243 3.89884 3.75836
# Velocity P-wave (km/s) = 6.42667 7.00219 6.72059
#
# Compressibility (1/GPa) = 0.02041586
#
# Stress axis : x y z
#
# Youngs Moduli (GPa) = 74.17941 38.50512 76.27830
#
# Poissons Ratio (x) = 0.27041 0.33273
# Poissons Ratio (y) = 0.52093 0.35760
# Poissons Ratio (z) = 0.32358 0.18051
#
# Static dielectric constant tensor:
#      x y z
#    x 3.931320 0.000000 -0.177410 
#    y 0.000000 3.572320 0.000000 
#    z -0.177410 0.000000 3.725590 
# 
# 
# High freq. dielectric constant tensor:
#      x y z
#    x 1.814160 0.000000 -0.008100 
#    y 0.000000 1.785180 0.000000 
#    z -0.008100 0.000000 1.814940 
# 
# From -- ./inp_files/71610.got.cif
#   From: 2010.06.25/outbox.cif.g09.slc.cpg/sg10_36_cif.got.tgz:71610.got - 2010.06.27 22:07:45.
