data_PCOD8066445
_publ_section_title
;
Structure prediction by ZEFSAII (Michael W. Deem and Ramdas Pophale) SiO2 
 PCOD8066445
Probable space group: P 2/M
;
_chemical_formula_sum "Si O2"
_cell_formula_units_Z 20
_cell_length_a 7.187408
_cell_length_b 8.441848
_cell_length_c 22.205347
_cell_angle_alpha 90.000000
_cell_angle_beta 47.886410
_cell_angle_gamma 90.000000
_cell_volume 999.456868
_symmetry_space_group_name_H-M "P 2/M"
_symmetry_group_IT_number 10
_symmetry_cell_setting 'monoclinic'
loop_
_space_group_symop_operation_xyz
x,y,z
-x,y,-z
-x,-y,-z
x,-y,z
loop_
_atom_site_type_symbol
_atom_site_label
_atom_site_fract_x
_atom_site_fract_y
_atom_site_fract_z
Si Si1 0.007315 0.184715 0.905799
Si Si2 0.201298 0.685344 0.505118
Si Si3 0.367255 0.315759 0.923534
Si Si4 0.052609 0.684577 0.206349
Si Si5 0.734941 0.816657 0.380651
O O1 0.081633 0.258586 0.825453
O O2 0.242565 0.211642 0.898346
O O3 0.950501 0.000000 0.911882
O O4 0.760040 0.272282 0.985157
O O5 0.166209 0.500000 0.523943
O O6 0.482525 0.718882 0.420879
O O7 0.152106 0.773619 0.578716
O O8 0.000000 0.747502 0.500000
O O9 0.322831 0.500000 0.919273
O O10 0.656824 0.271488 0.862942
O O11 0.005677 0.500000 0.226879
O O12 0.943308 0.779351 0.286152
O O13 0.664002 0.000000 0.394884
#
# Coordination Sequence:
#
# PCOD8066445 Si02
#       5
#     4   4   4   4   4
#     4  11  22  36  57  84 115 149 188 238 289 336
#     4  10  21  40  65  87 113 151 188 224 273 336
#     4  10  21  38  59  81 110 152 197 236 278 334
#     4  11  23  39  59  82 113 152 192 234 280 334
#     4  11  23  38  59  88 119 147 183 234 283 332
#
# _framework density 20.010869
#
# number of rings (size 3 to 8) (size 9 to 14) (size 15 to 20)
#    0.000    1.400    0.000    8.400    0.000    8.800 
#    0.000    2.000    0.000    0.000    0.000    0.000 
#    0.000    0.000    0.000    0.000    0.000    0.000 
#
# Total GULP energy -248118.714566 kJ/mol
# GULP energy per Si atom -12405.935728 kJ/mol
# Density = 1.996532 g / cm^3
# Si number density = 20.010869 Si / 1000 Ang^3
#
#
#
# Elastic Constant Matrix: (Units=GPa)
#
#
# Indices 1 2 3 4 5 6 
#
# 1 102.1805 20.0633 39.6670 0.0000 11.6659 0.0000
# 2 20.0633 66.7382 24.2701 0.0000 4.8606 0.0000
# 3 39.6670 24.2701 100.0877 0.0000 20.9278 0.0000
# 4 0.0000 0.0000 0.0000 25.4598 0.0000 6.8865
# 5 11.6659 4.8606 20.9278 0.0000 20.5942 0.0000
# 6 0.0000 0.0000 0.0000 6.8865 0.0000 15.3958
#
#
#
# Elastic Compliance Matrix: (Units=1/GPa)
#
#
# Indices 1 2 3 4 5 6 
#
# 1 0.011912 -0.002053 -0.003700 0.000000 -0.002504 0.000000
# 2 -0.002053 0.016788 -0.003393 0.000000 0.000648 0.000000
# 3 -0.003700 -0.003393 0.014824 0.000000 -0.012168 0.000000
# 4 0.000000 0.000000 0.000000 0.044684 0.000000 -0.019987
# 5 -0.002504 0.000648 -0.012168 0.000000 0.062188 0.000000
# 6 0.000000 0.000000 0.000000 -0.019987 0.000000 0.073893
#
#
# Mechanical properties :
#
#
# Convention : Reuss Voigt Hill
#
# Bulk Modulus (GPa) = 39.63071 48.55637 44.09354
# Shear Modulus (GPa) = 19.92107 24.62369 22.27238
#
# Velocity S-wave (km/s) = 3.15860 3.51168 3.33981
# Velocity P-wave (km/s) = 5.75760 6.38437 6.07907
#
# Compressibility (1/GPa) = 0.02523296
#
# Stress axis : x y z
#
# Youngs Moduli (GPa) = 83.95055 59.56723 67.45627
#
# Poissons Ratio (x) = 0.12231 0.24956
# Poissons Ratio (y) = 0.17237 0.22886
# Poissons Ratio (z) = 0.31058 0.20209
#
# Static dielectric constant tensor:
#      x y z
#    x 3.656700 0.000000 0.059260 
#    y 0.000000 3.659160 0.000000 
#    z 0.059260 0.000000 3.587990 
# 
# 
# High freq. dielectric constant tensor:
#      x y z
#    x 1.783010 0.000000 0.007150 
#    y 0.000000 1.793780 0.000000 
#    z 0.007150 0.000000 1.778270 
# 
# From -- ./inp_files/87680.got.cif
#   From: 2010.06.25/outbox.cif.g09.slc.cpg/sg10_44_cif.got.tgz:87680.got - 2010.06.27 22:07:45.
