data_PCOD8066554
_publ_section_title
;
Structure prediction by ZEFSAII (Michael W. Deem and Ramdas Pophale) SiO2 
 PCOD8066554
Probable space group: P 2/M
;
_chemical_formula_sum "Si O2"
_cell_formula_units_Z 28
_cell_length_a 9.960120
_cell_length_b 9.050479
_cell_length_c 25.866891
_cell_angle_alpha 90.000000
_cell_angle_beta 38.574898
_cell_angle_gamma 90.000000
_cell_volume 1453.927321
_symmetry_space_group_name_H-M "P 2/M"
_symmetry_group_IT_number 10
_symmetry_cell_setting 'monoclinic'
loop_
_space_group_symop_operation_xyz
x,y,z
-x,y,-z
-x,-y,-z
x,-y,z
loop_
_atom_site_type_symbol
_atom_site_label
_atom_site_fract_x
_atom_site_fract_y
_atom_site_fract_z
Si Si1 0.751885 0.168844 0.573985
Si Si2 0.514419 0.328928 0.260682
Si Si3 0.555007 0.170019 0.426194
Si Si4 0.943255 0.169922 0.154864
Si Si5 0.810369 0.830688 0.021329
Si Si6 0.965749 0.324901 0.255066
Si Si7 0.608699 0.670419 0.816196
O O1 0.631797 0.279473 0.648017
O O2 0.657591 0.189133 0.544843
O O3 0.000000 0.214644 0.500000
O O4 0.721088 0.000000 0.602206
O O5 0.576439 0.500000 0.249416
O O6 0.728309 0.232134 0.193564
O O7 0.385724 0.300864 0.246644
O O8 0.500000 0.228768 0.500000
O O9 0.746169 0.265023 0.344933
O O10 0.629974 0.000000 0.405671
O O11 0.006866 0.262065 0.185820
O O12 0.133131 0.185327 0.056061
O O13 0.903650 0.000000 0.182515
O O14 0.780249 0.000000 0.046919
O O15 0.585896 0.751218 0.097202
O O16 0.000000 0.760923 0.000000
O O17 0.948190 0.500000 0.257086
O O18 0.164326 0.271373 0.230468
O O19 0.577771 0.500000 0.838832
#
# Coordination Sequence:
#
# PCOD8066554 Si02
#       7
#     4   4   4   4   4   4   4
#     4  10  22  39  60  89 122 155 197 246 295 351
#     4  11  22  38  61  89 120 159 202 244 295 354
#     4  10  22  40  61  87 120 158 199 242 295 354
#     4  11  22  39  63  89 119 156 200 249 300 356
#     4  10  21  38  61  90 120 154 200 251 300 350
#     4  11  24  42  61  87 123 162 202 243 296 357
#     4  10  24  41  59  88 124 160 200 244 294 358
#
# _framework density 19.258184
#
# number of rings (size 3 to 8) (size 9 to 14) (size 15 to 20)
#    0.000    1.571    2.857    1.286    2.000    4.286 
#    0.000    2.857    0.000    0.000    0.000    0.000 
#    0.000    0.000    0.000    0.000    0.000    0.000 
#
# Total GULP energy -347328.200187 kJ/mol
# GULP energy per Si atom -12404.578578 kJ/mol
# Density = 1.921435 g / cm^3
# Si number density = 19.258184 Si / 1000 Ang^3
#
#
#
# Elastic Constant Matrix: (Units=GPa)
#
#
# Indices 1 2 3 4 5 6 
#
# 1 130.3805 37.6849 43.1021 0.0000 -3.4492 0.0000
# 2 37.6849 63.7159 34.0733 0.0000 -0.4764 0.0000
# 3 43.1021 34.0733 86.2491 0.0000 2.0391 0.0000
# 4 0.0000 0.0000 0.0000 53.1036 0.0000 7.6821
# 5 -3.4492 -0.4764 2.0391 0.0000 37.0945 0.0000
# 6 0.0000 0.0000 0.0000 7.6821 0.0000 31.1745
#
#
#
# Elastic Compliance Matrix: (Units=1/GPa)
#
#
# Indices 1 2 3 4 5 6 
#
# 1 0.010007 -0.004086 -0.003412 0.000000 0.001066 0.000000
# 2 -0.004086 0.021585 -0.006491 0.000000 0.000254 0.000000
# 3 -0.003412 -0.006491 0.015894 0.000000 -0.001274 0.000000
# 4 0.000000 0.000000 0.000000 0.019527 0.000000 -0.004812
# 5 0.001066 0.000254 -0.001274 0.000000 0.027131 0.000000
# 6 0.000000 0.000000 0.000000 -0.004812 0.000000 0.033263
#
#
# Mechanical properties :
#
#
# Convention : Reuss Voigt Hill
#
# Bulk Modulus (GPa) = 51.26310 56.67399 53.96855
# Shear Modulus (GPa) = 30.88571 35.30685 33.09628
#
# Velocity S-wave (km/s) = 4.00906 4.28640 4.15005
# Velocity P-wave (km/s) = 6.93590 7.34779 7.14481
#
# Compressibility (1/GPa) = 0.01950721
#
# Stress axis : x y z
#
# Youngs Moduli (GPa) = 99.92995 46.32938 62.91742
#
# Poissons Ratio (x) = 0.18931 0.21466
# Poissons Ratio (y) = 0.40833 0.40841
# Poissons Ratio (z) = 0.34094 0.30073
#
# Static dielectric constant tensor:
#      x y z
#    x 3.807340 0.000000 -0.008680 
#    y 0.000000 3.541250 0.000000 
#    z -0.008680 0.000000 3.484570 
# 
# 
# High freq. dielectric constant tensor:
#      x y z
#    x 1.761450 0.000000 0.004350 
#    y 0.000000 1.750170 0.000000 
#    z 0.004350 0.000000 1.750430 
# 
# From -- ./inp_files/91977.got.cif
#   From: 2010.06.25/outbox.cif.g09.slc.cpg/sg10_46_cif.got.tgz:91977.got - 2010.06.27 22:07:45.
