data_PCOD8066160
_publ_section_title
;
Structure prediction by ZEFSAII (Michael W. Deem and Ramdas Pophale) SiO2 
 PCOD8066160
Probable space group: P 2/M
;
_chemical_formula_sum "Si O2"
_cell_formula_units_Z 28
_cell_length_a 11.766811
_cell_length_b 8.888155
_cell_length_c 15.537600
_cell_angle_alpha 90.000000
_cell_angle_beta 116.107603
_cell_angle_gamma 90.000000
_cell_volume 1459.203188
_symmetry_space_group_name_H-M "P 2/M"
_symmetry_group_IT_number 10
_symmetry_cell_setting 'monoclinic'
loop_
_space_group_symop_operation_xyz
x,y,z
-x,y,-z
-x,-y,-z
x,-y,z
loop_
_atom_site_type_symbol
_atom_site_label
_atom_site_fract_x
_atom_site_fract_y
_atom_site_fract_z
Si Si1 0.110773 0.823724 0.095250
Si Si2 0.449725 0.325453 0.809629
Si Si3 0.481645 0.678164 0.628586
Si Si4 0.702826 0.678165 0.579963
Si Si5 0.939103 0.821418 0.731614
Si Si6 0.320784 0.824065 0.034321
Si Si7 0.798518 0.674502 0.171271
O O1 0.102834 0.757543 0.188664
O O2 0.246166 0.788222 0.097982
O O3 0.085524 0.000000 0.093254
O O4 0.000000 0.750613 0.000000
O O5 0.488510 0.500000 0.825704
O O6 0.467287 0.255961 0.719930
O O7 0.537862 0.237966 0.906950
O O8 0.305485 0.301246 0.789392
O O9 0.477009 0.500000 0.630271
O O10 0.614254 0.729683 0.630619
O O11 0.364476 0.732302 0.530520
O O12 0.723973 0.500000 0.588029
O O13 0.837133 0.761185 0.629366
O O14 0.076142 0.756884 0.753414
O O15 0.944328 0.000000 0.729388
O O16 0.324762 0.000000 0.014938
O O17 0.248648 0.743849 0.933370
O O18 0.827202 0.500000 0.165533
#
# Coordination Sequence:
#
# PCOD8066160 Si02
#       7
#     4   4   4   4   4   4   4
#     4   9  17  32  51  73 103 136 168 206 255 310
#     4  10  21  37  55  76 105 140 179 219 259 306
#     4   8  16  34  59  83 107 136 171 215 263 312
#     4   9  17  33  59  86 108 132 169 216 265 317
#     4  11  21  35  55  78 108 142 174 214 266 316
#     4  11  21  35  56  79 105 139 176 217 266 315
#     4  11  23  37  52  73 105 144 183 220 254 303
#
# _framework density 19.188555000000001
#
# number of rings (size 3 to 8) (size 9 to 14) (size 15 to 20)
#    0.000    2.143    1.429    3.429    0.000    2.857 
#    0.000    5.714    0.000    4.286    0.000    0.000 
#    0.000    0.000    0.000    0.000    0.000    0.000 
#
# Total GULP energy -347218.745441 kJ/mol
# GULP energy per Si atom -12400.669480 kJ/mol
# Density = 1.914488 g / cm^3
# Si number density = 19.188555 Si / 1000 Ang^3
#
#
#
# Elastic Constant Matrix: (Units=GPa)
#
#
# Indices 1 2 3 4 5 6 
#
# 1 90.3071 40.3326 45.9936 0.0000 22.7847 0.0000
# 2 40.3326 68.5655 33.2221 0.0000 12.1298 0.0000
# 3 45.9936 33.2221 89.8124 0.0000 27.0176 0.0000
# 4 0.0000 0.0000 0.0000 15.7918 0.0000 0.3588
# 5 22.7847 12.1298 27.0176 0.0000 34.9807 0.0000
# 6 0.0000 0.0000 0.0000 0.3588 0.0000 22.6327
#
#
#
# Elastic Compliance Matrix: (Units=1/GPa)
#
#
# Indices 1 2 3 4 5 6 
#
# 1 0.018294 -0.007372 -0.004984 0.000000 -0.005510 0.000000
# 2 -0.007372 0.020793 -0.004158 0.000000 0.000803 0.000000
# 3 -0.004984 -0.004158 0.017996 0.000000 -0.009211 0.000000
# 4 0.000000 0.000000 0.000000 0.063347 0.000000 -0.001004
# 5 -0.005510 0.000803 -0.009211 0.000000 0.039012 0.000000
# 6 0.000000 0.000000 0.000000 -0.001004 0.000000 0.044200
#
#
# Mechanical properties :
#
#
# Convention : Reuss Voigt Hill
#
# Bulk Modulus (GPa) = 41.57010 54.19796 47.88403
# Shear Modulus (GPa) = 20.43416 23.29016 21.86216
#
# Velocity S-wave (km/s) = 3.26684 3.48767 3.37906
# Velocity P-wave (km/s) = 5.99506 6.67269 6.34293
#
# Compressibility (1/GPa) = 0.02405575
#
# Stress axis : x y z
#
# Youngs Moduli (GPa) = 54.66176 48.09200 55.56885
#
# Poissons Ratio (x) = 0.35451 0.27697
# Poissons Ratio (y) = 0.40294 0.23106
# Poissons Ratio (z) = 0.27245 0.19997
#
# Static dielectric constant tensor:
#      x y z
#    x 3.589580 0.000000 -0.071890 
#    y 0.000000 3.225790 0.000000 
#    z -0.071890 0.000000 3.647840 
# 
# 
# High freq. dielectric constant tensor:
#      x y z
#    x 1.748220 0.000000 0.008540 
#    y 0.000000 1.721900 0.000000 
#    z 0.008540 0.000000 1.744230 
# 
# From -- ./inp_files/49088.got.cif
#   From: 2010.06.25/outbox.cif.g09.slc.cpg/sg10_25_cif.got.tgz:49088.got - 2010.06.27 22:07:45.
