data_PCOD8066919
_publ_section_title
;
Structure prediction by ZEFSAII (Michael W. Deem and Ramdas Pophale) SiO2 
 PCOD8066919
Probable space group: P 2/M
;
_chemical_formula_sum "Si O2"
_cell_formula_units_Z 28
_cell_length_a 18.581525
_cell_length_b 13.859738
_cell_length_c 10.106254
_cell_angle_alpha 90.000000
_cell_angle_beta 35.082937
_cell_angle_gamma 90.000000
_cell_volume 1495.940470
_symmetry_space_group_name_H-M "P 2/M"
_symmetry_group_IT_number 10
_symmetry_cell_setting 'monoclinic'
loop_
_space_group_symop_operation_xyz
x,y,z
-x,y,-z
-x,-y,-z
x,-y,z
loop_
_atom_site_type_symbol
_atom_site_label
_atom_site_fract_x
_atom_site_fract_y
_atom_site_fract_z
Si Si1 0.148633 0.208301 0.523269
Si Si2 0.852421 0.000000 0.374462
Si Si3 0.852716 0.000000 0.079062
Si Si4 0.699879 0.241930 0.956394
Si Si5 0.490485 0.886191 0.169290
Si Si6 0.498656 0.613164 0.656245
Si Si7 0.289448 0.263730 0.556171
Si Si8 0.147400 0.202011 0.017482
O O1 0.191615 0.096068 0.481069
O O2 0.199177 0.250482 0.311114
O O3 0.207634 0.276793 0.547018
O O4 0.999894 0.216455 0.743764
O O5 0.793222 0.000000 0.316041
O O6 0.998784 0.000000 0.133216
O O7 0.810563 0.091297 0.058339
O O8 0.777683 0.241840 0.972620
O O9 0.616162 0.146655 0.056625
O O10 0.613017 0.336201 0.095189
O O11 0.375655 0.831270 0.411642
O O12 0.470222 0.000000 0.216310
O O13 0.500000 0.856689 0.000000
O O14 0.500000 0.646343 0.500000
O O15 0.479136 0.500000 0.697746
O O16 0.627092 0.642806 0.536235
O O17 0.187944 0.255547 0.824136
#
# Coordination Sequence:
#
# PCOD8066919 Si02
#       8
#     4   2   2   4   4   4   4   4
#     4  11  22  36  59  84 130 162 199 241 289 355
#     4   9  18  31  51  78 113 176 206 221 270 333
#     4   9  18  31  49  80 117 164 214 233 256 321
#     4  11  23  39  59  90 116 155 199 245 310 352
#     4  10  22  36  55  81 118 164 198 245 296 338
#     4  10  22  44  69  89 112 150 198 251 307 365
#     4  11  21  37  61  89 112 157 202 240 295 354
#     4  11  22  36  56  88 124 162 203 244 283 349
#
# _framework density 18.717321999999999
#
# number of rings (size 3 to 8) (size 9 to 14) (size 15 to 20)
#    0.000    1.571    4.286    0.857    4.000    0.000 
#    0.000    4.286    0.000    5.143    0.000    0.000 
#    0.000    0.000    0.000    0.000    0.000    0.000 
#
# Total GULP energy -347149.319473 kJ/mol
# GULP energy per Si atom -12398.189981 kJ/mol
# Density = 1.867472 g / cm^3
# Si number density = 18.717322 Si / 1000 Ang^3
#
#
#
# Elastic Constant Matrix: (Units=GPa)
#
#
# Indices 1 2 3 4 5 6 
#
# 1 -124.6036 -33.4172 -74.6915 0.0000 -42.5528 0.0000
# 2 -33.4172 60.0489 9.3923 0.0000 -8.6265 0.0000
# 3 -74.6915 9.3923 78.1808 0.0000 -11.5705 0.0000
# 4 0.0000 0.0000 0.0000 32.6377 0.0000 3.3992
# 5 -42.5528 -8.6265 -11.5705 0.0000 22.1061 0.0000
# 6 0.0000 0.0000 0.0000 3.3992 0.0000 23.5518
#
#
#
# Elastic Compliance Matrix: (Units=1/GPa)
#
#
# Indices 1 2 3 4 5 6 
#
# 1 -0.002700 -0.002082 -0.003489 0.000000 -0.007836 0.000000
# 2 -0.002082 0.016139 -0.003891 0.000000 0.000253 0.000000
# 3 -0.003489 -0.003891 0.009438 0.000000 -0.003294 0.000000
# 4 0.000000 0.000000 0.000000 0.031107 0.000000 -0.004490
# 5 -0.007836 0.000253 -0.003294 0.000000 0.028528 0.000000
# 6 0.000000 0.000000 0.000000 -0.004490 0.000000 0.043108
#
#
# Mechanical properties :
#
#
# Convention : Reuss Voigt Hill
#
# Bulk Modulus (GPa) = 252.97775 -20.42298 116.27739
# Shear Modulus (GPa) = 34.27915 23.14863 28.71389
#
# Velocity S-wave (km/s) = 4.28414 3.52056 3.92098
# Velocity P-wave (km/s) = 12.64604 2.36449 9.09706
#
# Compressibility (1/GPa) = 0.00395292
#
# Stress axis : x y z
#
# Youngs Moduli (GPa) = -370.39856 61.96106 105.95805
#
# Poissons Ratio (x) = 0.12903 0.36966
# Poissons Ratio (y) = -0.77132 0.41227
# Poissons Ratio (z) = -1.29223 0.24108
#
# Static dielectric constant tensor:
#      x y z
#    x 3.883310 0.000000 1.200610 
#    y 0.000000 3.656400 0.000000 
#    z 1.200610 0.000000 7.991960 
# 
# 
# High freq. dielectric constant tensor:
#      x y z
#    x 1.733930 0.000000 -0.003790 
#    y 0.000000 1.688120 0.000000 
#    z -0.003790 0.000000 1.741620 
# 
# From -- ./inp_files/25083.got.cif
#   From: 2010.06.25/outbox.cif.g09.slc.cpg/sg10_13_cif.got.tgz:25083.got - 2010.06.27 22:07:45.
