data_PCOD8066284
_publ_section_title
;
Structure prediction by ZEFSAII (Michael W. Deem and Ramdas Pophale) SiO2 
 PCOD8066284
Probable space group: P 2/M
;
_chemical_formula_sum "Si O2"
_cell_formula_units_Z 32
_cell_length_a 27.815336
_cell_length_b 13.203707
_cell_length_c 9.840370
_cell_angle_alpha 90.000000
_cell_angle_beta 25.963407
_cell_angle_gamma 90.000000
_cell_volume 1582.211090
_symmetry_space_group_name_H-M "P 2/M"
_symmetry_group_IT_number 10
_symmetry_cell_setting 'monoclinic'
loop_
_space_group_symop_operation_xyz
x,y,z
-x,y,-z
-x,-y,-z
x,-y,z
loop_
_atom_site_type_symbol
_atom_site_label
_atom_site_fract_x
_atom_site_fract_y
_atom_site_fract_z
Si Si1 0.768401 0.257822 0.854045
Si Si2 0.903532 0.881710 0.838920
Si Si3 0.670176 0.381040 0.859633
Si Si4 0.463334 0.711142 0.247002
Si Si5 0.233424 0.382602 0.883342
Si Si6 0.672670 0.119794 0.299688
Si Si7 0.137694 0.383443 0.841087
Si Si8 0.993754 0.796695 0.165223
O O1 0.708997 0.332493 0.901429
O O2 0.869124 0.198684 0.530920
O O3 0.811957 0.324319 0.869913
O O4 0.685159 0.169601 0.117898
O O5 0.925317 0.857995 0.941276
O O6 0.000000 0.832507 0.500000
O O7 0.904885 0.000000 0.811209
O O8 0.782254 0.845098 0.103358
O O9 0.648743 0.500000 0.935771
O O10 0.758225 0.361460 0.518162
O O11 0.559285 0.324333 0.102059
O O12 0.361775 0.637423 0.533613
O O13 0.430604 0.828069 0.362393
O O14 0.500000 0.700225 0.000000
O O15 0.215009 0.500000 0.955658
O O16 0.165072 0.347833 0.924669
O O17 0.653667 0.000000 0.339177
O O18 0.102756 0.500000 0.923389
O O19 0.033967 0.319650 0.053272
O O20 0.000000 0.846835 0.000000
#
# Coordination Sequence:
#
# PCOD8066284 Si02
#       8
#     4   4   4   4   4   4   4   4
#     4  11  23  39  60  91 124 164 203 254 306 369
#     4  10  21  40  68  93 116 155 202 249 308 373
#     4  11  23  40  61  89 127 167 209 253 303 362
#     4  11  22  38  66  91 120 160 210 257 309 361
#     4  10  21  37  58  87 119 156 206 257 302 358
#     4  10  23  43  66  92 124 159 201 256 316 374
#     4  10  22  37  57  87 123 164 206 246 302 366
#     4  12  23  37  60  90 128 162 203 250 307 360
#
# _framework density 20.224862000000002
#
# number of rings (size 3 to 8) (size 9 to 14) (size 15 to 20)
#    0.000    1.375    3.750    2.250    0.000    4.250 
#    0.000    5.625    0.000    0.000    0.000    0.000 
#    0.000    0.000    0.000    0.000    0.000    0.000 
#
# Total GULP energy -396851.618356 kJ/mol
# GULP energy per Si atom -12401.613074 kJ/mol
# Density = 2.017883 g / cm^3
# Si number density = 20.224862 Si / 1000 Ang^3
#
#
#
# Elastic Constant Matrix: (Units=GPa)
#
#
# Indices 1 2 3 4 5 6 
#
# 1 119.3744 29.4164 25.6518 0.0000 16.1269 0.0000
# 2 29.4164 53.8643 -2.1543 0.0000 -3.3709 0.0000
# 3 25.6518 -2.1543 58.3802 0.0000 5.5883 0.0000
# 4 0.0000 0.0000 0.0000 26.3430 0.0000 -5.7017
# 5 16.1269 -3.3709 5.5883 0.0000 32.4268 0.0000
# 6 0.0000 0.0000 0.0000 -5.7017 0.0000 26.3751
#
#
#
# Elastic Compliance Matrix: (Units=1/GPa)
#
#
# Indices 1 2 3 4 5 6 
#
# 1 0.011987 -0.007111 -0.004970 0.000000 -0.005844 0.000000
# 2 -0.007111 0.022920 0.003461 0.000000 0.005323 0.000000
# 3 -0.004970 0.003461 0.019491 0.000000 -0.000528 0.000000
# 4 0.000000 0.000000 0.000000 0.039824 0.000000 0.008609
# 5 -0.005844 0.005323 -0.000528 0.000000 0.034389 0.000000
# 6 0.000000 0.000000 0.000000 0.008609 0.000000 0.039776
#
#
# Mechanical properties :
#
#
# Convention : Reuss Voigt Hill
#
# Bulk Modulus (GPa) = 26.91214 37.49409 32.20312
# Shear Modulus (GPa) = 25.25095 28.94265 27.09680
#
# Velocity S-wave (km/s) = 3.53726 3.78702 3.66427
# Velocity P-wave (km/s) = 5.47890 6.14010 5.81890
#
# Compressibility (1/GPa) = 0.03715795
#
# Stress axis : x y z
#
# Youngs Moduli (GPa) = 83.42586 43.63002 51.30573
#
# Poissons Ratio (x) = 0.31024 0.25498
# Poissons Ratio (y) = 0.59322 -0.17755
# Poissons Ratio (z) = 0.41461 -0.15099
#
# Static dielectric constant tensor:
#      x y z
#    x 3.791270 0.000000 0.078260 
#    y 0.000000 3.678780 0.000000 
#    z 0.078260 0.000000 3.659770 
# 
# 
# High freq. dielectric constant tensor:
#      x y z
#    x 1.795500 0.000000 0.007310 
#    y 0.000000 1.790270 0.000000 
#    z 0.007310 0.000000 1.785850 
# 
# From -- ./inp_files/36330.got.cif
#   From: 2010.06.25/outbox.cif.g09.slc.cpg/sg10_19_cif.got.tgz:36330.got - 2010.06.27 22:07:45.
