data_PCOD8066858
_publ_section_title
;
Structure prediction by ZEFSAII (Michael W. Deem and Ramdas Pophale) SiO2 
 PCOD8066858
Probable space group: P 2/M
;
_chemical_formula_sum "Si O2"
_cell_formula_units_Z 28
_cell_length_a 29.023635
_cell_length_b 9.145724
_cell_length_c 9.615592
_cell_angle_alpha 90.000000
_cell_angle_beta 33.196020
_cell_angle_gamma 90.000000
_cell_volume 1397.442956
_symmetry_space_group_name_H-M "P 2/M"
_symmetry_group_IT_number 10
_symmetry_cell_setting 'monoclinic'
loop_
_space_group_symop_operation_xyz
x,y,z
-x,y,-z
-x,-y,-z
x,-y,z
loop_
_atom_site_type_symbol
_atom_site_label
_atom_site_fract_x
_atom_site_fract_y
_atom_site_fract_z
Si Si1 0.166572 0.167356 0.541257
Si Si2 0.884661 0.168495 0.016868
Si Si3 0.481755 0.329241 0.888741
Si Si4 0.195691 0.331493 0.021216
Si Si5 0.942279 0.330572 0.398276
Si Si6 0.373796 0.670056 0.692830
Si Si7 0.357500 0.172706 0.010890
O O1 0.096853 0.265153 0.642794
O O2 0.259697 0.217741 0.263227
O O3 0.150443 0.000000 0.538643
O O4 0.156197 0.190485 0.730372
O O5 0.816560 0.231843 0.082306
O O6 0.971109 0.254519 0.781902
O O7 0.902402 0.000000 0.938790
O O8 0.459268 0.500000 0.940089
O O9 0.562623 0.291579 0.591243
O O10 0.500000 0.278862 0.000000
O O11 0.402337 0.239332 0.032921
O O12 0.200921 0.500000 0.961450
O O13 0.119761 0.303233 0.317707
O O14 0.281483 0.281666 0.877402
O O15 0.959655 0.500000 0.328204
O O16 0.377252 0.500000 0.724392
O O17 0.398520 0.760411 0.767855
O O18 0.370003 0.000000 0.980247
#
# Coordination Sequence:
#
# PCOD8066858 Si02
#       7
#     4   4   4   4   4   4   4
#     4  10  23  41  59  85 121 159 198 243 294 353
#     4  11  24  39  58  85 121 160 197 242 301 355
#     4  10  23  41  64  93 123 156 194 239 295 354
#     4  10  22  39  60  88 119 153 199 249 292 345
#     4  11  22  39  62  88 116 152 202 250 295 348
#     4  10  21  41  64  88 120 158 198 243 293 348
#     4  11  23  40  63  90 121 158 200 242 291 349
#
# _framework density 20.036595999999999
#
# number of rings (size 3 to 8) (size 9 to 14) (size 15 to 20)
#    0.000    1.571    1.429    2.571    2.000    9.429 
#    0.000    0.000    0.000    0.000    0.000    0.000 
#    0.000    0.000    0.000    0.000    0.000    0.000 
#
# Total GULP energy -347401.720494 kJ/mol
# GULP energy per Si atom -12407.204303 kJ/mol
# Density = 1.999099 g / cm^3
# Si number density = 20.036596 Si / 1000 Ang^3
#
#
#
# Elastic Constant Matrix: (Units=GPa)
#
#
# Indices 1 2 3 4 5 6 
#
# 1 121.3937 49.0837 18.5360 0.0000 10.6031 0.0000
# 2 49.0837 76.3874 22.2492 0.0000 5.7212 0.0000
# 3 18.5360 22.2492 57.8870 0.0000 1.4524 0.0000
# 4 0.0000 0.0000 0.0000 24.6837 0.0000 8.1483
# 5 10.6031 5.7212 1.4524 0.0000 27.7199 0.0000
# 6 0.0000 0.0000 0.0000 8.1483 0.0000 22.7337
#
#
#
# Elastic Compliance Matrix: (Units=1/GPa)
#
#
# Indices 1 2 3 4 5 6 
#
# 1 0.011398 -0.006829 -0.000952 0.000000 -0.002900 0.000000
# 2 -0.006829 0.019046 -0.005107 0.000000 -0.001051 0.000000
# 3 -0.000952 -0.005107 0.019533 0.000000 0.000395 0.000000
# 4 0.000000 0.000000 0.000000 0.045949 0.000000 -0.016469
# 5 -0.002900 -0.001051 0.000395 0.000000 0.037381 0.000000
# 6 0.000000 0.000000 0.000000 -0.016469 0.000000 0.049890
#
#
# Mechanical properties :
#
#
# Convention : Reuss Voigt Hill
#
# Bulk Modulus (GPa) = 41.32321 48.37843 44.85082
# Shear Modulus (GPa) = 23.03724 26.08075 24.55899
#
# Velocity S-wave (km/s) = 3.39449 3.61176 3.50481
# Velocity P-wave (km/s) = 6.00267 6.44907 6.22987
#
# Compressibility (1/GPa) = 0.02419947
#
# Stress axis : x y z
#
# Youngs Moduli (GPa) = 87.73749 52.50552 51.19557
#
# Poissons Ratio (x) = 0.35857 0.04874
# Poissons Ratio (y) = 0.59918 0.26146
# Poissons Ratio (z) = 0.08353 0.26815
#
# Static dielectric constant tensor:
#      x y z
#    x 3.715880 0.000000 -0.029290 
#    y 0.000000 3.657030 0.000000 
#    z -0.029290 0.000000 3.679630 
# 
# 
# High freq. dielectric constant tensor:
#      x y z
#    x 1.793770 0.000000 -0.000430 
#    y 0.000000 1.780280 0.000000 
#    z -0.000430 0.000000 1.789370 
# 
# From -- ./inp_files/37057.got.cif
#   From: 2010.06.25/outbox.cif.g09.slc.cpg/sg10_19_cif.got.tgz:37057.got - 2010.06.27 22:07:45.
