data_PCOD8066505
_publ_section_title
;
Structure prediction by ZEFSAII (Michael W. Deem and Ramdas Pophale) SiO2 
 PCOD8066505
Probable space group: P 2/M
;
_chemical_formula_sum "Si O2"
_cell_formula_units_Z 32
_cell_length_a 12.163615
_cell_length_b 13.719287
_cell_length_c 14.563194
_cell_angle_alpha 90.000000
_cell_angle_beta 140.093817
_cell_angle_gamma 90.000000
_cell_volume 1559.083758
_symmetry_space_group_name_H-M "P 2/M"
_symmetry_group_IT_number 10
_symmetry_cell_setting 'monoclinic'
loop_
_space_group_symop_operation_xyz
x,y,z
-x,y,-z
-x,-y,-z
x,-y,z
loop_
_atom_site_type_symbol
_atom_site_label
_atom_site_fract_x
_atom_site_fract_y
_atom_site_fract_z
Si Si1 0.018461 0.891772 0.179354
Si Si2 0.092690 0.698925 0.314337
Si Si3 0.212777 0.387066 0.202204
Si Si4 0.755793 0.607326 0.172680
Si Si5 0.511987 0.341850 0.863669
Si Si6 0.605471 0.108168 0.653002
Si Si7 0.265276 0.219471 0.104811
Si Si8 0.588335 0.393303 0.402637
O O1 0.040622 0.813011 0.274916
O O2 0.193942 0.896491 0.237126
O O3 0.973701 0.000000 0.189682
O O4 0.874464 0.859455 0.014184
O O5 0.109777 0.653025 0.223836
O O6 0.270255 0.687953 0.483224
O O7 0.944093 0.647014 0.275239
O O8 0.161254 0.500000 0.148144
O O9 0.173557 0.317028 0.088844
O O10 0.416348 0.378544 0.352859
O O11 0.773788 0.500000 0.228227
O O12 0.659258 0.676474 0.185453
O O13 0.644322 0.594813 0.008679
O O14 0.618246 0.243359 0.909465
O O15 0.464248 0.393228 0.737800
O O16 0.500000 0.153815 0.500000
O O17 0.592523 0.177495 0.732788
O O18 0.531486 0.000000 0.626262
O O19 0.666778 0.500000 0.475984
#
# Coordination Sequence:
#
# PCOD8066505 Si02
#       8
#     4   4   4   4   4   4   4   4
#     4  11  24  41  60  87 122 158 201 258 312 357
#     4  12  23  38  60  89 120 162 209 248 302 366
#     4  10  22  37  57  89 130 165 193 239 300 366
#     4  11  22  40  62  87 124 161 208 257 299 358
#     4  10  22  38  61  86 121 162 202 248 300 350
#     4  10  22  38  63  95 126 162 202 252 311 372
#     4  11  21  39  63  88 121 164 206 245 299 372
#     4  10  21  38  60  88 125 165 199 239 297 365
#
# _framework density 20.524875999999999
#
# number of rings (size 3 to 8) (size 9 to 14) (size 15 to 20)
#    0.000    1.375    2.500    3.750    3.500    3.500 
#    0.000    1.875    0.000    2.250    0.000    0.875 
#    0.000    0.000    0.000    0.000    0.000    0.000 
#
# Total GULP energy -396597.475440 kJ/mol
# GULP energy per Si atom -12393.671107 kJ/mol
# Density = 2.047816 g / cm^3
# Si number density = 20.524876 Si / 1000 Ang^3
#
#
#
# Elastic Constant Matrix: (Units=GPa)
#
#
# Indices 1 2 3 4 5 6 
#
# 1 108.0130 26.6688 13.4956 0.0000 14.9524 0.0000
# 2 26.6688 118.6938 36.4324 0.0000 -0.0949 0.0000
# 3 13.4956 36.4324 86.0339 0.0000 8.4974 0.0000
# 4 0.0000 0.0000 0.0000 31.7658 0.0000 0.0770
# 5 14.9524 -0.0949 8.4974 0.0000 26.1666 0.0000
# 6 0.0000 0.0000 0.0000 0.0770 0.0000 11.8068
#
#
#
# Elastic Compliance Matrix: (Units=1/GPa)
#
#
# Indices 1 2 3 4 5 6 
#
# 1 0.010701 -0.002390 -0.000064 0.000000 -0.006103 0.000000
# 2 -0.002390 0.010268 -0.004248 0.000000 0.002782 0.000000
# 3 -0.000064 -0.004248 0.013875 0.000000 -0.004485 0.000000
# 4 0.000000 0.000000 0.000000 0.031481 0.000000 -0.000205
# 5 -0.006103 0.002782 -0.004485 0.000000 0.043170 0.000000
# 6 0.000000 0.000000 0.000000 -0.000205 0.000000 0.084698
#
#
# Mechanical properties :
#
#
# Convention : Reuss Voigt Hill
#
# Bulk Modulus (GPa) = 46.63973 51.77049 49.20511
# Shear Modulus (GPa) = 23.28353 29.69077 26.48715
#
# Velocity S-wave (km/s) = 3.37175 3.80751 3.59624
# Velocity P-wave (km/s) = 6.15882 6.67889 6.42412
#
# Compressibility (1/GPa) = 0.02144095
#
# Stress axis : x y z
#
# Youngs Moduli (GPa) = 93.44969 97.38878 72.07079
#
# Poissons Ratio (x) = 0.23272 0.00461
# Poissons Ratio (y) = 0.22331 0.30617
# Poissons Ratio (z) = 0.00597 0.41372
#
# Static dielectric constant tensor:
#      x y z
#    x 3.621860 0.000000 0.099280 
#    y 0.000000 4.052110 0.000000 
#    z 0.099280 0.000000 3.705710 
# 
# 
# High freq. dielectric constant tensor:
#      x y z
#    x 1.774050 0.000000 0.010260 
#    y 0.000000 1.795400 0.000000 
#    z 0.010260 0.000000 1.810750 
# 
# From -- ./inp_files/65109.got.cif
#   From: 2010.06.25/outbox.cif.g09.slc.cpg/sg10_33_cif.got.tgz:65109.got - 2010.06.27 22:07:45.
