data_PCOD8066959
_publ_section_title
;
Structure prediction by ZEFSAII (Michael W. Deem and Ramdas Pophale) SiO2 
 PCOD8066959
Probable space group: P 2/M
;
_chemical_formula_sum "Si O2"
_cell_formula_units_Z 28
_cell_length_a 7.685659
_cell_length_b 11.792541
_cell_length_c 16.390082
_cell_angle_alpha 90.000000
_cell_angle_beta 111.369915
_cell_angle_gamma 90.000000
_cell_volume 1383.358201
_symmetry_space_group_name_H-M "P 2/M"
_symmetry_group_IT_number 10
_symmetry_cell_setting 'monoclinic'
loop_
_space_group_symop_operation_xyz
x,y,z
-x,y,-z
-x,-y,-z
x,-y,z
loop_
_atom_site_type_symbol
_atom_site_label
_atom_site_fract_x
_atom_site_fract_y
_atom_site_fract_z
Si Si1 0.126610 0.365782 0.596602
Si Si2 0.782197 0.122516 0.970586
Si Si3 0.468545 0.703817 0.146238
Si Si4 0.937598 0.294395 0.729537
Si Si5 0.210060 0.867810 0.841273
Si Si6 0.690805 0.500000 0.954808
Si Si7 0.456281 0.629440 0.323652
Si Si8 0.005251 0.500000 0.137213
O O1 0.119289 0.500000 0.608173
O O2 0.339975 0.328068 0.611571
O O3 0.000000 0.325090 0.500000
O O4 0.052367 0.308922 0.665953
O O5 0.707054 0.212703 0.893878
O O6 0.694491 0.000000 0.933310
O O7 0.733983 0.150832 0.055492
O O8 0.000000 0.117806 0.000000
O O9 0.652507 0.780798 0.180712
O O10 0.446831 0.609459 0.071448
O O11 0.453761 0.633873 0.226114
O O12 0.714652 0.293891 0.670911
O O13 0.001705 0.174731 0.781289
O O14 0.982374 0.391228 0.802857
O O15 0.230485 0.000000 0.819403
O O16 0.832516 0.500000 0.902304
O O17 0.804757 0.500000 0.058615
O O18 0.419558 0.500000 0.345360
#
# Coordination Sequence:
#
# PCOD8066959 Si02
#       8
#     4   4   4   4   4   2   4   2
#     4  10  22  39  63  96 130 159 194 242 306 384
#     4  10  22  38  55  77 114 164 218 264 300 343
#     4  12  20  37  57  83 122 161 203 257 302 352
#     4  12  20  40  65  88 127 165 201 253 312 361
#     4  11  25  40  58  85 117 162 216 262 303 355
#     4  11  24  35  55  90 127 168 214 249 296 372
#     4  11  21  38  61  95 128 158 198 243 301 375
#     4  11  22  35  58  91 125 169 208 245 303 362
#
# _framework density 20.240601000000002
#
# number of rings (size 3 to 8) (size 9 to 14) (size 15 to 20)
#    0.000    1.000    5.000    2.571    2.000    2.286 
#    0.000    5.000    0.000    0.429    0.000    1.000 
#    0.000    0.000    0.000    0.000    0.000    0.000 
#
# Total GULP energy -347035.816758 kJ/mol
# GULP energy per Si atom -12394.136313 kJ/mol
# Density = 2.019453 g / cm^3
# Si number density = 20.240601 Si / 1000 Ang^3
#
#
#
# Elastic Constant Matrix: (Units=GPa)
#
#
# Indices 1 2 3 4 5 6 
#
# 1 109.4146 40.0886 28.5778 0.0000 24.2154 0.0000
# 2 40.0886 90.6840 27.0091 0.0000 17.3482 0.0000
# 3 28.5778 27.0091 76.3656 0.0000 23.9962 0.0000
# 4 0.0000 0.0000 0.0000 13.4467 0.0000 -0.9075
# 5 24.2154 17.3482 23.9962 0.0000 35.2444 0.0000
# 6 0.0000 0.0000 0.0000 -0.9075 0.0000 20.5190
#
#
#
# Elastic Compliance Matrix: (Units=1/GPa)
#
#
# Indices 1 2 3 4 5 6 
#
# 1 0.012152 -0.003897 -0.001461 0.000000 -0.005436 0.000000
# 2 -0.003897 0.014021 -0.002765 0.000000 -0.002342 0.000000
# 3 -0.001461 -0.002765 0.017653 0.000000 -0.009654 0.000000
# 4 0.000000 0.000000 0.000000 0.074590 0.000000 0.003299
# 5 -0.005436 -0.002342 -0.009654 0.000000 0.039834 0.000000
# 6 0.000000 0.000000 0.000000 0.003299 0.000000 0.048881
#
#
# Mechanical properties :
#
#
# Convention : Reuss Voigt Hill
#
# Bulk Modulus (GPa) = 36.25685 51.97948 44.11817
# Shear Modulus (GPa) = 21.49867 25.89460 23.69663
#
# Velocity S-wave (km/s) = 3.26261 3.58067 3.42533
# Velocity P-wave (km/s) = 5.66962 6.54457 6.12275
#
# Compressibility (1/GPa) = 0.02758099
#
# Stress axis : x y z
#
# Youngs Moduli (GPa) = 82.29006 71.31905 56.64665
#
# Poissons Ratio (x) = 0.27792 0.08276
# Poissons Ratio (y) = 0.32068 0.15663
# Poissons Ratio (z) = 0.12023 0.19720
#
# Static dielectric constant tensor:
#      x y z
#    x 3.927360 0.000000 0.461980 
#    y 0.000000 3.827360 0.000000 
#    z 0.461980 0.000000 3.111660 
# 
# 
# High freq. dielectric constant tensor:
#      x y z
#    x 1.806840 0.000000 0.012470 
#    y 0.000000 1.770510 0.000000 
#    z 0.012470 0.000000 1.766840 
# 
# From -- ./inp_files/61041.got.cif
#   From: 2010.06.25/outbox.cif.g09.slc.cpg/sg10_31_cif.got.tgz:61041.got - 2010.06.27 22:07:45.
