data_PCOD8066059
_publ_section_title
;
Structure prediction by ZEFSAII (Michael W. Deem and Ramdas Pophale) SiO2 
 PCOD8066059
Probable space group: P 2/M
;
_chemical_formula_sum "Si O2"
_cell_formula_units_Z 28
_cell_length_a 9.189302
_cell_length_b 14.303552
_cell_length_c 17.627087
_cell_angle_alpha 90.000000
_cell_angle_beta 38.827441
_cell_angle_gamma 90.000000
_cell_volume 1452.641930
_symmetry_space_group_name_H-M "P 2/M"
_symmetry_group_IT_number 10
_symmetry_cell_setting 'monoclinic'
loop_
_space_group_symop_operation_xyz
x,y,z
-x,y,-z
-x,-y,-z
x,-y,z
loop_
_atom_site_type_symbol
_atom_site_label
_atom_site_fract_x
_atom_site_fract_y
_atom_site_fract_z
Si Si1 0.729256 0.000000 0.312527
Si Si2 0.814008 0.000000 0.444505
Si Si3 0.468584 0.604248 0.923172
Si Si4 0.154042 0.748649 0.239459
Si Si5 0.101643 0.248892 0.084622
Si Si6 0.357402 0.168878 0.750803
Si Si7 0.535287 0.890528 0.125935
Si Si8 0.151534 0.802872 0.509069
O O1 0.882783 0.000000 0.327071
O O2 0.460411 0.000000 0.440908
O O3 0.781499 0.907395 0.242922
O O4 0.912410 0.910719 0.448384
O O5 0.458431 0.500000 0.892390
O O6 0.685614 0.660958 0.800713
O O7 0.500000 0.600667 0.000000
O O8 0.232084 0.659597 0.999071
O O9 0.072650 0.742405 0.186500
O O10 0.297724 0.844324 0.193346
O O11 0.925354 0.744800 0.385307
O O12 0.843227 0.246157 0.152525
O O13 0.246274 0.156069 0.004736
O O14 0.449571 0.122771 0.789902
O O15 0.575416 0.213280 0.617268
O O16 0.530735 0.000000 0.107986
O O17 0.000000 0.767978 0.500000
#
# Coordination Sequence:
#
# PCOD8066059 Si02
#       8
#     2   2   4   4   4   4   4   4
#     4   9  18  32  45  71  99 147 188 224 262 298
#     4   9  19  30  48  67 103 140 195 234 247 292
#     4   8  16  36  63  86 108 135 174 225 277 331
#     4  10  21  36  56  85 108 137 188 228 270 325
#     4  10  22  35  55  85 109 139 184 229 275 321
#     4  11  21  35  52  75 112 150 188 222 267 325
#     4  11  22  36  53  75 112 155 189 221 268 321
#     4  11  21  34  53  76 105 151 187 225 272 319
#
# _framework density 19.275226
#
# number of rings (size 3 to 8) (size 9 to 14) (size 15 to 20)
#    0.000    2.000    2.143    2.786    2.000    3.429 
#    0.000    0.000    0.000    8.143    0.000    4.000 
#    0.000    0.000    0.000    0.000    0.000    0.000 
#
# Total GULP energy -347150.411373 kJ/mol
# GULP energy per Si atom -12398.228978 kJ/mol
# Density = 1.923135 g / cm^3
# Si number density = 19.275226 Si / 1000 Ang^3
#
#
#
# Elastic Constant Matrix: (Units=GPa)
#
#
# Indices 1 2 3 4 5 6 
#
# 1 33.7455 4.6081 1.9375 0.0000 -5.6042 0.0000
# 2 4.6081 111.0828 31.6387 0.0000 -13.5935 0.0000
# 3 1.9375 31.6387 102.3612 0.0000 -10.7026 0.0000
# 4 0.0000 0.0000 0.0000 10.8335 0.0000 -1.1779
# 5 -5.6042 -13.5935 -10.7026 0.0000 35.2137 0.0000
# 6 0.0000 0.0000 0.0000 -1.1779 0.0000 15.8702
#
#
#
# Elastic Compliance Matrix: (Units=1/GPa)
#
#
# Indices 1 2 3 4 5 6 
#
# 1 0.030492 -0.000739 0.000133 0.000000 0.004608 0.000000
# 2 -0.000739 0.010201 -0.002830 0.000000 0.002960 0.000000
# 3 0.000133 -0.002830 0.010875 0.000000 0.002234 0.000000
# 4 0.000000 0.000000 0.000000 0.093058 0.000000 0.006907
# 5 0.004608 0.002960 0.002234 0.000000 0.030953 0.000000
# 6 0.000000 0.000000 0.000000 0.006907 0.000000 0.063524
#
#
# Mechanical properties :
#
#
# Convention : Reuss Voigt Hill
#
# Bulk Modulus (GPa) = 22.37267 35.95089 29.16178
# Shear Modulus (GPa) = 19.16643 26.31715 22.74179
#
# Velocity S-wave (km/s) = 3.15676 3.69905 3.43861
# Velocity P-wave (km/s) = 4.99189 6.07749 5.56124
#
# Compressibility (1/GPa) = 0.04469739
#
# Stress axis : x y z
#
# Youngs Moduli (GPa) = 32.79535 98.02841 91.95414
#
# Poissons Ratio (x) = 0.07244 -0.01223
# Poissons Ratio (y) = 0.02423 0.26019
# Poissons Ratio (z) = -0.00436 0.27738
#
# Static dielectric constant tensor:
#      x y z
#    x 3.390780 0.000000 0.070380 
#    y 0.000000 3.505190 0.000000 
#    z 0.070380 0.000000 3.676370 
# 
# 
# High freq. dielectric constant tensor:
#      x y z
#    x 1.744260 0.000000 0.002110 
#    y 0.000000 1.705340 0.000000 
#    z 0.002110 0.000000 1.758390 
# 
# From -- ./inp_files/24961.got.cif
#   From: 2010.06.25/outbox.cif.g09.slc.cpg/sg10_13_cif.got.tgz:24961.got - 2010.06.27 22:07:45.
