data_PCOD8066139
_publ_section_title
;
Structure prediction by ZEFSAII (Michael W. Deem and Ramdas Pophale) SiO2 
 PCOD8066139
Probable space group: P 2/M
;
_chemical_formula_sum "Si O2"
_cell_formula_units_Z 32
_cell_length_a 23.137198
_cell_length_b 9.152571
_cell_length_c 15.027104
_cell_angle_alpha 90.000000
_cell_angle_beta 149.425071
_cell_angle_gamma 90.000000
_cell_volume 1618.679207
_symmetry_space_group_name_H-M "P 2/M"
_symmetry_group_IT_number 10
_symmetry_cell_setting 'monoclinic'
loop_
_space_group_symop_operation_xyz
x,y,z
-x,y,-z
-x,-y,-z
x,-y,z
loop_
_atom_site_type_symbol
_atom_site_label
_atom_site_fract_x
_atom_site_fract_y
_atom_site_fract_z
Si Si1 0.774677 0.665873 0.350186
Si Si2 0.427387 0.166424 0.992511
Si Si3 0.005066 0.169702 0.402532
Si Si4 0.224156 0.661943 0.447620
Si Si5 0.424302 0.827725 0.314950
Si Si6 0.007980 0.172985 0.110452
Si Si7 0.534906 0.669196 0.297124
Si Si8 0.167158 0.828656 0.976120
O O1 0.773932 0.500000 0.312793
O O2 0.697509 0.767346 0.186159
O O3 0.901397 0.728552 0.518100
O O4 0.728130 0.671390 0.388887
O O5 0.413400 0.000000 0.006718
O O6 0.500000 0.175424 0.000000
O O7 0.488788 0.261371 0.146747
O O8 0.000000 0.208675 0.500000
O O9 0.887977 0.206220 0.194157
O O10 0.037019 0.000000 0.431048
O O11 0.172583 0.500000 0.362382
O O12 0.130155 0.784296 0.309826
O O13 0.329005 0.690473 0.520218
O O14 0.500000 0.786073 0.500000
O O15 0.482645 0.750612 0.310515
O O16 0.423247 0.000000 0.296279
O O17 0.295274 0.765879 0.152743
O O18 0.909412 0.237369 0.044567
O O19 0.000539 0.000000 0.099335
O O20 0.000000 0.237429 0.000000
O O21 0.500843 0.500000 0.254436
O O22 0.173439 0.000000 0.999163
#
# Coordination Sequence:
#
# PCOD8066139 Si02
#       8
#     4   4   4   4   4   4   4   4
#     4  11  22  38  59  85 122 159 197 246 305 368
#     4  11  23  38  60  90 121 158 202 245 297 366
#     4  10  21  37  59  85 117 160 202 248 303 359
#     4  10  22  39  59  86 123 160 195 245 307 366
#     4  10  23  42  65  90 121 164 213 263 309 361
#     4  10  21  36  62  92 117 149 195 250 305 363
#     4  11  24  42  62  88 125 165 206 253 310 367
#     4   9  19  38  58  86 124 154 193 253 308 352
#
# _framework density 19.769204999999999
#
# number of rings (size 3 to 8) (size 9 to 14) (size 15 to 20)
#    0.000    1.750    2.500    1.125    3.500    2.750 
#    0.000    1.250    0.000    0.000    0.000    0.000 
#    0.000    0.000    0.000    0.000    0.000    0.000 
#
# Total GULP energy -396798.493190 kJ/mol
# GULP energy per Si atom -12399.952912 kJ/mol
# Density = 1.972421 g / cm^3
# Si number density = 19.769205 Si / 1000 Ang^3
#
#
#
# Elastic Constant Matrix: (Units=GPa)
#
#
# Indices 1 2 3 4 5 6 
#
# 1 184.4785 178.9431 94.9558 0.0000 -0.2937 0.0000
# 2 178.9431 419.0438 135.0074 0.0000 -0.9735 0.0000
# 3 94.9558 135.0074 148.3740 0.0000 6.3750 0.0000
# 4 0.0000 0.0000 0.0000 19.1554 0.0000 1.0399
# 5 -0.2937 -0.9735 6.3750 0.0000 32.7032 0.0000
# 6 0.0000 0.0000 0.0000 1.0399 0.0000 27.1094
#
#
#
# Elastic Compliance Matrix: (Units=1/GPa)
#
#
# Indices 1 2 3 4 5 6 
#
# 1 0.010567 -0.003284 -0.003806 0.000000 0.000739 0.000000
# 2 -0.003284 0.004413 -0.001934 0.000000 0.000479 0.000000
# 3 -0.003806 -0.001934 0.011032 0.000000 -0.002242 0.000000
# 4 0.000000 0.000000 0.000000 0.052313 0.000000 -0.002007
# 5 0.000739 0.000479 -0.002242 0.000000 0.031036 0.000000
# 6 0.000000 0.000000 0.000000 -0.002007 0.000000 0.036965
#
#
# Mechanical properties :
#
#
# Convention : Reuss Voigt Hill
#
# Bulk Modulus (GPa) = 125.58361 174.41211 149.99786
# Shear Modulus (GPa) = 29.93510 38.65962 34.29736
#
# Velocity S-wave (km/s) = 3.89553 4.42695 4.16972
# Velocity P-wave (km/s) = 9.15949 10.70263 9.96099
#
# Compressibility (1/GPa) = 0.00796282
#
# Stress axis : x y z
#
# Youngs Moduli (GPa) = 94.63846 226.59218 90.64919
#
# Poissons Ratio (x) = 0.74422 0.34497
# Poissons Ratio (y) = 0.31083 0.17534
# Poissons Ratio (z) = 0.36015 0.43829
#
# Static dielectric constant tensor:
#      x y z
#    x 3.744070 0.000000 0.027020 
#    y 0.000000 3.460790 0.000000 
#    z 0.027020 0.000000 3.665990 
# 
# 
# High freq. dielectric constant tensor:
#      x y z
#    x 1.775740 0.000000 0.001450 
#    y 0.000000 1.755970 0.000000 
#    z 0.001450 0.000000 1.774900 
# 
# From -- ./inp_files/71619.got.cif
#   From: 2010.06.25/outbox.cif.g09.slc.cpg/sg10_36_cif.got.tgz:71619.got - 2010.06.27 22:07:45.
