data_PCOD8066546
_publ_section_title
;
Structure prediction by ZEFSAII (Michael W. Deem and Ramdas Pophale) SiO2 
 PCOD8066546
Probable space group: P 2/M
;
_chemical_formula_sum "Si O2"
_cell_formula_units_Z 24
_cell_length_a 16.792946
_cell_length_b 9.041096
_cell_length_c 13.840945
_cell_angle_alpha 90.000000
_cell_angle_beta 144.740721
_cell_angle_gamma 90.000000
_cell_volume 1213.104736
_symmetry_space_group_name_H-M "P 2/M"
_symmetry_group_IT_number 10
_symmetry_cell_setting 'monoclinic'
loop_
_space_group_symop_operation_xyz
x,y,z
-x,y,-z
-x,-y,-z
x,-y,z
loop_
_atom_site_type_symbol
_atom_site_label
_atom_site_fract_x
_atom_site_fract_y
_atom_site_fract_z
Si Si1 0.772734 0.669406 0.683449
Si Si2 0.736518 0.829473 0.848656
Si Si3 0.903566 0.675663 0.489385
Si Si4 0.033988 0.669135 0.817865
Si Si5 0.590761 0.674557 0.181622
Si Si6 0.551121 0.170952 0.336587
O O1 0.723250 0.500000 0.638340
O O2 0.762137 0.737960 0.777945
O O3 0.680898 0.754626 0.515505
O O4 0.930217 0.680567 0.805063
O O5 0.579527 0.807457 0.724067
O O6 0.770865 0.000000 0.862539
O O7 0.833550 0.769388 0.030014
O O8 0.903754 0.500000 0.485978
O O9 0.747093 0.732487 0.320817
O O10 0.000000 0.741071 0.500000
O O11 0.962114 0.730904 0.649854
O O12 0.082456 0.500000 0.851001
O O13 0.587907 0.500000 0.197189
O O14 0.522333 0.752958 0.205654
O O15 0.500000 0.720181 0.000000
O O16 0.584431 0.000000 0.352654
#
# Coordination Sequence:
#
# PCOD8066546 Si02
#       6
#     4   4   4   4   4   4
#     4  11  22  40  64  90 118 152 202 253 299 351
#     4  11  25  40  57  87 123 160 203 242 291 359
#     4   9  18  35  59  89 120 149 187 243 300 347
#     4  10  21  38  61  89 121 154 196 248 299 351
#     4  10  21  38  63  92 118 151 199 247 294 351
#     4  11  24  41  60  85 124 164 197 242 298 354
#
# _framework density 19.783946
#
# number of rings (size 3 to 8) (size 9 to 14) (size 15 to 20)
#    0.000    1.667    1.667    2.500    2.333    8.333 
#    0.000    0.000    0.000    1.000    0.000    0.000 
#    0.000    0.000    0.000    0.000    0.000    0.000 
#
# Total GULP energy -297717.127130 kJ/mol
# GULP energy per Si atom -12404.880297 kJ/mol
# Density = 1.973892 g / cm^3
# Si number density = 19.783946 Si / 1000 Ang^3
#
#
#
# Elastic Constant Matrix: (Units=GPa)
#
#
# Indices 1 2 3 4 5 6 
#
# 1 92.1198 28.1761 13.7401 0.0000 -17.2210 0.0000
# 2 28.1761 46.9563 30.0407 0.0000 -1.2951 0.0000
# 3 13.7401 30.0407 88.4018 0.0000 -16.1855 0.0000
# 4 0.0000 0.0000 0.0000 13.8125 0.0000 10.8918
# 5 -17.2210 -1.2951 -16.1855 0.0000 31.1072 0.0000
# 6 0.0000 0.0000 0.0000 10.8918 0.0000 17.5293
#
#
#
# Elastic Compliance Matrix: (Units=1/GPa)
#
#
# Indices 1 2 3 4 5 6 
#
# 1 0.015623 -0.011118 0.003149 0.000000 0.009824 0.000000
# 2 -0.011118 0.035598 -0.012406 0.000000 -0.011128 0.000000
# 3 0.003149 -0.012406 0.016870 0.000000 0.010004 0.000000
# 4 0.000000 0.000000 0.000000 0.141946 0.000000 -0.088197
# 5 0.009824 -0.011128 0.010004 0.000000 0.042328 0.000000
# 6 0.000000 0.000000 0.000000 -0.088197 0.000000 0.111848
#
#
# Mechanical properties :
#
#
# Convention : Reuss Voigt Hill
#
# Bulk Modulus (GPa) = 36.57679 41.26577 38.92128
# Shear Modulus (GPa) = 12.07504 22.85787 17.46646
#
# Velocity S-wave (km/s) = 2.47320 3.40277 2.97452
# Velocity P-wave (km/s) = 5.16564 6.02843 5.61363
#
# Compressibility (1/GPa) = 0.02733975
#
# Stress axis : x y z
#
# Youngs Moduli (GPa) = 64.00844 28.09161 59.27607
#
# Poissons Ratio (x) = 0.31232 -0.18664
# Poissons Ratio (y) = 0.71164 0.73539
# Poissons Ratio (z) = -0.20154 0.34851
#
# Static dielectric constant tensor:
#      x y z
#    x 3.691140 0.000000 -0.025770 
#    y 0.000000 3.478470 0.000000 
#    z -0.025770 0.000000 3.728040 
# 
# 
# High freq. dielectric constant tensor:
#      x y z
#    x 1.780290 0.000000 -0.002910 
#    y 0.000000 1.754050 0.000000 
#    z -0.002910 0.000000 1.782920 
# 
# From -- ./inp_files/68798.got.cif
#   From: 2010.06.25/outbox.cif.g09.slc.cpg/sg10_35_cif.got.tgz:68798.got - 2010.06.27 22:07:45.
