data_PCOD8066801
_publ_section_title
;
Structure prediction by ZEFSAII (Michael W. Deem and Ramdas Pophale) SiO2 
 PCOD8066801
Probable space group: P 2/M
;
_chemical_formula_sum "Si O2"
_cell_formula_units_Z 32
_cell_length_a 12.179362
_cell_length_b 8.487937
_cell_length_c 31.859630
_cell_angle_alpha 90.000000
_cell_angle_beta 151.548352
_cell_angle_gamma 90.000000
_cell_volume 1569.114456
_symmetry_space_group_name_H-M "P 2/M"
_symmetry_group_IT_number 10
_symmetry_cell_setting 'monoclinic'
loop_
_space_group_symop_operation_xyz
x,y,z
-x,y,-z
-x,-y,-z
x,-y,z
loop_
_atom_site_type_symbol
_atom_site_label
_atom_site_fract_x
_atom_site_fract_y
_atom_site_fract_z
Si Si1 0.104628 0.317785 0.813790
Si Si2 0.040865 0.180609 0.149928
Si Si3 0.727141 0.186265 0.524481
Si Si4 0.614054 0.683404 0.959458
Si Si5 0.210957 0.813650 0.360925
Si Si6 0.257085 0.684963 0.088980
Si Si7 0.540790 0.316599 0.756866
Si Si8 0.063865 0.814241 0.567053
O O1 0.079430 0.500000 0.817314
O O2 0.992746 0.212492 0.812233
O O3 0.371895 0.272783 0.898745
O O4 0.979527 0.282594 0.728170
O O5 0.243077 0.291286 0.200988
O O6 0.112643 0.000000 0.167768
O O7 0.805744 0.213632 0.046434
O O8 0.810907 0.244214 0.598325
O O9 0.462289 0.234625 0.427541
O O10 0.889560 0.260456 0.542990
O O11 0.744958 0.000000 0.530307
O O12 0.675691 0.500000 0.986341
O O13 0.604924 0.725746 0.906989
O O14 0.169440 0.000000 0.342592
O O15 0.231327 0.500000 0.087785
O O16 0.395706 0.752751 0.175619
O O17 0.000000 0.759284 0.000000
O O18 0.478445 0.500000 0.737571
O O19 0.324758 0.223007 0.666425
O O20 0.000000 0.742516 0.500000
O O21 0.029462 0.000000 0.554446
#
# Coordination Sequence:
#
# PCOD8066801 Si02
#       8
#     4   4   4   4   4   4   4   4
#     4  11  24  38  59  89 121 155 198 249 301 354
#     4  12  25  41  61  85 119 158 202 248 299 357
#     4   8  17  36  59  83 116 158 199 242 296 353
#     4  10  21  40  62  86 121 160 198 239 295 356
#     4   9  18  36  61  84 112 157 204 244 293 351
#     4   9  17  35  63  88 117 160 199 238 295 360
#     4  11  23  40  64  91 122 160 205 250 302 363
#     4  10  22  39  60  88 124 162 202 249 303 358
#
# _framework density 20.39367
#
# number of rings (size 3 to 8) (size 9 to 14) (size 15 to 20)
#    0.000    2.000    1.250    3.000    3.500    2.750 
#    0.000    3.750    0.000    0.000    0.000    0.000 
#    0.000    0.000    0.000    0.000    0.000    0.000 
#
# Total GULP energy -396863.615122 kJ/mol
# GULP energy per Si atom -12401.987973 kJ/mol
# Density = 2.034725 g / cm^3
# Si number density = 20.393670 Si / 1000 Ang^3
#
#
#
# Elastic Constant Matrix: (Units=GPa)
#
#
# Indices 1 2 3 4 5 6 
#
# 1 126.2899 13.1436 45.0334 0.0000 -8.5593 0.0000
# 2 13.1436 26.9008 10.4540 0.0000 -1.2632 0.0000
# 3 45.0334 10.4540 123.6134 0.0000 -8.6068 0.0000
# 4 0.0000 0.0000 0.0000 16.4550 0.0000 -4.7947
# 5 -8.5593 -1.2632 -8.6068 0.0000 30.8426 0.0000
# 6 0.0000 0.0000 0.0000 -4.7947 0.0000 17.7354
#
#
#
# Elastic Compliance Matrix: (Units=1/GPa)
#
#
# Indices 1 2 3 4 5 6 
#
# 1 0.009467 -0.003363 -0.003050 0.000000 0.001638 0.000000
# 2 -0.003363 0.039646 -0.002121 0.000000 0.000099 0.000000
# 3 -0.003050 -0.002121 0.009500 0.000000 0.001718 0.000000
# 4 0.000000 0.000000 0.000000 0.065969 0.000000 0.017834
# 5 0.001638 0.000099 0.001718 0.000000 0.033361 0.000000
# 6 0.000000 0.000000 0.000000 0.017834 0.000000 0.061206
#
#
# Mechanical properties :
#
#
# Convention : Reuss Voigt Hill
#
# Bulk Modulus (GPa) = 24.07090 46.00734 35.03912
# Shear Modulus (GPa) = 19.99485 26.88482 23.43983
#
# Velocity S-wave (km/s) = 3.13460 3.63477 3.39391
# Velocity P-wave (km/s) = 4.99297 6.34224 5.70761
#
# Compressibility (1/GPa) = 0.04154393
#
# Stress axis : x y z
#
# Youngs Moduli (GPa) = 105.62901 25.22347 105.26330
#
# Poissons Ratio (x) = 0.08483 0.32110
# Poissons Ratio (y) = 0.35525 0.22324
# Poissons Ratio (z) = 0.32222 0.05349
#
# Static dielectric constant tensor:
#      x y z
#    x 4.112540 0.000000 -0.067410 
#    y 0.000000 3.291700 0.000000 
#    z -0.067410 0.000000 3.702280 
# 
# 
# High freq. dielectric constant tensor:
#      x y z
#    x 1.810990 0.000000 -0.004380 
#    y 0.000000 1.762550 0.000000 
#    z -0.004380 0.000000 1.803350 
# 
# From -- ./inp_files/95075.got.cif
#   From: 2010.06.25/outbox.cif.g09.slc.cpg/sg10_48_cif.got.tgz:95075.got - 2010.06.27 22:07:45.
