data_PCOD8066977
_publ_section_title
;
Structure prediction by ZEFSAII (Michael W. Deem and Ramdas Pophale) SiO2 
 PCOD8066977
Probable space group: P 2/M
;
_chemical_formula_sum "Si O2"
_cell_formula_units_Z 18
_cell_length_a 8.283098
_cell_length_b 9.917148
_cell_length_c 12.332376
_cell_angle_alpha 90.000000
_cell_angle_beta 58.567016
_cell_angle_gamma 90.000000
_cell_volume 864.376629
_symmetry_space_group_name_H-M "P 2/M"
_symmetry_group_IT_number 10
_symmetry_cell_setting 'monoclinic'
loop_
_space_group_symop_operation_xyz
x,y,z
-x,y,-z
-x,-y,-z
x,-y,z
loop_
_atom_site_type_symbol
_atom_site_label
_atom_site_fract_x
_atom_site_fract_y
_atom_site_fract_z
Si Si1 0.600992 0.152150 0.072264
Si Si2 0.107218 0.846960 0.565292
Si Si3 0.009322 0.150132 0.834356
Si Si4 0.667094 0.649987 0.224582
Si Si5 0.500000 0.281547 0.500000
O O1 0.823355 0.156529 0.971395
O O2 0.536327 0.000000 0.126767
O O3 0.500000 0.202375 0.000000
O O4 0.542654 0.258378 0.186132
O O5 0.972749 0.828802 0.718303
O O6 0.319476 0.801421 0.520641
O O7 0.000000 0.773824 0.500000
O O8 0.133295 0.000000 0.521601
O O9 0.138454 0.270041 0.831230
O O10 0.103085 0.000000 0.817286
O O11 0.703231 0.500000 0.164342
O O12 0.563465 0.629449 0.375706
#
# Coordination Sequence:
#
# PCOD8066977 Si02
#       5
#     4   4   4   4   2
#     4  10  22  38  60  88 119 152 190 241 299 353
#     4   9  18  32  57  89 119 152 196 247 294 352
#     4   9  19  37  58  85 116 149 192 241 298 351
#     4  11  23  39  60  83 116 157 199 243 289 349
#     4  10  22  38  58  82 121 160 199 242 301 350
#
# _framework density 20.824255999999998
#
# number of rings (size 3 to 8) (size 9 to 14) (size 15 to 20)
#    0.000    2.222    0.000    2.000    3.111    6.667 
#    0.000    0.000    0.000    3.333    0.000    0.000 
#    0.000    0.000    0.000    0.000    0.000    0.000 
#
# Total GULP energy -222998.406385 kJ/mol
# GULP energy per Si atom -12388.800355 kJ/mol
# Density = 2.077686 g / cm^3
# Si number density = 20.824256 Si / 1000 Ang^3
#
#
#
# Elastic Constant Matrix: (Units=GPa)
#
#
# Indices 1 2 3 4 5 6 
#
# 1 95.6870 42.1299 22.8776 0.0000 28.3994 0.0000
# 2 42.1299 133.3962 41.9289 0.0000 23.5276 0.0000
# 3 22.8776 41.9289 84.9275 0.0000 20.8554 0.0000
# 4 0.0000 0.0000 0.0000 -4.9233 0.0000 68.9466
# 5 28.3994 23.5276 20.8554 0.0000 37.7940 0.0000
# 6 0.0000 0.0000 0.0000 68.9466 0.0000 -180.2954
#
#
#
# Elastic Compliance Matrix: (Units=1/GPa)
#
#
# Indices 1 2 3 4 5 6 
#
# 1 0.014432 -0.002906 -0.000271 0.000000 -0.008886 0.000000
# 2 -0.002906 0.009901 -0.003618 0.000000 -0.001984 0.000000
# 3 -0.000271 -0.003618 0.015074 0.000000 -0.005862 0.000000
# 4 0.000000 0.000000 0.000000 0.046636 0.000000 0.017834
# 5 -0.008886 -0.001984 -0.005862 0.000000 0.037606 0.000000
# 6 0.000000 0.000000 0.000000 0.017834 0.000000 0.001273
#
#
# Mechanical properties :
#
#
# Convention : Reuss Voigt Hill
#
# Bulk Modulus (GPa) = 38.73393 58.65372 48.69382
# Shear Modulus (GPa) = 33.98605 -15.67999 9.15303
#
# Velocity S-wave (km/s) = 4.04424 -2.74700 2.09879
# Velocity P-wave (km/s) = 6.35992 4.26214 5.41361
#
# Compressibility (1/GPa) = 0.02581716
#
# Stress axis : x y z
#
# Youngs Moduli (GPa) = 69.28905 100.99635 66.34091
#
# Poissons Ratio (x) = 0.29345 0.01798
# Poissons Ratio (y) = 0.20132 0.24005
# Poissons Ratio (z) = 0.01878 0.36545
#
# Static dielectric constant tensor:
#      x y z
#    x 3.872040 0.000000 0.321980 
#    y 0.000000 3.491590 0.000000 
#    z 0.321980 0.000000 4.051970 
# 
# 
# High freq. dielectric constant tensor:
#      x y z
#    x 1.809930 0.000000 0.020030 
#    y 0.000000 1.786490 0.000000 
#    z 0.020030 0.000000 1.827870 
# 
# From -- ./inp_files/22389.got.cif
#   From: 2010.06.25/outbox.cif.g09.slc.cpg/sg10_12_cif.got.tgz:22389.got - 2010.06.27 22:07:45.
