data_PCOD8066958
_publ_section_title
;
Structure prediction by ZEFSAII (Michael W. Deem and Ramdas Pophale) SiO2 
 PCOD8066958
Probable space group: P 2/M
;
_chemical_formula_sum "Si O2"
_cell_formula_units_Z 32
_cell_length_a 20.013899
_cell_length_b 9.335668
_cell_length_c 11.346324
_cell_angle_alpha 90.000000
_cell_angle_beta 53.668151
_cell_angle_gamma 90.000000
_cell_volume 1707.855971
_symmetry_space_group_name_H-M "P 2/M"
_symmetry_group_IT_number 10
_symmetry_cell_setting 'monoclinic'
loop_
_space_group_symop_operation_xyz
x,y,z
-x,y,-z
-x,-y,-z
x,-y,z
loop_
_atom_site_type_symbol
_atom_site_label
_atom_site_fract_x
_atom_site_fract_y
_atom_site_fract_z
Si Si1 0.246108 0.835286 0.314008
Si Si2 0.776134 0.170566 0.394252
Si Si3 0.920619 0.834377 0.649923
Si Si4 0.323468 0.667390 0.034558
Si Si5 0.157124 0.664364 0.073952
Si Si6 0.095449 0.666713 0.882831
Si Si7 0.452717 0.331686 0.717719
Si Si8 0.375555 0.669507 0.555413
O O1 0.243037 0.784335 0.451750
O O2 0.156619 0.805146 0.353446
O O3 0.314167 0.746529 0.169249
O O4 0.271646 0.000000 0.277635
O O5 0.864128 0.237891 0.262831
O O6 0.704410 0.238240 0.390231
O O7 0.779886 0.000000 0.375003
O O8 0.910892 0.754744 0.784004
O O9 0.000000 0.771123 0.500000
O O10 0.933291 0.000000 0.666427
O O11 0.327185 0.500000 0.058753
O O12 0.249211 0.704408 0.021387
O O13 0.407777 0.724337 0.883499
O O14 0.136711 0.500000 0.120769
O O15 0.148088 0.698936 0.945779
O O16 0.100898 0.500000 0.841650
O O17 0.000000 0.712846 0.000000
O O18 0.441039 0.500000 0.722867
O O19 0.550451 0.293983 0.615072
O O20 0.406324 0.274020 0.650009
O O21 0.353973 0.500000 0.576736
#
# Coordination Sequence:
#
# PCOD8066958 Si02
#       8
#     4   4   4   4   4   4   4   4
#     4   9  20  36  49  69 101 138 176 213 258 309
#     4  11  23  37  53  74 107 143 175 212 259 314
#     4   9  18  32  52  72  93 128 173 215 255 301
#     4   9  16  30  53  78 101 129 170 216 259 304
#     4   9  18  32  50  75 103 127 159 209 260 304
#     4  10  22  38  55  77 104 136 173 214 262 316
#     4   8  15  30  56  85 108 133 171 218 263 307
#     4   9  17  33  57  82 108 140 173 210 261 313
#
# _framework density 18.736944000000001
#
# number of rings (size 3 to 8) (size 9 to 14) (size 15 to 20)
#    0.000    2.750    0.000    1.875    1.750    4.000 
#    0.000    5.625    0.000    3.750    0.000    0.000 
#    0.000    0.000    0.000    0.000    0.000    0.000 
#
# Total GULP energy -396738.286042 kJ/mol
# GULP energy per Si atom -12398.071439 kJ/mol
# Density = 1.869430 g / cm^3
# Si number density = 18.736944 Si / 1000 Ang^3
#
#
#
# Elastic Constant Matrix: (Units=GPa)
#
#
# Indices 1 2 3 4 5 6 
#
# 1 46.1123 23.8323 30.2214 0.0000 -1.2808 0.0000
# 2 23.8323 52.8601 52.4854 0.0000 -2.3695 0.0000
# 3 30.2214 52.4854 151.0333 0.0000 -11.5057 0.0000
# 4 0.0000 0.0000 0.0000 18.8375 0.0000 7.0986
# 5 -1.2808 -2.3695 -11.5057 0.0000 26.9952 0.0000
# 6 0.0000 0.0000 0.0000 7.0986 0.0000 16.7222
#
#
#
# Elastic Compliance Matrix: (Units=1/GPa)
#
#
# Indices 1 2 3 4 5 6 
#
# 1 0.028631 -0.011004 -0.001938 0.000000 -0.000434 0.000000
# 2 -0.011004 0.033198 -0.009460 0.000000 -0.001640 0.000000
# 3 -0.001938 -0.009460 0.010569 0.000000 0.003582 0.000000
# 4 0.000000 0.000000 0.000000 0.063195 0.000000 -0.026826
# 5 -0.000434 -0.001640 0.003582 0.000000 0.038406 0.000000
# 6 0.000000 0.000000 0.000000 -0.026826 0.000000 0.071189
#
#
# Mechanical properties :
#
#
# Convention : Reuss Voigt Hill
#
# Bulk Modulus (GPa) = 36.23784 51.45378 43.84581
# Shear Modulus (GPa) = 16.71179 22.07541 19.39360
#
# Velocity S-wave (km/s) = 2.98974 3.43618 3.22070
# Velocity P-wave (km/s) = 5.59467 6.57753 6.10591
#
# Compressibility (1/GPa) = 0.02759547
#
# Stress axis : x y z
#
# Youngs Moduli (GPa) = 34.92661 30.12221 94.61494
#
# Poissons Ratio (x) = 0.33145 0.18339
# Poissons Ratio (y) = 0.38432 0.89503
# Poissons Ratio (z) = 0.06770 0.28495
#
# Static dielectric constant tensor:
#      x y z
#    x 3.263880 0.000000 -0.063170 
#    y 0.000000 3.225160 0.000000 
#    z -0.063170 0.000000 3.932220 
# 
# 
# High freq. dielectric constant tensor:
#      x y z
#    x 1.710260 0.000000 -0.004690 
#    y 0.000000 1.704040 0.000000 
#    z -0.004690 0.000000 1.742780 
# 
# From -- ./inp_files/55265.got.cif
#   From: 2010.06.25/outbox.cif.g09.slc.cpg/sg10_28_cif.got.tgz:55265.got - 2010.06.27 22:07:45.
