data_PCOD8066457
_publ_section_title
;
Structure prediction by ZEFSAII (Michael W. Deem and Ramdas Pophale) SiO2 
 PCOD8066457
Probable space group: P 2/M
;
_chemical_formula_sum "Si O2"
_cell_formula_units_Z 28
_cell_length_a 13.127771
_cell_length_b 8.957764
_cell_length_c 18.280440
_cell_angle_alpha 90.000000
_cell_angle_beta 37.465117
_cell_angle_gamma 90.000000
_cell_volume 1307.614055
_symmetry_space_group_name_H-M "P 2/M"
_symmetry_group_IT_number 10
_symmetry_cell_setting 'monoclinic'
loop_
_space_group_symop_operation_xyz
x,y,z
-x,y,-z
-x,-y,-z
x,-y,z
loop_
_atom_site_type_symbol
_atom_site_label
_atom_site_fract_x
_atom_site_fract_y
_atom_site_fract_z
Si Si1 0.547153 0.830614 0.811571
Si Si2 0.819462 0.333459 0.574391
Si Si3 0.080056 0.328284 0.877976
Si Si4 0.748768 0.669372 0.978162
Si Si5 0.106232 0.667197 0.630084
Si Si6 0.314939 0.823530 0.632678
Si Si7 0.229934 0.171054 0.179234
O O1 0.690849 0.790430 0.673184
O O2 0.616686 0.803287 0.853560
O O3 0.492038 0.000000 0.829775
O O4 0.389127 0.722410 0.884087
O O5 0.782742 0.500000 0.626619
O O6 0.793794 0.335321 0.502131
O O7 0.000000 0.280623 0.500000
O O8 0.130889 0.500000 0.863136
O O9 0.245748 0.245921 0.749731
O O10 0.936782 0.312389 0.898820
O O11 0.000000 0.263082 0.000000
O O12 0.714619 0.500000 0.973691
O O13 0.711200 0.784978 0.934877
O O14 0.097774 0.500000 0.669221
O O15 0.188399 0.778760 0.640772
O O16 0.921688 0.720644 0.713273
O O17 0.500000 0.767780 0.500000
O O18 0.315728 0.000000 0.643072
O O19 0.169654 0.000000 0.215232
#
# Coordination Sequence:
#
# PCOD8066457 Si02
#       7
#     4   4   4   4   4   4   4
#     4  11  24  38  57  88 127 168 207 251 308 368
#     4  10  21  38  59  85 121 162 207 255 303 361
#     4  10  23  44  69  96 126 164 213 267 324 384
#     4  11  23  39  62  90 121 161 209 257 307 367
#     4  11  22  38  64  92 119 160 206 251 306 364
#     4  11  25  44  67  97 130 165 208 262 324 389
#     4  11  22  37  59  88 123 161 202 249 303 363
#
# _framework density 21.413046999999999
#
# number of rings (size 3 to 8) (size 9 to 14) (size 15 to 20)
#    0.000    1.286    2.857    2.571    0.000    8.000 
#    0.000    4.286    0.000    0.000    0.000    0.000 
#    0.000    0.000    0.000    0.000    0.000    0.000 
#
# Total GULP energy -347105.227422 kJ/mol
# GULP energy per Si atom -12396.615265 kJ/mol
# Density = 2.136431 g / cm^3
# Si number density = 21.413047 Si / 1000 Ang^3
#
#
#
# Elastic Constant Matrix: (Units=GPa)
#
#
# Indices 1 2 3 4 5 6 
#
# 1 33.0335 23.7237 26.8665 0.0000 7.9822 0.0000
# 2 23.7237 80.2436 51.3194 0.0000 -1.5526 0.0000
# 3 26.8665 51.3194 137.3249 0.0000 3.2652 0.0000
# 4 0.0000 0.0000 0.0000 40.6675 0.0000 0.8170
# 5 7.9822 -1.5526 3.2652 0.0000 32.3704 0.0000
# 6 0.0000 0.0000 0.0000 0.8170 0.0000 21.7980
#
#
#
# Elastic Compliance Matrix: (Units=1/GPa)
#
#
# Indices 1 2 3 4 5 6 
#
# 1 0.043977 -0.010349 -0.004477 0.000000 -0.010889 0.000000
# 2 -0.010349 0.018875 -0.005124 0.000000 0.003974 0.000000
# 3 -0.004477 -0.005124 0.010076 0.000000 -0.000158 0.000000
# 4 0.000000 0.000000 0.000000 0.024608 0.000000 -0.000922
# 5 -0.010889 0.003974 -0.000158 0.000000 0.033784 0.000000
# 6 0.000000 0.000000 0.000000 -0.000922 0.000000 0.045910
#
#
# Mechanical properties :
#
#
# Convention : Reuss Voigt Hill
#
# Bulk Modulus (GPa) = 30.27629 50.49125 40.38377
# Shear Modulus (GPa) = 21.91621 28.88002 25.39811
#
# Velocity S-wave (km/s) = 3.20269 3.67646 3.44772
# Velocity P-wave (km/s) = 5.27694 6.45389 5.89486
#
# Compressibility (1/GPa) = 0.03302915
#
# Stress axis : x y z
#
# Youngs Moduli (GPa) = 22.73899 52.97898 99.24085
#
# Poissons Ratio (x) = 0.54828 0.44434
# Poissons Ratio (y) = 0.23532 0.50848
# Poissons Ratio (z) = 0.10181 0.27145
#
# Static dielectric constant tensor:
#      x y z
#    x 3.647280 0.000000 0.102350 
#    y 0.000000 3.846010 0.000000 
#    z 0.102350 0.000000 4.088210 
# 
# 
# High freq. dielectric constant tensor:
#      x y z
#    x 1.821120 0.000000 0.004750 
#    y 0.000000 1.839490 0.000000 
#    z 0.004750 0.000000 1.856940 
# 
# From -- ./inp_files/84900.got.cif
#   From: 2010.06.25/outbox.cif.g09.slc.cpg/sg10_43_cif.got.tgz:84900.got - 2010.06.27 22:07:45.
