data_PCOD8066487
_publ_section_title
;
Structure prediction by ZEFSAII (Michael W. Deem and Ramdas Pophale) SiO2 
 PCOD8066487
Probable space group: P 2/M
;
_chemical_formula_sum "Si O2"
_cell_formula_units_Z 28
_cell_length_a 15.561194
_cell_length_b 9.111571
_cell_length_c 11.675382
_cell_angle_alpha 90.000000
_cell_angle_beta 57.036336
_cell_angle_gamma 90.000000
_cell_volume 1388.920599
_symmetry_space_group_name_H-M "P 2/M"
_symmetry_group_IT_number 10
_symmetry_cell_setting 'monoclinic'
loop_
_space_group_symop_operation_xyz
x,y,z
-x,y,-z
-x,-y,-z
x,-y,z
loop_
_atom_site_type_symbol
_atom_site_label
_atom_site_fract_x
_atom_site_fract_y
_atom_site_fract_z
Si Si1 0.245577 0.829723 0.828105
Si Si2 0.830767 0.830961 0.364431
Si Si3 0.459068 0.329357 0.655614
Si Si4 0.383953 0.330732 0.108440
Si Si5 0.201794 0.332033 0.078162
Si Si6 0.991785 0.671461 0.634356
Si Si7 0.363301 0.173127 0.348399
O O1 0.176607 0.804057 0.766037
O O2 0.346564 0.733784 0.746218
O O3 0.274840 0.000000 0.819875
O O4 0.182368 0.774093 0.984175
O O5 0.925475 0.740513 0.341863
O O6 0.725946 0.777599 0.500187
O O7 0.850043 0.000000 0.379956
O O8 0.500000 0.298729 0.500000
O O9 0.456288 0.500000 0.689242
O O10 0.530922 0.248942 0.693862
O O11 0.379095 0.500000 0.151453
O O12 0.316012 0.306101 0.044301
O O13 0.335254 0.229756 0.242464
O O14 0.500000 0.281165 0.000000
O O15 0.187592 0.500000 0.048533
O O16 0.120558 0.292454 0.235816
O O17 0.014759 0.500000 0.614052
O O18 0.000000 0.737493 0.500000
O O19 0.379089 0.000000 0.337622
#
# Coordination Sequence:
#
# PCOD8066487 Si02
#       7
#     4   4   4   4   4   4   4
#     4  11  23  40  61  87 124 162 199 244 299 360
#     4  10  23  40  59  87 120 155 196 247 299 353
#     4  11  22  36  58  88 121 160 202 242 292 353
#     4  10  21  38  60  86 119 156 197 246 299 358
#     4  10  22  40  61  89 124 157 198 252 304 356
#     4  10  22  41  65  90 117 154 199 250 304 356
#     4  11  22  37  59  87 121 156 198 249 300 355
#
# _framework density 20.159541000000001
#
# number of rings (size 3 to 8) (size 9 to 14) (size 15 to 20)
#    0.000    1.571    1.429    3.000    0.000    7.429 
#    0.000    2.857    0.000    0.000    0.000    0.000 
#    0.000    0.000    0.000    0.000    0.000    0.000 
#
# Total GULP energy -347363.134513 kJ/mol
# GULP energy per Si atom -12405.826233 kJ/mol
# Density = 2.011366 g / cm^3
# Si number density = 20.159541 Si / 1000 Ang^3
#
#
#
# Elastic Constant Matrix: (Units=GPa)
#
#
# Indices 1 2 3 4 5 6 
#
# 1 96.7943 26.3818 38.8601 0.0000 3.2245 0.0000
# 2 26.3818 50.8368 44.5074 0.0000 11.0285 0.0000
# 3 38.8601 44.5074 118.8231 0.0000 11.1137 0.0000
# 4 0.0000 0.0000 0.0000 35.7486 0.0000 2.7427
# 5 3.2245 11.0285 11.1137 0.0000 31.0640 0.0000
# 6 0.0000 0.0000 0.0000 2.7427 0.0000 33.7609
#
#
#
# Elastic Compliance Matrix: (Units=1/GPa)
#
#
# Indices 1 2 3 4 5 6 
#
# 1 0.012544 -0.004587 -0.002498 0.000000 0.001220 0.000000
# 2 -0.004587 0.032356 -0.009922 0.000000 -0.007461 0.000000
# 3 -0.002498 -0.009922 0.013032 0.000000 -0.000881 0.000000
# 4 0.000000 0.000000 0.000000 0.028149 0.000000 -0.002287
# 5 0.001220 -0.007461 -0.000881 0.000000 0.035029 0.000000
# 6 0.000000 0.000000 0.000000 -0.002287 0.000000 0.029806
#
#
# Mechanical properties :
#
#
# Convention : Reuss Voigt Hill
#
# Bulk Modulus (GPa) = 41.81006 53.99476 47.90241
# Shear Modulus (GPa) = 25.91998 30.56170 28.24084
#
# Velocity S-wave (km/s) = 3.58962 3.89780 3.74688
# Velocity P-wave (km/s) = 6.16158 6.86287 6.52166
#
# Compressibility (1/GPa) = 0.02391769
#
# Stress axis : x y z
#
# Youngs Moduli (GPa) = 79.72089 30.90595 76.73656
#
# Poissons Ratio (x) = 0.14177 0.19171
# Poissons Ratio (y) = 0.36568 0.76135
# Poissons Ratio (z) = 0.19917 0.30664
#
# Static dielectric constant tensor:
#      x y z
#    x 3.620410 0.000000 0.119800 
#    y 0.000000 3.616690 0.000000 
#    z 0.119800 0.000000 3.916900 
# 
# 
# High freq. dielectric constant tensor:
#      x y z
#    x 1.788170 0.000000 0.006140 
#    y 0.000000 1.783390 0.000000 
#    z 0.006140 0.000000 1.797640 
# 
# From -- ./inp_files/49644.got.cif
#   From: 2010.06.25/outbox.cif.g09.slc.cpg/sg10_25_cif.got.tgz:49644.got - 2010.06.27 22:07:45.
