data_PCOD8066761
_publ_section_title
;
Structure prediction by ZEFSAII (Michael W. Deem and Ramdas Pophale) SiO2 
 PCOD8066761
Probable space group: P 2/M
;
_chemical_formula_sum "Si O2"
_cell_formula_units_Z 20
_cell_length_a 14.816245
_cell_length_b 14.551307
_cell_length_c 7.552337
_cell_angle_alpha 90.000000
_cell_angle_beta 35.213413
_cell_angle_gamma 90.000000
_cell_volume 938.888294
_symmetry_space_group_name_H-M "P 2/M"
_symmetry_group_IT_number 10
_symmetry_cell_setting 'monoclinic'
loop_
_space_group_symop_operation_xyz
x,y,z
-x,y,-z
-x,-y,-z
x,-y,z
loop_
_atom_site_type_symbol
_atom_site_label
_atom_site_fract_x
_atom_site_fract_y
_atom_site_fract_z
Si Si1 0.178327 0.207315 0.646482
Si Si2 0.818985 0.597835 0.254646
Si Si3 0.174709 0.232074 0.257873
Si Si4 0.336419 0.602494 0.854322
Si Si5 0.322257 0.893380 0.732323
O O1 0.248241 0.311395 0.543917
O O2 0.188691 0.179689 0.423875
O O3 0.288113 0.141223 0.587315
O O4 0.000000 0.202245 0.000000
O O5 0.739925 0.500000 0.443938
O O6 0.797800 0.607905 0.078499
O O7 0.000000 0.591815 0.000000
O O8 0.000000 0.267687 0.500000
O O9 0.290941 0.320535 0.071449
O O10 0.213069 0.159391 0.044314
O O11 0.500000 0.628274 0.500000
O O12 0.344136 0.500000 0.927582
O O13 0.500000 0.873659 0.500000
O O14 0.280130 0.000000 0.809319
#
# Coordination Sequence:
#
# PCOD8066761 Si02
#       5
#     4   4   4   4   4
#     4  11  22  41  66  97 132 170 218 269 325 390
#     4   9  17  33  58  87 126 168 207 255 309 370
#     4  12  23  41  69  99 131 171 223 266 326 394
#     4  10  21  39  64  94 134 177 218 266 320 380
#     4  11  26  48  69  94 131 168 212 277 343 395
#
# _framework density 21.301788999999999
#
# number of rings (size 3 to 8) (size 9 to 14) (size 15 to 20)
#    0.000    1.400    4.000    1.800    0.000    3.600 
#    0.000    2.000    0.000    3.600    0.000    0.000 
#    0.000    0.000    0.000    0.000    0.000    0.000 
#
# Total GULP energy -247890.148091 kJ/mol
# GULP energy per Si atom -12394.507405 kJ/mol
# Density = 2.125331 g / cm^3
# Si number density = 21.301789 Si / 1000 Ang^3
#
#
#
# Elastic Constant Matrix: (Units=GPa)
#
#
# Indices 1 2 3 4 5 6 
#
# 1 125.2708 33.8996 46.8913 0.0000 9.0078 0.0000
# 2 33.8996 129.6140 50.6390 0.0000 -6.1580 0.0000
# 3 46.8913 50.6390 96.2659 0.0000 5.9839 0.0000
# 4 0.0000 0.0000 0.0000 16.6176 0.0000 -8.5078
# 5 9.0078 -6.1580 5.9839 0.0000 32.7105 0.0000
# 6 0.0000 0.0000 0.0000 -8.5078 0.0000 25.0199
#
#
#
# Elastic Compliance Matrix: (Units=1/GPa)
#
#
# Indices 1 2 3 4 5 6 
#
# 1 0.009992 -0.001095 -0.004155 0.000000 -0.002198 0.000000
# 2 -0.001095 0.010090 -0.004968 0.000000 0.003110 0.000000
# 3 -0.004155 -0.004968 0.015185 0.000000 -0.002569 0.000000
# 4 0.000000 0.000000 0.000000 0.072862 0.000000 0.024776
# 5 -0.002198 0.003110 -0.002569 0.000000 0.032232 0.000000
# 6 0.000000 0.000000 0.000000 0.024776 0.000000 0.048393
#
#
# Mechanical properties :
#
#
# Convention : Reuss Voigt Hill
#
# Bulk Modulus (GPa) = 67.41974 68.22340 67.82157
# Shear Modulus (GPa) = 23.35004 29.51765 26.43385
#
# Velocity S-wave (km/s) = 3.31441 3.72652 3.52649
# Velocity P-wave (km/s) = 6.80923 7.11425 6.96341
#
# Compressibility (1/GPa) = 0.01483245
#
# Stress axis : x y z
#
# Youngs Moduli (GPa) = 100.07843 99.10665 65.85580
#
# Poissons Ratio (x) = 0.10847 0.27362
# Poissons Ratio (y) = 0.10954 0.32717
# Poissons Ratio (z) = 0.41581 0.49235
#
# Static dielectric constant tensor:
#      x y z
#    x 3.999780 0.000000 -0.085670 
#    y 0.000000 4.254500 0.000000 
#    z -0.085670 0.000000 3.507710 
# 
# 
# High freq. dielectric constant tensor:
#      x y z
#    x 1.845990 0.000000 -0.011240 
#    y 0.000000 1.840450 0.000000 
#    z -0.011240 0.000000 1.804220 
# 
# From -- ./inp_files/32624.got.cif
#   From: 2010.06.25/outbox.cif.g09.slc.cpg/sg10_17_cif.got.tgz:32624.got - 2010.06.27 22:07:45.
