data_PCOD8066531
_publ_section_title
;
Structure prediction by ZEFSAII (Michael W. Deem and Ramdas Pophale) SiO2 
 PCOD8066531
Probable space group: P 2/M
;
_chemical_formula_sum "Si O2"
_cell_formula_units_Z 28
_cell_length_a 13.524815
_cell_length_b 8.795244
_cell_length_c 13.576961
_cell_angle_alpha 90.000000
_cell_angle_beta 120.331706
_cell_angle_gamma 90.000000
_cell_volume 1393.962457
_symmetry_space_group_name_H-M "P 2/M"
_symmetry_group_IT_number 10
_symmetry_cell_setting 'monoclinic'
loop_
_space_group_symop_operation_xyz
x,y,z
-x,y,-z
-x,-y,-z
x,-y,z
loop_
_atom_site_type_symbol
_atom_site_label
_atom_site_fract_x
_atom_site_fract_y
_atom_site_fract_z
Si Si1 0.691283 0.321982 0.951085
Si Si2 0.877024 0.179076 0.902704
Si Si3 0.255369 0.176034 0.816663
Si Si4 0.171239 0.325134 0.326792
Si Si5 0.394109 0.825401 0.518441
Si Si6 0.967775 0.325146 0.373531
Si Si7 0.458410 0.823463 0.770764
O O1 0.704590 0.500000 0.946615
O O2 0.777047 0.246534 0.917977
O O3 0.562420 0.275187 0.862760
O O4 0.721932 0.276269 0.076733
O O5 0.858105 0.221285 0.780428
O O6 0.872004 0.000000 0.911968
O O7 0.000000 0.242786 0.000000
O O8 0.132018 0.214468 0.711325
O O9 0.348875 0.215031 0.781533
O O10 0.259520 0.000000 0.849169
O O11 0.172781 0.500000 0.293954
O O12 0.293544 0.283105 0.432553
O O13 0.077878 0.293991 0.362787
O O14 0.500000 0.800793 0.500000
O O15 0.431267 0.775024 0.645909
O O16 0.352014 0.000000 0.496359
O O17 0.926946 0.500000 0.346050
O O18 0.000000 0.279789 0.500000
O O19 0.492737 0.000000 0.794662
#
# Coordination Sequence:
#
# PCOD8066531 Si02
#       7
#     4   4   4   4   4   4   4
#     4  12  25  40  62  90 120 155 196 246 302 358
#     4  11  24  42  64  88 117 156 199 244 297 356
#     4  11  23  39  61  88 120 160 204 248 294 350
#     4  11  23  38  60  90 122 157 198 245 296 352
#     4  10  21  38  61  87 117 156 199 244 295 350
#     4  10  22  40  61  88 124 162 199 245 299 351
#     4  10  22  40  61  88 122 159 201 248 295 347
#
# _framework density 20.086624
#
# number of rings (size 3 to 8) (size 9 to 14) (size 15 to 20)
#    0.000    1.286    0.000    5.571    0.000    9.714 
#    0.000    0.000    0.000    0.000    0.000    0.000 
#    0.000    0.000    0.000    0.000    0.000    0.000 
#
# Total GULP energy -347412.499434 kJ/mol
# GULP energy per Si atom -12407.589266 kJ/mol
# Density = 2.004091 g / cm^3
# Si number density = 20.086624 Si / 1000 Ang^3
#
#
#
# Elastic Constant Matrix: (Units=GPa)
#
#
# Indices 1 2 3 4 5 6 
#
# 1 100.9334 35.1657 47.9182 0.0000 -0.4389 0.0000
# 2 35.1657 63.4101 27.8380 0.0000 4.1603 0.0000
# 3 47.9182 27.8380 128.6370 0.0000 -4.6897 0.0000
# 4 0.0000 0.0000 0.0000 34.4562 0.0000 0.8123
# 5 -0.4389 4.1603 -4.6897 0.0000 43.6266 0.0000
# 6 0.0000 0.0000 0.0000 0.8123 0.0000 27.6341
#
#
#
# Elastic Compliance Matrix: (Units=1/GPa)
#
#
# Indices 1 2 3 4 5 6 
#
# 1 0.013822 -0.005999 -0.003840 0.000000 0.000298 0.000000
# 2 -0.005999 0.020219 -0.002222 0.000000 -0.002227 0.000000
# 3 -0.003840 -0.002222 0.009729 0.000000 0.001219 0.000000
# 4 0.000000 0.000000 0.000000 0.029042 0.000000 -0.000854
# 5 0.000298 -0.002227 0.001219 0.000000 0.023268 0.000000
# 6 0.000000 0.000000 0.000000 -0.000854 0.000000 0.036212
#
#
# Mechanical properties :
#
#
# Convention : Reuss Voigt Hill
#
# Bulk Modulus (GPa) = 50.89405 57.20269 54.04837
# Shear Modulus (GPa) = 30.68158 33.28063 31.98111
#
# Velocity S-wave (km/s) = 3.91252 4.07486 3.99452
# Velocity P-wave (km/s) = 6.76777 7.11893 6.94557
#
# Compressibility (1/GPa) = 0.01964866
#
# Stress axis : x y z
#
# Youngs Moduli (GPa) = 72.34941 49.45846 102.78148
#
# Poissons Ratio (x) = 0.29671 0.39464
# Poissons Ratio (y) = 0.43404 0.22838
# Poissons Ratio (z) = 0.27779 0.10990
#
# Static dielectric constant tensor:
#      x y z
#    x 3.815300 0.000000 -0.074970 
#    y 0.000000 3.665930 0.000000 
#    z -0.074970 0.000000 3.853670 
# 
# 
# High freq. dielectric constant tensor:
#      x y z
#    x 1.803890 0.000000 -0.003540 
#    y 0.000000 1.785250 0.000000 
#    z -0.003540 0.000000 1.801020 
# 
# From -- ./inp_files/63908.got.cif
#   From: 2010.06.25/outbox.cif.g09.slc.cpg/sg10_32_cif.got.tgz:63908.got - 2010.06.27 22:07:45.
