data_PCOD8066756
_publ_section_title
;
Structure prediction by ZEFSAII (Michael W. Deem and Ramdas Pophale) SiO2 
 PCOD8066756
Probable space group: P 2/M
;
_chemical_formula_sum "Si O2"
_cell_formula_units_Z 22
_cell_length_a 19.956431
_cell_length_b 9.823505
_cell_length_c 7.985809
_cell_angle_alpha 90.000000
_cell_angle_beta 139.054286
_cell_angle_gamma 90.000000
_cell_volume 1025.976405
_symmetry_space_group_name_H-M "P 2/M"
_symmetry_group_IT_number 10
_symmetry_cell_setting 'monoclinic'
loop_
_space_group_symop_operation_xyz
x,y,z
-x,y,-z
-x,-y,-z
x,-y,z
loop_
_atom_site_type_symbol
_atom_site_label
_atom_site_fract_x
_atom_site_fract_y
_atom_site_fract_z
Si Si1 0.777116 0.844485 0.072503
Si Si2 0.615028 0.650611 0.662193
Si Si3 0.207312 0.151574 0.519125
Si Si4 0.387033 0.658230 0.731485
Si Si5 0.000000 0.745802 0.000000
Si Si6 0.071422 0.350461 0.792994
O O1 0.825779 0.834727 0.348725
O O2 0.843801 0.767048 0.057761
O O3 0.763900 0.000000 0.988864
O O4 0.669082 0.767331 0.872674
O O5 0.500000 0.654701 0.500000
O O6 0.660272 0.500000 0.786412
O O7 0.625490 0.683831 0.487422
O O8 0.296577 0.258691 0.649650
O O9 0.104122 0.167933 0.215669
O O10 0.250640 0.000000 0.567046
O O11 0.373171 0.500000 0.754811
O O12 0.500000 0.708597 0.000000
O O13 0.010300 0.655683 0.852218
O O14 0.123030 0.500000 0.881298
O O15 0.000000 0.328531 0.500000
#
# Coordination Sequence:
#
# PCOD8066756 Si02
#       6
#     4   4   4   4   2   4
#     4  11  24  42  63  92 129 171 215 262 323 388
#     4  10  21  39  64  93 125 164 211 264 324 385
#     4  11  25  42  64  94 130 174 218 267 324 389
#     4  10  22  41  66  95 126 164 213 269 328 389
#     4  12  24  44  68  98 132 174 220 270 328 392
#     4  11  24  43  66  94 126 165 213 266 320 380
#
# _framework density 21.442986000000001
#
# number of rings (size 3 to 8) (size 9 to 14) (size 15 to 20)
#    0.000    1.273    1.818    3.273    0.000   10.545 
#    0.000    0.000    0.000    0.000    0.000    0.000 
#    0.000    0.000    0.000    0.000    0.000    0.000 
#
# Total GULP energy -272761.558621 kJ/mol
# GULP energy per Si atom -12398.252665 kJ/mol
# Density = 2.139418 g / cm^3
# Si number density = 21.442986 Si / 1000 Ang^3
#
#
#
# Elastic Constant Matrix: (Units=GPa)
#
#
# Indices 1 2 3 4 5 6 
#
# 1 112.1082 52.4146 31.9828 0.0000 -1.6565 0.0000
# 2 52.4146 152.0927 58.2687 0.0000 6.4100 0.0000
# 3 31.9828 58.2687 112.8407 0.0000 6.3905 0.0000
# 4 0.0000 0.0000 0.0000 27.1736 0.0000 8.8831
# 5 -1.6565 6.4100 6.3905 0.0000 35.5303 0.0000
# 6 0.0000 0.0000 0.0000 8.8831 0.0000 17.4654
#
#
#
# Elastic Compliance Matrix: (Units=1/GPa)
#
#
# Indices 1 2 3 4 5 6 
#
# 1 0.010878 -0.003235 -0.001489 0.000000 0.001359 0.000000
# 2 -0.003235 0.009177 -0.003758 0.000000 -0.001131 0.000000
# 3 -0.001489 -0.003758 0.011305 0.000000 -0.001425 0.000000
# 4 0.000000 0.000000 0.000000 0.044139 0.000000 -0.022450
# 5 0.001359 -0.001131 -0.001425 0.000000 0.028669 0.000000
# 6 0.000000 0.000000 0.000000 -0.022450 0.000000 0.068674
#
#
# Mechanical properties :
#
#
# Convention : Reuss Voigt Hill
#
# Bulk Modulus (GPa) = 69.46855 73.59711 71.53283
# Shear Modulus (GPa) = 25.69298 31.65889 28.67593
#
# Velocity S-wave (km/s) = 3.46526 3.84659 3.66089
# Velocity P-wave (km/s) = 6.96261 7.35698 7.16251
#
# Compressibility (1/GPa) = 0.01439500
#
# Stress axis : x y z
#
# Youngs Moduli (GPa) = 91.93249 108.96490 88.45329
#
# Poissons Ratio (x) = 0.35254 0.13174
# Poissons Ratio (y) = 0.29743 0.33240
# Poissons Ratio (z) = 0.13692 0.40948
#
# Static dielectric constant tensor:
#      x y z
#    x 3.633890 0.000000 0.052560 
#    y 0.000000 3.927650 0.000000 
#    z 0.052560 0.000000 3.831610 
# 
# 
# High freq. dielectric constant tensor:
#      x y z
#    x 1.846350 0.000000 -0.007440 
#    y 0.000000 1.839910 0.000000 
#    z -0.007440 0.000000 1.847710 
# 
# From -- ./inp_files/34095.got.cif
#   From: 2010.06.25/outbox.cif.g09.slc.cpg/sg10_18_cif.got.tgz:34095.got - 2010.06.27 22:07:45.
