data_PCOD8066289
_publ_section_title
;
Structure prediction by ZEFSAII (Michael W. Deem and Ramdas Pophale) SiO2 
 PCOD8066289
Probable space group: P 2/M
;
_chemical_formula_sum "Si O2"
_cell_formula_units_Z 32
_cell_length_a 15.034784
_cell_length_b 8.742336
_cell_length_c 24.076544
_cell_angle_alpha 90.000000
_cell_angle_beta 150.627553
_cell_angle_gamma 90.000000
_cell_volume 1552.188042
_symmetry_space_group_name_H-M "P 2/M"
_symmetry_group_IT_number 10
_symmetry_cell_setting 'monoclinic'
loop_
_space_group_symop_operation_xyz
x,y,z
-x,y,-z
-x,-y,-z
x,-y,z
loop_
_atom_site_type_symbol
_atom_site_label
_atom_site_fract_x
_atom_site_fract_y
_atom_site_fract_z
Si Si1 0.321273 0.175098 0.371681
Si Si2 0.413495 0.333052 0.315020
Si Si3 0.031582 0.679124 0.772226
Si Si4 0.235972 0.179423 0.979746
Si Si5 0.041188 0.680301 0.649736
Si Si6 0.989036 0.668535 0.934490
Si Si7 0.288186 0.820901 0.595534
Si Si8 0.364349 0.821145 0.764810
O O1 0.500000 0.226066 0.500000
O O2 0.383204 0.200690 0.342912
O O3 0.157079 0.282246 0.300642
O O4 0.264737 0.000000 0.351300
O O5 0.481289 0.500000 0.375112
O O6 0.553944 0.274670 0.346425
O O7 0.221882 0.359075 0.184096
O O8 0.062834 0.500000 0.791047
O O9 0.198387 0.751955 0.897867
O O10 0.023810 0.736800 0.704259
O O11 0.074822 0.229053 0.933100
O O12 0.226643 0.000000 0.968207
O O13 0.428720 0.230643 0.110317
O O14 0.005239 0.500000 0.625327
O O15 0.242724 0.721468 0.739958
O O16 0.902870 0.769680 0.534424
O O17 0.084140 0.500000 0.985675
O O18 0.000000 0.752482 0.000000
O O19 0.301124 0.784184 0.667877
O O20 0.314837 0.000000 0.598968
O O21 0.339080 0.000000 0.764094
#
# Coordination Sequence:
#
# PCOD8066289 Si02
#       8
#     4   4   4   4   4   4   4   4
#     4  11  23  38  59  88 121 161 206 250 303 367
#     4  11  22  36  58  89 124 162 201 244 298 360
#     4  11  24  42  62  89 127 166 209 261 317 374
#     4  11  23  40  64  92 125 166 213 261 311 373
#     4  11  25  43  66  94 123 162 211 265 322 379
#     4  10  21  37  58  87 124 164 203 247 302 364
#     4  11  23  41  65  93 129 166 206 260 317 379
#     4  10  24  44  65  93 126 164 208 261 323 377
#
# _framework density 20.616059
#
# number of rings (size 3 to 8) (size 9 to 14) (size 15 to 20)
#    0.000    1.250    1.250    4.125    0.000    9.750 
#    0.000    2.500    0.000    0.000    0.000    0.000 
#    0.000    0.000    0.000    0.000    0.000    0.000 
#
# Total GULP energy -396720.339125 kJ/mol
# GULP energy per Si atom -12397.510598 kJ/mol
# Density = 2.056914 g / cm^3
# Si number density = 20.616059 Si / 1000 Ang^3
#
#
#
# Elastic Constant Matrix: (Units=GPa)
#
#
# Indices 1 2 3 4 5 6 
#
# 1 102.4042 29.3170 41.6674 0.0000 -3.4879 0.0000
# 2 29.3170 64.0065 41.4923 0.0000 -2.2738 0.0000
# 3 41.6674 41.4923 123.5334 0.0000 -12.9540 0.0000
# 4 0.0000 0.0000 0.0000 27.2016 0.0000 4.9727
# 5 -3.4879 -2.2738 -12.9540 0.0000 41.5313 0.0000
# 6 0.0000 0.0000 0.0000 4.9727 0.0000 34.5537
#
#
#
# Elastic Compliance Matrix: (Units=1/GPa)
#
#
# Indices 1 2 3 4 5 6 
#
# 1 0.011953 -0.003655 -0.002812 0.000000 -0.000073 0.000000
# 2 -0.003655 0.021132 -0.005971 0.000000 -0.001012 0.000000
# 3 -0.002812 -0.005971 0.011362 0.000000 0.002981 0.000000
# 4 0.000000 0.000000 0.000000 0.037756 0.000000 -0.005434
# 5 -0.000073 -0.001012 0.002981 0.000000 0.024946 0.000000
# 6 0.000000 0.000000 0.000000 -0.005434 0.000000 0.029722
#
#
# Mechanical properties :
#
#
# Convention : Reuss Voigt Hill
#
# Bulk Modulus (GPa) = 51.09548 57.21085 54.15316
# Shear Modulus (GPa) = 29.71388 32.48847 31.10118
#
# Velocity S-wave (km/s) = 3.80056 3.97404 3.88827
# Velocity P-wave (km/s) = 6.64057 6.99058 6.81782
#
# Compressibility (1/GPa) = 0.01957120
#
# Stress axis : x y z
#
# Youngs Moduli (GPa) = 83.65981 47.32073 88.01539
#
# Poissons Ratio (x) = 0.17294 0.24749
# Poissons Ratio (y) = 0.30575 0.52557
# Poissons Ratio (z) = 0.23524 0.28257
#
# Static dielectric constant tensor:
#      x y z
#    x 3.724570 0.000000 -0.119330 
#    y 0.000000 3.744720 0.000000 
#    z -0.119330 0.000000 3.970090 
# 
# 
# High freq. dielectric constant tensor:
#      x y z
#    x 1.807490 0.000000 -0.005900 
#    y 0.000000 1.810550 0.000000 
#    z -0.005900 0.000000 1.820230 
# 
# From -- ./inp_files/89470.got.cif
#   From: 2010.06.25/outbox.cif.g09.slc.cpg/sg10_45_cif.got.tgz:89470.got - 2010.06.27 22:07:45.
