data_PCOD8066571
_publ_section_title
;
Structure prediction by ZEFSAII (Michael W. Deem and Ramdas Pophale) SiO2 
 PCOD8066571
Probable space group: P 2/M
;
_chemical_formula_sum "Si O2"
_cell_formula_units_Z 32
_cell_length_a 21.005504
_cell_length_b 8.765131
_cell_length_c 26.977838
_cell_angle_alpha 90.000000
_cell_angle_beta 19.505080
_cell_angle_gamma 90.000000
_cell_volume 1658.450975
_symmetry_space_group_name_H-M "P 2/M"
_symmetry_group_IT_number 10
_symmetry_cell_setting 'monoclinic'
loop_
_space_group_symop_operation_xyz
x,y,z
-x,y,-z
-x,-y,-z
x,-y,z
loop_
_atom_site_type_symbol
_atom_site_label
_atom_site_fract_x
_atom_site_fract_y
_atom_site_fract_z
Si Si1 0.282268 0.820112 0.154982
Si Si2 0.303798 0.322103 0.764861
Si Si3 0.624975 0.181170 0.664026
Si Si4 0.319243 0.820091 0.487931
Si Si5 0.083203 0.680206 0.205610
Si Si6 0.955557 0.678092 0.953454
Si Si7 0.990785 0.180783 0.451668
Si Si8 0.768809 0.819967 0.000742
O O1 0.175392 0.739523 0.188502
O O2 0.177723 0.774555 0.282922
O O3 0.271071 0.000000 0.153269
O O4 0.500000 0.764091 0.000000
O O5 0.351676 0.500000 0.732508
O O6 0.498340 0.228626 0.613270
O O7 0.166248 0.286987 0.819505
O O8 0.200204 0.269225 0.891592
O O9 0.640561 0.241777 0.596775
O O10 0.803345 0.249307 0.563232
O O11 0.431701 0.239917 0.830676
O O12 0.630164 0.000000 0.659980
O O13 0.129056 0.742210 0.647635
O O14 0.289494 0.000000 0.512173
O O15 0.078726 0.500000 0.210250
O O16 0.209555 0.737104 0.067310
O O17 0.931832 0.500000 0.959285
O O18 0.931532 0.773225 0.920630
O O19 0.000000 0.251666 0.500000
O O20 0.972306 0.000000 0.468529
O O21 0.773568 0.000000 0.988605
#
# Coordination Sequence:
#
# PCOD8066571 Si02
#       8
#     4   4   4   4   4   4   4   4
#     4  10  21  38  62  89 117 153 196 240 289 347
#     4   9  18  33  56  86 121 159 194 233 289 356
#     4   9  18  32  55  86 117 145 188 245 295 338
#     4  11  20  37  61  88 116 150 198 251 294 343
#     4  12  26  42  59  82 118 163 200 239 297 359
#     4   9  18  34  55  84 123 160 194 234 287 355
#     4   9  17  31  55  87 118 145 181 234 288 339
#     4  11  22  37  59  88 118 152 198 252 298 343
#
# _framework density 19.295113000000001
#
# number of rings (size 3 to 8) (size 9 to 14) (size 15 to 20)
#    0.000    2.000    2.500    2.625    1.750    0.750 
#    0.000    1.875    0.000    4.125    0.000    0.000 
#    0.000    0.000    0.000    0.000    0.000    0.000 
#
# Total GULP energy -396847.561023 kJ/mol
# GULP energy per Si atom -12401.486282 kJ/mol
# Density = 1.925120 g / cm^3
# Si number density = 19.295113 Si / 1000 Ang^3
#
#
#
# Elastic Constant Matrix: (Units=GPa)
#
#
# Indices 1 2 3 4 5 6 
#
# 1 86.3231 26.3518 42.4646 0.0000 -3.3887 0.0000
# 2 26.3518 59.6578 29.8132 0.0000 -1.6655 0.0000
# 3 42.4646 29.8132 117.5118 0.0000 -7.7877 0.0000
# 4 0.0000 0.0000 0.0000 22.7535 0.0000 -1.9002
# 5 -3.3887 -1.6655 -7.7877 0.0000 36.4514 0.0000
# 6 0.0000 0.0000 0.0000 -1.9002 0.0000 26.0124
#
#
#
# Elastic Compliance Matrix: (Units=1/GPa)
#
#
# Indices 1 2 3 4 5 6 
#
# 1 0.015081 -0.004512 -0.004287 0.000000 0.000280 0.000000
# 2 -0.004512 0.020547 -0.003599 0.000000 -0.000250 0.000000
# 3 -0.004287 -0.003599 0.011092 0.000000 0.001807 0.000000
# 4 0.000000 0.000000 0.000000 0.044219 0.000000 0.003230
# 5 0.000280 -0.000250 0.001807 0.000000 0.027834 0.000000
# 6 0.000000 0.000000 0.000000 0.003230 0.000000 0.038679
#
#
# Mechanical properties :
#
#
# Convention : Reuss Voigt Hill
#
# Bulk Modulus (GPa) = 45.60977 51.19464 48.40221
# Shear Modulus (GPa) = 26.37754 28.03435 27.20595
#
# Velocity S-wave (km/s) = 3.70139 3.81586 3.75906
# Velocity P-wave (km/s) = 6.47737 6.78266 6.63177
#
# Compressibility (1/GPa) = 0.02192513
#
# Stress axis : x y z
#
# Youngs Moduli (GPa) = 66.30696 48.66962 90.15795
#
# Poissons Ratio (x) = 0.21958 0.38648
# Poissons Ratio (y) = 0.29915 0.32448
# Poissons Ratio (z) = 0.28424 0.17516
#
# Static dielectric constant tensor:
#      x y z
#    x 3.601290 0.000000 -0.072560 
#    y 0.000000 3.188830 0.000000 
#    z -0.072560 0.000000 3.660670 
# 
# 
# High freq. dielectric constant tensor:
#      x y z
#    x 1.753460 0.000000 -0.009640 
#    y 0.000000 1.723260 0.000000 
#    z -0.009640 0.000000 1.755660 
# 
# From -- ./inp_files/86793.got.cif
#   From: 2010.06.25/outbox.cif.g09.slc.cpg/sg10_44_cif.got.tgz:86793.got - 2010.06.27 22:07:45.
