data_PCOD8066455
_publ_section_title
;
Structure prediction by ZEFSAII (Michael W. Deem and Ramdas Pophale) SiO2 
 PCOD8066455
Probable space group: P 2/M
;
_chemical_formula_sum "Si O2"
_cell_formula_units_Z 14
_cell_length_a 7.586886
_cell_length_b 16.785380
_cell_length_c 5.391472
_cell_angle_alpha 90.000000
_cell_angle_beta 54.245356
_cell_angle_gamma 90.000000
_cell_volume 557.191987
_symmetry_space_group_name_H-M "P 2/M"
_symmetry_group_IT_number 10
_symmetry_cell_setting 'monoclinic'
loop_
_space_group_symop_operation_xyz
x,y,z
-x,y,-z
-x,-y,-z
x,-y,z
loop_
_atom_site_type_symbol
_atom_site_label
_atom_site_fract_x
_atom_site_fract_y
_atom_site_fract_z
Si Si1 0.217679 0.655230 0.094729
Si Si2 0.000000 0.199924 0.500000
Si Si3 0.369507 0.908017 0.359605
Si Si4 0.253428 0.591230 0.563155
O O1 0.352632 0.631751 0.232030
O O2 0.138077 0.746486 0.191548
O O3 0.006218 0.598877 0.242599
O O4 0.348701 0.637181 0.731595
O O5 0.154226 0.145072 0.539825
O O6 0.500000 0.884739 0.500000
O O7 0.299339 0.000000 0.427425
O O8 0.500000 0.889756 0.000000
O O9 0.325042 0.500000 0.518525
#
# Coordination Sequence:
#
# PCOD8066455 Si02
#       4
#     4   2   4   4
#     4   9  17  24  42  72 101 140 183 218 274 334
#     4  10  21  38  59  84 124 150 180 246 291 322
#     4  10  23  41  62  88 114 150 195 229 279 351
#     4   9  14  24  38  64 108 138 174 234 264 308
#
# _framework density 25.125990000000002
#
# number of rings (size 3 to 8) (size 9 to 14) (size 15 to 20)
#    0.000    2.857    0.000    4.714    0.000   10.286 
#    0.000    4.286    0.000    0.000    0.000    0.000 
#    0.000  484.571    0.000    0.000    0.000    0.000 
#
# Total GULP energy -173549.520084 kJ/mol
# GULP energy per Si atom -12396.394292 kJ/mol
# Density = 2.506880 g / cm^3
# Si number density = 25.125990 Si / 1000 Ang^3
#
#
#
# Elastic Constant Matrix: (Units=GPa)
#
#
# Indices 1 2 3 4 5 6 
#
# 1 152.8128 83.2244 81.5451 0.0000 57.3476 0.0000
# 2 83.2244 169.0835 67.7248 0.0000 16.4803 0.0000
# 3 81.5451 67.7248 205.4417 0.0000 51.0514 0.0000
# 4 0.0000 0.0000 0.0000 -6.5389 0.0000 39.8169
# 5 57.3476 16.4803 51.0514 0.0000 53.3275 0.0000
# 6 0.0000 0.0000 0.0000 39.8169 0.0000 -78.6212
#
#
#
# Elastic Compliance Matrix: (Units=1/GPa)
#
#
# Indices 1 2 3 4 5 6 
#
# 1 0.015449 -0.005965 -0.000650 0.000000 -0.014148 0.000000
# 2 -0.005965 0.009117 -0.002010 0.000000 0.005521 0.000000
# 3 -0.000650 -0.002010 0.007164 0.000000 -0.005538 0.000000
# 4 0.000000 0.000000 0.000000 0.073389 0.000000 0.037167
# 5 -0.014148 0.005521 -0.005538 0.000000 0.037562 0.000000
# 6 0.000000 0.000000 0.000000 0.037167 0.000000 0.006104
#
#
# Mechanical properties :
#
#
# Convention : Reuss Voigt Hill
#
# Bulk Modulus (GPa) = 69.05632 110.25850 89.65741
# Shear Modulus (GPa) = 29.26356 13.28973 21.27664
#
# Velocity S-wave (km/s) = 3.41643 2.30233 2.91314
# Velocity P-wave (km/s) = 6.56554 7.14459 6.86118
#
# Compressibility (1/GPa) = 0.01448093
#
# Stress axis : x y z
#
# Youngs Moduli (GPa) = 64.73093 109.68522 139.57852
#
# Poissons Ratio (x) = 0.65423 0.09073
# Poissons Ratio (y) = 0.38609 0.28053
# Poissons Ratio (z) = 0.04208 0.22045
#
# Static dielectric constant tensor:
#      x y z
#    x 4.847280 0.000000 0.910660 
#    y 0.000000 4.277940 0.000000 
#    z 0.910660 0.000000 5.777690 
# 
# 
# High freq. dielectric constant tensor:
#      x y z
#    x 2.033200 0.000000 0.012500 
#    y 0.000000 1.982380 0.000000 
#    z 0.012500 0.000000 2.021280 
# 
# From -- ./inp_files/3380.got.cif
#   From: 2010.06.25/outbox.cif.g09.slc.cpg/sg10_2_cif.got.tgz:3380.got - 2010.06.27 22:07:45.
