data_PCOD8066299
_publ_section_title
;
Structure prediction by ZEFSAII (Michael W. Deem and Ramdas Pophale) SiO2 
 PCOD8066299
Probable space group: P 2/M
;
_chemical_formula_sum "Si O2"
_cell_formula_units_Z 24
_cell_length_a 8.814640
_cell_length_b 9.922208
_cell_length_c 14.221210
_cell_angle_alpha 90.000000
_cell_angle_beta 77.826146
_cell_angle_gamma 90.000000
_cell_volume 1215.826640
_symmetry_space_group_name_H-M "P 2/M"
_symmetry_group_IT_number 10
_symmetry_cell_setting 'monoclinic'
loop_
_space_group_symop_operation_xyz
x,y,z
-x,y,-z
-x,-y,-z
x,-y,z
loop_
_atom_site_type_symbol
_atom_site_label
_atom_site_fract_x
_atom_site_fract_y
_atom_site_fract_z
Si Si1 0.841351 0.146718 0.467970
Si Si2 0.720240 0.351393 0.744663
Si Si3 0.552166 0.246193 0.594820
Si Si4 0.471568 0.155260 0.109573
Si Si5 0.918423 0.342837 0.303313
Si Si6 0.288842 0.848278 0.764454
O O1 0.694771 0.143985 0.557360
O O2 0.823374 0.271959 0.399686
O O3 0.000000 0.170966 0.500000
O O4 0.846710 0.000000 0.415992
O O5 0.702954 0.500000 0.791237
O O6 0.621788 0.353487 0.660249
O O7 0.664655 0.242926 0.827352
O O8 0.900525 0.320331 0.703014
O O9 0.500000 0.308901 0.500000
O O10 0.411096 0.166803 0.662150
O O11 0.629066 0.178079 0.146798
O O12 0.417818 0.000000 0.119918
O O13 0.500000 0.204265 0.000000
O O14 0.872672 0.500000 0.302607
O O15 0.851626 0.261219 0.221633
O O16 0.221809 0.000000 0.770071
#
# Coordination Sequence:
#
# PCOD8066299 Si02
#       6
#     4   4   4   4   4   4
#     4  11  22  36  55  78 109 156 205 243 283 333
#     4  10  23  40  57  83 117 154 194 234 282 339
#     4  11  21  35  54  84 115 152 194 244 281 332
#     4   9  20  41  67  92 115 142 181 234 294 348
#     4  11  23  38  54  78 118 158 192 235 281 336
#     4  10  21  37  59  86 115 147 189 240 285 340
#
# _framework density 19.739654999999999
#
# number of rings (size 3 to 8) (size 9 to 14) (size 15 to 20)
#    0.000    1.667    3.333    1.000    0.000    7.000 
#    0.000    0.833    0.000    5.000    0.000    0.000 
#    0.000    0.000    0.000    0.000    0.000    0.000 
#
# Total GULP energy -297385.000730 kJ/mol
# GULP energy per Si atom -12391.041697 kJ/mol
# Density = 1.969473 g / cm^3
# Si number density = 19.739655 Si / 1000 Ang^3
#
#
#
# Elastic Constant Matrix: (Units=GPa)
#
#
# Indices 1 2 3 4 5 6 
#
# 1 100.3034 47.1646 32.0814 0.0000 8.0478 0.0000
# 2 47.1646 136.4575 40.5374 0.0000 2.0350 0.0000
# 3 32.0814 40.5374 112.1709 0.0000 14.7001 0.0000
# 4 0.0000 0.0000 0.0000 19.4694 0.0000 -0.5818
# 5 8.0478 2.0350 14.7001 0.0000 20.9889 0.0000
# 6 0.0000 0.0000 0.0000 -0.5818 0.0000 26.8754
#
#
#
# Elastic Compliance Matrix: (Units=1/GPa)
#
#
# Indices 1 2 3 4 5 6 
#
# 1 0.012575 -0.003758 -0.001821 0.000000 -0.003181 0.000000
# 2 -0.003758 0.009371 -0.002622 0.000000 0.002369 0.000000
# 3 -0.001821 -0.002622 0.011295 0.000000 -0.006958 0.000000
# 4 0.000000 0.000000 0.000000 0.051396 0.000000 0.001113
# 5 -0.003181 0.002369 -0.006958 0.000000 0.053508 0.000000
# 6 0.000000 0.000000 0.000000 0.001113 0.000000 0.037233
#
#
# Mechanical properties :
#
#
# Convention : Reuss Voigt Hill
#
# Bulk Modulus (GPa) = 59.38932 65.38874 62.38903
# Shear Modulus (GPa) = 25.33022 28.74330 27.03676
#
# Velocity S-wave (km/s) = 3.58608 3.82005 3.70492
# Velocity P-wave (km/s) = 6.87738 7.25635 7.06940
#
# Compressibility (1/GPa) = 0.01683805
#
# Stress axis : x y z
#
# Youngs Moduli (GPa) = 79.52590 106.71539 88.53106
#
# Poissons Ratio (x) = 0.40100 0.16126
# Poissons Ratio (y) = 0.29883 0.23215
# Poissons Ratio (z) = 0.14485 0.27983
#
# Static dielectric constant tensor:
#      x y z
#    x 3.804590 0.000000 0.262100 
#    y 0.000000 3.550940 0.000000 
#    z 0.262100 0.000000 3.452580 
# 
# 
# High freq. dielectric constant tensor:
#      x y z
#    x 1.785280 0.000000 0.017620 
#    y 0.000000 1.765590 0.000000 
#    z 0.017620 0.000000 1.737890 
# 
# From -- ./inp_files/60223.got.cif
#   From: 2010.06.25/outbox.cif.g09.slc.cpg/sg10_31_cif.got.tgz:60223.got - 2010.06.27 22:07:45.
