data_PCOD8066375
_publ_section_title
;
Structure prediction by ZEFSAII (Michael W. Deem and Ramdas Pophale) SiO2 
 PCOD8066375
Probable space group: P 2/M
;
_chemical_formula_sum "Si O2"
_cell_formula_units_Z 28
_cell_length_a 10.016711
_cell_length_b 8.430823
_cell_length_c 25.442709
_cell_angle_alpha 90.000000
_cell_angle_beta 140.057972
_cell_angle_gamma 90.000000
_cell_volume 1379.436597
_symmetry_space_group_name_H-M "P 2/M"
_symmetry_group_IT_number 10
_symmetry_cell_setting 'monoclinic'
loop_
_space_group_symop_operation_xyz
x,y,z
-x,y,-z
-x,-y,-z
x,-y,z
loop_
_atom_site_type_symbol
_atom_site_label
_atom_site_fract_x
_atom_site_fract_y
_atom_site_fract_z
Si Si1 0.457317 0.315332 0.427298
Si Si2 0.343803 0.315108 0.807341
Si Si3 0.955830 0.181738 0.742551
Si Si4 0.515261 0.688638 0.748058
Si Si5 0.768269 0.686814 0.431211
Si Si6 0.027895 0.315577 0.140279
Si Si7 0.390283 0.184014 0.020792
O O1 0.500000 0.268550 0.500000
O O2 0.398465 0.500000 0.403643
O O3 0.267541 0.211256 0.349903
O O4 0.660794 0.273282 0.454460
O O5 0.291321 0.500000 0.787946
O O6 0.432875 0.251468 0.779089
O O7 0.514215 0.285989 0.903491
O O8 0.131696 0.220420 0.752989
O O9 0.996601 0.292342 0.804874
O O10 0.974288 0.000000 0.766006
O O11 0.520192 0.500000 0.745833
O O12 0.368674 0.758957 0.657713
O O13 0.749164 0.752282 0.810528
O O14 0.785219 0.500000 0.427922
O O15 0.000000 0.761868 0.500000
O O16 0.001078 0.500000 0.118906
O O17 0.854555 0.218413 0.056198
O O18 0.431809 0.000000 0.044676
O O19 0.500000 0.237837 0.000000
#
# Coordination Sequence:
#
# PCOD8066375 Si02
#       7
#     4   4   4   4   4   4   4
#     4  10  21  37  62  93 119 153 204 252 295 351
#     4  11  23  39  63  91 119 156 205 252 298 353
#     4  12  24  39  59  87 125 165 201 244 300 358
#     4   9  20  37  59  90 122 153 197 253 303 351
#     4   9  17  32  57  89 123 151 187 245 303 345
#     4  11  21  39  66  90 117 156 204 251 297 353
#     4  11  23  39  59  88 126 159 196 244 303 362
#
# _framework density 20.298141000000001
#
# number of rings (size 3 to 8) (size 9 to 14) (size 15 to 20)
#    0.000    1.571    2.857    2.571    2.000    1.429 
#    0.000    5.714    0.000    0.429    0.000    0.000 
#    0.000    0.000    0.000    0.000    0.000    0.000 
#
# Total GULP energy -347331.603416 kJ/mol
# GULP energy per Si atom -12404.700122 kJ/mol
# Density = 2.025194 g / cm^3
# Si number density = 20.298141 Si / 1000 Ang^3
#
#
#
# Elastic Constant Matrix: (Units=GPa)
#
#
# Indices 1 2 3 4 5 6 
#
# 1 147.7794 15.8919 58.5912 0.0000 7.7407 0.0000
# 2 15.8919 36.9615 12.9854 0.0000 2.0649 0.0000
# 3 58.5912 12.9854 122.4161 0.0000 18.1613 0.0000
# 4 0.0000 0.0000 0.0000 18.3442 0.0000 3.0056
# 5 7.7407 2.0649 18.1613 0.0000 43.7951 0.0000
# 6 0.0000 0.0000 0.0000 3.0056 0.0000 9.6173
#
#
#
# Elastic Compliance Matrix: (Units=1/GPa)
#
#
# Indices 1 2 3 4 5 6 
#
# 1 0.008541 -0.002323 -0.003872 0.000000 0.000206 0.000000
# 2 -0.002323 0.028735 -0.001914 0.000000 -0.000151 0.000000
# 3 -0.003872 -0.001914 0.010773 0.000000 -0.003693 0.000000
# 4 0.000000 0.000000 0.000000 0.057455 0.000000 -0.017956
# 5 0.000206 -0.000151 -0.003693 0.000000 0.024336 0.000000
# 6 0.000000 0.000000 0.000000 -0.017956 0.000000 0.109591
#
#
# Mechanical properties :
#
#
# Convention : Reuss Voigt Hill
#
# Bulk Modulus (GPa) = 31.41626 53.56599 42.49112
# Shear Modulus (GPa) = 18.77870 28.99722 23.88796
#
# Velocity S-wave (km/s) = 3.04492 3.78374 3.43425
# Velocity P-wave (km/s) = 5.27949 6.74802 6.05842
#
# Compressibility (1/GPa) = 0.03183065
#
# Stress axis : x y z
#
# Youngs Moduli (GPa) = 117.08102 34.80085 92.82513
#
# Poissons Ratio (x) = 0.08086 0.35942
# Poissons Ratio (y) = 0.27203 0.17764
# Poissons Ratio (z) = 0.45334 0.06660
#
# Static dielectric constant tensor:
#      x y z
#    x 3.828220 0.000000 0.103040 
#    y 0.000000 3.306400 0.000000 
#    z 0.103040 0.000000 3.815560 
# 
# 
# High freq. dielectric constant tensor:
#      x y z
#    x 1.799480 0.000000 0.007430 
#    y 0.000000 1.762190 0.000000 
#    z 0.007430 0.000000 1.803640 
# 
# From -- ./inp_files/92100.got.cif
#   From: 2010.06.25/outbox.cif.g09.slc.cpg/sg10_47_cif.got.tgz:92100.got - 2010.06.27 22:07:45.
