data_PCOD8066727
_publ_section_title
;
Structure prediction by ZEFSAII (Michael W. Deem and Ramdas Pophale) SiO2 
 PCOD8066727
Probable space group: P 2/M
;
_chemical_formula_sum "Si O2"
_cell_formula_units_Z 28
_cell_length_a 14.236778
_cell_length_b 22.548799
_cell_length_c 8.774990
_cell_angle_alpha 90.000000
_cell_angle_beta 29.474561
_cell_angle_gamma 90.000000
_cell_volume 1386.052210
_symmetry_space_group_name_H-M "P 2/M"
_symmetry_group_IT_number 10
_symmetry_cell_setting 'monoclinic'
loop_
_space_group_symop_operation_xyz
x,y,z
-x,y,-z
-x,-y,-z
x,-y,z
loop_
_atom_site_type_symbol
_atom_site_label
_atom_site_fract_x
_atom_site_fract_y
_atom_site_fract_z
Si Si1 0.201331 0.068777 0.295365
Si Si2 0.539754 0.851414 0.275610
Si Si3 0.853649 0.857165 0.331242
Si Si4 0.307517 0.432533 0.710030
Si Si5 0.907951 0.223033 0.787795
Si Si6 0.300963 0.435052 0.362964
Si Si7 0.991827 0.360254 0.682688
O O1 0.200668 0.093421 0.468125
O O2 0.000000 0.080842 0.500000
O O3 0.250967 0.000000 0.235603
O O4 0.364517 0.098557 0.963199
O O5 0.500000 0.878232 0.500000
O O6 0.340334 0.832527 0.475511
O O7 0.684534 0.795835 0.096806
O O8 0.970073 0.804004 0.246253
O O9 0.000000 0.885016 0.000000
O O10 0.500000 0.403133 0.500000
O O11 0.288749 0.500000 0.791914
O O12 0.317997 0.426327 0.516786
O O13 0.134402 0.397689 0.025271
O O14 0.924684 0.292888 0.784332
O O15 0.000000 0.200945 0.500000
O O16 0.200491 0.500000 0.474072
O O17 0.202557 0.375016 0.442993
O O18 0.500000 0.436663 0.000000
O O19 0.000000 0.384337 0.500000
#
# Coordination Sequence:
#
# PCOD8066727 Si02
#       7
#     4   4   4   4   4   4   4
#     4  11  23  43  71 102 138 171 211 271 322 383
#     4  12  23  43  70  93 132 175 217 266 321 382
#     4  12  23  42  70  95 129 176 217 263 323 384
#     4  10  21  39  63  90 124 164 205 258 322 382
#     4  11  24  46  62  94 129 168 227 266 320 383
#     4  10  21  40  64  92 126 165 211 259 322 394
#     4  11  24  40  61  90 127 161 209 270 312 381
#
# _framework density 20.201260000000001
#
# number of rings (size 3 to 8) (size 9 to 14) (size 15 to 20)
#    0.000    1.000    4.286    2.143    0.000    6.857 
#    7.714    0.000    0.000    0.000    0.000    0.000 
#    0.000    0.000    0.000    0.000    0.000    0.000 
#
# Total GULP energy -347043.666375 kJ/mol
# GULP energy per Si atom -12394.416656 kJ/mol
# Density = 2.015528 g / cm^3
# Si number density = 20.201260 Si / 1000 Ang^3
#
#
#
# Elastic Constant Matrix: (Units=GPa)
#
#
# Indices 1 2 3 4 5 6 
#
# 1 140.8887 57.5382 70.5705 0.0000 -8.1403 0.0000
# 2 57.5382 97.6933 54.6053 0.0000 2.4486 0.0000
# 3 70.5705 54.6053 143.1433 0.0000 17.9886 0.0000
# 4 0.0000 0.0000 0.0000 -14.6706 0.0000 -10.6580
# 5 -8.1403 2.4486 17.9886 0.0000 51.8221 0.0000
# 6 0.0000 0.0000 0.0000 -10.6580 0.0000 29.2015
#
#
#
# Elastic Compliance Matrix: (Units=1/GPa)
#
#
# Indices 1 2 3 4 5 6 
#
# 1 0.011213 -0.004267 -0.004336 0.000000 0.003468 0.000000
# 2 -0.004267 0.014701 -0.003485 0.000000 -0.000155 0.000000
# 3 -0.004336 -0.003485 0.010998 0.000000 -0.004334 0.000000
# 4 0.000000 0.000000 0.000000 -0.053878 0.000000 -0.019664
# 5 0.003468 -0.000155 -0.004334 0.000000 0.021353 0.000000
# 6 0.000000 0.000000 0.000000 -0.019664 0.000000 0.027068
#
#
# Mechanical properties :
#
#
# Convention : Reuss Voigt Hill
#
# Bulk Modulus (GPa) = 78.52055 83.01705 80.76880
# Shear Modulus (GPa) = 83.50615 26.53803 55.02209
#
# Velocity S-wave (km/s) = 6.43637 3.62841 5.22457
# Velocity P-wave (km/s) = 9.70512 7.66407 8.74435
#
# Compressibility (1/GPa) = 0.01273552
#
# Stress axis : x y z
#
# Youngs Moduli (GPa) = 89.18392 68.02203 90.92885
#
# Poissons Ratio (x) = 0.29027 0.39426
# Poissons Ratio (y) = 0.38058 0.31686
# Poissons Ratio (z) = 0.38669 0.23704
#
# Static dielectric constant tensor:
#      x y z
#    x 3.940550 0.000000 0.024180 
#    y 0.000000 3.571540 0.000000 
#    z 0.024180 0.000000 3.940700 
# 
# 
# High freq. dielectric constant tensor:
#      x y z
#    x 1.804920 0.000000 0.007800 
#    y 0.000000 1.770160 0.000000 
#    z 0.007800 0.000000 1.810220 
# 
# From -- ./inp_files/30417.got.cif
#   From: 2010.06.25/outbox.cif.g09.slc.cpg/sg10_16_cif.got.tgz:30417.got - 2010.06.27 22:07:45.
