data_PCOD8066570
_publ_section_title
;
Structure prediction by ZEFSAII (Michael W. Deem and Ramdas Pophale) SiO2 
 PCOD8066570
Probable space group: P 2/M
;
_chemical_formula_sum "Si O2"
_cell_formula_units_Z 24
_cell_length_a 15.377806
_cell_length_b 15.341393
_cell_length_c 8.329426
_cell_angle_alpha 90.000000
_cell_angle_beta 36.785353
_cell_angle_gamma 90.000000
_cell_volume 1176.710782
_symmetry_space_group_name_H-M "P 2/M"
_symmetry_group_IT_number 10
_symmetry_cell_setting 'monoclinic'
loop_
_space_group_symop_operation_xyz
x,y,z
-x,y,-z
-x,-y,-z
x,-y,z
loop_
_atom_site_type_symbol
_atom_site_label
_atom_site_fract_x
_atom_site_fract_y
_atom_site_fract_z
Si Si1 0.154508 0.400693 0.192870
Si Si2 0.841505 0.000000 0.324306
Si Si3 0.149696 0.241807 0.985886
Si Si4 0.169305 0.805774 0.589173
Si Si5 0.600657 0.167835 0.200902
Si Si6 0.624560 0.691416 0.924686
Si Si7 0.487009 0.000000 0.208948
O O1 0.166990 0.500000 0.115851
O O2 0.272001 0.383692 0.159773
O O3 0.000000 0.380234 0.500000
O O4 0.183880 0.341010 0.992226
O O5 0.835257 0.089817 0.432064
O O6 0.680919 0.000000 0.472528
O O7 0.000000 0.000000 0.000000
O O8 0.195572 0.221520 0.735453
O O9 0.232534 0.176149 0.984438
O O10 0.979721 0.230388 0.259340
O O11 0.294840 0.765040 0.298508
O O12 0.500000 0.163271 0.500000
O O13 0.578701 0.082376 0.129971
O O14 0.552876 0.254204 0.175057
O O15 0.500000 0.646670 0.000000
O O16 0.500000 0.000000 0.000000
#
# Coordination Sequence:
#
# PCOD8066570 Si02
#       7
#     4   2   4   4   4   4   2
#     4  10  21  40  63  89 121 159 205 261 320 377
#     4  12  22  34  60  87 124 161 208 258 298 355
#     4  10  21  38  62  88 123 159 204 252 308 373
#     4  11  22  39  61  92 126 167 210 249 310 366
#     4  11  23  37  61  88 122 163 209 253 308 372
#     4  11  22  39  65  89 125 163 206 255 312 381
#     4  12  25  42  58  88 124 171 218 265 317 367
#
# _framework density 20.395835000000002
#
# number of rings (size 3 to 8) (size 9 to 14) (size 15 to 20)
#    0.000    1.167    3.333    4.750    0.000    1.667 
#    0.000    2.500    0.000   21.000    0.000    0.000 
#    0.000    0.000    0.000    0.000    0.000    0.000 
#
# Total GULP energy -297413.495477 kJ/mol
# GULP energy per Si atom -12392.228978 kJ/mol
# Density = 2.034941 g / cm^3
# Si number density = 20.395835 Si / 1000 Ang^3
#
#
#
# Elastic Constant Matrix: (Units=GPa)
#
#
# Indices 1 2 3 4 5 6 
#
# 1 148.5780 52.5998 23.8885 0.0000 -14.9210 0.0000
# 2 52.5998 122.1163 27.6454 0.0000 3.2621 0.0000
# 3 23.8885 27.6454 39.5686 0.0000 6.6320 0.0000
# 4 0.0000 0.0000 0.0000 15.4763 0.0000 0.1765
# 5 -14.9210 3.2621 6.6320 0.0000 35.3287 0.0000
# 6 0.0000 0.0000 0.0000 0.1765 0.0000 27.9004
#
#
#
# Elastic Compliance Matrix: (Units=1/GPa)
#
#
# Indices 1 2 3 4 5 6 
#
# 1 0.008956 -0.003064 -0.004076 0.000000 0.004830 0.000000
# 2 -0.003064 0.010781 -0.005471 0.000000 -0.001262 0.000000
# 3 -0.004076 -0.005471 0.032791 0.000000 -0.007372 0.000000
# 4 0.000000 0.000000 0.000000 0.064619 0.000000 -0.000409
# 5 0.004830 -0.001262 -0.007372 0.000000 0.031846 0.000000
# 6 0.000000 0.000000 0.000000 -0.000409 0.000000 0.035844
#
#
# Mechanical properties :
#
#
# Convention : Reuss Voigt Hill
#
# Bulk Modulus (GPa) = 36.62117 57.61447 47.11782
# Shear Modulus (GPa) = 22.81433 29.48305 26.14869
#
# Velocity S-wave (km/s) = 3.34814 3.80615 3.58447
# Velocity P-wave (km/s) = 5.73942 6.90110 6.34690
#
# Compressibility (1/GPa) = 0.02730661
#
# Stress axis : x y z
#
# Youngs Moduli (GPa) = 111.66319 92.75684 30.49605
#
# Poissons Ratio (x) = 0.28419 0.12429
# Poissons Ratio (y) = 0.34211 0.16684
# Poissons Ratio (z) = 0.45510 0.50747
#
# Static dielectric constant tensor:
#      x y z
#    x 4.147360 0.000000 -0.272300 
#    y 0.000000 3.492480 0.000000 
#    z -0.272300 0.000000 3.833730 
# 
# 
# High freq. dielectric constant tensor:
#      x y z
#    x 1.811320 0.000000 -0.014870 
#    y 0.000000 1.784980 0.000000 
#    z -0.014870 0.000000 1.796110 
# 
# From -- ./inp_files/29357.got.cif
#   From: 2010.06.25/outbox.cif.g09.slc.cpg/sg10_15_cif.got.tgz:29357.got - 2010.06.27 22:07:45.
