data_PCOD8066466
_publ_section_title
;
Structure prediction by ZEFSAII (Michael W. Deem and Ramdas Pophale) SiO2 
 PCOD8066466
Probable space group: P 2/M
;
_chemical_formula_sum "Si O2"
_cell_formula_units_Z 28
_cell_length_a 10.234962
_cell_length_b 7.705509
_cell_length_c 27.638222
_cell_angle_alpha 90.000000
_cell_angle_beta 37.538439
_cell_angle_gamma 90.000000
_cell_volume 1328.080019
_symmetry_space_group_name_H-M "P 2/M"
_symmetry_group_IT_number 10
_symmetry_cell_setting 'monoclinic'
loop_
_space_group_symop_operation_xyz
x,y,z
-x,y,-z
-x,-y,-z
x,-y,z
loop_
_atom_site_type_symbol
_atom_site_label
_atom_site_fract_x
_atom_site_fract_y
_atom_site_fract_z
Si Si1 0.443655 0.803262 0.657077
Si Si2 0.994291 0.701231 0.755005
Si Si3 0.799542 0.000000 0.126003
Si Si4 0.456974 0.699008 0.068034
Si Si5 0.523171 0.303092 0.247478
Si Si6 0.280360 0.000000 0.963135
Si Si7 0.920983 0.704756 0.667956
Si Si8 0.361344 0.800530 0.497291
O O1 0.500710 0.692286 0.687571
O O2 0.571561 0.718082 0.574045
O O3 0.190586 0.804465 0.720260
O O4 0.517166 0.000000 0.645497
O O5 0.055986 0.500000 0.734475
O O6 0.791844 0.734300 0.848739
O O7 0.943142 0.772956 0.716279
O O8 0.713587 0.174204 0.176729
O O9 0.737998 0.000000 0.088541
O O10 0.054680 0.000000 0.057084
O O11 0.518257 0.500000 0.062747
O O12 0.597210 0.824274 0.059685
O O13 0.500000 0.743371 0.000000
O O14 0.574599 0.500000 0.214897
O O15 0.305092 0.232293 0.287148
O O16 0.936498 0.500000 0.661025
O O17 0.109061 0.782531 0.579824
O O18 0.500000 0.711862 0.500000
O O19 0.430780 0.000000 0.473875
#
# Coordination Sequence:
#
# PCOD8066466 Si02
#       8
#     4   4   2   4   4   2   4   4
#     4  11  23  39  62  95 130 169 218 267 323 387
#     4  10  21  38  62  93 125 166 217 267 324 384
#     4  11  26  46  68  97 125 171 220 263 323 396
#     4  10  23  41  65  99 135 169 213 268 326 386
#     4  11  25  45  67  95 130 171 217 267 323 386
#     4  11  25  44  68  96 130 169 217 264 328 387
#     4  10  22  39  63  91 124 170 220 266 318 383
#     4  10  21  38  59  92 131 167 211 265 323 375
#
# _framework density 21.083067
#
# number of rings (size 3 to 8) (size 9 to 14) (size 15 to 20)
#    0.000    1.571    2.143    1.500    4.000    4.286 
#    0.000    4.286    0.000    0.000    0.000    0.000 
#    0.000    0.000    0.000    0.000    0.000    0.000 
#
# Total GULP energy -347304.200402 kJ/mol
# GULP energy per Si atom -12403.721443 kJ/mol
# Density = 2.103508 g / cm^3
# Si number density = 21.083067 Si / 1000 Ang^3
#
#
#
# Elastic Constant Matrix: (Units=GPa)
#
#
# Indices 1 2 3 4 5 6 
#
# 1 81.2621 5.5811 15.0742 0.0000 7.1364 0.0000
# 2 5.5811 66.0196 15.5639 0.0000 -1.9453 0.0000
# 3 15.0742 15.5639 121.5471 0.0000 11.7392 0.0000
# 4 0.0000 0.0000 0.0000 10.6360 0.0000 -1.2839
# 5 7.1364 -1.9453 11.7392 0.0000 31.8061 0.0000
# 6 0.0000 0.0000 0.0000 -1.2839 0.0000 13.4308
#
#
#
# Elastic Compliance Matrix: (Units=1/GPa)
#
#
# Indices 1 2 3 4 5 6 
#
# 1 0.012812 -0.000864 -0.001240 0.000000 -0.002470 0.000000
# 2 -0.000864 0.015772 -0.002099 0.000000 0.001933 0.000000
# 3 -0.001240 -0.002099 0.008955 0.000000 -0.003155 0.000000
# 4 0.000000 0.000000 0.000000 0.095118 0.000000 0.009092
# 5 -0.002470 0.001933 -0.003155 0.000000 0.033278 0.000000
# 6 0.000000 0.000000 0.000000 0.009092 0.000000 0.075325
#
#
# Mechanical properties :
#
#
# Convention : Reuss Voigt Hill
#
# Bulk Modulus (GPa) = 34.32494 37.91857 36.12175
# Shear Modulus (GPa) = 19.27713 26.68189 22.97951
#
# Velocity S-wave (km/s) = 3.02709 3.56133 3.30502
# Velocity P-wave (km/s) = 5.34171 5.91059 5.63334
#
# Compressibility (1/GPa) = 0.02913334
#
# Stress axis : x y z
#
# Youngs Moduli (GPa) = 78.05150 63.40414 111.67501
#
# Poissons Ratio (x) = 0.05475 0.13846
# Poissons Ratio (y) = 0.06740 0.23442
# Poissons Ratio (z) = 0.09677 0.13310
#
# Static dielectric constant tensor:
#      x y z
#    x 3.860410 0.000000 0.127520 
#    y 0.000000 3.665170 0.000000 
#    z 0.127520 0.000000 3.931000 
# 
# 
# High freq. dielectric constant tensor:
#      x y z
#    x 1.825950 0.000000 0.008090 
#    y 0.000000 1.823470 0.000000 
#    z 0.008090 0.000000 1.834360 
# 
# From -- ./inp_files/92009.got.cif
#   From: 2010.06.25/outbox.cif.g09.slc.cpg/sg10_47_cif.got.tgz:92009.got - 2010.06.27 22:07:45.
