data_PCOD8066068
_publ_section_title
;
Structure prediction by ZEFSAII (Michael W. Deem and Ramdas Pophale) SiO2 
 PCOD8066068
Probable space group: P 2/M
;
_chemical_formula_sum "Si O2"
_cell_formula_units_Z 28
_cell_length_a 30.777444
_cell_length_b 7.594639
_cell_length_c 9.707921
_cell_angle_alpha 90.000000
_cell_angle_beta 143.920536
_cell_angle_gamma 90.000000
_cell_volume 1336.326030
_symmetry_space_group_name_H-M "P 2/M"
_symmetry_group_IT_number 10
_symmetry_cell_setting 'monoclinic'
loop_
_space_group_symop_operation_xyz
x,y,z
-x,y,-z
-x,-y,-z
x,-y,z
loop_
_atom_site_type_symbol
_atom_site_label
_atom_site_fract_x
_atom_site_fract_y
_atom_site_fract_z
Si Si1 0.935561 0.711100 0.737323
Si Si2 0.934526 0.705318 0.426791
Si Si3 0.575044 0.000000 0.108393
Si Si4 0.784511 0.304063 0.445207
Si Si5 0.322762 0.697428 0.073667
Si Si6 0.312897 0.700165 0.566256
Si Si7 0.574748 0.000000 0.776460
Si Si8 0.229199 0.798160 0.090987
O O1 0.930897 0.500000 0.719880
O O2 0.942775 0.787711 0.601056
O O3 0.862516 0.791286 0.622176
O O4 0.000000 0.780285 0.000000
O O5 0.948899 0.500000 0.474217
O O6 0.852691 0.736229 0.158568
O O7 0.000000 0.788768 0.500000
O O8 0.616526 0.825057 0.268793
O O9 0.500000 0.000000 0.000000
O O10 0.562123 0.000000 0.909498
O O11 0.797992 0.500000 0.538495
O O12 0.732554 0.210256 0.423725
O O13 0.748055 0.309686 0.203410
O O14 0.356324 0.500000 0.177497
O O15 0.383234 0.823773 0.161608
O O16 0.291678 0.769947 0.136569
O O17 0.339747 0.500000 0.667594
O O18 0.258540 0.691712 0.297001
O O19 0.500000 0.000000 0.500000
O O20 0.225322 0.000000 0.121852
#
# Coordination Sequence:
#
# PCOD8066068 Si02
#       8
#     4   4   2   4   4   4   2   4
#     4   9  17  30  52  86 124 163 213 271 323 376
#     4  10  21  36  56  88 130 174 221 276 336 396
#     4  12  28  48  70 102 143 172 213 265 324 400
#     4   9  18  35  63  91 120 167 221 269 318 375
#     4  11  22  43  70  97 131 172 222 275 326 388
#     4  11  24  44  69  97 131 176 223 270 330 394
#     4  12  28  46  72 104 137 174 214 262 329 395
#     4  12  24  40  66  96 130 175 226 283 339 393
#
# _framework density 20.952969
#
# number of rings (size 3 to 8) (size 9 to 14) (size 15 to 20)
#    0.000    1.429    4.286    1.286    4.000    0.857 
#    0.000    0.000    0.000    0.429    0.000    0.000 
#    0.000    0.000    0.000    0.000    0.000    0.000 
#
# Total GULP energy -347067.103202 kJ/mol
# GULP energy per Si atom -12395.253686 kJ/mol
# Density = 2.090528 g / cm^3
# Si number density = 20.952969 Si / 1000 Ang^3
#
#
#
# Elastic Constant Matrix: (Units=GPa)
#
#
# Indices 1 2 3 4 5 6 
#
# 1 138.8981 31.9066 49.7174 0.0000 11.8543 0.0000
# 2 31.9066 76.4968 25.6601 0.0000 13.4556 0.0000
# 3 49.7174 25.6601 126.0596 0.0000 5.3381 0.0000
# 4 0.0000 0.0000 0.0000 17.6531 0.0000 0.3923
# 5 11.8543 13.4556 5.3381 0.0000 40.5119 0.0000
# 6 0.0000 0.0000 0.0000 0.3923 0.0000 18.7648
#
#
#
# Elastic Compliance Matrix: (Units=1/GPa)
#
#
# Indices 1 2 3 4 5 6 
#
# 1 0.008953 -0.002494 -0.002964 0.000000 -0.001401 0.000000
# 2 -0.002494 0.015515 -0.001998 0.000000 -0.004160 0.000000
# 3 -0.002964 -0.001998 0.009497 0.000000 0.000280 0.000000
# 4 0.000000 0.000000 0.000000 0.056674 0.000000 -0.001185
# 5 -0.001401 -0.004160 0.000280 0.000000 0.026439 0.000000
# 6 0.000000 0.000000 0.000000 -0.001185 0.000000 0.053316
#
#
# Mechanical properties :
#
#
# Convention : Reuss Voigt Hill
#
# Bulk Modulus (GPa) = 52.48784 61.78028 57.13406
# Shear Modulus (GPa) = 26.08848 30.99733 28.54291
#
# Velocity S-wave (km/s) = 3.53242 3.85044 3.69485
# Velocity P-wave (km/s) = 6.46081 7.02261 6.74756
#
# Compressibility (1/GPa) = 0.01905203
#
# Stress axis : x y z
#
# Youngs Moduli (GPa) = 111.69635 64.45549 105.29947
#
# Poissons Ratio (x) = 0.16072 0.31212
# Poissons Ratio (y) = 0.27852 0.21044
# Poissons Ratio (z) = 0.33108 0.12881
#
# Static dielectric constant tensor:
#      x y z
#    x 4.035440 0.000000 -0.088400 
#    y 0.000000 4.719240 0.000000 
#    z -0.088400 0.000000 3.773470 
# 
# 
# High freq. dielectric constant tensor:
#      x y z
#    x 1.833970 0.000000 -0.007390 
#    y 0.000000 1.810700 0.000000 
#    z -0.007390 0.000000 1.814580 
# 
# From -- ./inp_files/37391.got.cif
#   From: 2010.06.25/outbox.cif.g09.slc.cpg/sg10_19_cif.got.tgz:37391.got - 2010.06.27 22:07:45.
