data_PCOD8066564
_publ_section_title
;
Structure prediction by ZEFSAII (Michael W. Deem and Ramdas Pophale) SiO2 
 PCOD8066564
Probable space group: P 2/M
;
_chemical_formula_sum "Si O2"
_cell_formula_units_Z 24
_cell_length_a 8.559170
_cell_length_b 17.947231
_cell_length_c 8.701088
_cell_angle_alpha 90.000000
_cell_angle_beta 122.219727
_cell_angle_gamma 90.000000
_cell_volume 1130.779641
_symmetry_space_group_name_H-M "P 2/M"
_symmetry_group_IT_number 10
_symmetry_cell_setting 'monoclinic'
loop_
_space_group_symop_operation_xyz
x,y,z
-x,y,-z
-x,-y,-z
x,-y,z
loop_
_atom_site_type_symbol
_atom_site_label
_atom_site_fract_x
_atom_site_fract_y
_atom_site_fract_z
Si Si1 0.176819 0.675870 0.680862
Si Si2 0.800870 0.350330 0.952356
Si Si3 0.310364 0.792394 0.306380
Si Si4 0.951748 0.167015 0.317538
Si Si5 0.202652 0.917205 0.037499
Si Si6 0.533227 0.416987 0.343821
O O1 0.349910 0.647277 0.675443
O O2 0.000000 0.641833 0.500000
O O3 0.170997 0.765128 0.680303
O O4 0.192308 0.650265 0.862156
O O5 0.731242 0.274023 0.835100
O O6 0.666131 0.417961 0.840406
O O7 0.000000 0.372903 0.000000
O O8 0.500000 0.779666 0.500000
O O9 0.132602 0.800814 0.324537
O O10 0.332203 0.867155 0.214994
O O11 0.000000 0.121214 0.500000
O O12 0.818137 0.117211 0.143225
O O13 0.289724 0.000000 0.072331
O O14 0.000000 0.921259 0.000000
O O15 0.500000 0.391875 0.500000
O O16 0.620806 0.500000 0.377298
#
# Coordination Sequence:
#
# PCOD8066564 Si02
#       6
#     4   4   4   4   4   4
#     4  11  23  41  67  96 130 169 213 266 317 383
#     4  12  22  41  68  95 130 169 215 267 321 381
#     4  11  22  38  63  96 129 169 220 267 319 381
#     4  10  21  38  61  96 129 168 218 263 316 381
#     4   9  18  38  64  91 129 173 212 259 324 384
#     4  11  27  47  67  97 131 167 213 265 326 388
#
# _framework density 21.224294
#
# number of rings (size 3 to 8) (size 9 to 14) (size 15 to 20)
#    0.000    1.333    3.333    2.500    7.000    2.667 
#    0.000    0.833    0.000    1.000    0.000    0.000 
#    0.000    0.667    0.000    0.000    0.000    0.000 
#
# Total GULP energy -297467.653444 kJ/mol
# GULP energy per Si atom -12394.485560 kJ/mol
# Density = 2.117599 g / cm^3
# Si number density = 21.224294 Si / 1000 Ang^3
#
#
#
# Elastic Constant Matrix: (Units=GPa)
#
#
# Indices 1 2 3 4 5 6 
#
# 1 96.8017 51.2934 53.9632 0.0000 -11.6904 0.0000
# 2 51.2934 88.2973 34.5626 0.0000 -9.7311 0.0000
# 3 53.9632 34.5626 163.2733 0.0000 -22.6749 0.0000
# 4 0.0000 0.0000 0.0000 31.8385 0.0000 -3.6912
# 5 -11.6904 -9.7311 -22.6749 0.0000 46.4281 0.0000
# 6 0.0000 0.0000 0.0000 -3.6912 0.0000 22.3822
#
#
#
# Elastic Compliance Matrix: (Units=1/GPa)
#
#
# Indices 1 2 3 4 5 6 
#
# 1 0.016874 -0.008265 -0.003731 0.000000 0.000694 0.000000
# 2 -0.008265 0.016484 -0.000608 0.000000 0.001077 0.000000
# 3 -0.003731 -0.000608 0.007872 0.000000 0.002778 0.000000
# 4 0.000000 0.000000 0.000000 0.032021 0.000000 0.005281
# 5 0.000694 0.001077 0.002778 0.000000 0.023296 0.000000
# 6 0.000000 0.000000 0.000000 0.005281 0.000000 0.045549
#
#
# Mechanical properties :
#
#
# Convention : Reuss Voigt Hill
#
# Bulk Modulus (GPa) = 62.41767 69.77896 66.09831
# Shear Modulus (GPa) = 28.96135 34.03331 31.49733
#
# Velocity S-wave (km/s) = 3.69797 4.00873 3.85648
# Velocity P-wave (km/s) = 6.90694 7.37393 7.14425
#
# Compressibility (1/GPa) = 0.01602111
#
# Stress axis : x y z
#
# Youngs Moduli (GPa) = 59.26396 60.66672 127.02827
#
# Poissons Ratio (x) = 0.50143 0.47392
# Poissons Ratio (y) = 0.48983 0.07724
# Poissons Ratio (z) = 0.22110 0.03689
#
# Static dielectric constant tensor:
#      x y z
#    x 3.722800 0.000000 -0.174640 
#    y 0.000000 3.816980 0.000000 
#    z -0.174640 0.000000 4.429160 
# 
# 
# High freq. dielectric constant tensor:
#      x y z
#    x 1.819330 0.000000 -0.016860 
#    y 0.000000 1.816540 0.000000 
#    z -0.016860 0.000000 1.857260 
# 
# From -- ./inp_files/20263.got.cif
#   From: 2010.06.25/outbox.cif.g09.slc.cpg/sg10_11_cif.got.tgz:20263.got - 2010.06.27 22:07:45.
