data_PCOD8066318
_publ_section_title
;
Structure prediction by ZEFSAII (Michael W. Deem and Ramdas Pophale) SiO2 
 PCOD8066318
Probable space group: P 2/M
;
_chemical_formula_sum "Si O2"
_cell_formula_units_Z 32
_cell_length_a 13.025314
_cell_length_b 8.549799
_cell_length_c 30.350220
_cell_angle_alpha 90.000000
_cell_angle_beta 27.711052
_cell_angle_gamma 90.000000
_cell_volume 1571.704439
_symmetry_space_group_name_H-M "P 2/M"
_symmetry_group_IT_number 10
_symmetry_cell_setting 'monoclinic'
loop_
_space_group_symop_operation_xyz
x,y,z
-x,y,-z
-x,-y,-z
x,-y,z
loop_
_atom_site_type_symbol
_atom_site_label
_atom_site_fract_x
_atom_site_fract_y
_atom_site_fract_z
Si Si1 0.628358 0.317740 0.229475
Si Si2 0.051071 0.813834 0.116662
Si Si3 0.080345 0.182974 0.204466
Si Si4 0.418637 0.815919 0.227758
Si Si5 0.051241 0.318373 0.585638
Si Si6 0.503640 0.185675 0.900228
Si Si7 0.247780 0.182262 0.596100
Si Si8 0.231420 0.818063 0.433846
O O1 0.633281 0.500000 0.217502
O O2 0.608905 0.226674 0.190350
O O3 0.426771 0.280020 0.338344
O O4 0.854080 0.266481 0.165927
O O5 0.053962 0.747933 0.165563
O O6 0.020805 0.000000 0.126651
O O7 0.276849 0.758061 0.008099
O O8 0.291962 0.256248 0.149332
O O9 0.856643 0.218176 0.316500
O O10 0.123441 0.000000 0.183554
O O11 0.484825 0.752511 0.154345
O O12 0.198469 0.732812 0.328785
O O13 0.375581 0.000000 0.243365
O O14 0.077157 0.500000 0.565682
O O15 0.111505 0.281372 0.612854
O O16 0.217439 0.223267 0.490834
O O17 0.518437 0.000000 0.894300
O O18 0.500000 0.237737 0.500000
O O19 0.224941 0.000000 0.592644
O O20 0.000000 0.769579 0.500000
O O21 0.284933 0.000000 0.406912
#
# Coordination Sequence:
#
# PCOD8066318 Si02
#       8
#     4   4   4   4   4   4   4   4
#     4  12  26  42  59  88 129 164 200 251 309 368
#     4  10  21  38  63  92 121 159 207 257 313 366
#     4   9  17  34  61  93 121 153 204 261 306 355
#     4  11  21  39  65  90 120 160 210 259 303 361
#     4  12  24  38  59  90 125 161 198 248 309 368
#     4   9  18  35  64  95 118 149 205 270 311 351
#     4  10  21  37  59  89 123 162 207 252 301 361
#     4  11  23  40  65  89 114 156 204 245 288 353
#
# _framework density 20.360063
#
# number of rings (size 3 to 8) (size 9 to 14) (size 15 to 20)
#    0.000    1.500    2.500    3.375    1.750    2.750 
#    0.000    4.375    0.000    0.750    0.000    0.000 
#    0.000    0.000    0.000    0.000    0.000    0.000 
#
# Total GULP energy -396931.328664 kJ/mol
# GULP energy per Si atom -12404.104021 kJ/mol
# Density = 2.031372 g / cm^3
# Si number density = 20.360063 Si / 1000 Ang^3
#
#
#
# Elastic Constant Matrix: (Units=GPa)
#
#
# Indices 1 2 3 4 5 6 
#
# 1 143.5216 13.4413 63.3723 0.0000 4.9253 0.0000
# 2 13.4413 41.8140 20.6417 0.0000 -2.2730 0.0000
# 3 63.3723 20.6417 135.3595 0.0000 -1.2389 0.0000
# 4 0.0000 0.0000 0.0000 11.0863 0.0000 -4.3525
# 5 4.9253 -2.2730 -1.2389 0.0000 38.2258 0.0000
# 6 0.0000 0.0000 0.0000 -4.3525 0.0000 13.5554
#
#
#
# Elastic Compliance Matrix: (Units=1/GPa)
#
#
# Indices 1 2 3 4 5 6 
#
# 1 0.008879 -0.000939 -0.004026 0.000000 -0.001330 0.000000
# 2 -0.000939 0.026038 -0.003517 0.000000 0.001555 0.000000
# 3 -0.004026 -0.003517 0.009815 0.000000 0.000628 0.000000
# 4 0.000000 0.000000 0.000000 0.103213 0.000000 0.033141
# 5 -0.001330 0.001555 0.000628 0.000000 0.026445 0.000000
# 6 0.000000 0.000000 0.000000 0.033141 0.000000 0.084413
#
#
# Mechanical properties :
#
#
# Convention : Reuss Voigt Hill
#
# Bulk Modulus (GPa) = 36.01274 57.28953 46.65114
# Shear Modulus (GPa) = 17.54259 27.45615 22.49937
#
# Velocity S-wave (km/s) = 2.93852 3.67622 3.32787
# Velocity P-wave (km/s) = 5.40736 6.79843 6.14240
#
# Compressibility (1/GPa) = 0.02776795
#
# Stress axis : x y z
#
# Youngs Moduli (GPa) = 112.62775 38.40548 101.88925
#
# Poissons Ratio (x) = 0.03607 0.41019
# Poissons Ratio (y) = 0.10577 0.35832
# Poissons Ratio (z) = 0.45342 0.13506
#
# Static dielectric constant tensor:
#      x y z
#    x 3.890180 0.000000 0.083890 
#    y 0.000000 3.317650 0.000000 
#    z 0.083890 0.000000 3.799480 
# 
# 
# High freq. dielectric constant tensor:
#      x y z
#    x 1.809170 0.000000 0.007160 
#    y 0.000000 1.763350 0.000000 
#    z 0.007160 0.000000 1.800620 
# 
# From -- ./inp_files/94972.got.cif
#   From: 2010.06.25/outbox.cif.g09.slc.cpg/sg10_48_cif.got.tgz:94972.got - 2010.06.27 22:07:45.
