data_PCOD8066810
_publ_section_title
;
Structure prediction by ZEFSAII (Michael W. Deem and Ramdas Pophale) SiO2 
 PCOD8066810
Probable space group: P 2/M
;
_chemical_formula_sum "Si O2"
_cell_formula_units_Z 32
_cell_length_a 14.243499
_cell_length_b 17.816589
_cell_length_c 11.859113
_cell_angle_alpha 90.000000
_cell_angle_beta 147.870394
_cell_angle_gamma 90.000000
_cell_volume 1600.557872
_symmetry_space_group_name_H-M "P 2/M"
_symmetry_group_IT_number 10
_symmetry_cell_setting 'monoclinic'
loop_
_space_group_symop_operation_xyz
x,y,z
-x,y,-z
-x,-y,-z
x,-y,z
loop_
_atom_site_type_symbol
_atom_site_label
_atom_site_fract_x
_atom_site_fract_y
_atom_site_fract_z
Si Si1 0.007816 0.340084 0.139263
Si Si2 0.702755 0.181313 0.221834
Si Si3 0.334434 0.912358 0.598346
Si Si4 0.320663 0.586993 0.588316
Si Si5 0.334084 0.329002 0.072506
Si Si6 0.964468 0.834215 0.834340
Si Si7 0.292864 0.155226 0.020781
Si Si8 0.801801 0.656219 0.312356
O O1 0.149535 0.392916 0.342118
O O2 0.058455 0.253803 0.213702
O O3 0.819532 0.359075 0.002728
O O4 0.000000 0.359211 0.000000
O O5 0.726426 0.120741 0.343509
O O6 0.808465 0.256922 0.360829
O O7 0.500000 0.205472 0.000000
O O8 0.771456 0.145775 0.174329
O O9 0.216751 0.875254 0.381452
O O10 0.540538 0.897648 0.782794
O O11 0.298391 0.000000 0.564340
O O12 0.362878 0.500000 0.618574
O O13 0.484765 0.632995 0.704062
O O14 0.294664 0.605918 0.693309
O O15 0.354995 0.240009 0.107018
O O16 0.299034 0.351764 0.907832
O O17 0.000000 0.850722 0.000000
O O18 0.128787 0.868148 0.931520
O O19 0.000000 0.626677 0.500000
#
# Coordination Sequence:
#
# PCOD8066810 Si02
#       8
#     4   4   4   4   4   4   4   4
#     4  10  22  43  67  89 114 152 208 259 294 340
#     4   9  19  35  59  88 116 153 197 240 288 349
#     4  11  23  37  57  87 126 159 187 236 298 359
#     4  12  25  39  59  89 127 161 191 239 302 368
#     4  10  21  40  63  91 116 157 199 248 297 349
#     4  10  22  40  64  88 110 150 207 253 286 338
#     4   9  20  38  62  86 116 151 196 244 293 340
#     4  11  20  36  63  90 119 155 199 247 294 347
#
# _framework density 19.993027999999999
#
# number of rings (size 3 to 8) (size 9 to 14) (size 15 to 20)
#    0.000    1.750    1.250    4.125    3.500    6.000 
#    0.000    5.625    0.000    0.000    0.000    0.000 
#    0.000    0.000    0.000    0.000    0.000    0.000 
#
# Total GULP energy -396958.183859 kJ/mol
# GULP energy per Si atom -12404.943246 kJ/mol
# Density = 1.994752 g / cm^3
# Si number density = 19.993028 Si / 1000 Ang^3
#
#
#
# Elastic Constant Matrix: (Units=GPa)
#
#
# Indices 1 2 3 4 5 6 
#
# 1 93.7348 14.0542 31.0401 0.0000 -5.0386 0.0000
# 2 14.0542 62.4105 22.5707 0.0000 -1.0364 0.0000
# 3 31.0401 22.5707 64.9528 0.0000 0.4585 0.0000
# 4 0.0000 0.0000 0.0000 19.2428 0.0000 2.4645
# 5 -5.0386 -1.0364 0.4585 0.0000 30.4044 0.0000
# 6 0.0000 0.0000 0.0000 2.4645 0.0000 4.6791
#
#
#
# Elastic Compliance Matrix: (Units=1/GPa)
#
#
# Indices 1 2 3 4 5 6 
#
# 1 0.012850 -0.000722 -0.005906 0.000000 0.002194 0.000000
# 2 -0.000722 0.018382 -0.006047 0.000000 0.000598 0.000000
# 3 -0.005906 -0.006047 0.020330 0.000000 -0.001491 0.000000
# 4 0.000000 0.000000 0.000000 0.055727 0.000000 -0.029351
# 5 0.002194 0.000598 -0.001491 0.000000 0.033296 0.000000
# 6 0.000000 0.000000 0.000000 -0.029351 0.000000 0.229176
#
#
# Mechanical properties :
#
#
# Convention : Reuss Voigt Hill
#
# Bulk Modulus (GPa) = 38.14802 39.60313 38.87558
# Shear Modulus (GPa) = 12.38091 21.09413 16.73752
#
# Velocity S-wave (km/s) = 2.49120 3.25171 2.89652
# Velocity P-wave (km/s) = 5.23420 5.82663 5.53834
#
# Compressibility (1/GPa) = 0.02621368
#
# Stress axis : x y z
#
# Youngs Moduli (GPa) = 77.81989 54.40013 49.18858
#
# Poissons Ratio (x) = 0.03925 0.29049
# Poissons Ratio (y) = 0.05615 0.29745
# Poissons Ratio (z) = 0.45958 0.32897
#
# Static dielectric constant tensor:
#      x y z
#    x 3.829200 0.000000 0.062460 
#    y 0.000000 3.357110 0.000000 
#    z 0.062460 0.000000 3.643320 
# 
# 
# High freq. dielectric constant tensor:
#      x y z
#    x 1.787230 0.000000 0.007200 
#    y 0.000000 1.755670 0.000000 
#    z 0.007200 0.000000 1.782360 
# 
# From -- ./inp_files/52011.got.cif
#   From: 2010.06.25/outbox.cif.g09.slc.cpg/sg10_27_cif.got.tgz:52011.got - 2010.06.27 22:07:45.
