data_PCOD8066155
_publ_section_title
;
Structure prediction by ZEFSAII (Michael W. Deem and Ramdas Pophale) SiO2 
 PCOD8066155
Probable space group: P 2/M
;
_chemical_formula_sum "Si O2"
_cell_formula_units_Z 24
_cell_length_a 12.735305
_cell_length_b 22.039597
_cell_length_c 14.762105
_cell_angle_alpha 90.000000
_cell_angle_beta 19.573245
_cell_angle_gamma 90.000000
_cell_volume 1388.101329
_symmetry_space_group_name_H-M "P 2/M"
_symmetry_group_IT_number 10
_symmetry_cell_setting 'monoclinic'
loop_
_space_group_symop_operation_xyz
x,y,z
-x,y,-z
-x,-y,-z
x,-y,z
loop_
_atom_site_type_symbol
_atom_site_label
_atom_site_fract_x
_atom_site_fract_y
_atom_site_fract_z
Si Si1 0.756521 0.068930 0.615963
Si Si2 0.193521 0.624892 0.512900
Si Si3 0.853434 0.738018 0.718622
Si Si4 0.361129 0.430388 0.711130
Si Si5 0.555328 0.570236 0.057202
Si Si6 0.261729 0.131252 0.115855
O O1 0.000000 0.076976 0.500000
O O2 0.946205 0.090936 0.373204
O O3 0.639919 0.000000 0.700666
O O4 0.455219 0.113986 0.868097
O O5 0.484075 0.617099 0.344815
O O6 0.075493 0.693599 0.596071
O O7 0.917261 0.585261 0.783591
O O8 0.301467 0.603553 0.325825
O O9 0.827783 0.798485 0.799821
O O10 0.000000 0.751638 0.500000
O O11 0.500000 0.710444 0.000000
O O12 0.500000 0.420604 0.500000
O O13 0.409447 0.500000 0.705823
O O14 0.000000 0.413304 0.000000
O O15 0.492524 0.500000 0.123095
O O16 0.500000 0.591795 0.000000
O O17 0.500000 0.109744 0.000000
#
# Coordination Sequence:
#
# PCOD8066155 Si02
#       6
#     4   4   4   4   4   4
#     4   9  15  23  37  56  78 109 153 197 226 247
#     4  12  22  35  53  71  92 122 156 187 231 283
#     4  11  21  33  47  65  93 126 158 188 220 269
#     4  10  21  37  55  73  91 112 145 192 242 288
#     4  11  22  34  49  71  97 121 148 186 229 274
#     4   9  16  26  38  55  82 115 150 189 223 251
#
# _framework density 17.289805000000001
#
# number of rings (size 3 to 8) (size 9 to 14) (size 15 to 20)
#    0.000    1.667    0.000    8.500    0.000    4.667 
#    0.000    0.000    0.000    0.000    0.000    0.000 
#    0.000    0.000    0.000    0.000    0.000   16.667 
#
# Total GULP energy -297468.660270 kJ/mol
# GULP energy per Si atom -12394.527511 kJ/mol
# Density = 1.725045 g / cm^3
# Si number density = 17.289805 Si / 1000 Ang^3
#
#
#
# Elastic Constant Matrix: (Units=GPa)
#
#
# Indices 1 2 3 4 5 6 
#
# 1 43.4785 39.8186 28.9787 0.0000 -4.2326 0.0000
# 2 39.8186 116.2356 66.9934 0.0000 0.3875 0.0000
# 3 28.9787 66.9934 131.1768 0.0000 15.1587 0.0000
# 4 0.0000 0.0000 0.0000 36.0790 0.0000 3.3599
# 5 -4.2326 0.3875 15.1587 0.0000 23.8094 0.0000
# 6 0.0000 0.0000 0.0000 3.3599 0.0000 5.5899
#
#
#
# Elastic Compliance Matrix: (Units=1/GPa)
#
#
# Indices 1 2 3 4 5 6 
#
# 1 0.035570 -0.010054 -0.003748 0.000000 0.008873 0.000000
# 2 -0.010054 0.015410 -0.005843 0.000000 0.001682 0.000000
# 3 -0.003748 -0.005843 0.012415 0.000000 -0.008475 0.000000
# 4 0.000000 0.000000 0.000000 0.029360 0.000000 -0.017648
# 5 0.008873 0.001682 -0.008475 0.000000 0.048946 0.000000
# 6 0.000000 0.000000 0.000000 -0.017648 0.000000 0.189501
#
#
# Mechanical properties :
#
#
# Convention : Reuss Voigt Hill
#
# Bulk Modulus (GPa) = 41.48881 62.49690 51.99286
# Shear Modulus (GPa) = 13.20904 23.43569 18.32237
#
# Velocity S-wave (km/s) = 2.76702 3.68566 3.25887
# Velocity P-wave (km/s) = 5.85292 7.37138 6.65560
#
# Compressibility (1/GPa) = 0.02410288
#
# Stress axis : x y z
#
# Youngs Moduli (GPa) = 28.11356 64.89458 80.54822
#
# Poissons Ratio (x) = 0.65247 0.30193
# Poissons Ratio (y) = 0.28266 0.47065
# Poissons Ratio (z) = 0.10538 0.37918
#
# Static dielectric constant tensor:
#      x y z
#    x 2.737190 0.000000 0.276880 
#    y 0.000000 3.102370 0.000000 
#    z 0.276880 0.000000 3.706590 
# 
# 
# High freq. dielectric constant tensor:
#      x y z
#    x 1.594900 0.000000 0.031180 
#    y 0.000000 1.661610 0.000000 
#    z 0.031180 0.000000 1.698710 
# 
# From -- ./inp_files/65467.got.cif
#   From: 2010.06.25/outbox.cif.g09.slc.cpg/sg10_33_cif.got.tgz:65467.got - 2010.06.27 22:07:45.
