data_PCOD8066682
_publ_section_title
;
Structure prediction by ZEFSAII (Michael W. Deem and Ramdas Pophale) SiO2 
 PCOD8066682
Probable space group: P 2/M
;
_chemical_formula_sum "Si O2"
_cell_formula_units_Z 32
_cell_length_a 26.850935
_cell_length_b 8.909737
_cell_length_c 20.904059
_cell_angle_alpha 90.000000
_cell_angle_beta 19.697970
_cell_angle_gamma 90.000000
_cell_volume 1685.639063
_symmetry_space_group_name_H-M "P 2/M"
_symmetry_group_IT_number 10
_symmetry_cell_setting 'monoclinic'
loop_
_space_group_symop_operation_xyz
x,y,z
-x,y,-z
-x,-y,-z
x,-y,z
loop_
_atom_site_type_symbol
_atom_site_label
_atom_site_fract_x
_atom_site_fract_y
_atom_site_fract_z
Si Si1 0.160708 0.322031 0.783107
Si Si2 0.436789 0.823117 0.508623
Si Si3 0.550917 0.323179 0.143672
Si Si4 0.013357 0.677665 0.251182
Si Si5 0.222127 0.322188 0.566771
Si Si6 0.956180 0.173595 0.450980
Si Si7 0.235777 0.173072 0.199970
Si Si8 0.321879 0.822352 0.886215
O O1 0.174339 0.500000 0.768645
O O2 0.280113 0.255234 0.687309
O O3 0.189289 0.258471 0.677232
O O4 0.000000 0.267786 0.000000
O O5 0.500000 0.769006 0.500000
O O6 0.550651 0.770659 0.316398
O O7 0.412186 0.000000 0.537213
O O8 0.562025 0.500000 0.140481
O O9 0.382485 0.266110 0.349609
O O10 0.644925 0.241486 0.084354
O O11 0.622919 0.275207 0.988884
O O12 0.033811 0.500000 0.223694
O O13 0.899932 0.737776 0.334820
O O14 0.948029 0.722278 0.398942
O O15 0.167821 0.755836 0.048246
O O16 0.217963 0.500000 0.573590
O O17 0.813605 0.208127 0.667631
O O18 0.102381 0.212594 0.313753
O O19 0.958389 0.000000 0.427254
O O20 0.280722 0.000000 0.138835
O O21 0.307600 0.000000 0.907411
#
# Coordination Sequence:
#
# PCOD8066682 Si02
#       8
#     4   4   4   4   4   4   4   4
#     4  10  21  39  62  85 113 152 192 231 277 334
#     4  10  23  41  59  84 118 150 185 235 285 331
#     4  11  20  35  59  84 110 147 189 234 279 331
#     4  11  22  36  57  84 114 149 187 234 282 332
#     4   9  21  39  55  80 118 149 184 232 281 330
#     4   9  18  34  54  80 115 150 183 229 281 331
#     4   9  18  33  55  81 114 149 183 229 282 332
#     4  11  22  37  57  82 114 148 187 235 282 331
#
# _framework density 18.983899000000001
#
# number of rings (size 3 to 8) (size 9 to 14) (size 15 to 20)
#    0.000    2.000    2.500    1.875    1.750    1.500 
#    0.000    5.625    0.000    3.750    0.000    0.000 
#    0.000    0.000    0.000    0.000    0.000    0.000 
#
# Total GULP energy -396877.434843 kJ/mol
# GULP energy per Si atom -12402.419839 kJ/mol
# Density = 1.894069 g / cm^3
# Si number density = 18.983899 Si / 1000 Ang^3
#
#
#
# Elastic Constant Matrix: (Units=GPa)
#
#
# Indices 1 2 3 4 5 6 
#
# 1 93.3587 26.8132 54.4828 0.0000 -9.7572 0.0000
# 2 26.8132 50.7249 40.9895 0.0000 -2.5607 0.0000
# 3 54.4828 40.9895 160.2601 0.0000 -2.7136 0.0000
# 4 0.0000 0.0000 0.0000 25.7168 0.0000 5.6435
# 5 -9.7572 -2.5607 -2.7136 0.0000 33.9816 0.0000
# 6 0.0000 0.0000 0.0000 5.6435 0.0000 15.8271
#
#
#
# Elastic Compliance Matrix: (Units=1/GPa)
#
#
# Indices 1 2 3 4 5 6 
#
# 1 0.014554 -0.004493 -0.003739 0.000000 0.003542 0.000000
# 2 -0.004493 0.026301 -0.005195 0.000000 0.000277 0.000000
# 3 -0.003739 -0.005195 0.008827 0.000000 -0.000760 0.000000
# 4 0.000000 0.000000 0.000000 0.042186 0.000000 -0.015042
# 5 0.003542 0.000277 -0.000760 0.000000 0.030405 0.000000
# 6 0.000000 0.000000 0.000000 -0.015042 0.000000 0.068546
#
#
# Mechanical properties :
#
#
# Convention : Reuss Voigt Hill
#
# Bulk Modulus (GPa) = 43.80534 60.99050 52.39792
# Shear Modulus (GPa) = 22.19449 27.24234 24.71841
#
# Velocity S-wave (km/s) = 3.42295 3.79228 3.61234
# Velocity P-wave (km/s) = 6.22473 7.16746 6.71266
#
# Compressibility (1/GPa) = 0.02282827
#
# Stress axis : x y z
#
# Youngs Moduli (GPa) = 68.71056 38.02133 113.29379
#
# Poissons Ratio (x) = 0.17084 0.42356
# Poissons Ratio (y) = 0.30874 0.58853
# Poissons Ratio (z) = 0.25688 0.19751
#
# Static dielectric constant tensor:
#      x y z
#    x 3.495370 0.000000 0.134820 
#    y 0.000000 3.255060 0.000000 
#    z 0.134820 0.000000 3.717740 
# 
# 
# High freq. dielectric constant tensor:
#      x y z
#    x 1.729420 0.000000 0.010730 
#    y 0.000000 1.723340 0.000000 
#    z 0.010730 0.000000 1.751850 
# 
# From -- ./inp_files/86867.got.cif
#   From: 2010.06.25/outbox.cif.g09.slc.cpg/sg10_44_cif.got.tgz:86867.got - 2010.06.27 22:07:45.
