data_PCOD8066522
_publ_section_title
;
Structure prediction by ZEFSAII (Michael W. Deem and Ramdas Pophale) SiO2 
 PCOD8066522
Probable space group: P 2/M
;
_chemical_formula_sum "Si O2"
_cell_formula_units_Z 24
_cell_length_a 19.786117
_cell_length_b 12.357661
_cell_length_c 19.833575
_cell_angle_alpha 90.000000
_cell_angle_beta 165.256277
_cell_angle_gamma 90.000000
_cell_volume 1234.180892
_symmetry_space_group_name_H-M "P 2/M"
_symmetry_group_IT_number 10
_symmetry_cell_setting 'monoclinic'
loop_
_space_group_symop_operation_xyz
x,y,z
-x,y,-z
-x,-y,-z
x,-y,z
loop_
_atom_site_type_symbol
_atom_site_label
_atom_site_fract_x
_atom_site_fract_y
_atom_site_fract_z
Si Si1 0.225610 0.705684 0.270987
Si Si2 0.597442 0.686711 0.939280
Si Si3 0.237403 0.500000 0.375848
Si Si4 0.314867 0.500000 0.081408
Si Si5 0.955126 0.625517 0.532951
Si Si6 0.081765 0.875356 0.241346
Si Si7 0.527643 0.875257 0.775161
O O1 0.500000 0.735619 0.500000
O O2 0.269929 0.605013 0.362170
O O3 0.134414 0.810028 0.224402
O O4 0.000000 0.674823 0.000000
O O5 0.853103 0.694851 0.234060
O O6 0.658403 0.607381 0.936555
O O7 0.349767 0.644228 0.742934
O O8 0.538671 0.805752 0.853997
O O9 0.466230 0.500000 0.650869
O O10 0.965960 0.500000 0.154028
O O11 0.030465 0.500000 0.615111
O O12 0.000000 0.663888 0.500000
O O13 0.273240 0.837721 0.486691
O O14 0.135453 0.000000 0.275545
O O15 0.782174 0.853453 0.974476
O O16 0.508059 0.000000 0.778729
#
# Coordination Sequence:
#
# PCOD8066522 Si02
#       7
#     4   4   2   2   4   4   4
#     4  12  24  39  57  78 108 149 190 225 279 344
#     4  12  21  37  60  89 117 148 197 232 279 342
#     4  12  24  39  54  78 115 146 181 230 285 342
#     4  12  22  35  59  86 110 140 185 238 289 326
#     4  11  22  38  57  85 124 157 189 231 279 329
#     4  10  21  39  59  84 112 142 186 241 294 333
#     4  10  21  38  61  86 116 150 185 236 293 339
#
# _framework density 19.446095
#
# number of rings (size 3 to 8) (size 9 to 14) (size 15 to 20)
#    0.000    0.833    1.667    7.000    0.000    2.000 
#    0.000    0.000    0.000    3.000    0.000    0.000 
#    0.000    0.000    0.000    0.000    0.000    0.000 
#
# Total GULP energy -297813.485164 kJ/mol
# GULP energy per Si atom -12408.895215 kJ/mol
# Density = 1.940183 g / cm^3
# Si number density = 19.446095 Si / 1000 Ang^3
#
#
#
# Elastic Constant Matrix: (Units=GPa)
#
#
# Indices 1 2 3 4 5 6 
#
# 1 94.4090 37.8635 17.1470 0.0000 -11.2169 0.0000
# 2 37.8635 72.1163 6.2663 0.0000 -12.4369 0.0000
# 3 17.1470 6.2663 89.8397 0.0000 -12.2617 0.0000
# 4 0.0000 0.0000 0.0000 30.7620 0.0000 -18.5822
# 5 -11.2169 -12.4369 -12.2617 0.0000 33.3420 0.0000
# 6 0.0000 0.0000 0.0000 -18.5822 0.0000 64.0012
#
#
#
# Elastic Compliance Matrix: (Units=1/GPa)
#
#
# Indices 1 2 3 4 5 6 
#
# 1 0.013872 -0.006874 -0.001981 0.000000 0.001374 0.000000
# 2 -0.006874 0.018234 0.000687 0.000000 0.004742 0.000000
# 3 -0.001981 0.000687 0.012008 0.000000 0.004006 0.000000
# 4 0.000000 0.000000 0.000000 0.039422 0.000000 0.011446
# 5 0.001374 0.004742 0.004006 0.000000 0.033696 0.000000
# 6 0.000000 0.000000 0.000000 0.011446 0.000000 0.018948
#
#
# Mechanical properties :
#
#
# Convention : Reuss Voigt Hill
#
# Bulk Modulus (GPa) = 35.99890 42.10209 39.05049
# Shear Modulus (GPa) = 30.90727 38.62691 34.76709
#
# Velocity S-wave (km/s) = 3.99103 4.46169 4.23291
# Velocity P-wave (km/s) = 6.30794 6.94550 6.63438
#
# Compressibility (1/GPa) = 0.02777863
#
# Stress axis : x y z
#
# Youngs Moduli (GPa) = 72.08654 54.84350 83.27934
#
# Poissons Ratio (x) = 0.37701 0.16495
# Poissons Ratio (y) = 0.49554 -0.05725
# Poissons Ratio (z) = 0.14278 -0.03770
#
# Static dielectric constant tensor:
#      x y z
#    x 3.630150 0.000000 -0.013690 
#    y 0.000000 3.609630 0.000000 
#    z -0.013690 0.000000 3.773350 
# 
# 
# High freq. dielectric constant tensor:
#      x y z
#    x 1.759260 0.000000 0.000950 
#    y 0.000000 1.753570 0.000000 
#    z 0.000950 0.000000 1.781940 
# 
# From -- ./inp_files/90857.got.cif
#   From: 2010.06.25/outbox.cif.g09.slc.cpg/sg10_46_cif.got.tgz:90857.got - 2010.06.27 22:07:45.
