data_PCOD8066594
_publ_section_title
;
Structure prediction by ZEFSAII (Michael W. Deem and Ramdas Pophale) SiO2 
 PCOD8066594
Probable space group: P 2/M
;
_chemical_formula_sum "Si O2"
_cell_formula_units_Z 24
_cell_length_a 14.528105
_cell_length_b 9.339297
_cell_length_c 9.223037
_cell_angle_alpha 90.000000
_cell_angle_beta 98.282264
_cell_angle_gamma 90.000000
_cell_volume 1238.351161
_symmetry_space_group_name_H-M "P 2/M"
_symmetry_group_IT_number 10
_symmetry_cell_setting 'monoclinic'
loop_
_space_group_symop_operation_xyz
x,y,z
-x,y,-z
-x,-y,-z
x,-y,z
loop_
_atom_site_type_symbol
_atom_site_label
_atom_site_fract_x
_atom_site_fract_y
_atom_site_fract_z
Si Si1 0.426956 0.342107 0.109725
Si Si2 0.920007 0.164946 0.872368
Si Si3 0.744238 0.838048 0.031783
Si Si4 0.909060 0.331035 0.572664
Si Si5 0.752851 0.166434 0.364197
Si Si6 0.541368 0.158651 0.351297
O O1 0.399051 0.500000 0.158253
O O2 0.470668 0.258752 0.252207
O O3 0.500000 0.352161 0.000000
O O4 0.336992 0.267430 0.026986
O O5 0.923233 0.265937 0.734386
O O6 0.934157 0.000000 0.827212
O O7 0.824230 0.186791 0.934157
O O8 0.000000 0.214093 0.000000
O O9 0.779705 0.805776 0.202639
O O10 0.706218 0.000000 0.016200
O O11 0.892580 0.500000 0.582223
O O12 0.819190 0.261302 0.478522
O O13 0.000000 0.294692 0.500000
O O14 0.646965 0.217209 0.371197
O O15 0.765950 0.000000 0.409848
O O16 0.500000 0.150691 0.500000
O O17 0.541791 0.000000 0.280338
#
# Coordination Sequence:
#
# PCOD8066594 Si02
#       6
#     4   4   4   4   4   4
#     4  11  23  38  58  87 122 162 202 241 293 354
#     4  10  22  41  66  93 118 149 197 251 297 349
#     4  10  21  38  63  90 117 154 200 249 300 349
#     4  11  25  42  61  88 124 162 194 234 295 361
#     4  10  21  39  63  89 118 157 201 249 297 343
#     4  10  22  39  61  88 119 157 203 251 296 345
#
# _framework density 19.380610999999998
#
# number of rings (size 3 to 8) (size 9 to 14) (size 15 to 20)
#    0.000    1.667    1.667    2.000    2.333    6.000 
#    0.000    0.000    0.000    0.000    0.000    0.000 
#    0.000    0.000    0.000    0.000    0.000    0.000 
#
# Total GULP energy -297658.783577 kJ/mol
# GULP energy per Si atom -12402.449316 kJ/mol
# Density = 1.933650 g / cm^3
# Si number density = 19.380611 Si / 1000 Ang^3
#
#
#
# Elastic Constant Matrix: (Units=GPa)
#
#
# Indices 1 2 3 4 5 6 
#
# 1 77.6313 53.9898 45.9715 0.0000 13.5366 0.0000
# 2 53.9898 115.6607 67.4063 0.0000 18.2491 0.0000
# 3 45.9715 67.4063 122.0387 0.0000 6.8962 0.0000
# 4 0.0000 0.0000 0.0000-1584.9779 0.0000-1219.6754
# 5 13.5366 18.2491 6.8962 0.0000 38.3736 0.0000
# 6 0.0000 0.0000 0.0000-1219.6754 0.0000 -891.8817
#
#
#
# Elastic Compliance Matrix: (Units=1/GPa)
#
#
# Indices 1 2 3 4 5 6 
#
# 1 0.020419 -0.006842 -0.003727 0.000000 -0.003279 0.000000
# 2 -0.006842 0.016002 -0.006029 0.000000 -0.004113 0.000000
# 3 -0.003727 -0.006029 0.012822 0.000000 0.001878 0.000000
# 4 0.000000 0.000000 0.000000 0.012053 0.000000 -0.016483
# 5 -0.003279 -0.004113 0.001878 0.000000 0.028835 0.000000
# 6 0.000000 0.000000 0.000000 -0.016483 0.000000 0.021420
#
#
# Mechanical properties :
#
#
# Convention : Reuss Voigt Hill
#
# Bulk Modulus (GPa) = 62.31697 72.22958 67.27327
# Shear Modulus (GPa) = 33.31198 -477.83299 -222.26050
#
# Velocity S-wave (km/s) = 4.15038 -15.71901 -10.72058
# Velocity P-wave (km/s) = 7.42910 17.09093 10.88366
#
# Compressibility (1/GPa) = 0.01604699
#
# Stress axis : x y z
#
# Youngs Moduli (GPa) = 48.97493 62.49142 77.98999
#
# Poissons Ratio (x) = 0.42754 0.29071
# Poissons Ratio (y) = 0.33506 0.47020
# Poissons Ratio (z) = 0.18255 0.37676
#
# Static dielectric constant tensor:
#      x y z
#    x 3.570160 0.000000 0.006980 
#    y 0.000000 3.783580 0.000000 
#    z 0.006980 0.000000 3.358860 
# 
# 
# High freq. dielectric constant tensor:
#      x y z
#    x 1.766380 0.000000 -0.002410 
#    y 0.000000 1.752880 0.000000 
#    z -0.002410 0.000000 1.762750 
# 
# From -- ./inp_files/27203.got.cif
#   From: 2010.06.25/outbox.cif.g09.slc.cpg/sg10_14_cif.got.tgz:27203.got - 2010.06.27 22:07:45.
