data_PCOD8066539
_publ_section_title
;
Structure prediction by ZEFSAII (Michael W. Deem and Ramdas Pophale) SiO2 
 PCOD8066539
Probable space group: P 2/M
;
_chemical_formula_sum "Si O2"
_cell_formula_units_Z 32
_cell_length_a 23.870144
_cell_length_b 9.390613
_cell_length_c 25.050813
_cell_angle_alpha 90.000000
_cell_angle_beta 17.661259
_cell_angle_gamma 90.000000
_cell_volume 1703.610904
_symmetry_space_group_name_H-M "P 2/M"
_symmetry_group_IT_number 10
_symmetry_cell_setting 'monoclinic'
loop_
_space_group_symop_operation_xyz
x,y,z
-x,y,-z
-x,-y,-z
x,-y,z
loop_
_atom_site_type_symbol
_atom_site_label
_atom_site_fract_x
_atom_site_fract_y
_atom_site_fract_z
Si Si1 0.047654 0.838570 0.205141
Si Si2 0.565955 0.664890 0.999989
Si Si3 0.927312 0.836133 0.697638
Si Si4 0.437636 0.331057 0.499995
Si Si5 0.457921 0.838571 0.794871
Si Si6 0.055496 0.332526 0.799328
Si Si7 0.654173 0.332526 0.200654
Si Si8 0.677387 0.163866 0.697660
O O1 0.007364 0.792630 0.302278
O O2 0.933175 0.739453 0.268981
O O3 0.984069 0.000000 0.252162
O O4 0.264348 0.818586 0.000006
O O5 0.583300 0.500000 0.999984
O O6 0.764964 0.736294 0.824812
O O7 0.500000 0.686133 0.000000
O O8 0.414626 0.736290 0.175158
O O9 0.101780 0.815994 0.499987
O O10 0.858530 0.000000 0.760254
O O11 0.500000 0.264204 0.500000
O O12 0.441676 0.500000 0.500000
O O13 0.229839 0.279562 0.675626
O O14 0.581113 0.279565 0.324355
O O15 0.471121 0.739452 0.731033
O O16 0.611911 0.792637 0.697728
O O17 0.488369 0.000000 0.747856
O O18 0.062848 0.500000 0.782921
O O19 0.868855 0.287306 0.999991
O O20 0.628711 0.500000 0.217060
O O21 0.620937 0.000000 0.760278
#
# Coordination Sequence:
#
# PCOD8066539 Si02
#       8
#     4   4   4   4   4   4   4   4
#     4   9  17  32  54  79 110 142 173 217 274 330
#     4  11  25  43  61  83 117 157 192 233 284 335
#     4  10  21  38  61  88 115 148 192 236 280 336
#     4   9  18  32  49  71 101 137 178 221 264 315
#     4   9  17  32  54  79 110 142 173 217 274 330
#     4   9  18  31  48  73 102 133 173 219 265 317
#     4   9  18  31  48  73 102 133 173 219 265 317
#     4  10  21  38  61  88 115 148 192 236 280 336
#
# _framework density 18.783632999999998
#
# number of rings (size 3 to 8) (size 9 to 14) (size 15 to 20)
#    0.000    2.500    1.250    0.375    1.750    3.500 
#    0.000    5.000    0.000    1.500    0.000    3.500 
#    0.000    0.000    0.000    0.000    0.000    0.000 
#
# Total GULP energy -396809.485657 kJ/mol
# GULP energy per Si atom -12400.296427 kJ/mol
# Density = 1.874088 g / cm^3
# Si number density = 18.783633 Si / 1000 Ang^3
#
#
#
# Elastic Constant Matrix: (Units=GPa)
#
#
# Indices 1 2 3 4 5 6 
#
# 1 122.7106 65.0528 68.8394 0.0000 3.4170 0.0000
# 2 65.0528 70.7803 49.9516 0.0000 1.3785 0.0000
# 3 68.8394 49.9516 111.6927 0.0000 -2.4450 0.0000
# 4 0.0000 0.0000 0.0000 17.1567 0.0000 -1.6170
# 5 3.4170 1.3785 -2.4450 0.0000 8.8042 0.0000
# 6 0.0000 0.0000 0.0000 -1.6170 0.0000 -0.3915
#
#
#
# Elastic Compliance Matrix: (Units=1/GPa)
#
#
# Indices 1 2 3 4 5 6 
#
# 1 0.018223 -0.012549 -0.005766 0.000000 -0.006709 0.000000
# 2 -0.012549 0.029587 -0.005526 0.000000 -0.001297 0.000000
# 3 -0.005766 -0.005526 0.015139 0.000000 0.007307 0.000000
# 4 0.000000 0.000000 0.000000 0.041956 0.000000 -0.173271
# 5 -0.006709 -0.001297 0.007307 0.000000 0.118418 0.000000
# 6 0.000000 0.000000 0.000000 -0.173271 0.000000 -1.838445
#
#
# Mechanical properties :
#
#
# Convention : Reuss Voigt Hill
#
# Bulk Modulus (GPa) = 65.50429 74.76346 70.13388
# Shear Modulus (GPa) = -3.20030 13.20319 5.00144
#
# Velocity S-wave (km/s) = -1.30670 2.65412 1.63354
# Velocity P-wave (km/s) = 5.71596 7.02007 6.40131
#
# Compressibility (1/GPa) = 0.01526618
#
# Stress axis : x y z
#
# Youngs Moduli (GPa) = 54.87461 33.79915 66.05635
#
# Poissons Ratio (x) = 0.42413 0.38091
# Poissons Ratio (y) = 0.68859 0.36504
# Poissons Ratio (z) = 0.31643 0.18678
#
# Static dielectric constant tensor:
#      x y z
#    x 3.513380 0.000000 0.118560 
#    y 0.000000 3.305860 0.000000 
#    z 0.118560 0.000000 2.220460 
# 
# 
# High freq. dielectric constant tensor:
#      x y z
#    x 1.725100 0.000000 -0.001320 
#    y 0.000000 1.706470 0.000000 
#    z -0.001320 0.000000 1.739400 
# 
# From -- ./inp_files/90542.got.cif
#   From: 2010.06.25/outbox.cif.g09.slc.cpg/sg10_46_cif.got.tgz:90542.got - 2010.06.27 22:07:45.
