data_PCOD8066485
_publ_section_title
;
Structure prediction by ZEFSAII (Michael W. Deem and Ramdas Pophale) SiO2 
 PCOD8066485
Probable space group: P 2/M
;
_chemical_formula_sum "Si O2"
_cell_formula_units_Z 32
_cell_length_a 31.309737
_cell_length_b 8.576655
_cell_length_c 11.985698
_cell_angle_alpha 90.000000
_cell_angle_beta 30.059946
_cell_angle_gamma 90.000000
_cell_volume 1612.191993
_symmetry_space_group_name_H-M "P 2/M"
_symmetry_group_IT_number 10
_symmetry_cell_setting 'monoclinic'
loop_
_space_group_symop_operation_xyz
x,y,z
-x,y,-z
-x,-y,-z
x,-y,z
loop_
_atom_site_type_symbol
_atom_site_label
_atom_site_fract_x
_atom_site_fract_y
_atom_site_fract_z
Si Si1 0.403642 0.817094 0.196561
Si Si2 0.230643 0.818409 0.194408
Si Si3 0.476856 0.820038 0.427341
Si Si4 0.738404 0.680283 0.341680
Si Si5 0.628653 0.680771 0.963202
Si Si6 0.296580 0.321758 0.825827
Si Si7 0.914867 0.684586 0.333891
Si Si8 0.895766 0.684155 0.126169
O O1 0.346513 0.774908 0.432873
O O2 0.361117 0.729929 0.188000
O O3 0.403120 0.000000 0.174315
O O4 0.500000 0.758284 0.000000
O O5 0.306938 0.775452 0.104919
O O6 0.139743 0.775159 0.451447
O O7 0.235757 0.000000 0.157438
O O8 0.237667 0.728273 0.061675
O O9 0.500000 0.772572 0.500000
O O10 0.378224 0.788108 0.631876
O O11 0.497060 0.000000 0.356699
O O12 0.532058 0.715620 0.218637
O O13 0.724709 0.500000 0.405375
O O14 0.755787 0.698530 0.170558
O O15 0.820101 0.752932 0.221128
O O16 0.650782 0.500000 0.925530
O O17 0.326062 0.500000 0.776102
O O18 0.906058 0.500000 0.372569
O O19 0.880365 0.732101 0.289341
O O20 0.012363 0.743686 0.125040
O O21 0.897972 0.500000 0.111912
#
# Coordination Sequence:
#
# PCOD8066485 Si02
#       8
#     4   4   4   4   4   4   4   4
#     4  11  24  40  58  84 120 157 192 233 287 343
#     4  12  24  38  56  83 117 150 188 239 295 344
#     4  11  22  37  57  81 112 149 188 238 293 341
#     4  10  21  38  60  86 116 152 196 240 286 340
#     4  12  24  38  60  85 113 149 195 243 286 340
#     4  11  23  38  58  83 113 154 200 241 283 341
#     4   9  17  34  62  90 115 146 184 230 287 347
#     4   8  16  34  61  90 116 144 183 232 286 344
#
# _framework density 19.848752999999999
#
# number of rings (size 3 to 8) (size 9 to 14) (size 15 to 20)
#    0.000    1.500    1.250    5.625    0.000    5.500 
#    0.000    2.500    0.000    3.750    0.000    0.000 
#    0.000    0.000    0.000    0.000    0.000    0.000 
#
# Total GULP energy -396939.531504 kJ/mol
# GULP energy per Si atom -12404.360360 kJ/mol
# Density = 1.980358 g / cm^3
# Si number density = 19.848753 Si / 1000 Ang^3
#
#
#
# Elastic Constant Matrix: (Units=GPa)
#
#
# Indices 1 2 3 4 5 6 
#
# 1 117.9992 26.9837 52.3409 0.0000 0.0454 0.0000
# 2 26.9837 54.6222 15.7698 0.0000 3.8819 0.0000
# 3 52.3409 15.7698 118.8870 0.0000 3.7251 0.0000
# 4 0.0000 0.0000 0.0000 22.2071 0.0000 -1.6069
# 5 0.0454 3.8819 3.7251 0.0000 34.3715 0.0000
# 6 0.0000 0.0000 0.0000 -1.6069 0.0000 17.7174
#
#
#
# Elastic Compliance Matrix: (Units=1/GPa)
#
#
# Indices 1 2 3 4 5 6 
#
# 1 0.011486 -0.004445 -0.004498 0.000000 0.000974 0.000000
# 2 -0.004445 0.020879 -0.000741 0.000000 -0.002272 0.000000
# 3 -0.004498 -0.000741 0.010523 0.000000 -0.001051 0.000000
# 4 0.000000 0.000000 0.000000 0.045328 0.000000 0.004111
# 5 0.000974 -0.002272 -0.001051 0.000000 0.029463 0.000000
# 6 0.000000 0.000000 0.000000 0.004111 0.000000 0.056814
#
#
# Mechanical properties :
#
#
# Convention : Reuss Voigt Hill
#
# Bulk Modulus (GPa) = 42.51771 53.52191 48.01981
# Shear Modulus (GPa) = 24.78926 27.95348 26.37137
#
# Velocity S-wave (km/s) = 3.53782 3.75684 3.64897
# Velocity P-wave (km/s) = 6.17702 6.77066 6.48064
#
# Compressibility (1/GPa) = 0.02351961
#
# Stress axis : x y z
#
# Youngs Moduli (GPa) = 87.06498 47.89538 95.03237
#
# Poissons Ratio (x) = 0.21288 0.42742
# Poissons Ratio (y) = 0.38698 0.07046
# Poissons Ratio (z) = 0.39158 0.03551
#
# Static dielectric constant tensor:
#      x y z
#    x 3.826830 0.000000 -0.044890 
#    y 0.000000 3.455830 0.000000 
#    z -0.044890 0.000000 3.727900 
# 
# 
# High freq. dielectric constant tensor:
#      x y z
#    x 1.772860 0.000000 0.006620 
#    y 0.000000 1.762930 0.000000 
#    z 0.006620 0.000000 1.775790 
# 
# From -- ./inp_files/58205.got.cif
#   From: 2010.06.25/outbox.cif.g09.slc.cpg/sg10_30_cif.got.tgz:58205.got - 2010.06.27 22:07:45.
