data_PCOD8066391
_publ_section_title
;
Structure prediction by ZEFSAII (Michael W. Deem and Ramdas Pophale) SiO2 
 PCOD8066391
Probable space group: P 2/M
;
_chemical_formula_sum "Si O2"
_cell_formula_units_Z 30
_cell_length_a 8.405719
_cell_length_b 15.684274
_cell_length_c 12.486136
_cell_angle_alpha 90.000000
_cell_angle_beta 107.718447
_cell_angle_gamma 90.000000
_cell_volume 1568.055053
_symmetry_space_group_name_H-M "P 2/M"
_symmetry_group_IT_number 10
_symmetry_cell_setting 'monoclinic'
loop_
_space_group_symop_operation_xyz
x,y,z
-x,y,-z
-x,-y,-z
x,-y,z
loop_
_atom_site_type_symbol
_atom_site_label
_atom_site_fract_x
_atom_site_fract_y
_atom_site_fract_z
Si Si1 0.293923 0.594365 0.695909
Si Si2 0.702232 0.906138 0.655855
Si Si3 0.607755 0.403142 0.627500
Si Si4 0.885172 0.756785 0.378829
Si Si5 0.135322 0.740432 0.244618
Si Si6 0.690914 0.906454 0.411448
Si Si7 0.316145 0.597785 0.946338
Si Si8 0.000000 0.674279 0.000000
O O1 0.224903 0.500000 0.651845
O O2 0.489671 0.598931 0.707535
O O3 0.198547 0.666055 0.608385
O O4 0.263162 0.614274 0.813630
O O5 0.768873 0.829945 0.742442
O O6 0.758316 0.888250 0.545193
O O7 0.505925 0.905500 0.626388
O O8 0.769520 0.000000 0.705625
O O9 0.500000 0.376800 0.500000
O O10 0.679328 0.500000 0.626594
O O11 0.756096 0.336876 0.681819
O O12 0.751146 0.833293 0.342448
O O13 0.000000 0.782748 0.500000
O O14 0.973699 0.750683 0.283996
O O15 0.073719 0.728593 0.111820
O O16 0.754054 0.000000 0.386056
O O17 0.344100 0.500000 0.978266
O O18 0.162352 0.623392 0.991308
O O19 0.500000 0.642931 0.000000
#
# Coordination Sequence:
#
# PCOD8066391 Si02
#       8
#     4   4   4   4   4   4   4   2
#     4  10  21  38  55  79 115 156 203 248 294 357
#     4   9  19  38  62  89 116 151 197 247 304 372
#     4  10  22  39  61  89 123 164 209 254 313 377
#     4  12  22  34  55  85 122 153 186 238 308 366
#     4  12  24  37  60  89 123 164 200 247 312 370
#     4   9  19  35  60  90 118 146 189 246 306 366
#     4  10  21  39  62  84 112 158 215 271 313 348
#     4  12  25  42  57  90 128 164 218 262 316 370
#
# _framework density 19.131982000000001
#
# number of rings (size 3 to 8) (size 9 to 14) (size 15 to 20)
#    0.000    1.600    2.667    3.400    1.867    3.733 
#    0.000    0.333    0.000    0.000    0.000    1.867 
#    0.000    0.000    0.000    0.000    0.000    0.000 
#
# Total GULP energy -371771.835942 kJ/mol
# GULP energy per Si atom -12392.394531 kJ/mol
# Density = 1.908844 g / cm^3
# Si number density = 19.131982 Si / 1000 Ang^3
#
#
#
# Elastic Constant Matrix: (Units=GPa)
#
#
# Indices 1 2 3 4 5 6 
#
# 1 96.1830 49.1158 37.4713 0.0000 -14.1477 0.0000
# 2 49.1158 145.0890 54.4699 0.0000 5.6809 0.0000
# 3 37.4713 54.4699 89.2690 0.0000 -3.7057 0.0000
# 4 0.0000 0.0000 0.0000 20.0799 0.0000 -0.4095
# 5 -14.1477 5.6809 -3.7057 0.0000 30.8670 0.0000
# 6 0.0000 0.0000 0.0000 -0.4095 0.0000 11.1462
#
#
#
# Elastic Compliance Matrix: (Units=1/GPa)
#
#
# Indices 1 2 3 4 5 6 
#
# 1 0.014845 -0.003990 -0.003502 0.000000 0.007118 0.000000
# 2 -0.003990 0.010180 -0.004714 0.000000 -0.004268 0.000000
# 3 -0.003502 -0.004714 0.015595 0.000000 0.001135 0.000000
# 4 0.000000 0.000000 0.000000 0.049838 0.000000 0.001831
# 5 0.007118 -0.004268 0.001135 0.000000 0.036581 0.000000
# 6 0.000000 0.000000 0.000000 0.001831 0.000000 0.089784
#
#
# Mechanical properties :
#
#
# Convention : Reuss Voigt Hill
#
# Bulk Modulus (GPa) = 61.68971 68.07278 64.88125
# Shear Modulus (GPa) = 20.27268 25.05090 22.66179
#
# Velocity S-wave (km/s) = 3.25872 3.62245 3.44539
# Velocity P-wave (km/s) = 6.81713 7.29068 7.05788
#
# Compressibility (1/GPa) = 0.01621016
#
# Stress axis : x y z
#
# Youngs Moduli (GPa) = 67.36131 98.23441 64.12163
#
# Poissons Ratio (x) = 0.39192 0.22453
# Poissons Ratio (y) = 0.26874 0.30227
# Poissons Ratio (z) = 0.23587 0.46307
#
# Static dielectric constant tensor:
#      x y z
#    x 3.723190 0.000000 -0.114540 
#    y 0.000000 3.881780 0.000000 
#    z -0.114540 0.000000 3.325370 
# 
# 
# High freq. dielectric constant tensor:
#      x y z
#    x 1.756230 0.000000 -0.008770 
#    y 0.000000 1.746590 0.000000 
#    z -0.008770 0.000000 1.713840 
# 
# From -- ./inp_files/43004.got.cif
#   From: 2010.06.25/outbox.cif.g09.slc.cpg/sg10_22_cif.got.tgz:43004.got - 2010.06.27 22:07:45.
