data_PCOD8066306
_publ_section_title
;
Structure prediction by ZEFSAII (Michael W. Deem and Ramdas Pophale) SiO2 
 PCOD8066306
Probable space group: P 2/M
;
_chemical_formula_sum "Si O2"
_cell_formula_units_Z 28
_cell_length_a 9.799537
_cell_length_b 8.783835
_cell_length_c 27.869796
_cell_angle_alpha 90.000000
_cell_angle_beta 38.004093
_cell_angle_gamma 90.000000
_cell_volume 1477.084025
_symmetry_space_group_name_H-M "P 2/M"
_symmetry_group_IT_number 10
_symmetry_cell_setting 'monoclinic'
loop_
_space_group_symop_operation_xyz
x,y,z
-x,y,-z
-x,-y,-z
x,-y,z
loop_
_atom_site_type_symbol
_atom_site_label
_atom_site_fract_x
_atom_site_fract_y
_atom_site_fract_z
Si Si1 0.844659 0.332729 0.497375
Si Si2 0.244225 0.822623 0.064568
Si Si3 0.653739 0.680411 0.801137
Si Si4 0.988039 0.320326 0.221616
Si Si5 0.738322 0.681273 0.671445
Si Si6 0.788665 0.675079 0.025390
Si Si7 0.485086 0.821651 0.653746
O O1 0.747497 0.500000 0.511240
O O2 0.643403 0.219429 0.564744
O O3 0.000000 0.348970 0.500000
O O4 0.005537 0.270658 0.410470
O O5 0.099379 0.723817 0.140776
O O6 0.201161 0.000000 0.086075
O O7 0.500000 0.778339 0.000000
O O8 0.167737 0.779041 0.032636
O O9 0.650223 0.500000 0.799280
O O10 0.679693 0.746328 0.740223
O O11 0.424262 0.739801 0.887230
O O12 0.856194 0.736220 0.778052
O O13 0.950375 0.500000 0.233108
O O14 0.756283 0.237420 0.292421
O O15 0.715597 0.500000 0.674491
O O16 0.566877 0.749339 0.680819
O O17 0.749864 0.500000 0.020398
O O18 0.000000 0.691110 0.000000
O O19 0.481214 0.000000 0.661770
#
# Coordination Sequence:
#
# PCOD8066306 Si02
#       7
#     4   4   4   4   4   4   4
#     4   8  15  31  55  81 109 144 186 228 273 324
#     4  11  23  39  58  82 114 150 185 225 277 330
#     4   9  19  36  57  83 111 142 185 233 279 324
#     4  11  22  38  60  81 108 147 191 232 272 325
#     4   9  18  35  59  85 112 144 185 233 279 328
#     4  10  21  37  59  87 113 144 189 234 275 323
#     4  11  22  35  54  84 116 146 184 227 277 334
#
# _framework density 18.956268000000001
#
# number of rings (size 3 to 8) (size 9 to 14) (size 15 to 20)
#    0.000    2.143    1.429    3.000    2.000    3.429 
#    0.000    2.857    0.000    4.286    0.000    0.000 
#    0.000    0.000    0.000    0.000    0.000    0.000 
#
# Total GULP energy -347201.699582 kJ/mol
# GULP energy per Si atom -12400.060699 kJ/mol
# Density = 1.891312 g / cm^3
# Si number density = 18.956268 Si / 1000 Ang^3
#
#
#
# Elastic Constant Matrix: (Units=GPa)
#
#
# Indices 1 2 3 4 5 6 
#
# 1 94.6267 24.7580 52.4780 0.0000 -4.4248 0.0000
# 2 24.7580 50.4523 25.6512 0.0000 -5.5108 0.0000
# 3 52.4780 25.6512 110.9294 0.0000 -8.5133 0.0000
# 4 0.0000 0.0000 0.0000 14.1117 0.0000 -5.1286
# 5 -4.4248 -5.5108 -8.5133 0.0000 31.6467 0.0000
# 6 0.0000 0.0000 0.0000 -5.1286 0.0000 4.7981
#
#
#
# Elastic Compliance Matrix: (Units=1/GPa)
#
#
# Indices 1 2 3 4 5 6 
#
# 1 0.015104 -0.004306 -0.006172 0.000000 -0.000298 0.000000
# 2 -0.004306 0.023895 -0.003283 0.000000 0.002676 0.000000
# 3 -0.006172 -0.003283 0.012849 0.000000 0.002022 0.000000
# 4 0.000000 0.000000 0.000000 0.115878 0.000000 0.123860
# 5 -0.000298 0.002676 0.002022 0.000000 0.032567 0.000000
# 6 0.000000 0.000000 0.000000 0.123860 0.000000 0.340806
#
#
# Mechanical properties :
#
#
# Convention : Reuss Voigt Hill
#
# Bulk Modulus (GPa) = 41.11002 51.30920 46.20961
# Shear Modulus (GPa) = 8.66957 20.31938 14.49448
#
# Velocity S-wave (km/s) = 2.14088 3.27755 2.76819
# Velocity P-wave (km/s) = 5.27684 6.43809 5.88617
#
# Compressibility (1/GPa) = 0.02432497
#
# Stress axis : x y z
#
# Youngs Moduli (GPa) = 66.20958 41.84929 77.82685
#
# Poissons Ratio (x) = 0.18021 0.48037
# Poissons Ratio (y) = 0.28511 0.25551
# Poissons Ratio (z) = 0.40866 0.13739
#
# Static dielectric constant tensor:
#      x y z
#    x 3.389450 0.000000 0.086300 
#    y 0.000000 3.292320 0.000000 
#    z 0.086300 0.000000 4.026710 
# 
# 
# High freq. dielectric constant tensor:
#      x y z
#    x 1.722960 0.000000 -0.001620 
#    y 0.000000 1.717660 0.000000 
#    z -0.001620 0.000000 1.752590 
# 
# From -- ./inp_files/91979.got.cif
#   From: 2010.06.25/outbox.cif.g09.slc.cpg/sg10_46_cif.got.tgz:91979.got - 2010.06.27 22:07:45.
