data_PCOD8066773
_publ_section_title
;
Structure prediction by ZEFSAII (Michael W. Deem and Ramdas Pophale) SiO2 
 PCOD8066773
Probable space group: P 2/M
;
_chemical_formula_sum "Si O2"
_cell_formula_units_Z 32
_cell_length_a 16.780101
_cell_length_b 13.768136
_cell_length_c 7.416568
_cell_angle_alpha 90.000000
_cell_angle_beta 63.769529
_cell_angle_gamma 90.000000
_cell_volume 1537.009292
_symmetry_space_group_name_H-M "P 2/M"
_symmetry_group_IT_number 10
_symmetry_cell_setting 'monoclinic'
loop_
_space_group_symop_operation_xyz
x,y,z
-x,y,-z
-x,-y,-z
x,-y,z
loop_
_atom_site_type_symbol
_atom_site_label
_atom_site_fract_x
_atom_site_fract_y
_atom_site_fract_z
Si Si1 0.769255 0.611378 0.230745
Si Si2 0.403856 0.745320 0.596147
Si Si3 0.648104 0.109592 0.059789
Si Si4 0.901141 0.310655 0.388131
Si Si5 0.850807 0.896423 0.861828
Si Si6 0.648106 0.109591 0.643996
Si Si7 0.098858 0.689345 0.190412
Si Si8 0.850808 0.896423 0.436561
O O1 0.740678 0.500000 0.259324
O O2 0.678060 0.671172 0.321936
O O3 0.828130 0.630950 0.349441
O O4 0.828131 0.630948 0.994298
O O5 0.500000 0.690451 0.500000
O O6 0.405369 0.813344 0.770414
O O7 0.405366 0.813344 0.418858
O O8 0.638012 0.139567 0.861986
O O9 0.612208 0.000000 0.126129
O O10 0.749553 0.115984 0.024058
O O11 0.874932 0.317771 0.625068
O O12 0.904159 0.198175 0.317335
O O13 1.000000 0.353693 0.256293
O O14 0.904158 0.801825 0.874352
O O15 0.856335 0.903090 0.643667
O O16 0.887896 0.000000 0.903186
O O17 0.749556 0.115983 0.476834
O O18 0.612209 0.000000 0.649448
O O19 0.887899 0.000000 0.321026
#
# Coordination Sequence:
#
# PCOD8066773 Si02
#       8
#     4   4   4   4   4   4   4   4
#     4  12  27  46  65  83 113 154 199 260 321 360
#     4  12  25  40  63  90 116 155 206 251 298 360
#     4   9  18  35  60  90 126 164 198 235 285 350
#     4  10  21  39  65  95 124 156 197 241 292 360
#     4   8  14  28  54  87 123 162 195 223 268 338
#     4   9  18  35  60  90 126 164 198 235 285 350
#     4  10  21  39  65  95 124 156 197 241 292 360
#     4   8  14  28  54  87 123 162 195 223 268 338
#
# _framework density 20.819652999999999
#
# number of rings (size 3 to 8) (size 9 to 14) (size 15 to 20)
#    0.000    2.250    2.500    2.250    0.000    3.750 
#    0.000    5.625    0.000    1.500    0.000    3.500 
#    0.000    0.000    0.000    0.000    0.000    0.000 
#
# Total GULP energy -396511.339576 kJ/mol
# GULP energy per Si atom -12390.979362 kJ/mol
# Density = 2.077227 g / cm^3
# Si number density = 20.819653 Si / 1000 Ang^3
#
#
#
# Elastic Constant Matrix: (Units=GPa)
#
#
# Indices 1 2 3 4 5 6 
#
# 1 104.6585 49.4406 61.9445 0.0000 -12.6815 0.0000
# 2 49.4406 110.0195 46.2003 0.0000 -3.5573 0.0000
# 3 61.9445 46.2003 93.3594 0.0000 0.2787 0.0000
# 4 0.0000 0.0000 0.0000 15.7343 0.0000 6.5610
# 5 -12.6815 -3.5573 0.2787 0.0000 29.7961 0.0000
# 6 0.0000 0.0000 0.0000 6.5610 0.0000 9.7526
#
#
#
# Elastic Compliance Matrix: (Units=1/GPa)
#
#
# Indices 1 2 3 4 5 6 
#
# 1 0.018317 -0.003632 -0.010379 0.000000 0.007459 0.000000
# 2 -0.003632 0.012254 -0.003654 0.000000 -0.000049 0.000000
# 3 -0.010379 -0.003654 0.019421 0.000000 -0.005035 0.000000
# 4 0.000000 0.000000 0.000000 0.088335 0.000000 -0.059426
# 5 0.007459 -0.000049 -0.005035 0.000000 0.036777 0.000000
# 6 0.000000 0.000000 0.000000 -0.059426 0.000000 0.142515
#
#
# Mechanical properties :
#
#
# Convention : Reuss Voigt Hill
#
# Bulk Modulus (GPa) = 68.19901 69.24537 68.72219
# Shear Modulus (GPa) = 13.97281 21.08675 17.52978
#
# Velocity S-wave (km/s) = 2.59344 3.18595 2.90484
# Velocity P-wave (km/s) = 6.46499 6.84584 6.65814
#
# Compressibility (1/GPa) = 0.01466297
#
# Stress axis : x y z
#
# Youngs Moduli (GPa) = 54.59326 81.60330 51.49079
#
# Poissons Ratio (x) = 0.29638 0.53440
# Poissons Ratio (y) = 0.19828 0.18816
# Poissons Ratio (z) = 0.56660 0.29820
#
# Static dielectric constant tensor:
#      x y z
#    x 3.666580 0.000000 0.000780 
#    y 0.000000 3.374710 0.000000 
#    z 0.000780 0.000000 3.667310 
# 
# 
# High freq. dielectric constant tensor:
#      x y z
#    x 1.804960 0.000000 0.003990 
#    y 0.000000 1.789970 0.000000 
#    z 0.003990 0.000000 1.808600 
# 
# From -- ./inp_files/29498.got.cif
#   From: 2010.06.25/outbox.cif.g09.slc.cpg/sg10_15_cif.got.tgz:29498.got - 2010.06.27 22:07:45.
