data_PCOD8066907
_publ_section_title
;
Structure prediction by ZEFSAII (Michael W. Deem and Ramdas Pophale) SiO2 
 PCOD8066907
Probable space group: P 2/M
;
_chemical_formula_sum "Si O2"
_cell_formula_units_Z 14
_cell_length_a 5.287356
_cell_length_b 19.182055
_cell_length_c 5.248116
_cell_angle_alpha 90.000000
_cell_angle_beta 86.655249
_cell_angle_gamma 90.000000
_cell_volume 531.369571
_symmetry_space_group_name_H-M "P 2/M"
_symmetry_group_IT_number 10
_symmetry_cell_setting 'monoclinic'
loop_
_space_group_symop_operation_xyz
x,y,z
-x,y,-z
-x,-y,-z
x,-y,z
loop_
_atom_site_type_symbol
_atom_site_label
_atom_site_fract_x
_atom_site_fract_y
_atom_site_fract_z
Si Si1 0.660912 0.351912 0.231880
Si Si2 0.000000 0.254560 0.500000
Si Si3 0.766439 0.148963 0.840518
Si Si4 0.664839 0.000000 0.739524
Si Si5 0.240859 0.500000 0.667145
O O1 0.500000 0.353091 0.500000
O O2 0.763822 0.429878 0.160344
O O3 0.899882 0.301808 0.271137
O O4 0.500000 0.323764 0.000000
O O5 0.230981 0.204880 0.389959
O O6 0.827835 0.071066 0.730498
O O7 0.500000 0.152622 0.000000
O O8 0.000000 0.171419 0.000000
O O9 0.500000 0.000000 0.500000
O O10 0.500000 0.000000 0.000000
O O11 0.500000 0.500000 0.500000
O O12 0.000000 0.500000 0.500000
#
# Coordination Sequence:
#
# PCOD8066907 Si02
#       5
#     4   2   4   2   2
#     4  11  27  49  78 114 160 210 269 329 400 475
#     4  12  30  46  80 116 170 208 270 326 416 488
#     4  11  29  51  80 114 158 207 268 327 401 475
#     4  10  25  51  81 113 152 204 268 333 391 470
#     4  10  21  50  80 113 151 207 270 333 387 468
#
# _framework density 26.347013
#
# number of rings (size 3 to 8) (size 9 to 14) (size 15 to 20)
#    0.000    1.143    1.429    0.857   16.000    0.571 
#    0.000    2.857    0.000    0.000    0.000    1.000 
#    0.000    0.000    0.000    0.000    0.000    0.000 
#
# Total GULP energy -173587.874977 kJ/mol
# GULP energy per Si atom -12399.133927 kJ/mol
# Density = 2.628705 g / cm^3
# Si number density = 26.347013 Si / 1000 Ang^3
#
#
#
# Elastic Constant Matrix: (Units=GPa)
#
#
# Indices 1 2 3 4 5 6 
#
# 1 140.2055 45.1889 42.6681 0.0000 15.8209 0.0000
# 2 45.1889 234.9117 50.8754 0.0000 3.8481 0.0000
# 3 42.6681 50.8754 146.0759 0.0000 26.2867 0.0000
# 4 0.0000 0.0000 0.0000 43.6571 0.0000 23.2967
# 5 15.8209 3.8481 26.2867 0.0000 49.4115 0.0000
# 6 0.0000 0.0000 0.0000 23.2967 0.0000 39.6358
#
#
#
# Elastic Compliance Matrix: (Units=1/GPa)
#
#
# Indices 1 2 3 4 5 6 
#
# 1 0.008215 -0.001187 -0.001691 0.000000 -0.001638 0.000000
# 2 -0.001187 0.004789 -0.001463 0.000000 0.000785 0.000000
# 3 -0.001691 -0.001463 0.008550 0.000000 -0.003893 0.000000
# 4 0.000000 0.000000 0.000000 0.033373 0.000000 -0.019616
# 5 -0.001638 0.000785 -0.003893 0.000000 0.022773 0.000000
# 6 0.000000 0.000000 0.000000 -0.019616 0.000000 0.036759
#
#
# Mechanical properties :
#
#
# Convention : Reuss Voigt Hill
#
# Bulk Modulus (GPa) = 77.68994 88.73978 83.21486
# Shear Modulus (GPa) = 39.23701 52.03828 45.63764
#
# Velocity S-wave (km/s) = 3.86325 4.44904 4.16646
# Velocity P-wave (km/s) = 7.03213 7.75540 7.40260
#
# Compressibility (1/GPa) = 0.01287168
#
# Stress axis : x y z
#
# Youngs Moduli (GPa) = 121.73594 208.80524 116.96361
#
# Poissons Ratio (x) = 0.24787 0.19781
# Poissons Ratio (y) = 0.14451 0.17106
# Poissons Ratio (z) = 0.20588 0.30538
#
# Static dielectric constant tensor:
#      x y z
#    x 4.661070 0.000000 -0.064260 
#    y 0.000000 6.053920 0.000000 
#    z -0.064260 0.000000 4.617670 
# 
# 
# High freq. dielectric constant tensor:
#      x y z
#    x 2.045000 0.000000 0.003080 
#    y 0.000000 2.093000 0.000000 
#    z 0.003080 0.000000 2.047590 
# 
# From -- ./inp_files/876.got.cif
#   From: 2010.06.25/outbox.cif.g09.slc.cpg/sg10_1_cif.got.tgz:876.got - 2010.06.27 22:07:45.
