data_PCOD8066508
_publ_section_title
;
Structure prediction by ZEFSAII (Michael W. Deem and Ramdas Pophale) SiO2 
 PCOD8066508
Probable space group: P 2/M
;
_chemical_formula_sum "Si O2"
_cell_formula_units_Z 24
_cell_length_a 10.054864
_cell_length_b 8.761697
_cell_length_c 13.911277
_cell_angle_alpha 90.000000
_cell_angle_beta 90.312463
_cell_angle_gamma 90.000000
_cell_volume 1225.532890
_symmetry_space_group_name_H-M "P 2/M"
_symmetry_group_IT_number 10
_symmetry_cell_setting 'monoclinic'
loop_
_space_group_symop_operation_xyz
x,y,z
-x,y,-z
-x,-y,-z
x,-y,z
loop_
_atom_site_type_symbol
_atom_site_label
_atom_site_fract_x
_atom_site_fract_y
_atom_site_fract_z
Si Si1 0.624373 0.326345 0.442032
Si Si2 0.774697 0.818585 0.750674
Si Si3 0.485531 0.325379 0.768086
Si Si4 0.863756 0.820052 0.542303
Si Si5 0.870988 0.320146 0.940555
Si Si6 0.362655 0.172715 0.944054
O O1 0.500000 0.259201 0.500000
O O2 0.652537 0.500000 0.474699
O O3 0.593779 0.314291 0.330602
O O4 0.750455 0.224320 0.466788
O O5 0.625697 0.759319 0.764264
O O6 0.832653 0.756874 0.649365
O O7 0.870054 0.758740 0.835896
O O8 0.770167 0.000000 0.754559
O O9 0.512770 0.500000 0.798193
O O10 0.384721 0.245446 0.840447
O O11 0.000000 0.750146 0.500000
O O12 0.874172 0.000000 0.548362
O O13 0.872883 0.500000 0.924681
O O14 0.741125 0.274376 0.998846
O O15 0.000000 0.264596 0.000000
O O16 0.308933 0.000000 0.933737
O O17 0.500000 0.175657 0.000000
#
# Coordination Sequence:
#
# PCOD8066508 Si02
#       6
#     4   4   4   4   4   4
#     4  10  21  38  60  90 121 155 204 251 298 356
#     4  11  22  38  62  90 121 161 207 251 307 366
#     4  11  22  37  62  92 125 161 204 255 305 359
#     4  10  23  41  61  89 125 163 204 250 303 363
#     4  11  25  43  64  91 124 162 205 251 306 367
#     4  11  23  39  62  93 123 156 204 251 300 362
#
# _framework density 19.583317000000001
#
# number of rings (size 3 to 8) (size 9 to 14) (size 15 to 20)
#    0.000    1.333    3.333    2.000    0.000    6.000 
#    0.000    3.333    0.000    0.000    0.000    0.000 
#    0.000    0.000    0.000    0.000    0.000    0.000 
#
# Total GULP energy -297694.440397 kJ/mol
# GULP energy per Si atom -12403.935017 kJ/mol
# Density = 1.953874 g / cm^3
# Si number density = 19.583317 Si / 1000 Ang^3
#
#
#
# Elastic Constant Matrix: (Units=GPa)
#
#
# Indices 1 2 3 4 5 6 
#
# 1 98.1610 19.7465 42.0557 0.0000 5.2169 0.0000
# 2 19.7465 39.9189 23.5443 0.0000 4.6438 0.0000
# 3 42.0557 23.5443 114.2026 0.0000 0.4608 0.0000
# 4 0.0000 0.0000 0.0000 44.9235 0.0000 -14.5791
# 5 5.2169 4.6438 0.4608 0.0000 32.5938 0.0000
# 6 0.0000 0.0000 0.0000 -14.5791 0.0000 64.2855
#
#
#
# Elastic Compliance Matrix: (Units=1/GPa)
#
#
# Indices 1 2 3 4 5 6 
#
# 1 0.012696 -0.003824 -0.003881 0.000000 -0.001432 0.000000
# 2 -0.003824 0.030196 -0.004802 0.000000 -0.003622 0.000000
# 3 -0.003881 -0.004802 0.011171 0.000000 0.001147 0.000000
# 4 0.000000 0.000000 0.000000 0.024029 0.000000 0.005449
# 5 -0.001432 -0.003622 0.001147 0.000000 0.031410 0.000000
# 6 0.000000 0.000000 0.000000 0.005449 0.000000 0.016791
#
#
# Mechanical properties :
#
#
# Convention : Reuss Voigt Hill
#
# Bulk Modulus (GPa) = 34.42645 46.99727 40.71186
# Shear Modulus (GPa) = 31.05765 39.48963 35.27364
#
# Velocity S-wave (km/s) = 3.98669 4.49541 4.24867
# Velocity P-wave (km/s) = 6.22970 7.14113 6.70093
#
# Compressibility (1/GPa) = 0.02904743
#
# Stress axis : x y z
#
# Youngs Moduli (GPa) = 78.76782 33.11642 89.51748
#
# Poissons Ratio (x) = 0.12665 0.34741
# Poissons Ratio (y) = 0.30124 0.42990
# Poissons Ratio (z) = 0.30569 0.15904
#
# Static dielectric constant tensor:
#      x y z
#    x 3.514410 0.000000 -0.134090 
#    y 0.000000 3.662090 0.000000 
#    z -0.134090 0.000000 3.896510 
# 
# 
# High freq. dielectric constant tensor:
#      x y z
#    x 1.758670 0.000000 -0.001880 
#    y 0.000000 1.766820 0.000000 
#    z -0.001880 0.000000 1.780170 
# 
# From -- ./inp_files/60264.got.cif
#   From: 2010.06.25/outbox.cif.g09.slc.cpg/sg10_31_cif.got.tgz:60264.got - 2010.06.27 22:07:45.
