data_PCOD8066104
_publ_section_title
;
Structure prediction by ZEFSAII (Michael W. Deem and Ramdas Pophale) SiO2 
 PCOD8066104
Probable space group: P 2/M
;
_chemical_formula_sum "Si O2"
_cell_formula_units_Z 32
_cell_length_a 16.133812
_cell_length_b 8.775937
_cell_length_c 10.730201
_cell_angle_alpha 90.000000
_cell_angle_beta 94.992228
_cell_angle_gamma 90.000000
_cell_volume 1513.518460
_symmetry_space_group_name_H-M "P 2/M"
_symmetry_group_IT_number 10
_symmetry_cell_setting 'monoclinic'
loop_
_space_group_symop_operation_xyz
x,y,z
-x,y,-z
-x,-y,-z
x,-y,z
loop_
_atom_site_type_symbol
_atom_site_label
_atom_site_fract_x
_atom_site_fract_y
_atom_site_fract_z
Si Si1 0.761805 0.179452 0.364625
Si Si2 0.960620 0.180626 0.866341
Si Si3 0.639052 0.175210 0.959783
Si Si4 0.679282 0.672760 0.584980
Si Si5 0.216146 0.672048 0.150680
Si Si6 0.465500 0.824294 0.302532
Si Si7 0.617379 0.320655 0.207468
Si Si8 0.048405 0.818973 0.627601
O O1 0.726879 0.220598 0.495082
O O2 0.710656 0.268567 0.252372
O O3 0.856577 0.235851 0.367317
O O4 0.754050 0.000000 0.340789
O O5 0.865816 0.229633 0.843583
O O6 0.009088 0.245251 0.751206
O O7 0.965182 0.000000 0.867267
O O8 0.000000 0.245606 0.000000
O O9 0.728077 0.254720 0.950499
O O10 0.579521 0.195819 0.835030
O O11 0.655340 0.000000 0.993561
O O12 0.593309 0.254238 0.069731
O O13 0.670506 0.500000 0.532592
O O14 0.732766 0.676787 0.716095
O O15 0.587482 0.740569 0.597521
O O16 0.193220 0.500000 0.109851
O O17 0.555763 0.746492 0.304735
O O18 0.476032 0.000000 0.341144
O O19 0.608918 0.500000 0.204078
O O20 0.000000 0.753090 0.500000
O O21 0.042510 0.000000 0.625483
#
# Coordination Sequence:
#
# PCOD8066104 Si02
#       8
#     4   4   4   4   4   4   4   4
#     4  11  23  39  62  88 118 157 202 249 299 359
#     4  10  21  36  58  88 119 156 203 256 310 365
#     4  10  21  38  62  88 118 157 203 250 294 354
#     4  10  21  39  61  87 120 154 196 247 302 360
#     4  10  21  37  59  88 120 156 194 242 304 367
#     4  10  21  39  63  90 117 154 204 250 296 355
#     4  12  25  39  57  86 125 162 197 244 304 362
#     4   9  19  37  61  88 118 155 202 253 305 363
#
# _framework density 21.142789
#
# number of rings (size 3 to 8) (size 9 to 14) (size 15 to 20)
#    0.000    1.750    0.000    4.125    1.750    6.250 
#    0.000    3.750    0.000    3.375    0.000    0.000 
#    0.000    0.000    0.000    0.000    0.000    0.000 
#
# Total GULP energy -396933.201280 kJ/mol
# GULP energy per Si atom -12404.162540 kJ/mol
# Density = 2.109467 g / cm^3
# Si number density = 21.142789 Si / 1000 Ang^3
#
#
#
# Elastic Constant Matrix: (Units=GPa)
#
#
# Indices 1 2 3 4 5 6 
#
# 1 90.3562 -6.0409 25.9920 0.0000 -15.3647 0.0000
# 2 -6.0409 39.9846 26.7585 0.0000 4.7925 0.0000
# 3 25.9920 26.7585 84.7900 0.0000 -19.1904 0.0000
# 4 0.0000 0.0000 0.0000 20.0963 0.0000 4.3616
# 5 -15.3647 4.7925 -19.1904 0.0000 28.5864 0.0000
# 6 0.0000 0.0000 0.0000 4.3616 0.0000 21.6031
#
#
#
# Elastic Compliance Matrix: (Units=1/GPa)
#
#
# Indices 1 2 3 4 5 6 
#
# 1 0.013345 0.005001 -0.004994 0.000000 0.002982 0.000000
# 2 0.005001 0.039348 -0.017493 0.000000 -0.015652 0.000000
# 3 -0.004994 -0.017493 0.022288 0.000000 0.015211 0.000000
# 4 0.000000 0.000000 0.000000 0.052041 0.000000 -0.010507
# 5 0.002982 -0.015652 0.015211 0.000000 0.049419 0.000000
# 6 0.000000 0.000000 0.000000 -0.010507 0.000000 0.048411
#
#
# Mechanical properties :
#
#
# Convention : Reuss Voigt Hill
#
# Bulk Modulus (GPa) = 24.99464 34.28332 29.63898
# Shear Modulus (GPa) = 18.30416 25.28524 21.79470
#
# Velocity S-wave (km/s) = 2.94554 3.46197 3.21414
# Velocity P-wave (km/s) = 4.83898 5.67720 5.27477
#
# Compressibility (1/GPa) = 0.04000858
#
# Stress axis : x y z
#
# Youngs Moduli (GPa) = 74.93218 25.41419 44.86701
#
# Poissons Ratio (x) = -0.12710 0.22409
# Poissons Ratio (y) = -0.37475 0.78487
# Poissons Ratio (z) = 0.37425 0.44458
#
# Static dielectric constant tensor:
#      x y z
#    x 3.900250 0.000000 -0.108060 
#    y 0.000000 3.728680 0.000000 
#    z -0.108060 0.000000 3.942240 
# 
# 
# High freq. dielectric constant tensor:
#      x y z
#    x 1.837290 0.000000 -0.005070 
#    y 0.000000 1.817990 0.000000 
#    z -0.005070 0.000000 1.837050 
# 
# From -- ./inp_files/49892.got.cif
#   From: 2010.06.25/outbox.cif.g09.slc.cpg/sg10_25_cif.got.tgz:49892.got - 2010.06.27 22:07:45.
