data_PCOD8066033
_publ_section_title
;
Structure prediction by ZEFSAII (Michael W. Deem and Ramdas Pophale) SiO2 
 PCOD8066033
Probable space group: P 2/M
;
_chemical_formula_sum "Si O2"
_cell_formula_units_Z 32
_cell_length_a 26.064526
_cell_length_b 9.136025
_cell_length_c 20.671211
_cell_angle_alpha 90.000000
_cell_angle_beta 20.616206
_cell_angle_gamma 90.000000
_cell_volume 1733.193079
_symmetry_space_group_name_H-M "P 2/M"
_symmetry_group_IT_number 10
_symmetry_cell_setting 'monoclinic'
loop_
_space_group_symop_operation_xyz
x,y,z
-x,y,-z
-x,-y,-z
x,-y,z
loop_
_atom_site_type_symbol
_atom_site_label
_atom_site_fract_x
_atom_site_fract_y
_atom_site_fract_z
Si Si1 0.153146 0.171562 0.786786
Si Si2 0.158585 0.829626 0.291930
Si Si3 0.137391 0.327129 0.542202
Si Si4 0.157309 0.828980 0.144262
Si Si5 0.432914 0.335544 0.774804
Si Si6 0.414409 0.666246 0.539125
Si Si7 0.741933 0.671880 0.460954
Si Si8 0.334564 0.672931 0.190098
O O1 0.275547 0.232799 0.690416
O O2 0.161121 0.245040 0.706636
O O3 0.176654 0.000000 0.750082
O O4 0.000000 0.209644 0.000000
O O5 0.178877 0.790301 0.193544
O O6 0.276668 0.740396 0.192325
O O7 0.000000 0.775171 0.500000
O O8 0.179456 0.000000 0.282314
O O9 0.115409 0.500000 0.564195
O O10 0.208805 0.280466 0.525851
O O11 0.242599 0.270968 0.360495
O O12 0.981428 0.252233 0.721172
O O13 0.134156 0.000000 0.160187
O O14 0.302016 0.776926 0.937763
O O15 0.383744 0.500000 0.852162
O O16 0.474360 0.328502 0.651239
O O17 0.571524 0.286906 0.654557
O O18 0.500000 0.728128 0.500000
O O19 0.360249 0.500000 0.614936
O O20 0.763269 0.500000 0.422988
O O21 0.324836 0.500000 0.196013
O O22 0.500000 0.726898 0.000000
#
# Coordination Sequence:
#
# PCOD8066033 Si02
#       8
#     4   4   4   4   4   4   4   4
#     4  10  21  36  55  83 116 147 182 224 272 323
#     4  10  21  39  57  76 109 147 184 225 268 321
#     4  10  21  38  57  81 111 142 180 227 276 323
#     4  11  23  37  55  80 110 147 186 223 268 326
#     4   9  19  36  58  83 110 141 179 226 274 320
#     4   9  19  37  60  84 110 144 186 227 269 322
#     4   9  20  38  59  81 109 145 184 226 271 324
#     4  10  22  37  58  86 110 137 179 229 279 327
#
# _framework density 18.463031999999998
#
# number of rings (size 3 to 8) (size 9 to 14) (size 15 to 20)
#    0.000    2.250    1.250    1.500    1.750    6.250 
#    0.000    3.750    0.000    0.000    0.000    0.000 
#    0.000    0.000    0.000    0.000    0.000    0.000 
#
# Total GULP energy -396901.977051 kJ/mol
# GULP energy per Si atom -12403.186783 kJ/mol
# Density = 1.842101 g / cm^3
# Si number density = 18.463032 Si / 1000 Ang^3
#
#
#
# Elastic Constant Matrix: (Units=GPa)
#
#
# Indices 1 2 3 4 5 6 
#
# 1 141.5896 40.1044 56.7696 0.0000 -14.7055 0.0000
# 2 40.1044 42.0045 40.7144 0.0000 -2.7511 0.0000
# 3 56.7696 40.7144 118.0000 0.0000 -11.7429 0.0000
# 4 0.0000 0.0000 0.0000 68.2743 0.0000 -29.5011
# 5 -14.7055 -2.7511 -11.7429 0.0000 21.7175 0.0000
# 6 0.0000 0.0000 0.0000 -29.5011 0.0000 35.2518
#
#
#
# Elastic Compliance Matrix: (Units=1/GPa)
#
#
# Indices 1 2 3 4 5 6 
#
# 1 0.010601 -0.008021 -0.001817 0.000000 0.005180 0.000000
# 2 -0.008021 0.041944 -0.011229 0.000000 -0.006190 0.000000
# 3 -0.001817 -0.011229 0.013696 0.000000 0.004753 0.000000
# 4 0.000000 0.000000 0.000000 0.022943 0.000000 0.019201
# 5 0.005180 -0.006190 0.004753 0.000000 0.051339 0.000000
# 6 0.000000 0.000000 0.000000 0.019201 0.000000 0.044436
#
#
# Mechanical properties :
#
#
# Convention : Reuss Voigt Hill
#
# Bulk Modulus (GPa) = 41.48248 64.08566 52.78407
# Shear Modulus (GPa) = 21.26483 35.98243 28.62363
#
# Velocity S-wave (km/s) = 3.39743 4.41941 3.94168
# Velocity P-wave (km/s) = 6.15684 7.79918 7.02616
#
# Compressibility (1/GPa) = 0.02410656
#
# Stress axis : x y z
#
# Youngs Moduli (GPa) = 94.32981 23.84121 73.01204
#
# Poissons Ratio (x) = 0.19123 0.13268
# Poissons Ratio (y) = 0.75661 0.81988
# Poissons Ratio (z) = 0.17142 0.26772
#
# Static dielectric constant tensor:
#      x y z
#    x 3.468300 0.000000 0.001320 
#    y 0.000000 3.311730 0.000000 
#    z 0.001320 0.000000 3.379400 
# 
# 
# High freq. dielectric constant tensor:
#      x y z
#    x 1.725480 0.000000 -0.001070 
#    y 0.000000 1.710280 0.000000 
#    z -0.001070 0.000000 1.718860 
# 
# From -- ./inp_files/86733.got.cif
#   From: 2010.06.25/outbox.cif.g09.slc.cpg/sg10_44_cif.got.tgz:86733.got - 2010.06.27 22:07:45.
