data_PCOD8066534
_publ_section_title
;
Structure prediction by ZEFSAII (Michael W. Deem and Ramdas Pophale) SiO2 
 PCOD8066534
Probable space group: P 2/M
;
_chemical_formula_sum "Si O2"
_cell_formula_units_Z 20
_cell_length_a 5.057631
_cell_length_b 8.478441
_cell_length_c 23.386323
_cell_angle_alpha 90.000000
_cell_angle_beta 70.904270
_cell_angle_gamma 90.000000
_cell_volume 947.642702
_symmetry_space_group_name_H-M "P 2/M"
_symmetry_group_IT_number 10
_symmetry_cell_setting 'monoclinic'
loop_
_space_group_symop_operation_xyz
x,y,z
-x,y,-z
-x,-y,-z
x,-y,z
loop_
_atom_site_type_symbol
_atom_site_label
_atom_site_fract_x
_atom_site_fract_y
_atom_site_fract_z
Si Si1 0.277140 0.682811 0.130035
Si Si2 0.456809 0.180470 0.330699
Si Si3 0.130815 0.183216 0.930920
Si Si4 0.052404 0.682079 0.268803
Si Si5 0.317153 0.681119 0.459978
O O1 0.357021 0.500000 0.120281
O O2 0.538796 0.785184 0.090521
O O3 0.204613 0.731737 0.199684
O O4 0.009234 0.717281 0.109743
O O5 0.264719 0.291999 0.305711
O O6 0.390540 0.210851 0.401358
O O7 0.780449 0.211957 0.295663
O O8 0.389438 0.000000 0.320589
O O9 0.072857 0.000000 0.924035
O O10 0.000000 0.238614 0.000000
O O11 0.960587 0.500000 0.274019
O O12 0.500000 0.740737 0.500000
O O13 0.388249 0.500000 0.439608
O O14 0.000000 0.703454 0.500000
#
# Coordination Sequence:
#
# PCOD8066534 Si02
#       5
#     4   4   4   4   4
#     4  11  24  41  64  92 120 158 207 256 301 351
#     4  12  25  40  63  95 126 158 201 254 307 355
#     4  11  24  41  62  90 125 163 200 245 306 369
#     4  11  24  43  64  88 123 164 205 248 301 366
#     4  10  21  38  61  87 118 160 203 242 295 361
#
# _framework density 21.105
#
# number of rings (size 3 to 8) (size 9 to 14) (size 15 to 20)
#    0.000    1.000    0.000    6.600    0.000   14.400 
#    0.000    0.000    0.000    0.000    0.000    0.000 
#    0.000    0.000    0.000    0.000    0.000    0.000 
#
# Total GULP energy -248201.145509 kJ/mol
# GULP energy per Si atom -12410.057275 kJ/mol
# Density = 2.105696 g / cm^3
# Si number density = 21.105000 Si / 1000 Ang^3
#
#
#
# Elastic Constant Matrix: (Units=GPa)
#
#
# Indices 1 2 3 4 5 6 
#
# 1 102.0553 8.5308 27.8260 0.0000 10.4249 0.0000
# 2 8.5308 61.1446 40.6907 0.0000 -4.2767 0.0000
# 3 27.8260 40.6907 131.6531 0.0000 8.3693 0.0000
# 4 0.0000 0.0000 0.0000 30.0109 0.0000 -9.3155
# 5 10.4249 -4.2767 8.3693 0.0000 39.9223 0.0000
# 6 0.0000 0.0000 0.0000 -9.3155 0.0000 42.7478
#
#
#
# Elastic Compliance Matrix: (Units=1/GPa)
#
#
# Indices 1 2 3 4 5 6 
#
# 1 0.010613 -0.000322 -0.001992 0.000000 -0.002388 0.000000
# 2 -0.000322 0.021119 -0.006698 0.000000 0.003751 0.000000
# 3 -0.001992 -0.006698 0.010236 0.000000 -0.002343 0.000000
# 4 0.000000 0.000000 0.000000 0.035739 0.000000 0.007788
# 5 -0.002388 0.003751 -0.002343 0.000000 0.026565 0.000000
# 6 0.000000 0.000000 0.000000 0.007788 0.000000 0.025090
#
#
# Mechanical properties :
#
#
# Convention : Reuss Voigt Hill
#
# Bulk Modulus (GPa) = 41.76380 49.88310 45.82345
# Shear Modulus (GPa) = 32.18200 37.05657 34.61929
#
# Velocity S-wave (km/s) = 3.90917 4.19480 4.05450
# Velocity P-wave (km/s) = 6.34090 6.86649 6.60892
#
# Compressibility (1/GPa) = 0.02394418
#
# Stress axis : x y z
#
# Youngs Moduli (GPa) = 94.22821 47.35022 97.69700
#
# Poissons Ratio (x) = 0.01526 0.19457
# Poissons Ratio (y) = 0.03037 0.65435
# Poissons Ratio (z) = 0.18767 0.31714
#
# Static dielectric constant tensor:
#      x y z
#    x 3.763120 0.000000 0.003980 
#    y 0.000000 3.663430 0.000000 
#    z 0.003980 0.000000 3.902400 
# 
# 
# High freq. dielectric constant tensor:
#      x y z
#    x 1.841260 0.000000 0.000390 
#    y 0.000000 1.825900 0.000000 
#    z 0.000390 0.000000 1.842390 
# 
# From -- ./inp_files/10551.got.cif
#   From: 2010.06.25/outbox.cif.g09.slc.cpg/sg10_6_cif.got.tgz:10551.got - 2010.06.27 22:07:45.
