data_PCOD8066662
_publ_section_title
;
Structure prediction by ZEFSAII (Michael W. Deem and Ramdas Pophale) SiO2 
 PCOD8066662
Probable space group: P 2/M
;
_chemical_formula_sum "Si O2"
_cell_formula_units_Z 32
_cell_length_a 10.151429
_cell_length_b 9.324259
_cell_length_c 20.392876
_cell_angle_alpha 90.000000
_cell_angle_beta 123.883269
_cell_angle_gamma 90.000000
_cell_volume 1602.469236
_symmetry_space_group_name_H-M "P 2/M"
_symmetry_group_IT_number 10
_symmetry_cell_setting 'monoclinic'
loop_
_space_group_symop_operation_xyz
x,y,z
-x,y,-z
-x,-y,-z
x,-y,z
loop_
_atom_site_type_symbol
_atom_site_label
_atom_site_fract_x
_atom_site_fract_y
_atom_site_fract_z
Si Si1 0.476149 0.833833 0.920760
Si Si2 0.754306 0.338262 0.954344
Si Si3 0.784394 0.165841 0.251922
Si Si4 0.956057 0.663269 0.880796
Si Si5 0.403791 0.166218 0.670069
Si Si6 0.165216 0.334606 0.517362
Si Si7 0.109781 0.332981 0.351354
Si Si8 0.754819 0.831065 0.726570
O O1 0.603879 0.763585 0.908439
O O2 0.302780 0.805910 0.841827
O O3 0.516515 0.000000 0.933374
O O4 0.500000 0.767178 0.000000
O O5 0.694774 0.500000 0.946580
O O6 0.844801 0.319009 0.912137
O O7 0.866215 0.296898 0.047207
O O8 0.662571 0.205718 0.276600
O O9 0.934368 0.268465 0.296221
O O10 0.838277 0.000000 0.272634
O O11 0.947912 0.500000 0.851854
O O12 0.902055 0.773343 0.810123
O O13 0.311727 0.251434 0.588664
O O14 0.589481 0.207376 0.716372
O O15 0.379743 0.000000 0.647982
O O16 0.180994 0.500000 0.542084
O O17 0.172693 0.312145 0.441992
O O18 0.000000 0.272327 0.500000
O O19 0.102606 0.500000 0.329970
O O20 0.234677 0.248974 0.340347
O O21 0.776182 0.000000 0.721874
#
# Coordination Sequence:
#
# PCOD8066662 Si02
#       8
#     4   4   4   4   4   4   4   4
#     4  10  22  37  54  81 119 156 197 248 297 345
#     4   9  19  36  57  82 112 149 195 246 296 350
#     4  10  21  39  61  87 120 158 202 249 299 357
#     4   9  19  37  59  83 114 151 194 243 295 351
#     4  10  22  39  63  91 120 158 200 245 297 356
#     4  10  21  40  64  91 121 154 199 247 294 354
#     4  11  24  41  62  90 122 158 198 245 301 358
#     4  11  24  40  59  89 125 159 197 243 295 355
#
# _framework density 19.969183000000001
#
# number of rings (size 3 to 8) (size 9 to 14) (size 15 to 20)
#    0.000    2.000    1.250    2.250    1.750    5.500 
#    0.000    3.750    0.000    0.000    0.000    0.000 
#    0.000    0.000    0.000    0.000    0.000    0.000 
#
# Total GULP energy -396849.359475 kJ/mol
# GULP energy per Si atom -12401.542484 kJ/mol
# Density = 1.992373 g / cm^3
# Si number density = 19.969183 Si / 1000 Ang^3
#
#
#
# Elastic Constant Matrix: (Units=GPa)
#
#
# Indices 1 2 3 4 5 6 
#
# 1 62.6042 28.1960 11.1053 0.0000 -1.8931 0.0000
# 2 28.1960 72.9412 39.8195 0.0000 0.2068 0.0000
# 3 11.1053 39.8195 91.6068 0.0000 -7.7947 0.0000
# 4 0.0000 0.0000 0.0000 18.6684 0.0000 1.0277
# 5 -1.8931 0.2068 -7.7947 0.0000 24.6922 0.0000
# 6 0.0000 0.0000 0.0000 1.0277 0.0000 35.1298
#
#
#
# Elastic Compliance Matrix: (Units=1/GPa)
#
#
# Indices 1 2 3 4 5 6 
#
# 1 0.019536 -0.008337 0.001427 0.000000 0.002018 0.000000
# 2 -0.008337 0.021708 -0.008730 0.000000 -0.003577 0.000000
# 3 0.001427 -0.008730 0.014955 0.000000 0.004903 0.000000
# 4 0.000000 0.000000 0.000000 0.053653 0.000000 -0.001570
# 5 0.002018 -0.003577 0.004903 0.000000 0.042231 0.000000
# 6 0.000000 0.000000 0.000000 -0.001570 0.000000 0.028512
#
#
# Mechanical properties :
#
#
# Convention : Reuss Voigt Hill
#
# Bulk Modulus (GPa) = 40.12728 42.82154 41.47441
# Shear Modulus (GPa) = 22.70868 25.56684 24.13776
#
# Velocity S-wave (km/s) = 3.37588 3.58203 3.48048
# Velocity P-wave (km/s) = 5.94421 6.21275 6.07996
#
# Compressibility (1/GPa) = 0.02492070
#
# Stress axis : x y z
#
# Youngs Moduli (GPa) = 51.18775 46.06581 66.86689
#
# Poissons Ratio (x) = 0.38403 -0.09543
# Poissons Ratio (y) = 0.42673 0.58373
# Poissons Ratio (z) = -0.07305 0.40214
#
# Static dielectric constant tensor:
#      x y z
#    x 3.637900 0.000000 -0.098540 
#    y 0.000000 3.575460 0.000000 
#    z -0.098540 0.000000 3.829510 
# 
# 
# High freq. dielectric constant tensor:
#      x y z
#    x 1.779230 0.000000 -0.004800 
#    y 0.000000 1.775300 0.000000 
#    z -0.004800 0.000000 1.785030 
# 
# From -- ./inp_files/83637.got.cif
#   From: 2010.06.25/outbox.cif.g09.slc.cpg/sg10_42_cif.got.tgz:83637.got - 2010.06.27 22:07:45.
