data_PCOD8066946
_publ_section_title
;
Structure prediction by ZEFSAII (Michael W. Deem and Ramdas Pophale) SiO2 
 PCOD8066946
Probable space group: P 2/M
;
_chemical_formula_sum "Si O2"
_cell_formula_units_Z 32
_cell_length_a 19.426028
_cell_length_b 13.193649
_cell_length_c 12.404093
_cell_angle_alpha 90.000000
_cell_angle_beta 27.685762
_cell_angle_gamma 90.000000
_cell_volume 1477.113034
_symmetry_space_group_name_H-M "P 2/M"
_symmetry_group_IT_number 10
_symmetry_cell_setting 'monoclinic'
loop_
_space_group_symop_operation_xyz
x,y,z
-x,y,-z
-x,-y,-z
x,-y,z
loop_
_atom_site_type_symbol
_atom_site_label
_atom_site_fract_x
_atom_site_fract_y
_atom_site_fract_z
Si Si1 0.381861 0.382882 0.326154
Si Si2 0.165436 0.313889 0.804779
Si Si3 0.878549 0.618501 0.904482
Si Si4 0.701117 0.382119 0.946631
Si Si5 0.169455 0.884751 0.299085
Si Si6 0.359082 0.117712 0.838598
Si Si7 0.185361 0.704000 0.419398
Si Si8 0.304146 0.117778 0.673446
O O1 0.396153 0.500000 0.271144
O O2 0.270092 0.374035 0.579480
O O3 0.324454 0.320654 0.302514
O O4 0.539262 0.335525 0.144834
O O5 0.193767 0.192234 0.762821
O O6 0.200638 0.361360 0.872376
O O7 0.000000 0.336972 0.000000
O O8 0.912809 0.500000 0.839888
O O9 0.769638 0.662051 0.962587
O O10 0.032931 0.679624 0.691319
O O11 0.679586 0.500000 0.994405
O O12 0.812267 0.361320 0.693847
O O13 0.194487 0.822398 0.374390
O O14 0.000000 0.876256 0.500000
O O15 0.215181 0.000000 0.260763
O O16 0.271799 0.833930 0.062148
O O17 0.297563 0.152639 0.807696
O O18 0.533991 0.137413 0.601302
O O19 0.323444 0.000000 0.895993
O O20 0.257922 0.000000 0.722869
#
# Coordination Sequence:
#
# PCOD8066946 Si02
#       8
#     4   4   4   4   4   4   4   4
#     4  11  25  45  66  92 129 173 217 269 330 393
#     4  12  26  41  64  93 126 170 217 260 336 394
#     4  11  24  43  67  95 128 166 218 278 323 385
#     4  10  23  41  65  98 127 161 216 276 324 374
#     4  10  22  37  60  98 140 173 211 265 321 380
#     4   8  17  37  63  92 125 165 212 263 323 380
#     4  12  23  39  68  94 128 176 220 254 321 389
#     4   9  20  38  64  93 124 164 213 268 322 380
#
# _framework density 21.663879999999999
#
# number of rings (size 3 to 8) (size 9 to 14) (size 15 to 20)
#    0.000    1.625    1.250    3.750    5.250    4.250 
#    0.000    2.500    0.000    1.500    0.000    0.000 
#    0.000    0.000    0.000    0.000    0.000    0.000 
#
# Total GULP energy -396864.948841 kJ/mol
# GULP energy per Si atom -12402.029651 kJ/mol
# Density = 2.161457 g / cm^3
# Si number density = 21.663880 Si / 1000 Ang^3
#
#
#
# Elastic Constant Matrix: (Units=GPa)
#
#
# Indices 1 2 3 4 5 6 
#
# 1 105.9703 30.7965 25.1061 0.0000 2.9177 0.0000
# 2 30.7965 80.0791 17.2269 0.0000 -1.4964 0.0000
# 3 25.1061 17.2269 78.9252 0.0000 12.4336 0.0000
# 4 0.0000 0.0000 0.0000 24.0884 0.0000 2.5101
# 5 2.9177 -1.4964 12.4336 0.0000 39.6311 0.0000
# 6 0.0000 0.0000 0.0000 2.5101 0.0000 31.2630
#
#
#
# Elastic Compliance Matrix: (Units=1/GPa)
#
#
# Indices 1 2 3 4 5 6 
#
# 1 0.011163 -0.003709 -0.002725 0.000000 -0.000107 0.000000
# 2 -0.003709 0.014416 -0.002205 0.000000 0.001509 0.000000
# 3 -0.002725 -0.002205 0.014727 0.000000 -0.004503 0.000000
# 4 0.000000 0.000000 0.000000 0.041864 0.000000 -0.003361
# 5 -0.000107 0.001509 -0.004503 0.000000 0.026710 0.000000
# 6 0.000000 0.000000 0.000000 -0.003361 0.000000 0.032257
#
#
# Mechanical properties :
#
#
# Convention : Reuss Voigt Hill
#
# Bulk Modulus (GPa) = 43.41996 45.69262 44.55629
# Shear Modulus (GPa) = 30.10402 31.78617 30.94509
#
# Velocity S-wave (km/s) = 3.73177 3.83462 3.78354
# Velocity P-wave (km/s) = 6.21725 6.38303 6.30069
#
# Compressibility (1/GPa) = 0.02303088
#
# Stress axis : x y z
#
# Youngs Moduli (GPa) = 89.58255 69.36514 67.90023
#
# Poissons Ratio (x) = 0.25727 0.18499
# Poissons Ratio (y) = 0.33225 0.14969
# Poissons Ratio (z) = 0.24407 0.15292
#
# Static dielectric constant tensor:
#      x y z
#    x 3.901830 0.000000 0.110840 
#    y 0.000000 3.858210 0.000000 
#    z 0.110840 0.000000 4.027830 
# 
# 
# High freq. dielectric constant tensor:
#      x y z
#    x 1.839950 0.000000 0.009450 
#    y 0.000000 1.855550 0.000000 
#    z 0.009450 0.000000 1.856940 
# 
# From -- ./inp_files/53986.got.cif
#   From: 2010.06.25/outbox.cif.g09.slc.cpg/sg10_27_cif.got.tgz:53986.got - 2010.06.27 22:07:45.
