data_PCOD8066287
_publ_section_title
;
Structure prediction by ZEFSAII (Michael W. Deem and Ramdas Pophale) SiO2 
 PCOD8066287
Probable space group: P 2/M
;
_chemical_formula_sum "Si O2"
_cell_formula_units_Z 26
_cell_length_a 15.890127
_cell_length_b 7.715198
_cell_length_c 16.423560
_cell_angle_alpha 90.000000
_cell_angle_beta 141.932003
_cell_angle_gamma 90.000000
_cell_volume 1241.488243
_symmetry_space_group_name_H-M "P 2/M"
_symmetry_group_IT_number 10
_symmetry_cell_setting 'monoclinic'
loop_
_space_group_symop_operation_xyz
x,y,z
-x,y,-z
-x,-y,-z
x,-y,z
loop_
_atom_site_type_symbol
_atom_site_label
_atom_site_fract_x
_atom_site_fract_y
_atom_site_fract_z
Si Si1 0.278167 0.500000 0.832295
Si Si2 0.471952 0.193417 0.729788
Si Si3 0.036509 0.500000 0.381637
Si Si4 0.879377 0.202344 0.850429
Si Si5 0.302832 0.500000 0.667366
Si Si6 0.012354 0.196641 0.244370
Si Si7 0.700310 0.196211 0.032040
Si Si8 0.427612 0.697730 0.363349
O O1 0.345358 0.500000 0.794351
O O2 0.329718 0.327382 0.917009
O O3 0.115531 0.500000 0.700057
O O4 0.354851 0.328951 0.661584
O O5 0.513311 0.195252 0.667005
O O6 0.419262 0.000000 0.710417
O O7 0.603636 0.241904 0.883402
O O8 0.138936 0.500000 0.535693
O O9 0.069150 0.328333 0.354307
O O10 0.917996 0.242748 0.787402
O O11 0.735991 0.293011 0.758879
O O12 0.861135 0.000000 0.853776
O O13 0.000000 0.276912 0.000000
O O14 0.850893 0.222734 0.111158
O O15 0.047044 0.000000 0.298002
O O16 0.678606 0.000000 0.047974
O O17 0.500000 0.772659 0.500000
O O18 0.472053 0.500000 0.384895
#
# Coordination Sequence:
#
# PCOD8066287 Si02
#       8
#     2   4   2   4   2   4   4   4
#     4  10  22  42  67  92 119 159 196 247 323 362
#     4  11  24  42  64  90 123 165 202 249 310 364
#     4  10  23  40  62  86 122 157 200 247 300 361
#     4  10  21  37  58  87 122 162 211 262 306 357
#     4  12  26  42  61  91 126 157 205 254 293 378
#     4   9  19  36  61  88 117 158 204 252 302 355
#     4   9  19  39  65  93 124 154 199 253 306 369
#     4  11  25  41  60  88 129 169 212 261 306 362
#
# _framework density 20.942606999999999
#
# number of rings (size 3 to 8) (size 9 to 14) (size 15 to 20)
#    0.000    1.846    0.769    2.077    3.231    6.462 
#    2.769    1.538    0.000    4.615    0.000    0.000 
#    0.000    0.000    0.000    0.000    0.000    0.000 
#
# Total GULP energy -322477.995638 kJ/mol
# GULP energy per Si atom -12402.999832 kJ/mol
# Density = 2.089494 g / cm^3
# Si number density = 20.942607 Si / 1000 Ang^3
#
#
#
# Elastic Constant Matrix: (Units=GPa)
#
#
# Indices 1 2 3 4 5 6 
#
# 1 84.5644 32.0190 37.2723 0.0000 -11.8260 0.0000
# 2 32.0190 103.0810 37.3741 0.0000 -4.9597 0.0000
# 3 37.2723 37.3741 117.8781 0.0000 -9.2648 0.0000
# 4 0.0000 0.0000 0.0000 51.0217 0.0000 7.0056
# 5 -11.8260 -4.9597 -9.2648 0.0000 27.2909 0.0000
# 6 0.0000 0.0000 0.0000 7.0056 0.0000 11.7143
#
#
#
# Elastic Compliance Matrix: (Units=1/GPa)
#
#
# Indices 1 2 3 4 5 6 
#
# 1 0.015241 -0.003267 -0.003401 0.000000 0.004856 0.000000
# 2 -0.003267 0.011680 -0.002686 0.000000 -0.000205 0.000000
# 3 -0.003401 -0.002686 0.010538 0.000000 0.001615 0.000000
# 4 0.000000 0.000000 0.000000 0.021353 0.000000 -0.012770
# 5 0.004856 -0.000205 0.001615 0.000000 0.039258 0.000000
# 6 0.000000 0.000000 0.000000 -0.012770 0.000000 0.093003
#
#
# Mechanical properties :
#
#
# Convention : Reuss Voigt Hill
#
# Bulk Modulus (GPa) = 53.33798 57.65049 55.49424
# Shear Modulus (GPa) = 23.14486 31.26257 27.20372
#
# Velocity S-wave (km/s) = 3.32800 3.86783 3.60803
# Velocity P-wave (km/s) = 6.34755 6.89452 6.62668
#
# Compressibility (1/GPa) = 0.01874836
#
# Stress axis : x y z
#
# Youngs Moduli (GPa) = 65.61407 85.61596 94.89888
#
# Poissons Ratio (x) = 0.27972 0.32280
# Poissons Ratio (y) = 0.21437 0.25493
# Poissons Ratio (z) = 0.22318 0.22999
#
# Static dielectric constant tensor:
#      x y z
#    x 3.576630 0.000000 0.005180 
#    y 0.000000 3.899410 0.000000 
#    z 0.005180 0.000000 3.800340 
# 
# 
# High freq. dielectric constant tensor:
#      x y z
#    x 1.810540 0.000000 0.002030 
#    y 0.000000 1.827580 0.000000 
#    z 0.002030 0.000000 1.823980 
# 
# From -- ./inp_files/66833.got.cif
#   From: 2010.06.25/outbox.cif.g09.slc.cpg/sg10_34_cif.got.tgz:66833.got - 2010.06.27 22:07:45.
