data_PCOD8066937
_publ_section_title
;
Structure prediction by ZEFSAII (Michael W. Deem and Ramdas Pophale) SiO2 
 PCOD8066937
Probable space group: P 2/M
;
_chemical_formula_sum "Si O2"
_cell_formula_units_Z 16
_cell_length_a 10.577802
_cell_length_b 7.658621
_cell_length_c 9.961063
_cell_angle_alpha 90.000000
_cell_angle_beta 97.025705
_cell_angle_gamma 90.000000
_cell_volume 800.900271
_symmetry_space_group_name_H-M "P 2/M"
_symmetry_group_IT_number 10
_symmetry_cell_setting 'monoclinic'
loop_
_space_group_symop_operation_xyz
x,y,z
-x,y,-z
-x,-y,-z
x,-y,z
loop_
_atom_site_type_symbol
_atom_site_label
_atom_site_fract_x
_atom_site_fract_y
_atom_site_fract_z
Si Si1 0.623698 0.794272 0.428709
Si Si2 0.310520 0.500000 0.063874
Si Si3 0.110817 0.197188 0.425551
Si Si4 0.084406 0.306531 0.127125
Si Si5 0.587539 0.500000 0.214169
O O1 0.500000 0.750087 0.500000
O O2 0.748420 0.727096 0.526911
O O3 0.619732 0.678795 0.294785
O O4 0.627455 0.000000 0.391699
O O5 0.230496 0.326350 0.095249
O O6 0.439418 0.500000 0.162191
O O7 0.328111 0.500000 0.907579
O O8 0.078248 0.201058 0.264058
O O9 0.000000 0.292225 0.500000
O O10 0.116148 0.000000 0.475887
O O11 0.025319 0.500000 0.146750
O O12 0.000000 0.212534 0.000000
#
# Coordination Sequence:
#
# PCOD8066937 Si02
#       5
#     4   2   4   4   2
#     4  10  22  38  59  88 118 150 196 240 289 350
#     4   9  21  38  52  88 114 144 196 244 271 360
#     4  10  22  37  56  86 118 147 193 245 285 342
#     4   9  20  36  56  78 114 148 189 233 282 344
#     4  11  21  36  64  81 118 155 190 244 292 333
#
# _framework density 19.977519000000001
#
# number of rings (size 3 to 8) (size 9 to 14) (size 15 to 20)
#    0.750    1.500    0.000    1.875    5.250    1.000 
#    0.000    3.750    0.000    0.000    0.000    0.000 
#    0.000    0.000    0.000    0.000    0.000    0.000 
#
# Total GULP energy -198273.676879 kJ/mol
# GULP energy per Si atom -12392.104805 kJ/mol
# Density = 1.993205 g / cm^3
# Si number density = 19.977519 Si / 1000 Ang^3
#
#
#
# Elastic Constant Matrix: (Units=GPa)
#
#
# Indices 1 2 3 4 5 6 
#
# 1 157.6144 12.6780 82.7991 0.0000 -2.3051 0.0000
# 2 12.6780 48.9705 26.3896 0.0000 -0.8041 0.0000
# 3 82.7991 26.3896 165.6743 0.0000 6.3532 0.0000
# 4 0.0000 0.0000 0.0000 156.3903 0.0000 -98.8481
# 5 -2.3051 -0.8041 6.3532 0.0000 31.5698 0.0000
# 6 0.0000 0.0000 0.0000 -98.8481 0.0000 80.3049
#
#
#
# Elastic Compliance Matrix: (Units=1/GPa)
#
#
# Indices 1 2 3 4 5 6 
#
# 1 0.008676 0.000161 -0.004420 0.000000 0.001527 0.000000
# 2 0.000161 0.022394 -0.003698 0.000000 0.001326 0.000000
# 3 -0.004420 -0.003698 0.008919 0.000000 -0.002212 0.000000
# 4 0.000000 0.000000 0.000000 0.028804 0.000000 0.035455
# 5 0.001527 0.001326 -0.002212 0.000000 0.032266 0.000000
# 6 0.000000 0.000000 0.000000 0.035455 0.000000 0.056095
#
#
# Mechanical properties :
#
#
# Convention : Reuss Voigt Hill
#
# Bulk Modulus (GPa) = 41.53966 68.44363 54.99165
# Shear Modulus (GPa) = 27.61008 70.34583 48.97795
#
# Velocity S-wave (km/s) = 3.72164 5.94045 4.95679
# Velocity P-wave (km/s) = 6.26943 9.02145 7.76828
#
# Compressibility (1/GPa) = 0.02407338
#
# Stress axis : x y z
#
# Youngs Moduli (GPa) = 115.25975 44.65580 112.12094
#
# Poissons Ratio (x) = -0.00719 0.49560
# Poissons Ratio (y) = -0.01855 0.41465
# Poissons Ratio (z) = 0.50948 0.16515
#
# Static dielectric constant tensor:
#      x y z
#    x 3.955390 0.000000 0.083490 
#    y 0.000000 3.247890 0.000000 
#    z 0.083490 0.000000 3.479070 
# 
# 
# High freq. dielectric constant tensor:
#      x y z
#    x 1.795020 0.000000 0.006700 
#    y 0.000000 1.748970 0.000000 
#    z 0.006700 0.000000 1.782450 
# 
# From -- ./inp_files/21721.got.cif
#   From: 2010.06.25/outbox.cif.g09.slc.cpg/sg10_11_cif.got.tgz:21721.got - 2010.06.27 22:07:45.
