data_PCOD8066163
_publ_section_title
;
Structure prediction by ZEFSAII (Michael W. Deem and Ramdas Pophale) SiO2 
 PCOD8066163
Probable space group: P 2/M
;
_chemical_formula_sum "Si O2"
_cell_formula_units_Z 32
_cell_length_a 14.686626
_cell_length_b 14.101726
_cell_length_c 8.818104
_cell_angle_alpha 90.000000
_cell_angle_beta 113.171964
_cell_angle_gamma 90.000000
_cell_volume 1678.958681
_symmetry_space_group_name_H-M "P 2/M"
_symmetry_group_IT_number 10
_symmetry_cell_setting 'monoclinic'
loop_
_space_group_symop_operation_xyz
x,y,z
-x,y,-z
-x,-y,-z
x,-y,z
loop_
_atom_site_type_symbol
_atom_site_label
_atom_site_fract_x
_atom_site_fract_y
_atom_site_fract_z
Si Si1 0.521832 0.751342 0.688238
Si Si2 0.090806 0.888196 0.172407
Si Si3 0.207429 0.608233 0.347387
Si Si4 0.256436 0.243001 0.794683
Si Si5 0.246248 0.245206 0.125814
Si Si6 0.581909 0.103543 0.179489
Si Si7 0.910158 0.245048 0.550414
Si Si8 0.374426 0.391856 0.700491
O O1 0.500000 0.736445 0.500000
O O2 0.636015 0.771074 0.798043
O O3 0.455955 0.839687 0.699227
O O4 0.481635 0.657299 0.748357
O O5 0.191591 0.842623 0.171924
O O6 0.065880 0.840827 0.318490
O O7 0.107890 0.000000 0.206451
O O8 0.000000 0.867695 0.000000
O O9 0.175427 0.500000 0.301593
O O10 0.221301 0.656898 0.193647
O O11 0.118336 0.659621 0.377847
O O12 0.311235 0.616042 0.504331
O O13 0.328432 0.153884 0.846360
O O14 0.178875 0.214401 0.615821
O O15 0.314242 0.340297 0.794981
O O16 0.207129 0.254334 0.927886
O O17 0.615289 0.000000 0.259136
O O18 0.500000 0.094051 0.000000
O O19 0.000000 0.270271 0.500000
O O20 0.392108 0.500000 0.760700
#
# Coordination Sequence:
#
# PCOD8066163 Si02
#       8
#     4   4   4   4   4   4   4   4
#     4  11  21  35  55  82 114 152 195 233 278 336
#     4  10  23  42  63  88 115 144 186 237 287 343
#     4   9  19  36  57  85 117 151 192 234 281 339
#     4  10  21  37  57  83 116 150 192 236 280 341
#     4  11  21  36  58  84 117 151 189 236 285 334
#     4  10  21  37  55  77 111 151 190 233 280 333
#     4  10  21  39  63  86 113 149 185 233 291 340
#     4   9  19  35  55  81 117 155 194 239 281 328
#
# _framework density 19.059432000000001
#
# number of rings (size 3 to 8) (size 9 to 14) (size 15 to 20)
#    0.000    2.000    2.500    0.750    1.750    3.500 
#    0.000    0.625    0.000   12.750    0.000    0.000 
#    0.000    0.000    0.000    0.000    0.000    0.000 
#
# Total GULP energy -396811.803872 kJ/mol
# GULP energy per Si atom -12400.368871 kJ/mol
# Density = 1.901605 g / cm^3
# Si number density = 19.059432 Si / 1000 Ang^3
#
#
#
# Elastic Constant Matrix: (Units=GPa)
#
#
# Indices 1 2 3 4 5 6 
#
# 1 110.3641 56.5739 31.7263 0.0000 -10.7629 0.0000
# 2 56.5739 158.8354 36.0552 0.0000 -4.5625 0.0000
# 3 31.7263 36.0552 75.7696 0.0000 -12.1114 0.0000
# 4 0.0000 0.0000 0.0000 24.0039 0.0000 4.0633
# 5 -10.7629 -4.5625 -12.1114 0.0000 33.7144 0.0000
# 6 0.0000 0.0000 0.0000 4.0633 0.0000 17.2848
#
#
#
# Elastic Compliance Matrix: (Units=1/GPa)
#
#
# Indices 1 2 3 4 5 6 
#
# 1 0.011935 -0.003513 -0.002963 0.000000 0.002270 0.000000
# 2 -0.003513 0.008095 -0.002530 0.000000 -0.000935 0.000000
# 3 -0.002963 -0.002530 0.016377 0.000000 0.004595 0.000000
# 4 0.000000 0.000000 0.000000 0.043386 0.000000 -0.010199
# 5 0.002270 -0.000935 0.004595 0.000000 0.031910 0.000000
# 6 0.000000 0.000000 0.000000 -0.010199 0.000000 0.060252
#
#
# Mechanical properties :
#
#
# Convention : Reuss Voigt Hill
#
# Bulk Modulus (GPa) = 54.36519 65.96441 60.16480
# Shear Modulus (GPa) = 25.49740 29.70821 27.60281
#
# Velocity S-wave (km/s) = 3.66154 3.95234 3.80972
# Velocity P-wave (km/s) = 6.81629 7.45070 7.14054
#
# Compressibility (1/GPa) = 0.01839412
#
# Stress axis : x y z
#
# Youngs Moduli (GPa) = 83.78765 123.53803 61.06138
#
# Poissons Ratio (x) = 0.43402 0.18091
# Poissons Ratio (y) = 0.29437 0.15450
# Poissons Ratio (z) = 0.24824 0.31259
#
# Static dielectric constant tensor:
#      x y z
#    x 5.095680 0.000000 0.623540 
#    y 0.000000 3.573550 0.000000 
#    z 0.623540 0.000000 3.832620 
# 
# 
# High freq. dielectric constant tensor:
#      x y z
#    x 1.742120 0.000000 -0.007490 
#    y 0.000000 1.738310 0.000000 
#    z -0.007490 0.000000 1.741930 
# 
# From -- ./inp_files/29520.got.cif
#   From: 2010.06.25/outbox.cif.g09.slc.cpg/sg10_15_cif.got.tgz:29520.got - 2010.06.27 22:07:45.
