data_PCOD8066981
_publ_section_title
;
Structure prediction by ZEFSAII (Michael W. Deem and Ramdas Pophale) SiO2 
 PCOD8066981
Probable space group: P 2/M
;
_chemical_formula_sum "Si O2"
_cell_formula_units_Z 28
_cell_length_a 18.143189
_cell_length_b 9.101234
_cell_length_c 14.485347
_cell_angle_alpha 90.000000
_cell_angle_beta 146.117098
_cell_angle_gamma 90.000000
_cell_volume 1333.477373
_symmetry_space_group_name_H-M "P 2/M"
_symmetry_group_IT_number 10
_symmetry_cell_setting 'monoclinic'
loop_
_space_group_symop_operation_xyz
x,y,z
-x,y,-z
-x,-y,-z
x,-y,z
loop_
_atom_site_type_symbol
_atom_site_label
_atom_site_fract_x
_atom_site_fract_y
_atom_site_fract_z
Si Si1 0.531975 0.330322 0.826466
Si Si2 0.801491 0.165799 0.749934
Si Si3 0.922545 0.167182 0.063161
Si Si4 0.552092 0.671505 0.458298
Si Si5 0.251170 0.174415 0.828637
Si Si6 0.735262 0.330431 0.345793
Si Si7 0.030679 0.327976 0.705413
O O1 0.570668 0.500000 0.885363
O O2 0.539230 0.291962 0.724908
O O3 0.382493 0.300153 0.704953
O O4 0.635843 0.224852 0.983193
O O5 0.697516 0.267810 0.590597
O O6 0.933485 0.180560 0.829609
O O7 0.749329 0.000000 0.694320
O O8 0.820770 0.214734 0.876981
O O9 0.908066 0.276216 0.133829
O O10 0.896004 0.000000 0.068613
O O11 0.500000 0.742870 0.500000
O O12 0.567253 0.500000 0.486120
O O13 0.292247 0.227889 0.770224
O O14 0.109266 0.244695 0.706085
O O15 0.239814 0.000000 0.818803
O O16 0.736498 0.500000 0.314899
O O17 0.875471 0.288542 0.538155
O O18 0.056470 0.500000 0.721171
#
# Coordination Sequence:
#
# PCOD8066981 Si02
#       7
#     4   4   4   4   4   4   4
#     4  10  22  42  65  89 123 163 203 252 308 361
#     4   9  19  36  57  82 118 159 198 241 296 355
#     4   9  19  36  57  85 120 157 196 243 295 353
#     4  10  22  38  58  87 121 155 201 253 294 343
#     4  12  26  41  61  92 126 160 202 253 305 363
#     4  10  22  42  66  90 119 160 206 252 306 367
#     4  11  23  39  63  92 123 159 201 248 304 364
#
# _framework density 20.997734000000001
#
# number of rings (size 3 to 8) (size 9 to 14) (size 15 to 20)
#    0.000    1.857    0.000    4.286    2.000    8.286 
#    0.000    1.429    0.000    0.000    0.000    0.000 
#    0.000    0.000    0.000    0.000    0.000    0.000 
#
# Total GULP energy -347243.962552 kJ/mol
# GULP energy per Si atom -12401.570091 kJ/mol
# Density = 2.094994 g / cm^3
# Si number density = 20.997734 Si / 1000 Ang^3
#
#
#
# Elastic Constant Matrix: (Units=GPa)
#
#
# Indices 1 2 3 4 5 6 
#
# 1 74.6956 35.3589 13.2668 0.0000 -11.2102 0.0000
# 2 35.3589 85.0839 40.7065 0.0000 -9.2328 0.0000
# 3 13.2668 40.7065 74.9028 0.0000 -2.3311 0.0000
# 4 0.0000 0.0000 0.0000 27.6481 0.0000 7.5884
# 5 -11.2102 -9.2328 -2.3311 0.0000 36.5207 0.0000
# 6 0.0000 0.0000 0.0000 7.5884 0.0000 20.4360
#
#
#
# Elastic Compliance Matrix: (Units=1/GPa)
#
#
# Indices 1 2 3 4 5 6 
#
# 1 0.017158 -0.007228 0.000998 0.000000 0.003503 0.000000
# 2 -0.007228 0.019379 -0.009186 0.000000 0.002094 0.000000
# 3 0.000998 -0.009186 0.018140 0.000000 -0.000858 0.000000
# 4 0.000000 0.000000 0.000000 0.040273 0.000000 -0.014955
# 5 0.003503 0.002094 -0.000858 0.000000 0.028932 0.000000
# 6 0.000000 0.000000 0.000000 -0.014955 0.000000 0.054486
#
#
# Mechanical properties :
#
#
# Convention : Reuss Voigt Hill
#
# Bulk Modulus (GPa) = 41.93899 45.92739 43.93319
# Shear Modulus (GPa) = 23.02584 26.61096 24.81840
#
# Velocity S-wave (km/s) = 3.31507 3.56381 3.44169
# Velocity P-wave (km/s) = 5.88807 6.23333 6.06316
#
# Compressibility (1/GPa) = 0.02384416
#
# Stress axis : x y z
#
# Youngs Moduli (GPa) = 58.28352 51.60230 55.12813
#
# Poissons Ratio (x) = 0.37296 -0.05502
# Poissons Ratio (y) = 0.42125 0.50643
# Poissons Ratio (z) = -0.05817 0.47404
#
# Static dielectric constant tensor:
#      x y z
#    x 4.037340 0.000000 -0.180520 
#    y 0.000000 3.655220 0.000000 
#    z -0.180520 0.000000 3.905550 
# 
# 
# High freq. dielectric constant tensor:
#      x y z
#    x 1.829890 0.000000 -0.003960 
#    y 0.000000 1.810310 0.000000 
#    z -0.003960 0.000000 1.829320 
# 
# From -- ./inp_files/70280.got.cif
#   From: 2010.06.25/outbox.cif.g09.slc.cpg/sg10_36_cif.got.tgz:70280.got - 2010.06.27 22:07:45.
