data_PCOD8066887
_publ_section_title
;
Structure prediction by ZEFSAII (Michael W. Deem and Ramdas Pophale) SiO2 
 PCOD8066887
Probable space group: P 2/M
;
_chemical_formula_sum "Si O2"
_cell_formula_units_Z 24
_cell_length_a 8.662573
_cell_length_b 15.061756
_cell_length_c 14.006766
_cell_angle_alpha 90.000000
_cell_angle_beta 37.602985
_cell_angle_gamma 90.000000
_cell_volume 1115.123429
_symmetry_space_group_name_H-M "P 2/M"
_symmetry_group_IT_number 10
_symmetry_cell_setting 'monoclinic'
loop_
_space_group_symop_operation_xyz
x,y,z
-x,y,-z
-x,-y,-z
x,-y,z
loop_
_atom_site_type_symbol
_atom_site_label
_atom_site_fract_x
_atom_site_fract_y
_atom_site_fract_z
Si Si1 0.637484 0.602442 0.533017
Si Si2 0.233196 0.708526 0.831206
Si Si3 0.968691 0.747614 0.625400
Si Si4 0.529412 0.825469 0.130352
Si Si5 0.970661 0.832299 0.218653
Si Si6 0.705385 0.000000 0.673419
Si Si7 0.657347 0.000000 0.328273
O O1 0.500000 0.618446 0.500000
O O2 0.697486 0.500000 0.521063
O O3 0.456255 0.638056 0.706126
O O4 0.904599 0.653169 0.412967
O O5 0.319282 0.794651 0.849570
O O6 0.137499 0.743126 0.776034
O O7 0.000000 0.660492 0.000000
O O8 0.000000 0.777886 0.500000
O O9 0.669121 0.745701 0.796507
O O10 0.088914 0.821931 0.638615
O O11 0.363288 0.913626 0.230347
O O12 0.726500 0.840771 0.947466
O O13 0.838639 0.915809 0.236224
O O14 0.000000 0.000000 0.500000
O O15 0.531168 0.000000 0.666568
O O16 0.500000 0.000000 0.500000
#
# Coordination Sequence:
#
# PCOD8066887 Si02
#       7
#     4   4   4   4   4   2   2
#     4  11  24  44  72 100 131 170 220 280 342 410
#     4  10  21  41  70  97 131 176 221 272 333 402
#     4  12  25  42  70  95 136 174 226 274 336 397
#     4  11  24  43  68  98 134 181 221 279 338 387
#     4  11  25  44  68  96 134 181 233 273 326 400
#     4  12  27  43  66 103 143 173 232 287 329 392
#     4  12  29  41  66  99 136 182 230 280 328 377
#
# _framework density 21.522281
#
# number of rings (size 3 to 8) (size 9 to 14) (size 15 to 20)
#    0.000    0.833    5.000    1.500    7.000    1.333 
#    0.000    2.083    0.000    2.000    0.000    0.000 
#    0.000    0.000    0.000    0.000    0.000    0.000 
#
# Total GULP energy -297526.306398 kJ/mol
# GULP energy per Si atom -12396.929433 kJ/mol
# Density = 2.147330 g / cm^3
# Si number density = 21.522281 Si / 1000 Ang^3
#
#
#
# Elastic Constant Matrix: (Units=GPa)
#
#
# Indices 1 2 3 4 5 6 
#
# 1 105.5441 50.7688 45.0122 0.0000 -1.1970 0.0000
# 2 50.7688 114.2581 78.1957 0.0000 -10.5076 0.0000
# 3 45.0122 78.1957 135.6622 0.0000 -17.0207 0.0000
# 4 0.0000 0.0000 0.0000 24.5447 0.0000 -4.2190
# 5 -1.1970 -10.5076 -17.0207 0.0000 47.7100 0.0000
# 6 0.0000 0.0000 0.0000 -4.2190 0.0000 32.4079
#
#
#
# Elastic Compliance Matrix: (Units=1/GPa)
#
#
# Indices 1 2 3 4 5 6 
#
# 1 0.012313 -0.004431 -0.001691 0.000000 -0.001270 0.000000
# 2 -0.004431 0.016050 -0.007696 0.000000 0.000678 0.000000
# 3 -0.001691 -0.007696 0.012720 0.000000 0.002800 0.000000
# 4 0.000000 0.000000 0.000000 0.041675 0.000000 0.005425
# 5 -0.001270 0.000678 0.002800 0.000000 0.022076 0.000000
# 6 0.000000 0.000000 0.000000 0.005425 0.000000 0.031563
#
#
# Mechanical properties :
#
#
# Convention : Reuss Voigt Hill
#
# Bulk Modulus (GPa) = 74.36442 78.15752 76.26097
# Shear Modulus (GPa) = 29.67108 33.03170 31.35139
#
# Velocity S-wave (km/s) = 3.71701 3.92186 3.82081
# Velocity P-wave (km/s) = 7.28346 7.54331 7.41452
#
# Compressibility (1/GPa) = 0.01344729
#
# Stress axis : x y z
#
# Youngs Moduli (GPa) = 81.21769 62.30439 78.61800
#
# Poissons Ratio (x) = 0.27604 0.13293
# Poissons Ratio (y) = 0.35984 0.60506
# Poissons Ratio (z) = 0.13733 0.47951
#
# Static dielectric constant tensor:
#      x y z
#    x 4.000760 0.000000 -0.088960 
#    y 0.000000 3.486710 0.000000 
#    z -0.088960 0.000000 4.043850 
# 
# 
# High freq. dielectric constant tensor:
#      x y z
#    x 1.866730 0.000000 -0.004200 
#    y 0.000000 1.810650 0.000000 
#    z -0.004200 0.000000 1.853750 
# 
# From -- ./inp_files/61706.got.cif
#   From: 2010.06.25/outbox.cif.g09.slc.cpg/sg10_31_cif.got.tgz:61706.got - 2010.06.27 22:07:45.
