data_PCOD8066076
_publ_section_title
;
Structure prediction by ZEFSAII (Michael W. Deem and Ramdas Pophale) SiO2 
 PCOD8066076
Probable space group: P 2/M
;
_chemical_formula_sum "Si O2"
_cell_formula_units_Z 32
_cell_length_a 16.142277
_cell_length_b 13.608689
_cell_length_c 9.439221
_cell_angle_alpha 90.000000
_cell_angle_beta 118.025977
_cell_angle_gamma 90.000000
_cell_volume 1830.405929
_symmetry_space_group_name_H-M "P 2/M"
_symmetry_group_IT_number 10
_symmetry_cell_setting 'monoclinic'
loop_
_space_group_symop_operation_xyz
x,y,z
-x,y,-z
-x,-y,-z
x,-y,z
loop_
_atom_site_type_symbol
_atom_site_label
_atom_site_fract_x
_atom_site_fract_y
_atom_site_fract_z
Si Si1 0.905054 0.615108 0.838577
Si Si2 0.747090 0.615686 0.190360
Si Si3 0.577652 0.889214 0.367878
Si Si4 0.571219 0.719579 0.172888
Si Si5 0.458306 0.385654 0.323026
Si Si6 0.915994 0.615568 0.525984
Si Si7 0.364343 0.888856 0.271253
Si Si8 0.259327 0.700453 0.113789
O O1 0.877860 0.500000 0.820554
O O2 0.917171 0.655129 0.687856
O O3 0.822643 0.678637 0.841375
O O4 0.000000 0.634827 0.000000
O O5 0.746922 0.500000 0.157062
O O6 0.645384 0.649191 0.157884
O O7 0.818653 0.642976 0.372740
O O8 0.776706 0.673008 0.071894
O O9 0.620169 0.813222 0.287969
O O10 0.467732 0.862545 0.297376
O O11 0.634669 0.877562 0.558664
O O12 0.588470 0.000000 0.319393
O O13 0.514155 0.654712 0.236065
O O14 0.500000 0.762501 0.000000
O O15 0.500000 0.337197 0.500000
O O16 0.476399 0.500000 0.339706
O O17 0.348307 0.365188 0.226210
O O18 0.931652 0.500000 0.546356
O O19 0.000000 0.662645 0.500000
O O20 0.287979 0.815466 0.142790
O O21 0.336643 0.000000 0.206481
#
# Coordination Sequence:
#
# PCOD8066076 Si02
#       8
#     4   4   4   4   4   4   4   4
#     4  10  21  36  57  84 110 139 182 231 268 316
#     4  11  23  35  50  75 113 153 183 218 266 323
#     4   9  18  34  54  75 103 140 185 234 280 316
#     4  12  22  34  49  74 110 150 184 220 264 322
#     4  11  23  34  48  72 107 148 186 223 258 314
#     4   9  19  36  55  76 105 142 177 218 270 318
#     4   9  18  34  56  79 103 136 182 237 282 321
#     4  12  21  35  56  79 106 143 188 227 272 326
#
# _framework density 17.482461000000001
#
# number of rings (size 3 to 8) (size 9 to 14) (size 15 to 20)
#    0.000    1.625    2.500    3.750    3.500    2.750 
#    0.000    0.625    0.000    0.375    0.000    0.000 
#    0.000    2.500    0.000    0.000    0.000    0.000 
#
# Total GULP energy -396832.316233 kJ/mol
# GULP energy per Si atom -12401.009882 kJ/mol
# Density = 1.744267 g / cm^3
# Si number density = 17.482461 Si / 1000 Ang^3
#
#
#
# Elastic Constant Matrix: (Units=GPa)
#
#
# Indices 1 2 3 4 5 6 
#
# 1 91.3999 27.6589 38.9386 0.0000 -13.4294 0.0000
# 2 27.6589 83.3264 34.1384 0.0000 -3.8820 0.0000
# 3 38.9386 34.1384 114.4111 0.0000 -14.9630 0.0000
# 4 0.0000 0.0000 0.0000 36.7914 0.0000 -16.1040
# 5 -13.4294 -3.8820 -14.9630 0.0000 25.9401 0.0000
# 6 0.0000 0.0000 0.0000 -16.1040 0.0000 28.6451
#
#
#
# Elastic Compliance Matrix: (Units=1/GPa)
#
#
# Indices 1 2 3 4 5 6 
#
# 1 0.013958 -0.003100 -0.003181 0.000000 0.004927 0.000000
# 2 -0.003100 0.014364 -0.003417 0.000000 -0.001427 0.000000
# 3 -0.003181 -0.003417 0.011422 0.000000 0.004430 0.000000
# 4 0.000000 0.000000 0.000000 0.036052 0.000000 0.020268
# 5 0.004927 -0.001427 0.004430 0.000000 0.043443 0.000000
# 6 0.000000 0.000000 0.000000 0.020268 0.000000 0.046304
#
#
# Mechanical properties :
#
#
# Convention : Reuss Voigt Hill
#
# Bulk Modulus (GPa) = 49.14810 54.51213 51.83011
# Shear Modulus (GPa) = 26.07920 30.83542 28.45731
#
# Velocity S-wave (km/s) = 3.86649 4.20431 4.03893
# Velocity P-wave (km/s) = 6.93591 7.40385 7.17370
#
# Compressibility (1/GPa) = 0.02034667
#
# Stress axis : x y z
#
# Youngs Moduli (GPa) = 71.64169 69.61986 87.54949
#
# Poissons Ratio (x) = 0.21585 0.27850
# Poissons Ratio (y) = 0.22212 0.29918
# Poissons Ratio (z) = 0.22789 0.23791
#
# Static dielectric constant tensor:
#      x y z
#    x 3.127880 0.000000 -0.185800 
#    y 0.000000 3.159410 0.000000 
#    z -0.185800 0.000000 3.437450 
# 
# 
# High freq. dielectric constant tensor:
#      x y z
#    x 1.659800 0.000000 -0.014570 
#    y 0.000000 1.655630 0.000000 
#    z -0.014570 0.000000 1.685540 
# 
# From -- ./inp_files/29564.got.cif
#   From: 2010.06.25/outbox.cif.g09.slc.cpg/sg10_15_cif.got.tgz:29564.got - 2010.06.27 22:07:45.
