data_PCOD8066261
_publ_section_title
;
Structure prediction by ZEFSAII (Michael W. Deem and Ramdas Pophale) SiO2 
 PCOD8066261
Probable space group: P 2/M
;
_chemical_formula_sum "Si O2"
_cell_formula_units_Z 32
_cell_length_a 24.604266
_cell_length_b 9.338585
_cell_length_c 15.334850
_cell_angle_alpha 90.000000
_cell_angle_beta 28.327391
_cell_angle_gamma 90.000000
_cell_volume 1671.920212
_symmetry_space_group_name_H-M "P 2/M"
_symmetry_group_IT_number 10
_symmetry_cell_setting 'monoclinic'
loop_
_space_group_symop_operation_xyz
x,y,z
-x,y,-z
-x,-y,-z
x,-y,z
loop_
_atom_site_type_symbol
_atom_site_label
_atom_site_fract_x
_atom_site_fract_y
_atom_site_fract_z
Si Si1 0.548651 0.341234 0.023046
Si Si2 0.493049 0.332016 0.611294
Si Si3 0.949816 0.161225 0.974106
Si Si4 0.121490 0.167264 0.360993
Si Si5 0.844297 0.663576 0.356929
Si Si6 0.631240 0.829168 0.064252
Si Si7 0.744490 0.333658 0.317022
Si Si8 0.203104 0.653163 0.390072
O O1 0.492248 0.500000 0.121997
O O2 0.681544 0.365482 0.824642
O O3 0.500000 0.276333 0.000000
O O4 0.543082 0.234895 0.114691
O O5 0.500000 0.286242 0.500000
O O6 0.462340 0.500000 0.663317
O O7 0.399794 0.240690 0.797821
O O8 0.615195 0.294165 0.479545
O O9 0.041845 0.244191 0.785957
O O10 0.934339 0.000000 0.961898
O O11 0.828264 0.240903 0.137669
O O12 0.000000 0.166836 0.000000
O O13 0.129263 0.225189 0.448435
O O14 0.000000 0.231065 0.500000
O O15 0.112546 0.000000 0.381420
O O16 0.234217 0.208287 0.144260
O O17 0.882681 0.500000 0.288529
O O18 0.767383 0.712805 0.384461
O O19 0.767755 0.690069 0.550600
O O20 0.612685 0.000000 0.093204
O O21 0.770020 0.500000 0.263375
O O22 0.136728 0.500000 0.480629
#
# Coordination Sequence:
#
# PCOD8066261 Si02
#       8
#     4   4   4   4   4   4   4   4
#     4   9  18  32  55  82 113 148 181 219 266 324
#     4  10  22  40  60  82 109 144 189 237 281 330
#     4   9  17  30  48  72 103 135 172 215 260 313
#     4   9  19  38  59  77 106 146 183 217 266 328
#     4   9  17  30  50  76 107 139 174 215 265 325
#     4  10  21  37  58  83 112 147 184 229 281 329
#     4   9  18  33  55  75 101 141 179 219 272 324
#     4   9  18  31  49  80 110 134 173 221 263 311
#
# _framework density 19.139669000000001
#
# number of rings (size 3 to 8) (size 9 to 14) (size 15 to 20)
#    0.000    2.750    0.000    0.750    1.750    3.750 
#    2.250    0.000    0.000    0.000    0.000    0.000 
#    0.000    0.000    0.000    0.000    0.000    0.000 
#
# Total GULP energy -396458.165879 kJ/mol
# GULP energy per Si atom -12389.317684 kJ/mol
# Density = 1.909611 g / cm^3
# Si number density = 19.139669 Si / 1000 Ang^3
#
#
#
# Elastic Constant Matrix: (Units=GPa)
#
#
# Indices 1 2 3 4 5 6 
#
# 1 105.4957 39.4297 48.4741 0.0000 6.3122 0.0000
# 2 39.4297 67.8916 45.7126 0.0000 3.6071 0.0000
# 3 48.4741 45.7126 75.2544 0.0000 5.3062 0.0000
# 4 0.0000 0.0000 0.0000 14.7560 0.0000 -0.1629
# 5 6.3122 3.6071 5.3062 0.0000 30.4316 0.0000
# 6 0.0000 0.0000 0.0000 -0.1629 0.0000 21.5893
#
#
#
# Elastic Compliance Matrix: (Units=1/GPa)
#
#
# Indices 1 2 3 4 5 6 
#
# 1 0.013981 -0.003467 -0.006808 0.000000 -0.001302 0.000000
# 2 -0.003467 0.025785 -0.013430 0.000000 0.000005 0.000000
# 3 -0.006808 -0.013430 0.025939 0.000000 -0.001519 0.000000
# 4 0.000000 0.000000 0.000000 0.067775 0.000000 0.000511
# 5 -0.001302 0.000005 -0.001519 0.000000 0.033395 0.000000
# 6 0.000000 0.000000 0.000000 0.000511 0.000000 0.046323
#
#
# Mechanical properties :
#
#
# Convention : Reuss Voigt Hill
#
# Bulk Modulus (GPa) = 54.65991 57.31940 55.98965
# Shear Modulus (GPa) = 18.74721 21.02372 19.88547
#
# Velocity S-wave (km/s) = 3.13308 3.31786 3.22680
# Velocity P-wave (km/s) = 6.45823 6.68510 6.57264
#
# Compressibility (1/GPa) = 0.01829494
#
# Stress axis : x y z
#
# Youngs Moduli (GPa) = 71.52653 38.78163 38.55219
#
# Poissons Ratio (x) = 0.13444 0.26246
# Poissons Ratio (y) = 0.24795 0.51777
# Poissons Ratio (z) = 0.48695 0.52086
#
# Static dielectric constant tensor:
#      x y z
#    x 3.506540 0.000000 -0.003380 
#    y 0.000000 3.646880 0.000000 
#    z -0.003380 0.000000 3.542690 
# 
# 
# High freq. dielectric constant tensor:
#      x y z
#    x 1.726870 0.000000 0.002590 
#    y 0.000000 1.736860 0.000000 
#    z 0.002590 0.000000 1.739070 
# 
# From -- ./inp_files/71419.got.cif
#   From: 2010.06.25/outbox.cif.g09.slc.cpg/sg10_36_cif.got.tgz:71419.got - 2010.06.27 22:07:45.
