data_PCOD8066814
_publ_section_title
;
Structure prediction by ZEFSAII (Michael W. Deem and Ramdas Pophale) SiO2 
 PCOD8066814
Probable space group: P 2/M
;
_chemical_formula_sum "Si O2"
_cell_formula_units_Z 24
_cell_length_a 11.760185
_cell_length_b 11.621289
_cell_length_c 17.822551
_cell_angle_alpha 90.000000
_cell_angle_beta 30.974067
_cell_angle_gamma 90.000000
_cell_volume 1253.575063
_symmetry_space_group_name_H-M "P 2/M"
_symmetry_group_IT_number 10
_symmetry_cell_setting 'monoclinic'
loop_
_space_group_symop_operation_xyz
x,y,z
-x,y,-z
-x,-y,-z
x,-y,z
loop_
_atom_site_type_symbol
_atom_site_label
_atom_site_fract_x
_atom_site_fract_y
_atom_site_fract_z
Si Si1 0.735395 0.000000 0.641217
Si Si2 0.461243 0.365836 0.167188
Si Si3 0.316667 0.755762 0.396512
Si Si4 0.415062 0.631395 0.631419
Si Si5 0.887862 0.243502 0.728352
Si Si6 0.942129 0.631341 0.848356
Si Si7 0.704301 0.000000 0.828544
O O1 0.648780 0.111390 0.645751
O O2 0.000000 0.000000 0.500000
O O3 0.625336 0.000000 0.786284
O O4 0.419257 0.500000 0.179977
O O5 0.363883 0.327684 0.301055
O O6 0.343134 0.300628 0.165330
O O7 0.720470 0.333697 0.018009
O O8 0.479225 0.723405 0.372336
O O9 0.064263 0.734257 0.562971
O O10 0.500000 0.656684 0.500000
O O11 0.476339 0.500000 0.620104
O O12 0.150685 0.649855 0.784940
O O13 0.978077 0.294061 0.754158
O O14 0.858112 0.108567 0.757910
O O15 0.929213 0.500000 0.828388
O O16 0.500000 0.000000 0.000000
#
# Coordination Sequence:
#
# PCOD8066814 Si02
#       7
#     2   4   4   4   4   4   2
#     4  12  22  44  60  90 129 162 198 255 314 365
#     4  11  23  36  58  93 126 158 200 256 319 373
#     4  12  23  39  63  89 123 162 207 253 309 367
#     4  10  21  40  64  89 120 167 214 252 302 366
#     4  12  22  38  62  92 123 160 204 252 312 374
#     4  10  22  40  61  88 127 164 203 256 308 365
#     4  12  24  40  65  90 123 169 205 243 307 380
#
# _framework density 19.145244000000002
#
# number of rings (size 3 to 8) (size 9 to 14) (size 15 to 20)
#    0.000    0.833    5.000    3.000    0.000    4.667 
#    0.000    3.750    0.000    1.000    0.000    0.000 
#    0.000    0.000    0.000    0.000    0.000    0.000 
#
# Total GULP energy -297716.326909 kJ/mol
# GULP energy per Si atom -12404.846955 kJ/mol
# Density = 1.910167 g / cm^3
# Si number density = 19.145244 Si / 1000 Ang^3
#
#
#
# Elastic Constant Matrix: (Units=GPa)
#
#
# Indices 1 2 3 4 5 6 
#
# 1 96.5455 54.7279 30.2330 0.0000 -2.5406 0.0000
# 2 54.7279 111.4664 39.4651 0.0000 -1.0013 0.0000
# 3 30.2330 39.4651 123.2070 0.0000 -1.3913 0.0000
# 4 0.0000 0.0000 0.0000 24.3486 0.0000 -1.4802
# 5 -2.5406 -1.0013 -1.3913 0.0000 32.9293 0.0000
# 6 0.0000 0.0000 0.0000 -1.4802 0.0000 -59.2490
#
#
#
# Elastic Compliance Matrix: (Units=1/GPa)
#
#
# Indices 1 2 3 4 5 6 
#
# 1 0.014603 -0.006651 -0.001443 0.000000 0.000863 0.000000
# 2 -0.006651 0.013149 -0.002582 0.000000 -0.000222 0.000000
# 3 -0.001443 -0.002582 0.009300 0.000000 0.000203 0.000000
# 4 0.000000 0.000000 0.000000 0.041008 0.000000 -0.001024
# 5 0.000863 -0.000222 0.000203 0.000000 0.030437 0.000000
# 6 0.000000 0.000000 0.000000 -0.001024 0.000000 -0.016852
#
#
# Mechanical properties :
#
#
# Convention : Reuss Voigt Hill
#
# Bulk Modulus (GPa) = 63.69849 64.45232 64.07540
# Shear Modulus (GPa) = 42.29065 13.39196 27.84131
#
# Velocity S-wave (km/s) = 4.70503 2.64766 3.81755
# Velocity P-wave (km/s) = 7.92842 6.56390 7.27821
#
# Compressibility (1/GPa) = 0.01569896
#
# Stress axis : x y z
#
# Youngs Moduli (GPa) = 68.48102 76.05096 107.52699
#
# Poissons Ratio (x) = 0.50581 0.15517
# Poissons Ratio (y) = 0.45546 0.27767
# Poissons Ratio (z) = 0.09883 0.19639
#
# Static dielectric constant tensor:
#      x y z
#    x 3.472540 0.000000 -0.052070 
#    y 0.000000 3.590280 0.000000 
#    z -0.052070 0.000000 3.752430 
# 
# 
# High freq. dielectric constant tensor:
#      x y z
#    x 1.733200 0.000000 0.004820 
#    y 0.000000 1.746160 0.000000 
#    z 0.004820 0.000000 1.758940 
# 
# From -- ./inp_files/46823.got.cif
#   From: 2010.06.25/outbox.cif.g09.slc.cpg/sg10_24_cif.got.tgz:46823.got - 2010.06.27 22:07:45.
