data_PCOD8066113
_publ_section_title
;
Structure prediction by ZEFSAII (Michael W. Deem and Ramdas Pophale) SiO2 
 PCOD8066113
Probable space group: P 2/M
;
_chemical_formula_sum "Si O2"
_cell_formula_units_Z 32
_cell_length_a 10.527498
_cell_length_b 9.062317
_cell_length_c 21.369570
_cell_angle_alpha 90.000000
_cell_angle_beta 51.933195
_cell_angle_gamma 90.000000
_cell_volume 1605.078388
_symmetry_space_group_name_H-M "P 2/M"
_symmetry_group_IT_number 10
_symmetry_cell_setting 'monoclinic'
loop_
_space_group_symop_operation_xyz
x,y,z
-x,y,-z
-x,-y,-z
x,-y,z
loop_
_atom_site_type_symbol
_atom_site_label
_atom_site_fract_x
_atom_site_fract_y
_atom_site_fract_z
Si Si1 0.349904 0.667392 0.638215
Si Si2 0.741760 0.173212 0.214353
Si Si3 0.428554 0.672974 0.268481
Si Si4 0.803706 0.327076 0.770461
Si Si5 0.107447 0.329023 0.606020
Si Si6 0.028427 0.329570 0.063845
Si Si7 0.319362 0.673256 0.061203
Si Si8 0.294623 0.328438 0.436815
O O1 0.321121 0.500000 0.670980
O O2 0.264643 0.778199 0.711931
O O3 0.272072 0.690887 0.594470
O O4 0.538996 0.702009 0.576962
O O5 0.599830 0.247315 0.217049
O O6 0.913371 0.222924 0.136791
O O7 0.723646 0.000000 0.213895
O O8 0.459403 0.500000 0.270055
O O9 0.351431 0.705630 0.225062
O O10 0.311506 0.733193 0.360549
O O11 0.838105 0.500000 0.767043
O O12 0.768962 0.259514 0.849866
O O13 0.958656 0.252743 0.688481
O O14 0.061888 0.500000 0.610927
O O15 0.149239 0.259749 0.524107
O O16 0.986788 0.500000 0.090769
O O17 0.211477 0.294472 0.032008
O O18 0.000000 0.293698 0.000000
O O19 0.338951 0.500000 0.066398
O O20 0.500000 0.742166 0.000000
O O21 0.256839 0.500000 0.444245
#
# Coordination Sequence:
#
# PCOD8066113 Si02
#       8
#     4   4   4   4   4   4   4   4
#     4   9  16  29  50  74 100 134 174 214 257 315
#     4  11  22  35  53  75 105 140 174 220 270 313
#     4   9  18  32  51  74 101 137 181 222 259 314
#     4   9  17  27  45  73 105 138 171 213 266 318
#     4   9  15  24  44  75 107 134 165 216 274 318
#     4  10  21  36  59  88 110 137 176 218 264 317
#     4   9  18  32  52  82 114 138 168 216 264 307
#     4   8  14  24  41  71 105 134 167 213 267 314
#
# _framework density 19.936719
#
# number of rings (size 3 to 8) (size 9 to 14) (size 15 to 20)
#    0.000    2.750    0.000    3.000    1.750    4.250 
#    0.000    2.500    0.000    9.375    0.000    3.500 
#    0.000    0.000    0.000    0.000    0.000    0.000 
#
# Total GULP energy -396475.462939 kJ/mol
# GULP energy per Si atom -12389.858217 kJ/mol
# Density = 1.989134 g / cm^3
# Si number density = 19.936719 Si / 1000 Ang^3
#
#
#
# Elastic Constant Matrix: (Units=GPa)
#
#
# Indices 1 2 3 4 5 6 
#
# 1 97.3559 12.5374 31.4133 0.0000 11.5014 0.0000
# 2 12.5374 41.9867 30.2696 0.0000 -5.7974 0.0000
# 3 31.4133 30.2696 163.7662 0.0000 -18.1190 0.0000
# 4 0.0000 0.0000 0.0000 -0.3373 0.0000 -0.1145
# 5 11.5014 -5.7974 -18.1190 0.0000 30.1524 0.0000
# 6 0.0000 0.0000 0.0000 -0.1145 0.0000 4.5812
#
#
#
# Elastic Compliance Matrix: (Units=1/GPa)
#
#
# Indices 1 2 3 4 5 6 
#
# 1 0.012258 -0.002722 -0.002596 0.000000 -0.006759 0.000000
# 2 -0.002722 0.028245 -0.004266 0.000000 0.003905 0.000000
# 3 -0.002596 -0.004266 0.007939 0.000000 0.004941 0.000000
# 4 0.000000 0.000000 0.000000 -2.939567 0.000000 -0.073484
# 5 -0.006759 0.003905 0.004941 0.000000 0.039463 0.000000
# 6 0.000000 0.000000 0.000000 -0.073484 0.000000 0.216446
#
#
# Mechanical properties :
#
#
# Convention : Reuss Voigt Hill
#
# Bulk Modulus (GPa) = 34.16048 50.17213 42.16631
# Shear Modulus (GPa) = -1.91844 22.13849 10.11003
#
# Velocity S-wave (km/s) = -0.98201 3.33594 2.25434
# Velocity P-wave (km/s) = 3.98571 6.32916 5.28886
#
# Compressibility (1/GPa) = 0.02927359
#
# Stress axis : x y z
#
# Youngs Moduli (GPa) = 81.57725 35.40459 125.95287
#
# Poissons Ratio (x) = 0.09637 0.32698
# Poissons Ratio (y) = 0.22206 0.53737
# Poissons Ratio (z) = 0.21178 0.15105
#
# Static dielectric constant tensor:
#      x y z
#    x 3.480510 0.000000 -0.152830 
#    y 0.000000 2.904930 0.000000 
#    z -0.152830 0.000000 3.815100 
# 
# 
# High freq. dielectric constant tensor:
#      x y z
#    x 1.783760 0.000000 0.001790 
#    y 0.000000 1.689130 0.000000 
#    z 0.001790 0.000000 1.792000 
# 
# From -- ./inp_files/83580.got.cif
#   From: 2010.06.25/outbox.cif.g09.slc.cpg/sg10_42_cif.got.tgz:83580.got - 2010.06.27 22:07:45.
