data_PCOD8066904
_publ_section_title
;
Structure prediction by ZEFSAII (Michael W. Deem and Ramdas Pophale) SiO2 
 PCOD8066904
Probable space group: P 2/M
;
_chemical_formula_sum "Si O2"
_cell_formula_units_Z 26
_cell_length_a 9.262542
_cell_length_b 19.130281
_cell_length_c 9.519713
_cell_angle_alpha 90.000000
_cell_angle_beta 46.857116
_cell_angle_gamma 90.000000
_cell_volume 1230.808189
_symmetry_space_group_name_H-M "P 2/M"
_symmetry_group_IT_number 10
_symmetry_cell_setting 'monoclinic'
loop_
_space_group_symop_operation_xyz
x,y,z
-x,y,-z
-x,-y,-z
x,-y,z
loop_
_atom_site_type_symbol
_atom_site_label
_atom_site_fract_x
_atom_site_fract_y
_atom_site_fract_z
Si Si1 0.526757 0.869667 0.139802
Si Si2 0.500000 0.355946 0.500000
Si Si3 0.553860 0.291065 0.759664
Si Si4 0.086557 0.419630 0.793558
Si Si5 0.047146 0.172508 0.124592
Si Si6 0.174629 0.686685 0.178720
Si Si7 0.686490 0.079444 0.463317
O O1 0.457603 0.790671 0.205718
O O2 0.384031 0.917867 0.328254
O O3 0.500000 0.895717 0.000000
O O4 0.759412 0.876426 0.021270
O O5 0.558558 0.306384 0.591312
O O6 0.319368 0.407133 0.649976
O O7 0.754178 0.316618 0.705691
O O8 0.363027 0.328504 0.953832
O O9 0.042460 0.500000 0.787545
O O10 0.987476 0.373281 0.737382
O O11 0.000000 0.396599 0.000000
O O12 0.081744 0.237767 0.204539
O O13 0.873535 0.127530 0.308342
O O14 0.000000 0.201132 0.000000
O O15 0.500000 0.108268 0.500000
O O16 0.740201 0.000000 0.386939
#
# Coordination Sequence:
#
# PCOD8066904 Si02
#       7
#     4   2   4   4   4   4   4
#     4  11  23  44  65  95 135 171 215 279 331 382
#     4  12  25  40  68  98 131 174 220 270 325 392
#     4  10  22  41  68  99 130 166 221 274 327 386
#     4  11  24  43  66  97 137 177 218 269 327 389
#     4  11  22  40  72  98 128 172 222 271 333 390
#     4  10  21  44  66  97 132 170 217 274 327 384
#     4  11  26  43  65 100 133 171 223 267 325 400
#
# _framework density 21.124333
#
# number of rings (size 3 to 8) (size 9 to 14) (size 15 to 20)
#    0.000    1.231    6.154    0.692    5.385    2.462 
#    0.000    4.615    0.000    0.000    0.000    0.000 
#    0.000    0.000    0.000    0.000    0.000    0.000 
#
# Total GULP energy -322452.889304 kJ/mol
# GULP energy per Si atom -12402.034204 kJ/mol
# Density = 2.107625 g / cm^3
# Si number density = 21.124333 Si / 1000 Ang^3
#
#
#
# Elastic Constant Matrix: (Units=GPa)
#
#
# Indices 1 2 3 4 5 6 
#
# 1 159.7454 49.8799 64.2777 0.0000 2.7450 0.0000
# 2 49.8799 75.7757 37.2568 0.0000 -10.3570 0.0000
# 3 64.2777 37.2568 109.6612 0.0000 2.5274 0.0000
# 4 0.0000 0.0000 0.0000 22.1512 0.0000 -4.7643
# 5 2.7450 -10.3570 2.5274 0.0000 50.6181 0.0000
# 6 0.0000 0.0000 0.0000 -4.7643 0.0000 10.4202
#
#
#
# Elastic Compliance Matrix: (Units=1/GPa)
#
#
# Indices 1 2 3 4 5 6 
#
# 1 0.009191 -0.004293 -0.003901 0.000000 -0.001182 0.000000
# 2 -0.004293 0.018499 -0.003866 0.000000 0.004211 0.000000
# 3 -0.003901 -0.003866 0.012747 0.000000 -0.001216 0.000000
# 4 0.000000 0.000000 0.000000 0.050068 0.000000 0.022892
# 5 -0.001182 0.004211 -0.001216 0.000000 0.020742 0.000000
# 6 0.000000 0.000000 0.000000 0.022892 0.000000 0.106434
#
#
# Mechanical properties :
#
#
# Convention : Reuss Voigt Hill
#
# Bulk Modulus (GPa) = 61.28695 72.00123 66.64409
# Shear Modulus (GPa) = 20.22333 29.55578 24.88955
#
# Velocity S-wave (km/s) = 3.09746 3.74456 3.43628
# Velocity P-wave (km/s) = 6.47053 7.27008 6.88193
#
# Compressibility (1/GPa) = 0.01631669
#
# Stress axis : x y z
#
# Youngs Moduli (GPa) = 108.80739 54.05702 78.44994
#
# Poissons Ratio (x) = 0.23208 0.30605
# Poissons Ratio (y) = 0.46713 0.30325
# Poissons Ratio (z) = 0.42448 0.20896
#
# Static dielectric constant tensor:
#      x y z
#    x 4.083310 0.000000 0.003640 
#    y 0.000000 3.437940 0.000000 
#    z 0.003640 0.000000 4.058050 
# 
# 
# High freq. dielectric constant tensor:
#      x y z
#    x 1.842390 0.000000 -0.004970 
#    y 0.000000 1.802830 0.000000 
#    z -0.004970 0.000000 1.833980 
# 
# From -- ./inp_files/20433.got.cif
#   From: 2010.06.25/outbox.cif.g09.slc.cpg/sg10_11_cif.got.tgz:20433.got - 2010.06.27 22:07:45.
