data_PCOD8066585
_publ_section_title
;
Structure prediction by ZEFSAII (Michael W. Deem and Ramdas Pophale) SiO2 
 PCOD8066585
Probable space group: P 2/M
;
_chemical_formula_sum "Si O2"
_cell_formula_units_Z 28
_cell_length_a 12.237090
_cell_length_b 13.416586
_cell_length_c 9.610960
_cell_angle_alpha 90.000000
_cell_angle_beta 66.792086
_cell_angle_gamma 90.000000
_cell_volume 1450.242712
_symmetry_space_group_name_H-M "P 2/M"
_symmetry_group_IT_number 10
_symmetry_cell_setting 'monoclinic'
loop_
_space_group_symop_operation_xyz
x,y,z
-x,y,-z
-x,-y,-z
x,-y,z
loop_
_atom_site_type_symbol
_atom_site_label
_atom_site_fract_x
_atom_site_fract_y
_atom_site_fract_z
Si Si1 0.884722 0.614130 0.276230
Si Si2 0.256508 0.299241 0.412035
Si Si3 0.851464 0.616357 0.800462
Si Si4 0.495520 0.615267 0.667117
Si Si5 0.118306 0.886206 0.854338
Si Si6 0.117595 0.886108 0.529124
Si Si7 0.249953 0.702968 0.889060
O O1 0.877769 0.500000 0.318990
O O2 0.783969 0.669451 0.414364
O O3 0.850581 0.633545 0.133272
O O4 0.014921 0.655938 0.243617
O O5 0.181903 0.365100 0.341674
O O6 0.395104 0.322722 0.322930
O O7 0.225341 0.181703 0.414922
O O8 0.839196 0.500000 0.843633
O O9 0.763918 0.682523 0.939929
O O10 0.500000 0.619081 0.500000
O O11 0.497834 0.500000 0.716955
O O12 0.380886 0.671958 0.779328
O O13 0.093235 0.863886 0.704372
O O14 0.225201 0.817812 0.859640
O O15 0.158433 0.000000 0.856861
O O16 0.000000 0.861518 0.000000
O O17 0.000000 0.860924 0.500000
O O18 0.156833 0.000000 0.486506
#
# Coordination Sequence:
#
# PCOD8066585 Si02
#       7
#     4   4   4   4   4   4   4
#     4  11  20  35  58  84 115 151 195 244 302 366
#     4  12  23  38  59  86 120 160 202 248 298 354
#     4  11  24  37  56  88 123 155 195 252 314 364
#     4  11  22  39  62  84 115 164 213 248 287 357
#     4  10  21  38  62  92 122 154 198 252 310 366
#     4  10  21  38  62  92 122 154 198 252 310 366
#     4  12  23  38  59  86 120 160 202 248 298 354
#
# _framework density 19.307113000000001
#
# number of rings (size 3 to 8) (size 9 to 14) (size 15 to 20)
#    0.000    1.000    2.857    5.143    2.000    2.857 
#    0.000    2.143    0.000    2.571    0.000    2.000 
#    0.000    0.000    0.000    0.000    0.000    0.000 
#
# Total GULP energy -347267.346276 kJ/mol
# GULP energy per Si atom -12402.405224 kJ/mol
# Density = 1.926317 g / cm^3
# Si number density = 19.307113 Si / 1000 Ang^3
#
#
#
# Elastic Constant Matrix: (Units=GPa)
#
#
# Indices 1 2 3 4 5 6 
#
# 1 114.4478 61.4600 23.9587 0.0000 -17.5624 0.0000
# 2 61.4600 130.4905 35.0013 0.0000 -15.3281 0.0000
# 3 23.9587 35.0013 60.9885 0.0000 -5.3503 0.0000
# 4 0.0000 0.0000 0.0000 29.7843 0.0000 -1.7322
# 5 -17.5624 -15.3281 -5.3503 0.0000 30.0905 0.0000
# 6 0.0000 0.0000 0.0000 -1.7322 0.0000 30.9636
#
#
#
# Elastic Compliance Matrix: (Units=1/GPa)
#
#
# Indices 1 2 3 4 5 6 
#
# 1 0.012382 -0.004856 -0.001686 0.000000 0.004453 0.000000
# 2 -0.004856 0.011399 -0.004442 0.000000 0.002182 0.000000
# 3 -0.001686 -0.004442 0.019630 0.000000 0.000243 0.000000
# 4 0.000000 0.000000 0.000000 0.033684 0.000000 0.001884
# 5 0.004453 0.002182 0.000243 0.000000 0.036987 0.000000
# 6 0.000000 0.000000 0.000000 0.001884 0.000000 0.032401
#
#
# Mechanical properties :
#
#
# Convention : Reuss Voigt Hill
#
# Bulk Modulus (GPa) = 46.64186 60.75185 53.69685
# Shear Modulus (GPa) = 28.47378 30.53480 29.50429
#
# Velocity S-wave (km/s) = 3.84446 3.98116 3.91341
# Velocity P-wave (km/s) = 6.62697 7.25722 6.94924
#
# Compressibility (1/GPa) = 0.02143997
#
# Stress axis : x y z
#
# Youngs Moduli (GPa) = 80.76294 87.72984 50.94283
#
# Poissons Ratio (x) = 0.42605 0.08591
# Poissons Ratio (y) = 0.39221 0.22631
# Poissons Ratio (z) = 0.13620 0.38974
#
# Static dielectric constant tensor:
#      x y z
#    x 3.471010 0.000000 0.042590 
#    y 0.000000 3.659460 0.000000 
#    z 0.042590 0.000000 3.529200 
# 
# 
# High freq. dielectric constant tensor:
#      x y z
#    x 1.736000 0.000000 0.009070 
#    y 0.000000 1.756090 0.000000 
#    z 0.009070 0.000000 1.753600 
# 
# From -- ./inp_files/24873.got.cif
#   From: 2010.06.25/outbox.cif.g09.slc.cpg/sg10_13_cif.got.tgz:24873.got - 2010.06.27 22:07:45.
