data_PCOD8066211
_publ_section_title
;
Structure prediction by ZEFSAII (Michael W. Deem and Ramdas Pophale) SiO2 
 PCOD8066211
Probable space group: P 2/M
;
_chemical_formula_sum "Si O2"
_cell_formula_units_Z 32
_cell_length_a 22.373270
_cell_length_b 9.103226
_cell_length_c 27.483619
_cell_angle_alpha 90.000000
_cell_angle_beta 17.705946
_cell_angle_gamma 90.000000
_cell_volume 1702.396498
_symmetry_space_group_name_H-M "P 2/M"
_symmetry_group_IT_number 10
_symmetry_cell_setting 'monoclinic'
loop_
_space_group_symop_operation_xyz
x,y,z
-x,y,-z
-x,-y,-z
x,-y,z
loop_
_atom_site_type_symbol
_atom_site_label
_atom_site_fract_x
_atom_site_fract_y
_atom_site_fract_z
Si Si1 0.825103 0.668193 0.440784
Si Si2 0.114175 0.668314 0.129105
Si Si3 0.419855 0.828380 0.953845
Si Si4 0.976111 0.670737 0.908585
Si Si5 0.194634 0.834002 0.816938
Si Si6 0.597456 0.670966 0.264499
Si Si7 0.871011 0.171520 0.732813
Si Si8 0.807736 0.327255 0.680346
O O1 0.832544 0.500000 0.453458
O O2 0.603446 0.723573 0.604971
O O3 0.933486 0.685442 0.305571
O O4 0.923480 0.769863 0.405315
O O5 0.188634 0.500000 0.068583
O O6 0.294678 0.769884 0.005423
O O7 0.036852 0.722828 0.136973
O O8 0.304714 0.796534 0.093252
O O9 0.460358 0.000000 0.915526
O O10 0.623953 0.742189 0.794887
O O11 0.025914 0.500000 0.874561
O O12 0.153527 0.756817 0.797121
O O13 0.768577 0.708762 0.094064
O O14 0.370769 0.754540 0.709120
O O15 0.258548 0.000000 0.757325
O O16 0.000000 0.822364 0.000000
O O17 0.587226 0.500000 0.285329
O O18 0.821666 0.256297 0.722301
O O19 0.891496 0.000000 0.705628
O O20 0.775064 0.500000 0.711612
O O21 0.000000 0.290658 0.500000
#
# Coordination Sequence:
#
# PCOD8066211 Si02
#       8
#     4   4   4   4   4   4   4   4
#     4   9  18  33  52  74 101 133 168 206 249 298
#     4   9  18  33  52  74 101 133 168 206 249 298
#     4  10  21  37  57  80 106 138 174 210 253 308
#     4   9  17  30  49  71  95 126 165 207 248 293
#     4   9  17  29  46  69  96 126 162 203 248 300
#     4   9  17  30  49  71  95 126 165 207 248 293
#     4  10  21  37  57  80 106 138 174 210 253 308
#     4  11  24  39  56  80 108 137 172 215 258 300
#
# _framework density 18.797032000000002
#
# number of rings (size 3 to 8) (size 9 to 14) (size 15 to 20)
#    0.000    2.500    0.000    1.875    0.000    7.500 
#    0.000    3.125    0.000    3.750    0.000    0.000 
#    0.000    0.000    0.000    0.000    0.000    0.000 
#
# Total GULP energy -396887.252568 kJ/mol
# GULP energy per Si atom -12402.726643 kJ/mol
# Density = 1.875425 g / cm^3
# Si number density = 18.797032 Si / 1000 Ang^3
#
#
#
# Elastic Constant Matrix: (Units=GPa)
#
#
# Indices 1 2 3 4 5 6 
#
# 1 53.4634 14.1928 -18.7637 0.0000 3.5717 0.0000
# 2 14.1928 70.0079 12.7604 0.0000 -2.0328 0.0000
# 3 -18.7637 12.7604 33.0829 0.0000 -11.6522 0.0000
# 4 0.0000 0.0000 0.0000 15.1846 0.0000 4.0949
# 5 3.5717 -2.0328 -11.6522 0.0000 20.5252 0.0000
# 6 0.0000 0.0000 0.0000 4.0949 0.0000 20.5336
#
#
#
# Elastic Compliance Matrix: (Units=1/GPa)
#
#
# Indices 1 2 3 4 5 6 
#
# 1 0.028687 -0.009701 0.022394 0.000000 0.006760 0.000000
# 2 -0.009701 0.018733 -0.014349 0.000000 -0.004602 0.000000
# 3 0.022394 -0.014349 0.058233 0.000000 0.027741 0.000000
# 4 0.000000 0.000000 0.000000 0.069599 0.000000 -0.013880
# 5 0.006760 -0.004602 0.027741 0.000000 0.062837 0.000000
# 6 0.000000 0.000000 0.000000 -0.013880 0.000000 0.051469
#
#
# Mechanical properties :
#
#
# Convention : Reuss Voigt Hill
#
# Bulk Modulus (GPa) = 9.77128 19.21480 14.49304
# Shear Modulus (GPa) = 15.29124 21.13966 18.21545
#
# Velocity S-wave (km/s) = 2.85527 3.35718 3.11635
# Velocity P-wave (km/s) = 4.00995 5.02713 4.54707
#
# Compressibility (1/GPa) = 0.10234071
#
# Stress axis : x y z
#
# Youngs Moduli (GPa) = 34.85843 53.38308 17.17232
#
# Poissons Ratio (x) = 0.51788 -0.38455
# Poissons Ratio (y) = 0.33817 0.24640
# Poissons Ratio (z) = -0.78060 0.76597
#
# Static dielectric constant tensor:
#      x y z
#    x 3.528140 0.000000 -0.155900 
#    y 0.000000 3.472700 0.000000 
#    z -0.155900 0.000000 3.364040 
# 
# 
# High freq. dielectric constant tensor:
#      x y z
#    x 1.736200 0.000000 -0.014200 
#    y 0.000000 1.730650 0.000000 
#    z -0.014200 0.000000 1.714010 
# 
# From -- ./inp_files/93692.got.cif
#   From: 2010.06.25/outbox.cif.g09.slc.cpg/sg10_47_cif.got.tgz:93692.got - 2010.06.27 22:07:45.
