data_PCOD8066004
_publ_section_title
;
Structure prediction by ZEFSAII (Michael W. Deem and Ramdas Pophale) SiO2 
 PCOD8066004
Probable space group: P 2/M
;
_chemical_formula_sum "Si O2"
_cell_formula_units_Z 24
_cell_length_a 23.640124
_cell_length_b 9.377184
_cell_length_c 16.418176
_cell_angle_alpha 90.000000
_cell_angle_beta 20.471771
_cell_angle_gamma 90.000000
_cell_volume 1272.915767
_symmetry_space_group_name_H-M "P 2/M"
_symmetry_group_IT_number 10
_symmetry_cell_setting 'monoclinic'
loop_
_space_group_symop_operation_xyz
x,y,z
-x,y,-z
-x,-y,-z
x,-y,z
loop_
_atom_site_type_symbol
_atom_site_label
_atom_site_fract_x
_atom_site_fract_y
_atom_site_fract_z
Si Si1 0.342323 0.661922 0.050413
Si Si2 0.839945 0.254472 0.548583
Si Si3 0.170756 0.839418 0.144744
Si Si4 0.118129 0.342147 0.072422
Si Si5 0.655999 0.158221 0.647851
Si Si6 0.016311 0.835693 0.885062
O O1 0.350000 0.500000 0.007721
O O2 0.263211 0.659782 0.246386
O O3 0.233137 0.756276 0.138892
O O4 0.521989 0.723503 0.812062
O O5 0.718993 0.162571 0.655931
O O6 0.973948 0.153931 0.412302
O O7 0.939574 0.360508 0.354311
O O8 0.228055 0.753534 0.985796
O O9 0.240330 0.000000 0.049483
O O10 0.192828 0.500000 0.958904
O O11 0.105238 0.261460 0.003670
O O12 0.799620 0.187331 0.390617
O O13 0.583153 0.000000 0.732216
O O14 0.964239 0.000000 0.942930
O O15 0.000000 0.787018 0.000000
#
# Coordination Sequence:
#
# PCOD8066004 Si02
#       6
#     4   4   4   4   4   4
#     4  12  24  35  50  77 115 153 184 219 268 320
#     4   9  21  34  57  75 106 147 190 224 261 313
#     4  10  21  36  55  78 107 146 190 229 263 310
#     4   9  18  32  52  79 108 137 175 220 265 314
#     4  10  21  37  55  80 110 140 179 227 273 320
#     4   9  18  35  59  83 106 136 177 224 272 325
#
# _framework density 18.85435
#
# number of rings (size 3 to 8) (size 9 to 14) (size 15 to 20)
#    1.000    1.167    0.000    3.500    0.000    9.000 
#    0.000    0.000    0.000    1.000    0.000    7.000 
#    0.000    0.000    0.000    0.000    0.000    0.000 
#
# Total GULP energy -297417.844799 kJ/mol
# GULP energy per Si atom -12392.410200 kJ/mol
# Density = 1.881144 g / cm^3
# Si number density = 18.854350 Si / 1000 Ang^3
#
#
#
# Elastic Constant Matrix: (Units=GPa)
#
#
# Indices 1 2 3 4 5 6 
#
# 1 118.6311 55.7057 49.5125 0.0000 18.4204 0.0000
# 2 55.7057 142.0725 25.7857 0.0000 5.3233 0.0000
# 3 49.5125 25.7857 34.1531 0.0000 -3.2545 0.0000
# 4 0.0000 0.0000 0.0000 8.2540 0.0000 3.6537
# 5 18.4204 5.3233 -3.2545 0.0000 23.1385 0.0000
# 6 0.0000 0.0000 0.0000 3.6537 0.0000 25.4936
#
#
#
# Elastic Compliance Matrix: (Units=1/GPa)
#
#
# Indices 1 2 3 4 5 6 
#
# 1 0.044463 -0.003869 -0.065706 0.000000 -0.043748 0.000000
# 2 -0.003869 0.008673 -0.000848 0.000000 0.000965 0.000000
# 3 -0.065706 -0.000848 0.131947 0.000000 0.071062 0.000000
# 4 0.000000 0.000000 0.000000 0.129360 0.000000 -0.018540
# 5 -0.043748 0.000965 0.071062 0.000000 0.087818 0.000000
# 6 0.000000 0.000000 0.000000 -0.018540 0.000000 0.041883
#
#
# Mechanical properties :
#
#
# Convention : Reuss Voigt Hill
#
# Bulk Modulus (GPa) = 22.60515 61.87384 42.23949
# Shear Modulus (GPa) = 8.33701 22.30075 15.31888
#
# Velocity S-wave (km/s) = 2.10509 3.44290 2.85351
# Velocity P-wave (km/s) = 4.23366 6.97802 5.77134
#
# Compressibility (1/GPa) = 0.04423771
#
# Stress axis : x y z
#
# Youngs Moduli (GPa) = 22.49080 115.29665 7.57878
#
# Poissons Ratio (x) = 0.44606 0.49797
# Poissons Ratio (y) = 0.08701 0.00642
# Poissons Ratio (z) = 1.47779 0.09773
#
# Static dielectric constant tensor:
#      x y z
#    x 3.468100 0.000000 0.038450 
#    y 0.000000 3.362440 0.000000 
#    z 0.038450 0.000000 3.043460 
# 
# 
# High freq. dielectric constant tensor:
#      x y z
#    x 1.739050 0.000000 0.002840 
#    y 0.000000 1.734230 0.000000 
#    z 0.002840 0.000000 1.683720 
# 
# From -- ./inp_files/80429.got.cif
#   From: 2010.06.25/outbox.cif.g09.slc.cpg/sg10_41_cif.got.tgz:80429.got - 2010.06.27 22:07:45.
