data_PCOD8066244
_publ_section_title
;
Structure prediction by ZEFSAII (Michael W. Deem and Ramdas Pophale) SiO2 
 PCOD8066244
Probable space group: P 2/M
;
_chemical_formula_sum "Si O2"
_cell_formula_units_Z 32
_cell_length_a 12.097745
_cell_length_b 9.062927
_cell_length_c 33.391453
_cell_angle_alpha 90.000000
_cell_angle_beta 26.648998
_cell_angle_gamma 90.000000
_cell_volume 1642.076965
_symmetry_space_group_name_H-M "P 2/M"
_symmetry_group_IT_number 10
_symmetry_cell_setting 'monoclinic'
loop_
_space_group_symop_operation_xyz
x,y,z
-x,y,-z
-x,-y,-z
x,-y,z
loop_
_atom_site_type_symbol
_atom_site_label
_atom_site_fract_x
_atom_site_fract_y
_atom_site_fract_z
Si Si1 0.294340 0.826461 0.036351
Si Si2 0.775348 0.670248 0.019966
Si Si3 0.367187 0.173092 0.306176
Si Si4 0.217432 0.166474 0.603812
Si Si5 0.667440 0.671272 0.143389
Si Si6 0.230136 0.172934 0.758525
Si Si7 0.651121 0.673069 0.361789
Si Si8 0.098684 0.326946 0.564634
O O1 0.351679 0.761729 0.974126
O O2 0.024332 0.778278 0.138512
O O3 0.315514 0.000000 0.025830
O O4 0.500000 0.763931 0.000000
O O5 0.762134 0.500000 0.012663
O O6 0.058205 0.719130 0.933176
O O7 0.629340 0.700408 0.108455
O O8 0.477395 0.227116 0.228443
O O9 0.548089 0.215418 0.283718
O O10 0.107164 0.255300 0.397657
O O11 0.320046 0.000000 0.319223
O O12 0.500000 0.165405 0.500000
O O13 0.188962 0.248137 0.655499
O O14 0.067469 0.255462 0.618718
O O15 0.113998 0.000000 0.640636
O O16 0.620517 0.500000 0.168876
O O17 0.257607 0.266882 0.709827
O O18 0.231390 0.000000 0.747568
O O19 0.700997 0.500000 0.348691
O O20 0.362351 0.709680 0.460012
O O21 0.054191 0.500000 0.583228
#
# Coordination Sequence:
#
# PCOD8066244 Si02
#       8
#     4   4   4   4   4   4   4   4
#     4  10  21  39  60  82 112 149 189 234 283 333
#     4   9  18  34  58  84 109 142 184 227 281 340
#     4  11  22  36  56  83 114 151 195 238 288 341
#     4   9  17  33  58  83 109 143 183 229 280 331
#     4   9  18  34  56  82 112 145 180 228 285 339
#     4  10  22  39  57  80 112 150 192 239 288 340
#     4  10  21  37  59  85 113 152 196 233 281 340
#     4  10  21  37  57  84 117 150 189 237 285 338
#
# _framework density 19.487514999999998
#
# number of rings (size 3 to 8) (size 9 to 14) (size 15 to 20)
#    0.000    2.250    1.250    2.250    0.000    5.750 
#    2.250    3.750    0.000    0.000    0.000    0.000 
#    0.000    0.000    0.000    0.000    0.000    0.000 
#
# Total GULP energy -396878.280118 kJ/mol
# GULP energy per Si atom -12402.446254 kJ/mol
# Density = 1.944316 g / cm^3
# Si number density = 19.487515 Si / 1000 Ang^3
#
#
#
# Elastic Constant Matrix: (Units=GPa)
#
#
# Indices 1 2 3 4 5 6 
#
# 1 109.6399 37.5047 14.4330 0.0000 10.3337 0.0000
# 2 37.5047 72.4250 17.9432 0.0000 7.9891 0.0000
# 3 14.4330 17.9432 26.8620 0.0000 13.6501 0.0000
# 4 0.0000 0.0000 0.0000 31.1061 0.0000 4.1734
# 5 10.3337 7.9891 13.6501 0.0000 32.1616 0.0000
# 6 0.0000 0.0000 0.0000 4.1734 0.0000 35.7406
#
#
#
# Elastic Compliance Matrix: (Units=1/GPa)
#
#
# Indices 1 2 3 4 5 6 
#
# 1 0.011293 -0.005236 -0.001769 0.000000 -0.001577 0.000000
# 2 -0.005236 0.018987 -0.010618 0.000000 0.001472 0.000000
# 3 -0.001769 -0.010618 0.055641 0.000000 -0.020409 0.000000
# 4 0.000000 0.000000 0.000000 0.032660 0.000000 -0.003814
# 5 -0.001577 0.001472 -0.020409 0.000000 0.039896 0.000000
# 6 0.000000 0.000000 0.000000 -0.003814 0.000000 0.028425
#
#
# Mechanical properties :
#
#
# Convention : Reuss Voigt Hill
#
# Bulk Modulus (GPa) = 19.73306 38.74318 29.23812
# Shear Modulus (GPa) = 20.91706 29.07141 24.99423
#
# Velocity S-wave (km/s) = 3.27977 3.86657 3.58519
# Velocity P-wave (km/s) = 4.94879 6.31332 5.67223
#
# Compressibility (1/GPa) = 0.05067638
#
# Stress axis : x y z
#
# Youngs Moduli (GPa) = 88.54764 52.66797 17.97227
#
# Poissons Ratio (x) = 0.27577 0.03179
# Poissons Ratio (y) = 0.46363 0.19082
# Poissons Ratio (z) = 0.15664 0.55921
#
# Static dielectric constant tensor:
#      x y z
#    x 3.676630 0.000000 -0.049110 
#    y 0.000000 3.506400 0.000000 
#    z -0.049110 0.000000 3.407880 
# 
# 
# High freq. dielectric constant tensor:
#      x y z
#    x 1.763890 0.000000 0.004000 
#    y 0.000000 1.759660 0.000000 
#    z 0.004000 0.000000 1.743690 
# 
# From -- ./inp_files/94967.got.cif
#   From: 2010.06.25/outbox.cif.g09.slc.cpg/sg10_48_cif.got.tgz:94967.got - 2010.06.27 22:07:45.
