data_PCOD8066536
_publ_section_title
;
Structure prediction by ZEFSAII (Michael W. Deem and Ramdas Pophale) SiO2 
 PCOD8066536
Probable space group: P 2/M
;
_chemical_formula_sum "Si O2"
_cell_formula_units_Z 28
_cell_length_a 30.794526
_cell_length_b 8.702077
_cell_length_c 30.795381
_cell_angle_alpha 90.000000
_cell_angle_beta 170.377843
_cell_angle_gamma 90.000000
_cell_volume 1379.394498
_symmetry_space_group_name_H-M "P 2/M"
_symmetry_group_IT_number 10
_symmetry_cell_setting 'monoclinic'
loop_
_space_group_symop_operation_xyz
x,y,z
-x,y,-z
-x,-y,-z
x,-y,z
loop_
_atom_site_type_symbol
_atom_site_label
_atom_site_fract_x
_atom_site_fract_y
_atom_site_fract_z
Si Si1 0.764244 0.322738 0.736016
Si Si2 0.812294 0.819934 0.691311
Si Si3 0.954851 0.679968 0.549645
Si Si4 0.665350 0.680002 0.830676
Si Si5 0.522994 0.181590 0.972832
Si Si6 0.654707 0.823332 0.912141
Si Si7 0.873229 0.176811 0.560104
O O1 0.500000 0.282945 0.500000
O O2 0.772468 0.500000 0.729152
O O3 0.784486 0.214401 0.714567
O O4 0.000000 0.282336 0.000000
O O5 0.574240 0.750561 0.430731
O O6 0.818035 0.000000 0.689115
O O7 0.073837 0.749560 0.930924
O O8 0.960773 0.500000 0.547248
O O9 0.716770 0.752334 0.289609
O O10 0.929578 0.712656 0.575612
O O11 0.215606 0.753374 0.789081
O O12 0.667793 0.500000 0.824918
O O13 0.639122 0.713140 0.855646
O O14 0.523791 0.000000 0.968435
O O15 0.500000 0.232112 0.000000
O O16 0.413952 0.786137 0.706021
O O17 0.645995 0.000000 0.887953
O O18 0.920699 0.786019 0.199190
O O19 0.897632 0.000000 0.568999
#
# Coordination Sequence:
#
# PCOD8066536 Si02
#       7
#     4   4   4   4   4   4   4
#     4  10  21  38  61  89 123 161 201 250 309 368
#     4  12  25  42  65  93 127 165 209 258 305 364
#     4  12  25  40  63  95 129 161 201 258 313 362
#     4  12  25  42  65  93 127 165 206 255 312 371
#     4  11  24  43  66  90 121 165 212 253 302 371
#     4  10  21  38  61  89 120 158 204 253 304 358
#     4  10  21  38  61  87 121 163 203 246 301 368
#
# _framework density 20.298763000000001
#
# number of rings (size 3 to 8) (size 9 to 14) (size 15 to 20)
#    0.000    1.000    0.000    7.286    0.000    8.000 
#    0.000    0.000    0.000    0.000    0.000    0.000 
#    0.000    0.000    0.000    0.000    0.000    0.000 
#
# Total GULP energy -347422.907711 kJ/mol
# GULP energy per Si atom -12407.960990 kJ/mol
# Density = 2.025256 g / cm^3
# Si number density = 20.298763 Si / 1000 Ang^3
#
#
#
# Elastic Constant Matrix: (Units=GPa)
#
#
# Indices 1 2 3 4 5 6 
#
# 1 112.4647 52.1845 47.0652 0.0000 -0.3233 0.0000
# 2 52.1845 118.4222 49.9561 0.0000 -0.0385 0.0000
# 3 47.0652 49.9561 160.4269 0.0000 4.3847 0.0000
# 4 0.0000 0.0000 0.0000 30.6238 0.0000 5.9412
# 5 -0.3233 -0.0385 4.3847 0.0000 31.6426 0.0000
# 6 0.0000 0.0000 0.0000 5.9412 0.0000 -39.9793
#
#
#
# Elastic Compliance Matrix: (Units=1/GPa)
#
#
# Indices 1 2 3 4 5 6 
#
# 1 0.011775 -0.004290 -0.002130 0.000000 0.000410 0.000000
# 2 -0.004290 0.011290 -0.002265 0.000000 0.000284 0.000000
# 3 -0.002130 -0.002265 0.007593 0.000000 -0.001077 0.000000
# 4 0.000000 0.000000 0.000000 0.031739 0.000000 0.004717
# 5 0.000410 0.000284 -0.001077 0.000000 0.031757 0.000000
# 6 0.000000 0.000000 0.000000 0.004717 0.000000 -0.024312
#
#
# Mechanical properties :
#
#
# Convention : Reuss Voigt Hill
#
# Bulk Modulus (GPa) = 75.25294 76.63615 75.94454
# Shear Modulus (GPa) = 54.56065 20.59795 37.57930
#
# Velocity S-wave (km/s) = 5.19010 3.18895 4.30735
# Velocity P-wave (km/s) = 8.54806 7.16905 7.88875
#
# Compressibility (1/GPa) = 0.01328852
#
# Stress axis : x y z
#
# Youngs Moduli (GPa) = 84.92714 88.57054 131.70244
#
# Poissons Ratio (x) = 0.37999 0.28049
# Poissons Ratio (y) = 0.36435 0.29829
# Poissons Ratio (z) = 0.18087 0.20060
#
# Static dielectric constant tensor:
#      x y z
#    x 3.802000 0.000000 0.010500 
#    y 0.000000 3.794090 0.000000 
#    z 0.010500 0.000000 3.947330 
# 
# 
# High freq. dielectric constant tensor:
#      x y z
#    x 1.808090 0.000000 0.000970 
#    y 0.000000 1.795560 0.000000 
#    z 0.000970 0.000000 1.819560 
# 
# From -- ./inp_files/13590.got.cif
#   From: 2010.06.25/outbox.cif.g09.slc.cpg/sg10_7_cif.got.tgz:13590.got - 2010.06.27 22:07:45.
