data_PCOD8066563
_publ_section_title
;
Structure prediction by ZEFSAII (Michael W. Deem and Ramdas Pophale) SiO2 
 PCOD8066563
Probable space group: P 2/M
;
_chemical_formula_sum "Si O2"
_cell_formula_units_Z 16
_cell_length_a 9.638704
_cell_length_b 10.313467
_cell_length_c 10.675187
_cell_angle_alpha 90.000000
_cell_angle_beta 136.841767
_cell_angle_gamma 90.000000
_cell_volume 725.879912
_symmetry_space_group_name_H-M "P 2/M"
_symmetry_group_IT_number 10
_symmetry_cell_setting 'monoclinic'
loop_
_space_group_symop_operation_xyz
x,y,z
-x,y,-z
-x,-y,-z
x,-y,z
loop_
_atom_site_type_symbol
_atom_site_label
_atom_site_fract_x
_atom_site_fract_y
_atom_site_fract_z
Si Si1 0.730496 0.854744 0.902955
Si Si2 0.727597 0.645382 0.693594
Si Si3 0.707692 0.855144 0.303717
Si Si4 0.999385 0.783919 0.700215
O O1 0.792160 0.751088 0.838794
O O2 0.520728 0.806487 0.827317
O O3 0.705449 0.000000 0.828983
O O4 0.905529 0.863272 0.122056
O O5 0.500000 0.675022 0.500000
O O6 0.744318 0.500000 0.759758
O O7 0.886087 0.656860 0.681629
O O8 0.820316 0.755869 0.281946
O O9 0.825024 0.864346 0.513568
O O10 0.708630 0.000000 0.245073
#
# Coordination Sequence:
#
# PCOD8066563 Si02
#       4
#     4   4   4   4
#     4  11  23  39  66  99 127 161 206 256 311 375
#     4  11  25  46  65  87 125 171 215 261 310 366
#     4  10  21  38  61  95 134 163 196 255 313 371
#     4  11  21  38  64  92 124 167 204 250 309 373
#
# _framework density 22.042214999999999
#
# number of rings (size 3 to 8) (size 9 to 14) (size 15 to 20)
#    0.000    1.250    2.500    4.500    0.000    8.500 
#    0.000    3.750    0.000    3.000    0.000    0.000 
#    0.000    0.000    0.000    0.000    0.000    0.000 
#
# Total GULP energy -198263.206807 kJ/mol
# GULP energy per Si atom -12391.450425 kJ/mol
# Density = 2.199205 g / cm^3
# Si number density = 22.042215 Si / 1000 Ang^3
#
#
#
# Elastic Constant Matrix: (Units=GPa)
#
#
# Indices 1 2 3 4 5 6 
#
# 1 159.8793 53.3916 42.5771 0.0000 7.5019 0.0000
# 2 53.3916 100.4184 39.7915 0.0000 -15.8652 0.0000
# 3 42.5771 39.7915 117.5524 0.0000 -1.9821 0.0000
# 4 0.0000 0.0000 0.0000 -7.5945 0.0000 -7.5816
# 5 7.5019 -15.8652 -1.9821 0.0000 32.4302 0.0000
# 6 0.0000 0.0000 0.0000 -7.5816 0.0000 21.1992
#
#
#
# Elastic Compliance Matrix: (Units=1/GPa)
#
#
# Indices 1 2 3 4 5 6 
#
# 1 0.008376 -0.004495 -0.001584 0.000000 -0.004233 0.000000
# 2 -0.004495 0.014940 -0.003292 0.000000 0.008147 0.000000
# 3 -0.001584 -0.003292 0.010184 0.000000 -0.000622 0.000000
# 4 0.000000 0.000000 0.000000 -0.097032 0.000000 -0.034702
# 5 -0.004233 0.008147 -0.000622 0.000000 0.035762 0.000000
# 6 0.000000 0.000000 0.000000 -0.034702 0.000000 0.034761
#
#
# Mechanical properties :
#
#
# Convention : Reuss Voigt Hill
#
# Bulk Modulus (GPa) = 67.75228 72.15230 69.95229
# Shear Modulus (GPa) = 163.12147 25.34632 94.23390
#
# Velocity S-wave (km/s) = 8.61190 3.39469 6.54556
# Velocity P-wave (km/s) = 11.38818 6.94046 9.43029
#
# Compressibility (1/GPa) = 0.01475965
#
# Stress axis : x y z
#
# Youngs Moduli (GPa) = 119.38675 66.93553 98.19101
#
# Poissons Ratio (x) = 0.30086 0.15551
# Poissons Ratio (y) = 0.53662 0.32322
# Poissons Ratio (z) = 0.18907 0.22033
#
# Static dielectric constant tensor:
#      x y z
#    x 4.280860 0.000000 0.141130 
#    y 0.000000 3.509870 0.000000 
#    z 0.141130 0.000000 4.102020 
# 
# 
# High freq. dielectric constant tensor:
#      x y z
#    x 1.884790 0.000000 0.016880 
#    y 0.000000 1.812610 0.000000 
#    z 0.016880 0.000000 1.880610 
# 
# From -- ./inp_files/17658.got.cif
#   From: 2010.06.25/outbox.cif.g09.slc.cpg/sg10_9_cif.got.tgz:17658.got - 2010.06.27 22:07:45.
