data_PCOD8066550
_publ_section_title
;
Structure prediction by ZEFSAII (Michael W. Deem and Ramdas Pophale) SiO2 
 PCOD8066550
Probable space group: P 2/M
;
_chemical_formula_sum "Si O2"
_cell_formula_units_Z 32
_cell_length_a 15.185908
_cell_length_b 8.871144
_cell_length_c 11.873565
_cell_angle_alpha 90.000000
_cell_angle_beta 89.514018
_cell_angle_gamma 90.000000
_cell_volume 1599.506115
_symmetry_space_group_name_H-M "P 2/M"
_symmetry_group_IT_number 10
_symmetry_cell_setting 'monoclinic'
loop_
_space_group_symop_operation_xyz
x,y,z
-x,y,-z
-x,-y,-z
x,-y,z
loop_
_atom_site_type_symbol
_atom_site_label
_atom_site_fract_x
_atom_site_fract_y
_atom_site_fract_z
Si Si1 0.412982 0.826494 0.296227
Si Si2 0.106072 0.673414 0.738762
Si Si3 0.844855 0.178018 0.494113
Si Si4 0.908235 0.673551 0.704830
Si Si5 0.753586 0.822871 0.844830
Si Si6 0.662074 0.676650 0.499328
Si Si7 0.761807 0.824414 0.102300
Si Si8 0.390204 0.827675 0.726868
O O1 0.338505 0.771924 0.209783
O O2 0.411566 0.726777 0.409859
O O3 0.508422 0.803742 0.237632
O O4 0.398488 0.000000 0.330575
O O5 0.129701 0.500000 0.714832
O O6 0.136570 0.768558 0.631561
O O7 0.157321 0.731015 0.847507
O O8 0.002599 0.694833 0.763256
O O9 0.913899 0.243951 0.583572
O O10 0.749511 0.234324 0.535054
O O11 0.849251 0.000000 0.497961
O O12 0.886335 0.500000 0.682718
O O13 0.835161 0.741566 0.786477
O O14 0.768317 0.000000 0.831432
O O15 0.749471 0.772951 0.974366
O O16 0.679378 0.500000 0.506375
O O17 0.633219 0.717577 0.374415
O O18 0.670804 0.786321 0.166790
O O19 0.785169 0.000000 0.111530
O O20 0.373443 0.000000 0.687893
#
# Coordination Sequence:
#
# PCOD8066550 Si02
#       8
#     4   4   4   4   4   4   4   4
#     4  10  21  38  61  89 122 160 201 246 298 356
#     4  11  24  41  62  90 123 159 198 243 300 361
#     4  12  23  38  63  92 122 156 195 243 302 361
#     4  11  24  41  62  90 123 159 198 243 300 361
#     4  10  22  40  62  88 119 160 208 253 296 347
#     4  12  23  36  59  90 124 160 197 241 298 361
#     4  10  22  40  62  88 119 160 208 253 296 347
#     4  10  21  38  61  89 122 160 201 246 298 356
#
# _framework density 20.006176
#
# number of rings (size 3 to 8) (size 9 to 14) (size 15 to 20)
#    0.000    1.250    2.500    3.750    0.000    7.000 
#    0.000    5.000    0.000    0.000    0.000    3.500 
#    0.000    0.000    0.000    0.000    0.000    0.000 
#
# Total GULP energy -396975.036907 kJ/mol
# GULP energy per Si atom -12405.469903 kJ/mol
# Density = 1.996064 g / cm^3
# Si number density = 20.006176 Si / 1000 Ang^3
#
#
#
# Elastic Constant Matrix: (Units=GPa)
#
#
# Indices 1 2 3 4 5 6 
#
# 1 106.4995 43.4172 40.5547 0.0000 3.1736 0.0000
# 2 43.4172 97.8770 53.1052 0.0000 1.9002 0.0000
# 3 40.5547 53.1052 121.1616 0.0000 3.1090 0.0000
# 4 0.0000 0.0000 0.0000 15.6020 0.0000 4.3379
# 5 3.1736 1.9002 3.1090 0.0000 16.6028 0.0000
# 6 0.0000 0.0000 0.0000 4.3379 0.0000 11.7493
#
#
#
# Elastic Compliance Matrix: (Units=1/GPa)
#
#
# Indices 1 2 3 4 5 6 
#
# 1 0.011922 -0.004088 -0.002163 0.000000 -0.001406 0.000000
# 2 -0.004088 0.014809 -0.005124 0.000000 0.000046 0.000000
# 3 -0.002163 -0.005124 0.011252 0.000000 -0.001107 0.000000
# 4 0.000000 0.000000 0.000000 0.071426 0.000000 -0.026371
# 5 -0.001406 0.000046 -0.001107 0.000000 0.060702 0.000000
# 6 0.000000 0.000000 0.000000 -0.026371 0.000000 0.094847
#
#
# Mechanical properties :
#
#
# Convention : Reuss Voigt Hill
#
# Bulk Modulus (GPa) = 65.64238 66.63250 66.13744
# Shear Modulus (GPa) = 17.07742 21.35488 19.21615
#
# Velocity S-wave (km/s) = 2.92483 3.27068 3.10257
# Velocity P-wave (km/s) = 6.65496 6.90227 6.77974
#
# Compressibility (1/GPa) = 0.01523406
#
# Stress axis : x y z
#
# Youngs Moduli (GPa) = 83.88163 67.52504 88.87662
#
# Poissons Ratio (x) = 0.27601 0.19221
# Poissons Ratio (y) = 0.34287 0.45540
# Poissons Ratio (z) = 0.18141 0.34599
#
# Static dielectric constant tensor:
#      x y z
#    x 3.842580 0.000000 0.049600 
#    y 0.000000 3.612760 0.000000 
#    z 0.049600 0.000000 3.570640 
# 
# 
# High freq. dielectric constant tensor:
#      x y z
#    x 1.793620 0.000000 0.000930 
#    y 0.000000 1.779000 0.000000 
#    z 0.000930 0.000000 1.773990 
# 
# From -- ./inp_files/49908.got.cif
#   From: 2010.06.25/outbox.cif.g09.slc.cpg/sg10_25_cif.got.tgz:49908.got - 2010.06.27 22:07:45.
