data_PCOD8066943
_publ_section_title
;
Structure prediction by ZEFSAII (Michael W. Deem and Ramdas Pophale) SiO2 
 PCOD8066943
Probable space group: P 2/M
;
_chemical_formula_sum "Si O2"
_cell_formula_units_Z 28
_cell_length_a 21.964882
_cell_length_b 13.809208
_cell_length_c 9.970554
_cell_angle_alpha 90.000000
_cell_angle_beta 153.501454
_cell_angle_gamma 90.000000
_cell_volume 1349.342711
_symmetry_space_group_name_H-M "P 2/M"
_symmetry_group_IT_number 10
_symmetry_cell_setting 'monoclinic'
loop_
_space_group_symop_operation_xyz
x,y,z
-x,y,-z
-x,-y,-z
x,-y,z
loop_
_atom_site_type_symbol
_atom_site_label
_atom_site_fract_x
_atom_site_fract_y
_atom_site_fract_z
Si Si1 0.364947 0.884883 0.503025
Si Si2 0.343473 0.202074 0.905761
Si Si3 0.108048 0.386420 0.110319
Si Si4 0.122794 0.386030 0.839875
Si Si5 0.646696 0.607563 0.226335
Si Si6 0.845284 0.114045 0.682631
Si Si7 0.345545 0.761609 0.205136
O O1 0.246049 0.852184 0.371013
O O2 0.326308 0.841179 0.282821
O O3 0.374720 0.000000 0.509184
O O4 0.510151 0.844984 0.842856
O O5 0.347384 0.317310 0.883936
O O6 0.222245 0.152879 0.585651
O O7 0.306514 0.186658 0.988483
O O8 0.083824 0.500000 0.055736
O O9 0.256001 0.359146 0.459772
O O10 0.088280 0.346339 0.920990
O O11 0.000000 0.338604 0.000000
O O12 0.153039 0.500000 0.899090
O O13 0.000000 0.357836 0.500000
O O14 0.257726 0.333716 0.055445
O O15 0.688964 0.500000 0.256140
O O16 0.500000 0.604021 0.000000
O O17 0.847724 0.000000 0.677793
O O18 0.000000 0.154358 0.000000
O O19 0.500000 0.724144 0.500000
#
# Coordination Sequence:
#
# PCOD8066943 Si02
#       7
#     4   4   4   4   4   4   4
#     4  10  22  44  68  90 123 159 198 253 312 372
#     4  11  23  38  63  93 121 166 206 249 301 365
#     4   9  20  38  60  85 114 160 213 252 299 355
#     4  10  23  42  63  88 126 169 208 252 301 362
#     4  10  22  37  58  90 126 161 204 256 303 350
#     4  10  22  40  65  96 123 153 199 255 312 364
#     4  10  25  41  60  93 124 160 208 251 305 365
#
# _framework density 20.750841999999999
#
# number of rings (size 3 to 8) (size 9 to 14) (size 15 to 20)
#    0.000    2.000    0.000    1.714    8.000    6.857 
#    0.000    0.000    0.000    3.000    0.000    0.000 
#    0.000    0.000    0.000    0.000    0.000    0.000 
#
# Total GULP energy -347218.752033 kJ/mol
# GULP energy per Si atom -12400.669715 kJ/mol
# Density = 2.070361 g / cm^3
# Si number density = 20.750842 Si / 1000 Ang^3
#
#
#
# Elastic Constant Matrix: (Units=GPa)
#
#
# Indices 1 2 3 4 5 6 
#
# 1 150.5802 35.9287 100.3784 0.0000 -3.1815 0.0000
# 2 35.9287 59.6173 47.6099 0.0000 -4.3872 0.0000
# 3 100.3784 47.6099 177.1794 0.0000 -3.5319 0.0000
# 4 0.0000 0.0000 0.0000 46.2859 0.0000 0.9750
# 5 -3.1815 -4.3872 -3.5319 0.0000 37.0191 0.0000
# 6 0.0000 0.0000 0.0000 0.9750 0.0000 27.1433
#
#
#
# Elastic Compliance Matrix: (Units=1/GPa)
#
#
# Indices 1 2 3 4 5 6 
#
# 1 0.010871 -0.002068 -0.005600 0.000000 0.000155 0.000000
# 2 -0.002068 0.021897 -0.004673 0.000000 0.001971 0.000000
# 3 -0.005600 -0.004673 0.010071 0.000000 -0.000074 0.000000
# 4 0.000000 0.000000 0.000000 0.021621 0.000000 -0.000777
# 5 0.000155 0.001971 -0.000074 0.000000 0.027253 0.000000
# 6 0.000000 0.000000 0.000000 -0.000777 0.000000 0.036869
#
#
# Mechanical properties :
#
#
# Convention : Reuss Voigt Hill
#
# Bulk Modulus (GPa) = 55.07640 83.91231 69.49435
# Shear Modulus (GPa) = 31.38430 35.65364 33.51897
#
# Velocity S-wave (km/s) = 3.89322 4.14959 4.02345
# Velocity P-wave (km/s) = 6.84171 7.96772 7.42609
#
# Compressibility (1/GPa) = 0.01815660
#
# Stress axis : x y z
#
# Youngs Moduli (GPa) = 91.99188 45.66874 99.29790
#
# Poissons Ratio (x) = 0.09444 0.55605
# Poissons Ratio (y) = 0.19022 0.46403
# Poissons Ratio (z) = 0.51514 0.21341
#
# Static dielectric constant tensor:
#      x y z
#    x 3.929750 0.000000 -0.030790 
#    y 0.000000 3.790890 0.000000 
#    z -0.030790 0.000000 3.938730 
# 
# 
# High freq. dielectric constant tensor:
#      x y z
#    x 1.811690 0.000000 -0.001750 
#    y 0.000000 1.813500 0.000000 
#    z -0.001750 0.000000 1.822110 
# 
# From -- ./inp_files/35298.got.cif
#   From: 2010.06.25/outbox.cif.g09.slc.cpg/sg10_18_cif.got.tgz:35298.got - 2010.06.27 22:07:45.
