data_PCOD8066854
_publ_section_title
;
Structure prediction by ZEFSAII (Michael W. Deem and Ramdas Pophale) SiO2 
 PCOD8066854
Probable space group: P 2/M
;
_chemical_formula_sum "Si O2"
_cell_formula_units_Z 16
_cell_length_a 7.539694
_cell_length_b 5.247017
_cell_length_c 21.594431
_cell_angle_alpha 90.000000
_cell_angle_beta 58.417573
_cell_angle_gamma 90.000000
_cell_volume 727.763475
_symmetry_space_group_name_H-M "P 2/M"
_symmetry_group_IT_number 10
_symmetry_cell_setting 'monoclinic'
loop_
_space_group_symop_operation_xyz
x,y,z
-x,y,-z
-x,-y,-z
x,-y,z
loop_
_atom_site_type_symbol
_atom_site_label
_atom_site_fract_x
_atom_site_fract_y
_atom_site_fract_z
Si Si1 0.368885 0.500000 0.330880
Si Si2 0.529494 0.000000 0.067430
Si Si3 0.170041 0.500000 0.799096
Si Si4 0.138474 0.000000 0.330880
Si Si5 0.932671 0.000000 0.799096
Si Si6 0.697862 0.000000 0.418464
Si Si7 0.231784 0.500000 0.932570
Si Si8 0.453254 0.500000 0.581536
O O1 0.616659 0.500000 0.278148
O O2 0.271831 0.250000 0.318779
O O3 0.341880 0.500000 0.411257
O O4 0.309731 0.000000 0.141378
O O5 0.653847 0.750000 0.064102
O O6 0.500000 0.000000 0.000000
O O7 0.233868 0.500000 0.858621
O O8 0.036916 0.750000 0.808723
O O9 0.924349 0.000000 0.411256
O O10 0.048900 0.000000 0.278147
O O11 0.500000 0.000000 0.500000
O O12 0.682830 0.250000 0.378113
O O13 0.000000 0.500000 0.000000
O O14 0.500000 0.500000 0.500000
#
# Coordination Sequence:
#
# PCOD8066854 Si02
#       8
#     2   2   2   2   2   2   2   2
#     4  12  24  41  64  95 125 159 206 262 312 368
#     4  12  24  42  64  94 131 169 213 262 310 368
#     4  12  24  42  66  93 125 169 211 256 314 373
#     4  12  24  41  64  95 125 159 206 262 312 368
#     4  12  24  42  66  93 125 169 211 256 314 373
#     4  10  21  41  63  86 120 161 200 244 305 373
#     4  12  24  42  64  94 131 169 213 262 310 368
#     4  10  21  41  63  86 120 161 200 244 305 373
#
# _framework density 21.985164999999999
#
# number of rings (size 3 to 8) (size 9 to 14) (size 15 to 20)
#    0.000    0.500    0.000    9.750    0.000    0.000 
#    0.000   15.000    0.000    0.000    0.000    0.000 
#    0.000    0.000    0.000    0.000    0.000    0.000 
#
# Total GULP energy -198347.532714 kJ/mol
# GULP energy per Si atom -12396.720795 kJ/mol
# Density = 2.193513 g / cm^3
# Si number density = 21.985165 Si / 1000 Ang^3
#
#
#
# Elastic Constant Matrix: (Units=GPa)
#
#
# Indices 1 2 3 4 5 6 
#
# 1 165.7630 109.1554 59.5343 0.0000 -0.7436 0.0000
# 2 109.1554 266.6415 30.2088 0.0000 1.6808 0.0000
# 3 59.5343 30.2088 88.7017 0.0000 2.3839 0.0000
# 4 0.0000 0.0000 0.0000 17.1236 0.0000 1.0095
# 5 -0.7436 1.6808 2.3839 0.0000 70.5070 0.0000
# 6 0.0000 0.0000 0.0000 1.0095 0.0000 64.5293
#
#
#
# Elastic Compliance Matrix: (Units=1/GPa)
#
#
# Indices 1 2 3 4 5 6 
#
# 1 0.010538 -0.003655 -0.005839 0.000000 0.000396 0.000000
# 2 -0.003655 0.005169 0.000698 0.000000 -0.000185 0.000000
# 3 -0.005839 0.000698 0.014971 0.000000 -0.000584 0.000000
# 4 0.000000 0.000000 0.000000 0.058453 0.000000 -0.000914
# 5 0.000396 -0.000185 -0.000584 0.000000 0.014211 0.000000
# 6 0.000000 0.000000 0.000000 -0.000914 0.000000 0.015511
#
#
# Mechanical properties :
#
#
# Convention : Reuss Voigt Hill
#
# Bulk Modulus (GPa) = 76.42006 102.10035 89.26021
# Shear Modulus (GPa) = 35.50943 51.91251 43.71097
#
# Velocity S-wave (km/s) = 4.02326 4.86454 4.46376
# Velocity P-wave (km/s) = 7.51115 8.83703 8.20093
#
# Compressibility (1/GPa) = 0.01308557
#
# Stress axis : x y z
#
# Youngs Moduli (GPa) = 94.89026 193.47004 66.79700
#
# Poissons Ratio (x) = 0.70716 0.39003
# Poissons Ratio (y) = 0.34684 -0.04662
# Poissons Ratio (z) = 0.55406 -0.13502
#
# Static dielectric constant tensor:
#      x y z
#    x 5.451410 0.000000 0.022830 
#    y 0.000000 7.277610 0.000000 
#    z 0.022830 0.000000 4.349700 
# 
# 
# High freq. dielectric constant tensor:
#      x y z
#    x 1.881490 0.000000 0.000310 
#    y 0.000000 1.901030 0.000000 
#    z 0.000310 0.000000 1.866890 
# 
# From -- ./inp_files/87273.got.cif
#   From: 2010.06.25/outbox.cif.g09.slc.cpg/sg10_44_cif.got.tgz:87273.got - 2010.06.27 22:07:45.
