data_PCOD8066506
_publ_section_title
;
Structure prediction by ZEFSAII (Michael W. Deem and Ramdas Pophale) SiO2 
 PCOD8066506
Probable space group: P 2/M
;
_chemical_formula_sum "Si O2"
_cell_formula_units_Z 24
_cell_length_a 11.256144
_cell_length_b 11.496216
_cell_length_c 16.318815
_cell_angle_alpha 90.000000
_cell_angle_beta 146.370548
_cell_angle_gamma 90.000000
_cell_volume 1169.503475
_symmetry_space_group_name_H-M "P 2/M"
_symmetry_group_IT_number 10
_symmetry_cell_setting 'monoclinic'
loop_
_space_group_symop_operation_xyz
x,y,z
-x,y,-z
-x,-y,-z
x,-y,z
loop_
_atom_site_type_symbol
_atom_site_label
_atom_site_fract_x
_atom_site_fract_y
_atom_site_fract_z
Si Si1 0.302224 0.745291 0.331300
Si Si2 0.697023 0.500000 0.909933
Si Si3 0.228704 0.868300 0.669355
Si Si4 0.128405 0.133094 0.904961
Si Si5 0.205771 0.500000 0.221109
Si Si6 0.356462 0.872886 0.200616
Si Si7 0.512280 0.698420 0.918506
O O1 0.500000 0.784986 0.500000
O O2 0.272470 0.607663 0.315834
O O3 0.338321 0.774769 0.257460
O O4 0.098296 0.812633 0.249867
O O5 0.670130 0.500000 0.795674
O O6 0.584888 0.612634 0.886815
O O7 0.949696 0.500000 0.068686
O O8 0.408793 0.864878 0.703154
O O9 0.290270 0.766055 0.769043
O O10 0.000000 0.835450 0.500000
O O11 0.222064 0.000000 0.703750
O O12 0.137105 0.000000 0.881436
O O13 0.170020 0.146297 0.026339
O O14 0.312914 0.201803 0.964124
O O15 0.324432 0.000000 0.223124
O O16 0.500000 0.632825 0.000000
#
# Coordination Sequence:
#
# PCOD8066506 Si02
#       7
#     4   2   4   4   2   4   4
#     4  12  24  37  57  89 123 154 192 253 309 354
#     4  11  23  42  69  88 105 157 213 248 295 351
#     4   9  19  37  60  87 121 162 202 234 287 358
#     4  10  21  38  60  89 122 160 204 236 283 358
#     4  11  23  42  66  82 113 155 206 253 290 362
#     4   9  19  36  59  85 119 161 202 243 285 350
#     4  11  22  39  63  92 122 152 197 252 299 349
#
# _framework density 20.521529999999998
#
# number of rings (size 3 to 8) (size 9 to 14) (size 15 to 20)
#    0.000    1.667    1.667    5.000    2.333    5.333 
#    0.000    2.083    0.000    0.000    0.000    0.000 
#    0.000    0.000    0.000    0.000    0.000    0.000 
#
# Total GULP energy -297506.915168 kJ/mol
# GULP energy per Si atom -12396.121465 kJ/mol
# Density = 2.047482 g / cm^3
# Si number density = 20.521530 Si / 1000 Ang^3
#
#
#
# Elastic Constant Matrix: (Units=GPa)
#
#
# Indices 1 2 3 4 5 6 
#
# 1 40.7712 15.2571 13.4810 0.0000 -3.0818 0.0000
# 2 15.2571 107.5537 39.6032 0.0000 7.7779 0.0000
# 3 13.4810 39.6032 132.3137 0.0000 19.9856 0.0000
# 4 0.0000 0.0000 0.0000 27.0843 0.0000 7.3190
# 5 -3.0818 7.7779 19.9856 0.0000 17.4809 0.0000
# 6 0.0000 0.0000 0.0000 7.3190 0.0000 14.0869
#
#
#
# Elastic Compliance Matrix: (Units=1/GPa)
#
#
# Indices 1 2 3 4 5 6 
#
# 1 0.027690 -0.003439 -0.003337 0.000000 0.010227 0.000000
# 2 -0.003439 0.010901 -0.002524 0.000000 -0.002571 0.000000
# 3 -0.003337 -0.002524 0.010362 0.000000 -0.011312 0.000000
# 4 0.000000 0.000000 0.000000 0.042952 0.000000 -0.022316
# 5 0.010227 -0.002571 -0.011312 0.000000 0.073085 0.000000
# 6 0.000000 0.000000 0.000000 -0.022316 0.000000 0.082583
#
#
# Mechanical properties :
#
#
# Convention : Reuss Voigt Hill
#
# Bulk Modulus (GPa) = 32.94499 46.36901 39.65700
# Shear Modulus (GPa) = 18.09695 25.88356 21.99025
#
# Velocity S-wave (km/s) = 2.97282 3.55531 3.27704
# Velocity P-wave (km/s) = 5.27942 6.28475 5.80389
#
# Compressibility (1/GPa) = 0.03035363
#
# Stress axis : x y z
#
# Youngs Moduli (GPa) = 36.11376 91.73607 96.50796
#
# Poissons Ratio (x) = 0.31548 0.32201
# Poissons Ratio (y) = 0.12419 0.24359
# Poissons Ratio (z) = 0.12050 0.23155
#
# Static dielectric constant tensor:
#      x y z
#    x 3.499470 0.000000 0.152050 
#    y 0.000000 3.868880 0.000000 
#    z 0.152050 0.000000 3.638130 
# 
# 
# High freq. dielectric constant tensor:
#      x y z
#    x 1.789050 0.000000 0.012710 
#    y 0.000000 1.812450 0.000000 
#    z 0.012710 0.000000 1.791040 
# 
# From -- ./inp_files/46561.got.cif
#   From: 2010.06.25/outbox.cif.g09.slc.cpg/sg10_24_cif.got.tgz:46561.got - 2010.06.27 22:07:45.
