data_PCOD8066319
_publ_section_title
;
Structure prediction by ZEFSAII (Michael W. Deem and Ramdas Pophale) SiO2 
 PCOD8066319
Probable space group: P 2/M
;
_chemical_formula_sum "Si O2"
_cell_formula_units_Z 28
_cell_length_a 12.488416
_cell_length_b 8.827647
_cell_length_c 14.518623
_cell_angle_alpha 90.000000
_cell_angle_beta 58.793072
_cell_angle_gamma 90.000000
_cell_volume 1368.979788
_symmetry_space_group_name_H-M "P 2/M"
_symmetry_group_IT_number 10
_symmetry_cell_setting 'monoclinic'
loop_
_space_group_symop_operation_xyz
x,y,z
-x,y,-z
-x,-y,-z
x,-y,z
loop_
_atom_site_type_symbol
_atom_site_label
_atom_site_fract_x
_atom_site_fract_y
_atom_site_fract_z
Si Si1 0.553693 0.826319 0.574610
Si Si2 0.898274 0.326715 0.124224
Si Si3 0.522909 0.677000 0.884798
Si Si4 0.002438 0.678245 0.274394
Si Si5 0.217867 0.178825 0.282283
Si Si6 0.646386 0.825591 0.180029
Si Si7 0.194112 0.677313 0.483362
O O1 0.500000 0.782757 0.500000
O O2 0.444290 0.795062 0.694705
O O3 0.667105 0.715429 0.545393
O O4 0.600773 0.000000 0.557607
O O5 0.852151 0.500000 0.154199
O O6 0.955791 0.269420 0.194999
O O7 0.784009 0.220333 0.149266
O O8 0.000000 0.309924 0.000000
O O9 0.549206 0.500000 0.861474
O O10 0.639986 0.766695 0.791214
O O11 0.397998 0.724320 0.886040
O O12 0.500000 0.722600 0.000000
O O13 0.026643 0.500000 0.266017
O O14 0.901519 0.730269 0.395121
O O15 0.134124 0.759971 0.235604
O O16 0.160304 0.237971 0.403913
O O17 0.217367 0.000000 0.282825
O O18 0.646356 0.000000 0.149639
O O19 0.182886 0.500000 0.469344
#
# Coordination Sequence:
#
# PCOD8066319 Si02
#       7
#     4   4   4   4   4   4   4
#     4  10  21  37  59  89 127 167 204 252 314 375
#     4  10  23  43  66  91 123 167 215 261 310 368
#     4  11  25  44  68  94 124 166 211 257 312 374
#     4  10  23  42  63  91 127 168 216 263 310 370
#     4  12  25  41  64  95 129 165 206 259 322 378
#     4  11  23  40  64  95 130 164 203 257 313 369
#     4  11  22  38  62  91 124 166 213 260 310 374
#
# _framework density 20.453187
#
# number of rings (size 3 to 8) (size 9 to 14) (size 15 to 20)
#    0.000    1.286    1.429    3.857    2.000    5.714 
#    0.000    0.000    0.000    0.000    0.000    0.000 
#    0.000    0.000    0.000    0.000    0.000    0.000 
#
# Total GULP energy -347411.626420 kJ/mol
# GULP energy per Si atom -12407.558086 kJ/mol
# Density = 2.040663 g / cm^3
# Si number density = 20.453187 Si / 1000 Ang^3
#
#
#
# Elastic Constant Matrix: (Units=GPa)
#
#
# Indices 1 2 3 4 5 6 
#
# 1 129.9320 35.6614 44.7999 0.0000 17.8756 0.0000
# 2 35.6614 73.1038 39.1505 0.0000 7.0757 0.0000
# 3 44.7999 39.1505 93.6285 0.0000 24.2931 0.0000
# 4 0.0000 0.0000 0.0000 16.8301 0.0000 -0.6262
# 5 17.8756 7.0757 24.2931 0.0000 39.1380 0.0000
# 6 0.0000 0.0000 0.0000 -0.6262 0.0000 49.5961
#
#
#
# Elastic Compliance Matrix: (Units=1/GPa)
#
#
# Indices 1 2 3 4 5 6 
#
# 1 0.009816 -0.003046 -0.002864 0.000000 -0.002155 0.000000
# 2 -0.003046 0.018662 -0.006951 0.000000 0.002332 0.000000
# 3 -0.002864 -0.006951 0.017036 0.000000 -0.008009 0.000000
# 4 0.000000 0.000000 0.000000 0.059445 0.000000 0.000751
# 5 -0.002155 0.002332 -0.008009 0.000000 0.031085 0.000000
# 6 0.000000 0.000000 0.000000 0.000751 0.000000 0.020172
#
#
# Mechanical properties :
#
#
# Convention : Reuss Voigt Hill
#
# Bulk Modulus (GPa) = 50.52677 59.54310 55.03493
# Shear Modulus (GPa) = 26.52014 32.91633 29.71824
#
# Velocity S-wave (km/s) = 3.60478 4.01602 3.81594
# Velocity P-wave (km/s) = 6.48715 7.11897 6.81039
#
# Compressibility (1/GPa) = 0.01979149
#
# Stress axis : x y z
#
# Youngs Moduli (GPa) = 101.87036 53.58478 58.70065
#
# Poissons Ratio (x) = 0.16323 0.16813
# Poissons Ratio (y) = 0.31031 0.40803
# Poissons Ratio (z) = 0.29177 0.37247
#
# Static dielectric constant tensor:
#      x y z
#    x 3.772150 0.000000 0.177450 
#    y 0.000000 3.639820 0.000000 
#    z 0.177450 0.000000 3.778300 
# 
# 
# High freq. dielectric constant tensor:
#      x y z
#    x 1.814230 0.000000 0.007130 
#    y 0.000000 1.797760 0.000000 
#    z 0.007130 0.000000 1.807850 
# 
# From -- ./inp_files/63662.got.cif
#   From: 2010.06.25/outbox.cif.g09.slc.cpg/sg10_32_cif.got.tgz:63662.got - 2010.06.27 22:07:45.
