data_PCOD8066256
_publ_section_title
;
Structure prediction by ZEFSAII (Michael W. Deem and Ramdas Pophale) SiO2 
 PCOD8066256
Probable space group: P 2/M
;
_chemical_formula_sum "Si O2"
_cell_formula_units_Z 28
_cell_length_a 24.771600
_cell_length_b 8.622957
_cell_length_c 9.397387
_cell_angle_alpha 90.000000
_cell_angle_beta 46.554068
_cell_angle_gamma 90.000000
_cell_volume 1457.364356
_symmetry_space_group_name_H-M "P 2/M"
_symmetry_group_IT_number 10
_symmetry_cell_setting 'monoclinic'
loop_
_space_group_symop_operation_xyz
x,y,z
-x,y,-z
-x,-y,-z
x,-y,z
loop_
_atom_site_type_symbol
_atom_site_label
_atom_site_fract_x
_atom_site_fract_y
_atom_site_fract_z
Si Si1 0.565050 0.676989 0.993095
Si Si2 0.820643 0.331723 0.589080
Si Si3 0.733986 0.683840 0.014114
Si Si4 0.570220 0.181530 0.281636
Si Si5 0.204293 0.180991 0.817985
Si Si6 0.916062 0.314305 0.174044
Si Si7 0.699374 0.329607 0.573880
O O1 0.581411 0.500000 0.012811
O O2 0.548985 0.781485 0.158127
O O3 0.500000 0.685314 0.000000
O O4 0.635018 0.748657 0.783402
O O5 0.844970 0.500000 0.605763
O O6 0.891141 0.252377 0.379208
O O7 0.768582 0.355314 0.548654
O O8 0.777324 0.244269 0.795935
O O9 0.727861 0.500000 0.010603
O O10 0.649653 0.745426 0.180699
O O11 0.785985 0.731183 0.050619
O O12 0.500000 0.246463 0.500000
O O13 0.578388 0.000000 0.290922
O O14 0.131813 0.242202 0.867729
O O15 0.279409 0.215677 0.592928
O O16 0.196818 0.000000 0.860447
O O17 0.908530 0.500000 0.181176
O O18 0.000000 0.258117 0.000000
O O19 0.674389 0.500000 0.559320
#
# Coordination Sequence:
#
# PCOD8066256 Si02
#       7
#     4   4   4   4   4   4   4
#     4  10  21  37  58  83 107 141 194 242 282 337
#     4   8  15  31  57  84 107 136 183 232 275 323
#     4  11  21  38  61  82 110 151 197 242 281 333
#     4  11  25  41  55  80 118 154 190 238 297 350
#     4  11  23  36  54  85 120 151 186 229 285 345
#     4   9  18  37  64  90 116 147 186 233 280 333
#     4   9  17  35  56  79 107 141 190 239 278 331
#
# _framework density 19.212765000000001
#
# number of rings (size 3 to 8) (size 9 to 14) (size 15 to 20)
#    0.000    2.143    1.429    3.000    2.000    2.286 
#    0.000    1.429    0.000    4.286    0.000    0.000 
#    0.000    0.000    0.000    0.000    0.000    0.000 
#
# Total GULP energy -346890.246823 kJ/mol
# GULP energy per Si atom -12388.937387 kJ/mol
# Density = 1.916904 g / cm^3
# Si number density = 19.212765 Si / 1000 Ang^3
#
#
#
# Elastic Constant Matrix: (Units=GPa)
#
#
# Indices 1 2 3 4 5 6 
#
# 1 78.5034 23.9950 60.2198 0.0000 3.2494 0.0000
# 2 23.9950 50.9062 30.4702 0.0000 -1.2455 0.0000
# 3 60.2198 30.4702 167.3594 0.0000 -13.3267 0.0000
# 4 0.0000 0.0000 0.0000 12.9814 0.0000 0.5850
# 5 3.2494 -1.2455 -13.3267 0.0000 31.1448 0.0000
# 6 0.0000 0.0000 0.0000 0.5850 0.0000 23.8450
#
#
#
# Elastic Compliance Matrix: (Units=1/GPa)
#
#
# Indices 1 2 3 4 5 6 
#
# 1 0.019563 -0.005490 -0.006439 0.000000 -0.005016 0.000000
# 2 -0.005490 0.023610 -0.002280 0.000000 0.000541 0.000000
# 3 -0.006439 -0.002280 0.009062 0.000000 0.004458 0.000000
# 4 0.000000 0.000000 0.000000 0.077119 0.000000 -0.001892
# 5 -0.005016 0.000541 0.004458 0.000000 0.034561 0.000000
# 6 0.000000 0.000000 0.000000 -0.001892 0.000000 0.041984
#
#
# Mechanical properties :
#
#
# Convention : Reuss Voigt Hill
#
# Bulk Modulus (GPa) = 41.98661 58.45989 50.22325
# Shear Modulus (GPa) = 20.63930 25.73316 23.18623
#
# Velocity S-wave (km/s) = 3.28113 3.66372 3.47769
# Velocity P-wave (km/s) = 6.02124 6.95635 6.50562
#
# Compressibility (1/GPa) = 0.02381712
#
# Stress axis : x y z
#
# Youngs Moduli (GPa) = 51.11560 42.35567 110.34711
#
# Poissons Ratio (x) = 0.23252 0.71056
# Poissons Ratio (y) = 0.28061 0.25159
# Poissons Ratio (z) = 0.32915 0.09657
#
# Static dielectric constant tensor:
#      x y z
#    x 3.276340 0.000000 0.051650 
#    y 0.000000 3.345810 0.000000 
#    z 0.051650 0.000000 3.768180 
# 
# 
# High freq. dielectric constant tensor:
#      x y z
#    x 1.730760 0.000000 0.001000 
#    y 0.000000 1.720180 0.000000 
#    z 0.001000 0.000000 1.766190 
# 
# From -- ./inp_files/37043.got.cif
#   From: 2010.06.25/outbox.cif.g09.slc.cpg/sg10_19_cif.got.tgz:37043.got - 2010.06.27 22:07:45.
