data_PCOD8066990
_publ_section_title
;
Structure prediction by ZEFSAII (Michael W. Deem and Ramdas Pophale) SiO2 
 PCOD8066990
Probable space group: P 2/M
;
_chemical_formula_sum "Si O2"
_cell_formula_units_Z 24
_cell_length_a 22.324535
_cell_length_b 11.366713
_cell_length_c 14.850034
_cell_angle_alpha 90.000000
_cell_angle_beta 160.479587
_cell_angle_gamma 90.000000
_cell_volume 1259.147802
_symmetry_space_group_name_H-M "P 2/M"
_symmetry_group_IT_number 10
_symmetry_cell_setting 'monoclinic'
loop_
_space_group_symop_operation_xyz
x,y,z
-x,y,-z
-x,-y,-z
x,-y,z
loop_
_atom_site_type_symbol
_atom_site_label
_atom_site_fract_x
_atom_site_fract_y
_atom_site_fract_z
Si Si1 0.699632 0.000000 0.318173
Si Si2 0.662626 0.747568 0.300674
Si Si3 0.848105 0.752502 0.210093
Si Si4 0.489192 0.638224 0.741399
Si Si5 0.024365 0.634689 0.776748
Si Si6 0.654452 0.361406 0.655049
Si Si7 0.032110 0.000000 0.651355
O O1 0.711488 0.117425 0.395547
O O2 0.500000 0.000000 0.000000
O O3 0.846774 0.000000 0.445683
O O4 0.633323 0.669512 0.347306
O O5 0.839191 0.701651 0.502139
O O6 0.500000 0.736598 0.000000
O O7 0.853749 0.880728 0.168292
O O8 0.000000 0.743931 0.500000
O O9 0.869222 0.650839 0.165799
O O10 0.659799 0.724330 0.990867
O O11 0.541036 0.500000 0.816914
O O12 0.377477 0.671083 0.493876
O O13 0.979536 0.500000 0.729839
O O14 0.150059 0.684985 0.035883
O O15 0.500000 0.305293 0.500000
O O16 0.653248 0.500000 0.669056
O O17 0.000000 0.000000 0.500000
#
# Coordination Sequence:
#
# PCOD8066990 Si02
#       7
#     2   4   4   4   4   4   2
#     4  10  22  40  60  81 116 162 202 238 286 351
#     4  11  24  39  59  86 123 158 194 240 295 357
#     4  11  22  35  58  87 119 153 194 244 295 345
#     4  11  23  38  59  89 122 156 195 242 294 354
#     4  11  21  36  60  86 117 159 193 239 303 349
#     4   9  18  36  59  83 114 155 203 242 281 346
#     4  10  22  38  60  87 113 153 211 245 275 352
#
# _framework density 19.060510000000001
#
# number of rings (size 3 to 8) (size 9 to 14) (size 15 to 20)
#    0.000    1.500    3.333    2.000    7.000    4.667 
#    0.000    2.500    0.000    6.000    0.000    0.000 
#    0.000    0.000    0.000    0.000    0.000    0.000 
#
# Total GULP energy -297476.561394 kJ/mol
# GULP energy per Si atom -12394.856725 kJ/mol
# Density = 1.901713 g / cm^3
# Si number density = 19.060510 Si / 1000 Ang^3
#
#
#
# Elastic Constant Matrix: (Units=GPa)
#
#
# Indices 1 2 3 4 5 6 
#
# 1 84.2529 21.5101 19.3451 0.0000 -8.3538 0.0000
# 2 21.5101 92.8529 38.0569 0.0000 -2.7901 0.0000
# 3 19.3451 38.0569 86.5592 0.0000 -9.3235 0.0000
# 4 0.0000 0.0000 0.0000 9.9863 0.0000 11.3092
# 5 -8.3538 -2.7901 -9.3235 0.0000 33.2343 0.0000
# 6 0.0000 0.0000 0.0000 11.3092 0.0000 26.0434
#
#
#
# Elastic Compliance Matrix: (Units=1/GPa)
#
#
# Indices 1 2 3 4 5 6 
#
# 1 0.013089 -0.002282 -0.001638 0.000000 0.002639 0.000000
# 2 -0.002282 0.013544 -0.005552 0.000000 -0.000994 0.000000
# 3 -0.001638 -0.005552 0.014710 0.000000 0.003249 0.000000
# 4 0.000000 0.000000 0.000000 0.197030 0.000000 -0.085559
# 5 0.002639 -0.000994 0.003249 0.000000 0.031581 0.000000
# 6 0.000000 0.000000 0.000000 -0.085559 0.000000 0.075551
#
#
# Mechanical properties :
#
#
# Convention : Reuss Voigt Hill
#
# Bulk Modulus (GPa) = 44.64271 46.83214 45.73742
# Shear Modulus (GPa) = 13.44398 26.16965 19.80681
#
# Velocity S-wave (km/s) = 2.65869 3.70939 3.22709
# Velocity P-wave (km/s) = 5.73561 6.55513 6.15902
#
# Compressibility (1/GPa) = 0.02240008
#
# Stress axis : x y z
#
# Youngs Moduli (GPa) = 76.39836 73.83383 67.98214
#
# Poissons Ratio (x) = 0.16846 0.11135
# Poissons Ratio (y) = 0.17431 0.37743
# Poissons Ratio (z) = 0.12513 0.40992
#
# Static dielectric constant tensor:
#      x y z
#    x 3.373420 0.000000 0.030740 
#    y 0.000000 3.935410 0.000000 
#    z 0.030740 0.000000 3.545520 
# 
# 
# High freq. dielectric constant tensor:
#      x y z
#    x 1.736920 0.000000 0.011660 
#    y 0.000000 1.733070 0.000000 
#    z 0.011660 0.000000 1.739570 
# 
# From -- ./inp_files/24088.got.cif
#   From: 2010.06.25/outbox.cif.g09.slc.cpg/sg10_13_cif.got.tgz:24088.got - 2010.06.27 22:07:45.
