data_PCOD8066235
_publ_section_title
;
Structure prediction by ZEFSAII (Michael W. Deem and Ramdas Pophale) SiO2 
 PCOD8066235
Probable space group: P 2/M
;
_chemical_formula_sum "Si O2"
_cell_formula_units_Z 32
_cell_length_a 12.028459
_cell_length_b 8.680595
_cell_length_c 15.469417
_cell_angle_alpha 90.000000
_cell_angle_beta 90.908770
_cell_angle_gamma 90.000000
_cell_volume 1615.023339
_symmetry_space_group_name_H-M "P 2/M"
_symmetry_group_IT_number 10
_symmetry_cell_setting 'monoclinic'
loop_
_space_group_symop_operation_xyz
x,y,z
-x,y,-z
-x,-y,-z
x,-y,z
loop_
_atom_site_type_symbol
_atom_site_label
_atom_site_fract_x
_atom_site_fract_y
_atom_site_fract_z
Si Si1 0.000099 0.318896 0.645037
Si Si2 0.222593 0.175692 0.598611
Si Si3 0.000267 0.317363 0.157990
Si Si4 0.235787 0.316812 0.100744
Si Si5 0.769387 0.822855 0.595884
Si Si6 0.633136 0.681940 0.251017
Si Si7 0.617626 0.683559 0.738198
Si Si8 0.767046 0.316508 0.089914
O O1 0.018705 0.500000 0.635283
O O2 0.879926 0.276708 0.607885
O O3 0.095315 0.232261 0.592856
O O4 0.009690 0.263503 0.743673
O O5 0.272918 0.193589 0.503175
O O6 0.294684 0.275802 0.665062
O O7 0.226417 0.000000 0.629848
O O8 0.005802 0.500000 0.152936
O O9 0.892782 0.254971 0.105530
O O10 0.113141 0.248493 0.118620
O O11 0.231459 0.500000 0.103846
O O12 0.321622 0.257094 0.173946
O O13 0.273879 0.261495 0.005504
O O14 0.672716 0.758623 0.655299
O O15 0.795002 0.000000 0.619153
O O16 0.630612 0.500000 0.243673
O O17 0.508338 0.745114 0.258977
O O18 0.686750 0.751059 0.163550
O O19 0.625298 0.500000 0.729764
O O20 0.767469 0.500000 0.095792
#
# Coordination Sequence:
#
# PCOD8066235 Si02
#       8
#     4   4   4   4   4   4   4   4
#     4  11  20  35  61  89 117 146 181 228 281 336
#     4  11  24  40  58  82 113 149 189 231 281 343
#     4   9  15  26  49  81 113 142 175 219 272 328
#     4   9  16  28  50  82 117 147 179 227 283 334
#     4  11  24  40  58  82 113 149 189 231 281 343
#     4  10  21  37  57  83 113 147 193 242 283 328
#     4  10  21  37  57  83 113 147 193 242 283 328
#     4   9  16  28  50  82 117 147 179 227 283 334
#
# _framework density 19.813953999999999
#
# number of rings (size 3 to 8) (size 9 to 14) (size 15 to 20)
#    0.000    2.000    2.500    1.875    0.000    6.500 
#    0.000    5.000    0.000    0.750    0.000    3.500 
#    0.000    0.000    0.000    0.000    0.000    0.000 
#
# Total GULP energy -396780.147157 kJ/mol
# GULP energy per Si atom -12399.379599 kJ/mol
# Density = 1.976886 g / cm^3
# Si number density = 19.813954 Si / 1000 Ang^3
#
#
#
# Elastic Constant Matrix: (Units=GPa)
#
#
# Indices 1 2 3 4 5 6 
#
# 1 132.4560 8.9936 49.5665 0.0000 -16.5490 0.0000
# 2 8.9936 12.4727 21.4924 0.0000 -3.4357 0.0000
# 3 49.5665 21.4924 120.6239 0.0000 -19.0864 0.0000
# 4 0.0000 0.0000 0.0000 -0.1176 0.0000 1.5302
# 5 -16.5490 -3.4357 -19.0864 0.0000 17.2606 0.0000
# 6 0.0000 0.0000 0.0000 1.5302 0.0000 12.9480
#
#
#
# Elastic Compliance Matrix: (Units=1/GPa)
#
#
# Indices 1 2 3 4 5 6 
#
# 1 0.009366 -0.000152 -0.002916 0.000000 0.005726 0.000000
# 2 -0.000152 0.115700 -0.020522 0.000000 0.000191 0.000000
# 3 -0.002916 -0.020522 0.014613 0.000000 0.009278 0.000000
# 4 0.000000 0.000000 0.000000 -3.350620 0.000000 0.395974
# 5 0.005726 0.000191 0.009278 0.000000 0.073723 0.000000
# 6 0.000000 0.000000 0.000000 0.395974 0.000000 0.030436
#
#
# Mechanical properties :
#
#
# Convention : Reuss Voigt Hill
#
# Bulk Modulus (GPa) = 10.81091 47.29528 29.05309
# Shear Modulus (GPa) = -1.65084 18.38487 8.36702
#
# Velocity S-wave (km/s) = -0.91377 3.04941 2.05717
# Velocity P-wave (km/s) = 2.08680 6.02661 4.50970
#
# Compressibility (1/GPa) = 0.09249918
#
# Stress axis : x y z
#
# Youngs Moduli (GPa) = 106.76349 8.64301 68.43193
#
# Poissons Ratio (x) = 0.00132 0.19953
# Poissons Ratio (y) = 0.01627 1.40438
# Poissons Ratio (z) = 0.31129 0.17737
#
# Static dielectric constant tensor:
#      x y z
#    x 3.736310 0.000000 -0.102480 
#    y 0.000000 3.176940 0.000000 
#    z -0.102480 0.000000 3.867270 
# 
# 
# High freq. dielectric constant tensor:
#      x y z
#    x 1.772100 0.000000 -0.003820 
#    y 0.000000 1.726390 0.000000 
#    z -0.003820 0.000000 1.789350 
# 
# From -- ./inp_files/61820.got.cif
#   From: 2010.06.25/outbox.cif.g09.slc.cpg/sg10_31_cif.got.tgz:61820.got - 2010.06.27 22:07:45.
