data_PCOD8066449
_publ_section_title
;
Structure prediction by ZEFSAII (Michael W. Deem and Ramdas Pophale) SiO2 
 PCOD8066449
Probable space group: P 2/M
;
_chemical_formula_sum "Si O2"
_cell_formula_units_Z 26
_cell_length_a 30.751313
_cell_length_b 7.432123
_cell_length_c 30.751312
_cell_angle_alpha 90.000000
_cell_angle_beta 170.274244
_cell_angle_gamma 90.000000
_cell_volume 1187.280447
_symmetry_space_group_name_H-M "P 2/M"
_symmetry_group_IT_number 10
_symmetry_cell_setting 'monoclinic'
loop_
_space_group_symop_operation_xyz
x,y,z
-x,y,-z
-x,-y,-z
x,-y,z
loop_
_atom_site_type_symbol
_atom_site_label
_atom_site_fract_x
_atom_site_fract_y
_atom_site_fract_z
Si Si1 0.172370 0.712156 0.327622
Si Si2 0.024623 0.714396 0.475373
Si Si3 0.876510 0.714572 0.623496
Si Si4 0.735349 0.000000 0.764650
Si Si5 0.401356 0.285792 0.098649
Si Si6 0.698575 0.713631 0.801412
Si Si7 0.549415 0.714389 0.950583
O O1 0.170572 0.500000 0.329440
O O2 0.148018 0.793653 0.351976
O O3 0.436986 0.777305 0.566848
O O4 0.933134 0.777299 0.062998
O O5 0.024526 0.500000 0.475461
O O6 0.000000 0.788978 0.500000
O O7 0.287016 0.788583 0.712973
O O8 0.787023 0.788585 0.212981
O O9 0.876193 0.500000 0.623815
O O10 0.639015 0.788300 0.361106
O O11 0.138899 0.788300 0.860991
O O12 0.500000 0.000000 0.500000
O O13 0.721326 0.817433 0.778676
O O14 0.000000 0.000000 0.000000
O O15 0.401514 0.500000 0.098489
O O16 0.425966 0.210780 0.074038
O O17 0.703276 0.500000 0.796705
O O18 0.549506 0.500000 0.950497
#
# Coordination Sequence:
#
# PCOD8066449 Si02
#       7
#     4   4   4   2   4   4   4
#     4   9  17  31  52  76 102 134 170 208 252 306
#     4   9  15  21  27  33  43  67 110 163 217 279
#     4   9  15  23  37  58  82 108 140 176 220 284
#     4  12  26  42  62  88 116 148 186 226 270 320
#     4   9  15  21  30  47  72  99 127 167 223 290
#     4  10  21  38  59  83 112 145 181 222 267 315
#     4   9  15  21  27  36  53  78 110 155 217 283
#
# _framework density 21.898786000000001
#
# number of rings (size 3 to 8) (size 9 to 14) (size 15 to 20)
#    0.000    2.615    0.000    3.231    0.000    9.846 
#    0.000    0.000    0.000    0.000    0.000    0.000 
#    0.000    0.000    0.000    0.000    0.000    0.000 
#
# Total GULP energy -322407.039740 kJ/mol
# GULP energy per Si atom -12400.270759 kJ/mol
# Density = 2.184894 g / cm^3
# Si number density = 21.898786 Si / 1000 Ang^3
#
#
#
# Elastic Constant Matrix: (Units=GPa)
#
#
# Indices 1 2 3 4 5 6 
#
# 1 236.0328 25.4860 135.7350 0.0000 0.7445 0.0000
# 2 25.4860 43.4823 13.8721 0.0000 -1.0247 0.0000
# 3 135.7350 13.8721 255.7520 0.0000 0.9991 0.0000
# 4 0.0000 0.0000 0.0000 -4.1135 0.0000 1.2133
# 5 0.7445 -1.0247 0.9991 0.0000 54.3832 0.0000
# 6 0.0000 0.0000 0.0000 1.2133 0.0000 -17.8773
#
#
#
# Elastic Compliance Matrix: (Units=1/GPa)
#
#
# Indices 1 2 3 4 5 6 
#
# 1 0.006398 -0.002716 -0.003248 0.000000 -0.000079 0.000000
# 2 -0.002716 0.024567 0.000107 0.000000 0.000498 0.000000
# 3 -0.003248 0.000107 0.005628 0.000000 -0.000057 0.000000
# 4 0.000000 0.000000 0.000000 -0.248069 0.000000 -0.016836
# 5 -0.000079 0.000498 -0.000057 0.000000 0.018400 0.000000
# 6 0.000000 0.000000 0.000000 -0.016836 0.000000 -0.057080
#
#
# Mechanical properties :
#
#
# Convention : Reuss Voigt Hill
#
# Bulk Modulus (GPa) = 40.19324 98.38370 69.28847
# Shear Modulus (GPa) = -21.72509 30.49009 4.38250
#
# Velocity S-wave (km/s) = -3.15313 3.73543 1.41619
# Velocity P-wave (km/s) = 2.26664 7.97676 5.86371
#
# Compressibility (1/GPa) = 0.02487981
#
# Stress axis : x y z
#
# Youngs Moduli (GPa) = 156.29895 40.70456 177.67444
#
# Poissons Ratio (x) = 0.11054 0.57709
# Poissons Ratio (y) = 0.42446 -0.01898
# Poissons Ratio (z) = 0.50766 -0.00435
#
# Static dielectric constant tensor:
#      x y z
#    x 4.125670 0.000000 0.013760 
#    y 0.000000 3.236640 0.000000 
#    z 0.013760 0.000000 4.281650 
# 
# 
# High freq. dielectric constant tensor:
#      x y z
#    x 1.869650 0.000000 0.000730 
#    y 0.000000 1.821640 0.000000 
#    z 0.000730 0.000000 1.877920 
# 
# From -- ./inp_files/91561.got.cif
#   From: 2010.06.25/outbox.cif.g09.slc.cpg/sg10_46_cif.got.tgz:91561.got - 2010.06.27 22:07:45.
