data_PCOD8066979
_publ_section_title
;
Structure prediction by ZEFSAII (Michael W. Deem and Ramdas Pophale) SiO2 
 PCOD8066979
Probable space group: P 2/M
;
_chemical_formula_sum "Si O2"
_cell_formula_units_Z 24
_cell_length_a 8.097177
_cell_length_b 14.675077
_cell_length_c 14.037318
_cell_angle_alpha 90.000000
_cell_angle_beta 136.684263
_cell_angle_gamma 90.000000
_cell_volume 1144.283958
_symmetry_space_group_name_H-M "P 2/M"
_symmetry_group_IT_number 10
_symmetry_cell_setting 'monoclinic'
loop_
_space_group_symop_operation_xyz
x,y,z
-x,y,-z
-x,-y,-z
x,-y,z
loop_
_atom_site_type_symbol
_atom_site_label
_atom_site_fract_x
_atom_site_fract_y
_atom_site_fract_z
Si Si1 0.500000 0.256135 0.000000
Si Si2 0.292595 0.399059 0.792822
Si Si3 0.249083 0.900070 0.232052
Si Si4 0.000000 0.676509 0.500000
Si Si5 0.254351 0.396451 0.142626
Si Si6 0.521046 0.728570 0.400197
Si Si7 0.281970 0.101552 0.022253
O O1 0.279849 0.321441 0.869949
O O2 0.443308 0.187499 0.062092
O O3 0.244738 0.500000 0.815835
O O4 0.565418 0.391265 0.870351
O O5 0.110427 0.386191 0.628944
O O6 0.418077 0.830230 0.357603
O O7 0.968340 0.888554 0.140529
O O8 0.340908 0.000000 0.300673
O O9 0.258438 0.886997 0.123800
O O10 0.211171 0.733496 0.535103
O O11 0.225332 0.500000 0.166972
O O12 0.347438 0.337805 0.269514
O O13 0.000000 0.356369 0.000000
O O14 0.500000 0.693044 0.500000
O O15 0.390197 0.000000 0.045059
#
# Coordination Sequence:
#
# PCOD8066979 Si02
#       7
#     2   4   4   2   4   4   4
#     4  12  22  32  60  98 120 146 202 258 300 352
#     4  10  22  38  58  85 123 166 198 243 307 359
#     4   9  20  40  61  84 118 160 198 243 310 369
#     4  10  23  44  59  84 122 172 209 242 295 370
#     4   9  20  39  61  87 120 160 205 253 302 358
#     4  11  24  38  65  91 123 160 209 252 308 360
#     4   9  19  36  61  88 119 155 195 248 306 365
#
# _framework density 20.973814999999998
#
# number of rings (size 3 to 8) (size 9 to 14) (size 15 to 20)
#    0.000    2.167    0.000    3.750    7.000    1.333 
#    0.000    2.083    0.000    0.000    0.000    0.000 
#    0.000    0.000    0.000    0.000    0.000    0.000 
#
# Total GULP energy -297410.902322 kJ/mol
# GULP energy per Si atom -12392.120930 kJ/mol
# Density = 2.092608 g / cm^3
# Si number density = 20.973815 Si / 1000 Ang^3
#
#
#
# Elastic Constant Matrix: (Units=GPa)
#
#
# Indices 1 2 3 4 5 6 
#
# 1 47.8329 13.6391 22.8186 0.0000 -0.2550 0.0000
# 2 13.6391 138.4837 44.2452 0.0000 -6.9303 0.0000
# 3 22.8186 44.2452 106.6680 0.0000 2.7419 0.0000
# 4 0.0000 0.0000 0.0000 21.6514 0.0000 3.7693
# 5 -0.2550 -6.9303 2.7419 0.0000 27.9291 0.0000
# 6 0.0000 0.0000 0.0000 3.7693 0.0000 16.6307
#
#
#
# Elastic Compliance Matrix: (Units=1/GPa)
#
#
# Indices 1 2 3 4 5 6 
#
# 1 0.023367 -0.000780 -0.004688 0.000000 0.000480 0.000000
# 2 -0.000780 0.008515 -0.003428 0.000000 0.002442 0.000000
# 3 -0.004688 -0.003428 0.011853 0.000000 -0.002057 0.000000
# 4 0.000000 0.000000 0.000000 0.048084 0.000000 -0.010898
# 5 0.000480 0.002442 -0.002057 0.000000 0.036617 0.000000
# 6 0.000000 0.000000 0.000000 -0.010898 0.000000 0.062600
#
#
# Mechanical properties :
#
#
# Convention : Reuss Voigt Hill
#
# Bulk Modulus (GPa) = 38.54432 50.48781 44.51607
# Shear Modulus (GPa) = 22.99115 27.39435 25.19275
#
# Velocity S-wave (km/s) = 3.31446 3.61795 3.46952
# Velocity P-wave (km/s) = 5.75020 6.44801 6.10908
#
# Compressibility (1/GPa) = 0.02594416
#
# Stress axis : x y z
#
# Youngs Moduli (GPa) = 42.79496 117.43496 84.37035
#
# Poissons Ratio (x) = 0.09156 0.39550
# Poissons Ratio (y) = 0.03337 0.28923
# Poissons Ratio (z) = 0.20061 0.40258
#
# Static dielectric constant tensor:
#      x y z
#    x 4.554250 0.000000 0.931770 
#    y 0.000000 4.017160 0.000000 
#    z 0.931770 0.000000 4.462430 
# 
# 
# High freq. dielectric constant tensor:
#      x y z
#    x 1.803350 0.000000 -0.004030 
#    y 0.000000 1.833140 0.000000 
#    z -0.004030 0.000000 1.814890 
# 
# From -- ./inp_files/29702.got.cif
#   From: 2010.06.25/outbox.cif.g09.slc.cpg/sg10_15_cif.got.tgz:29702.got - 2010.06.27 22:07:45.
