data_PCOD8066986
_publ_section_title
;
Structure prediction by ZEFSAII (Michael W. Deem and Ramdas Pophale) SiO2 
 PCOD8066986
Probable space group: P 2/M
;
_chemical_formula_sum "Si O2"
_cell_formula_units_Z 28
_cell_length_a 15.318563
_cell_length_b 17.972340
_cell_length_c 5.373225
_cell_angle_alpha 90.000000
_cell_angle_beta 56.517913
_cell_angle_gamma 90.000000
_cell_volume 1233.826543
_symmetry_space_group_name_H-M "P 2/M"
_symmetry_group_IT_number 10
_symmetry_cell_setting 'monoclinic'
loop_
_space_group_symop_operation_xyz
x,y,z
-x,y,-z
-x,-y,-z
x,-y,z
loop_
_atom_site_type_symbol
_atom_site_label
_atom_site_fract_x
_atom_site_fract_y
_atom_site_fract_z
Si Si1 0.603801 0.081506 0.982474
Si Si2 0.809198 0.083756 0.327026
Si Si3 0.715938 0.808386 0.101558
Si Si4 0.060846 0.369579 0.666734
Si Si5 0.904696 0.206697 0.473429
Si Si6 0.378312 0.660052 0.626621
Si Si7 0.296087 0.414706 0.257065
O O1 0.702935 0.081466 0.647947
O O2 0.595124 0.000000 0.126631
O O3 0.500000 0.100422 0.000000
O O4 0.614244 0.148404 0.160030
O O5 0.786850 0.127915 0.111751
O O6 0.898701 0.132141 0.318990
O O7 0.849875 0.000000 0.208672
O O8 0.672663 0.741732 0.339370
O O9 0.792679 0.774382 0.774088
O O10 0.072931 0.282081 0.712946
O O11 0.171880 0.409924 0.485575
O O12 0.000000 0.381967 0.500000
O O13 0.000000 0.404440 0.000000
O O14 0.000000 0.188792 0.500000
O O15 0.500000 0.665922 0.500000
O O16 0.357943 0.617625 0.399869
O O17 0.324951 0.623490 0.950966
O O18 0.330452 0.500000 0.183880
#
# Coordination Sequence:
#
# PCOD8066986 Si02
#       7
#     4   4   4   4   4   4   4
#     4   9  20  37  58  88 128 174 223 282 350 405
#     4  10  22  38  59  90 131 174 229 287 344 404
#     4  11  23  40  64  94 131 173 232 285 342 400
#     4  11  24  43  74 107 141 181 230 286 351 418
#     4  10  23  40  65  92 127 179 223 283 342 411
#     4  12  28  46  73 106 142 189 240 288 344 418
#     4  12  27  50  75 108 147 183 228 286 349 426
#
# _framework density 22.693629000000001
#
# number of rings (size 3 to 8) (size 9 to 14) (size 15 to 20)
#    0.000    1.286    1.429    3.000   10.000    3.143 
#    0.000    2.857    0.000    0.000    0.000    0.000 
#    0.000    0.000    0.000    0.000    0.000    0.000 
#
# Total GULP energy -347065.436436 kJ/mol
# GULP energy per Si atom -12395.194158 kJ/mol
# Density = 2.264198 g / cm^3
# Si number density = 22.693629 Si / 1000 Ang^3
#
#
#
# Elastic Constant Matrix: (Units=GPa)
#
#
# Indices 1 2 3 4 5 6 
#
# 1 104.7986 29.9300 7.2647 0.0000 -0.9943 0.0000
# 2 29.9300 106.8756 14.7362 0.0000 9.9730 0.0000
# 3 7.2647 14.7362 65.4715 0.0000 14.5319 0.0000
# 4 0.0000 0.0000 0.0000 19.3848 0.0000 3.5711
# 5 -0.9943 9.9730 14.5319 0.0000 32.8336 0.0000
# 6 0.0000 0.0000 0.0000 3.5711 0.0000 40.0372
#
#
#
# Elastic Compliance Matrix: (Units=1/GPa)
#
#
# Indices 1 2 3 4 5 6 
#
# 1 0.010462 -0.002961 -0.000848 0.000000 0.001591 0.000000
# 2 -0.002961 0.010638 -0.001473 0.000000 -0.002669 0.000000
# 3 -0.000848 -0.001473 0.017306 0.000000 -0.007238 0.000000
# 4 0.000000 0.000000 0.000000 0.052449 0.000000 -0.004678
# 5 0.001591 -0.002669 -0.007238 0.000000 0.034519 0.000000
# 6 0.000000 0.000000 0.000000 -0.004678 0.000000 0.025394
#
#
# Mechanical properties :
#
#
# Convention : Reuss Voigt Hill
#
# Bulk Modulus (GPa) = 35.91812 42.33418 39.12615
# Shear Modulus (GPa) = 29.30620 33.46544 31.38582
#
# Velocity S-wave (km/s) = 3.59748 3.84430 3.72294
# Velocity P-wave (km/s) = 5.75479 6.19677 5.97987
#
# Compressibility (1/GPa) = 0.02784110
#
# Stress axis : x y z
#
# Youngs Moduli (GPa) = 95.58655 94.00087 57.78365
#
# Poissons Ratio (x) = 0.27837 0.04897
# Poissons Ratio (y) = 0.28307 0.08514
# Poissons Ratio (z) = 0.08101 0.13851
#
# Static dielectric constant tensor:
#      x y z
#    x 4.172250 0.000000 0.016930 
#    y 0.000000 4.373140 0.000000 
#    z 0.016930 0.000000 4.019210 
# 
# 
# High freq. dielectric constant tensor:
#      x y z
#    x 1.905690 0.000000 -0.005470 
#    y 0.000000 1.904220 0.000000 
#    z -0.005470 0.000000 1.889040 
# 
# From -- ./inp_files/9750.got.cif
#   From: 2010.06.25/outbox.cif.g09.slc.cpg/sg10_5_cif.got.tgz:9750.got - 2010.06.27 22:07:45.
