data_PCOD8066999
_publ_section_title
;
Structure prediction by ZEFSAII (Michael W. Deem and Ramdas Pophale) SiO2 
 PCOD8066999
Probable space group: P 2/M
;
_chemical_formula_sum "Si O2"
_cell_formula_units_Z 20
_cell_length_a 22.099165
_cell_length_b 8.653039
_cell_length_c 13.822787
_cell_angle_alpha 90.000000
_cell_angle_beta 158.618508
_cell_angle_gamma 90.000000
_cell_volume 963.669757
_symmetry_space_group_name_H-M "P 2/M"
_symmetry_group_IT_number 10
_symmetry_cell_setting 'monoclinic'
loop_
_space_group_symop_operation_xyz
x,y,z
-x,y,-z
-x,-y,-z
x,-y,z
loop_
_atom_site_type_symbol
_atom_site_label
_atom_site_fract_x
_atom_site_fract_y
_atom_site_fract_z
Si Si1 0.166366 0.818613 0.803121
Si Si2 0.727936 0.318134 0.390653
Si Si3 0.311724 0.317279 0.212278
Si Si4 0.402167 0.318113 0.004159
Si Si5 0.954384 0.316675 0.036033
O O1 0.329736 0.775629 0.985815
O O2 0.000000 0.753895 0.500000
O O3 0.149593 0.000000 0.790477
O O4 0.198093 0.748368 0.956532
O O5 0.725969 0.500000 0.372690
O O6 0.682310 0.249453 0.218572
O O7 0.597494 0.280229 0.282616
O O8 0.906222 0.251618 0.683885
O O9 0.500000 0.250894 0.500000
O O10 0.317177 0.500000 0.205498
O O11 0.223775 0.271765 0.183713
O O12 0.370745 0.500000 0.974713
O O13 0.969896 0.500000 0.050994
O O14 0.000000 0.242608 0.000000
#
# Coordination Sequence:
#
# PCOD8066999 Si02
#       5
#     4   4   4   4   4
#     4  11  24  39  56  80 114 157 197 233 284 342
#     4   8  15  28  49  80 112 141 176 227 289 336
#     4  10  22  38  60  91 118 147 191 239 287 342
#     4   9  17  31  55  82 107 139 185 238 284 334
#     4   9  17  29  50  80 114 143 173 223 284 337
#
# _framework density 20.754000000000001
#
# number of rings (size 3 to 8) (size 9 to 14) (size 15 to 20)
#    0.000    2.600    0.000    3.000    2.800    3.600 
#    0.000    2.000    0.000    1.800    0.000    0.000 
#    0.000    0.000    0.000    0.000    0.000    0.000 
#
# Total GULP energy -247803.753386 kJ/mol
# GULP energy per Si atom -12390.187669 kJ/mol
# Density = 2.070676 g / cm^3
# Si number density = 20.754000 Si / 1000 Ang^3
#
#
#
# Elastic Constant Matrix: (Units=GPa)
#
#
# Indices 1 2 3 4 5 6 
#
# 1 137.8376 18.6523 47.5675 0.0000 9.7860 0.0000
# 2 18.6523 25.8707 16.7599 0.0000 0.9920 0.0000
# 3 47.5675 16.7599 122.0927 0.0000 9.9768 0.0000
# 4 0.0000 0.0000 0.0000 15.4483 0.0000 -5.3316
# 5 9.7860 0.9920 9.9768 0.0000 31.8765 0.0000
# 6 0.0000 0.0000 0.0000 -5.3316 0.0000 7.4517
#
#
#
# Elastic Compliance Matrix: (Units=1/GPa)
#
#
# Indices 1 2 3 4 5 6 
#
# 1 0.008939 -0.004625 -0.002704 0.000000 -0.001754 0.000000
# 2 -0.004625 0.044829 -0.004468 0.000000 0.001423 0.000000
# 3 -0.002704 -0.004468 0.010035 0.000000 -0.002171 0.000000
# 4 0.000000 0.000000 0.000000 0.085958 0.000000 0.061501
# 5 -0.001754 0.001423 -0.002171 0.000000 0.032545 0.000000
# 6 0.000000 0.000000 0.000000 0.061501 0.000000 0.178200
#
#
# Mechanical properties :
#
#
# Convention : Reuss Voigt Hill
#
# Bulk Modulus (GPa) = 24.87145 50.19562 37.53353
# Shear Modulus (GPa) = 12.57858 24.47673 18.52766
#
# Velocity S-wave (km/s) = 2.46454 3.43793 2.99110
# Velocity P-wave (km/s) = 4.48426 6.32437 5.48207
#
# Compressibility (1/GPa) = 0.04020675
#
# Stress axis : x y z
#
# Youngs Moduli (GPa) = 111.87478 22.30723 99.65288
#
# Poissons Ratio (x) = 0.10318 0.26948
# Poissons Ratio (y) = 0.51747 0.44524
# Poissons Ratio (z) = 0.30253 0.09967
#
# Static dielectric constant tensor:
#      x y z
#    x 3.946810 0.000000 0.029060 
#    y 0.000000 3.114300 0.000000 
#    z 0.029060 0.000000 4.149100 
# 
# 
# High freq. dielectric constant tensor:
#      x y z
#    x 1.826480 0.000000 0.007930 
#    y 0.000000 1.745690 0.000000 
#    z 0.007930 0.000000 1.819470 
# 
# From -- ./inp_files/71351.got.cif
#   From: 2010.06.25/outbox.cif.g09.slc.cpg/sg10_36_cif.got.tgz:71351.got - 2010.06.27 22:07:45.
