data_PCOD8066222
_publ_section_title
;
Structure prediction by ZEFSAII (Michael W. Deem and Ramdas Pophale) SiO2 
 PCOD8066222
Probable space group: P 2/M
;
_chemical_formula_sum "Si O2"
_cell_formula_units_Z 32
_cell_length_a 15.265234
_cell_length_b 14.506054
_cell_length_c 22.076241
_cell_angle_alpha 90.000000
_cell_angle_beta 160.569453
_cell_angle_gamma 90.000000
_cell_volume 1626.236240
_symmetry_space_group_name_H-M "P 2/M"
_symmetry_group_IT_number 10
_symmetry_cell_setting 'monoclinic'
loop_
_space_group_symop_operation_xyz
x,y,z
-x,y,-z
-x,-y,-z
x,-y,z
loop_
_atom_site_type_symbol
_atom_site_label
_atom_site_fract_x
_atom_site_fract_y
_atom_site_fract_z
Si Si1 0.745521 0.104540 0.456592
Si Si2 0.097175 0.391518 0.382592
Si Si3 0.238829 0.608469 0.953436
Si Si4 0.579155 0.735763 0.705590
Si Si5 0.084894 0.264244 0.958465
Si Si6 0.336533 0.890321 0.836540
Si Si7 0.835794 0.609587 0.335812
Si Si8 0.410275 0.895453 0.121336
O O1 0.566072 0.166065 0.383430
O O2 0.646090 0.107995 0.323056
O O3 0.039176 0.146438 0.648113
O O4 0.736752 0.000000 0.476112
O O5 0.148526 0.500000 0.419160
O O6 0.377631 0.343971 0.555616
O O7 0.901977 0.365565 0.200983
O O8 0.967922 0.353924 0.360336
O O9 0.231006 0.500000 0.960406
O O10 0.089499 0.656049 0.911537
O O11 0.537548 0.646089 0.145161
O O12 0.788677 0.746006 0.788678
O O13 0.717799 0.707656 0.858896
O O14 0.164544 0.166064 0.981893
O O15 0.474906 0.853577 0.865969
O O16 0.329283 0.000000 0.829263
O O17 0.500000 0.852729 0.000000
O O18 0.835123 0.500000 0.335107
O O19 0.000000 0.648337 0.500000
O O20 0.305881 0.000000 0.045231
#
# Coordination Sequence:
#
# PCOD8066222 Si02
#       8
#     4   4   4   4   4   4   4   4
#     4   9  18  34  56  80 107 139 174 216 267 319
#     4  10  21  37  57  81 110 143 178 219 268 320
#     4  10  21  37  57  81 110 143 178 219 268 320
#     4  10  22  38  55  78 107 141 184 228 268 315
#     4  10  22  38  55  78 107 141 184 228 268 315
#     4   9  17  30  51  80 110 138 172 214 261 317
#     4   9  17  32  57  86 112 138 172 216 267 323
#     4   9  18  34  56  80 107 139 174 216 267 319
#
# _framework density 19.677339
#
# number of rings (size 3 to 8) (size 9 to 14) (size 15 to 20)
#    0.000    2.500    0.000    1.500    0.000    8.000 
#    0.000    6.250    0.000    0.000    0.000    5.250 
#    0.000    0.000    0.000    0.000    0.000    0.000 
#
# Total GULP energy -396907.326403 kJ/mol
# GULP energy per Si atom -12403.353950 kJ/mol
# Density = 1.963255 g / cm^3
# Si number density = 19.677339 Si / 1000 Ang^3
#
#
#
# Elastic Constant Matrix: (Units=GPa)
#
#
# Indices 1 2 3 4 5 6 
#
# 1 156.5800 55.1380 100.8557 0.0000 16.4205 0.0000
# 2 55.1380 60.6197 53.6224 0.0000 1.8931 0.0000
# 3 100.8557 53.6224 136.8804 0.0000 8.4836 0.0000
# 4 0.0000 0.0000 0.0000 24.7960 0.0000 2.6150
# 5 16.4205 1.8931 8.4836 0.0000 31.4068 0.0000
# 6 0.0000 0.0000 0.0000 2.6150 0.0000 26.8702
#
#
#
# Elastic Compliance Matrix: (Units=1/GPa)
#
#
# Indices 1 2 3 4 5 6 
#
# 1 0.013819 -0.005625 -0.007680 0.000000 -0.004811 0.000000
# 2 -0.005625 0.027576 -0.006852 0.000000 0.003130 0.000000
# 3 -0.007680 -0.006852 0.015636 0.000000 0.000205 0.000000
# 4 0.000000 0.000000 0.000000 0.040747 0.000000 -0.003965
# 5 -0.004811 0.003130 0.000205 0.000000 0.034112 0.000000
# 6 0.000000 0.000000 0.000000 -0.003965 0.000000 0.037602
#
#
# Mechanical properties :
#
#
# Convention : Reuss Voigt Hill
#
# Bulk Modulus (GPa) = 59.82202 85.92359 72.87281
# Shear Modulus (GPa) = 23.21489 26.24553 24.73021
#
# Velocity S-wave (km/s) = 3.43852 3.65608 3.54896
# Velocity P-wave (km/s) = 6.79941 7.84752 7.34219
#
# Compressibility (1/GPa) = 0.01671625
#
# Stress axis : x y z
#
# Youngs Moduli (GPa) = 72.36507 36.26293 63.95521
#
# Poissons Ratio (x) = 0.20400 0.49118
# Poissons Ratio (y) = 0.40709 0.43822
# Poissons Ratio (z) = 0.55576 0.24847
#
# Static dielectric constant tensor:
#      x y z
#    x 3.593870 0.000000 -0.037710 
#    y 0.000000 3.458670 0.000000 
#    z -0.037710 0.000000 3.623240 
# 
# 
# High freq. dielectric constant tensor:
#      x y z
#    x 1.763720 0.000000 -0.002300 
#    y 0.000000 1.763600 0.000000 
#    z -0.002300 0.000000 1.765490 
# 
# From -- ./inp_files/61819.got.cif
#   From: 2010.06.25/outbox.cif.g09.slc.cpg/sg10_31_cif.got.tgz:61819.got - 2010.06.27 22:07:45.
