data_PCOD8066819
_publ_section_title
;
Structure prediction by ZEFSAII (Michael W. Deem and Ramdas Pophale) SiO2 
 PCOD8066819
Probable space group: P 2/M
;
_chemical_formula_sum "Si O2"
_cell_formula_units_Z 32
_cell_length_a 11.963890
_cell_length_b 8.580895
_cell_length_c 15.375088
_cell_angle_alpha 90.000000
_cell_angle_beta 90.018375
_cell_angle_gamma 90.000000
_cell_volume 1578.420043
_symmetry_space_group_name_H-M "P 2/M"
_symmetry_group_IT_number 10
_symmetry_cell_setting 'monoclinic'
loop_
_space_group_symop_operation_xyz
x,y,z
-x,y,-z
-x,-y,-z
x,-y,z
loop_
_atom_site_type_symbol
_atom_site_label
_atom_site_fract_x
_atom_site_fract_y
_atom_site_fract_z
Si Si1 0.767910 0.181190 0.346912
Si Si2 0.629482 0.682663 0.501588
Si Si3 0.728799 0.181662 0.155223
Si Si4 0.263037 0.321043 0.168654
Si Si5 0.130190 0.815780 0.008503
Si Si6 0.217964 0.180553 0.349419
Si Si7 0.010670 0.327596 0.601784
Si Si8 0.508375 0.678114 0.096959
O O1 0.684270 0.274430 0.409446
O O2 0.761374 0.250580 0.249303
O O3 0.895268 0.202552 0.375528
O O4 0.735398 0.000000 0.351351
O O5 0.500000 0.732568 0.500000
O O6 0.643480 0.500000 0.517781
O O7 0.688970 0.769774 0.580993
O O8 0.598283 0.216093 0.145130
O O9 0.751954 0.000000 0.156687
O O10 0.804246 0.251191 0.076521
O O11 0.235553 0.500000 0.192061
O O12 0.178128 0.266273 0.094112
O O13 0.258090 0.210895 0.252046
O O14 0.389543 0.301990 0.139867
O O15 0.147771 0.000000 0.018469
O O16 0.000000 0.772501 0.000000
O O17 0.105741 0.277954 0.357954
O O18 0.192116 0.000000 0.363845
O O19 0.042124 0.500000 0.637235
O O20 0.000000 0.333291 0.500000
O O21 0.550589 0.500000 0.098224
O O22 0.500000 0.742555 0.000000
#
# Coordination Sequence:
#
# PCOD8066819 Si02
#       8
#     4   4   4   4   4   4   4   4
#     4  11  24  41  64  96 130 167 212 259 313 375
#     4  11  25  45  66  91 127 168 211 262 317 374
#     4  10  23  40  61  93 127 162 208 258 308 369
#     4  11  24  42  64  93 127 164 211 262 314 376
#     4  10  22  41  63  89 126 169 209 256 314 373
#     4  12  26  43  67  95 127 166 210 261 317 378
#     4  11  23  42  68  95 126 164 210 261 315 374
#     4  10  21  40  64  90 122 162 208 259 311 370
#
# _framework density 20.273437000000001
#
# number of rings (size 3 to 8) (size 9 to 14) (size 15 to 20)
#    0.000    1.250    2.500    2.625    3.500    4.000 
#    0.000    0.000    0.000    0.000    0.000    0.000 
#    0.000    0.000    0.000    0.000    0.000    0.000 
#
# Total GULP energy -396891.458372 kJ/mol
# GULP energy per Si atom -12402.858074 kJ/mol
# Density = 2.022729 g / cm^3
# Si number density = 20.273437 Si / 1000 Ang^3
#
#
#
# Elastic Constant Matrix: (Units=GPa)
#
#
# Indices 1 2 3 4 5 6 
#
# 1 119.6838 18.5120 43.8964 0.0000 2.6006 0.0000
# 2 18.5120 46.1279 30.7255 0.0000 2.3123 0.0000
# 3 43.8964 30.7255 130.6866 0.0000 -2.3050 0.0000
# 4 0.0000 0.0000 0.0000 26.7199 0.0000 -1.3910
# 5 2.6006 2.3123 -2.3050 0.0000 25.9960 0.0000
# 6 0.0000 0.0000 0.0000 -1.3910 0.0000 8.5795
#
#
#
# Elastic Compliance Matrix: (Units=1/GPa)
#
#
# Indices 1 2 3 4 5 6 
#
# 1 0.009717 -0.001969 -0.002819 0.000000 -0.001047 0.000000
# 2 -0.001969 0.026312 -0.005571 0.000000 -0.002637 0.000000
# 3 -0.002819 -0.005571 0.009938 0.000000 0.001659 0.000000
# 4 0.000000 0.000000 0.000000 0.037744 0.000000 0.006119
# 5 -0.001047 -0.002637 0.001659 0.000000 0.038954 0.000000
# 6 0.000000 0.000000 0.000000 0.006119 0.000000 0.117549
#
#
# Mechanical properties :
#
#
# Convention : Reuss Voigt Hill
#
# Bulk Modulus (GPa) = 39.60778 53.64067 46.62422
# Shear Modulus (GPa) = 18.56330 25.81671 22.19001
#
# Velocity S-wave (km/s) = 3.02925 3.57238 3.31197
# Velocity P-wave (km/s) = 5.64042 6.59787 6.13784
#
# Compressibility (1/GPa) = 0.02524757
#
# Stress axis : x y z
#
# Youngs Moduli (GPa) = 102.91574 38.00492 100.62394
#
# Poissons Ratio (x) = 0.07484 0.28368
# Poissons Ratio (y) = 0.20265 0.56061
# Poissons Ratio (z) = 0.29015 0.21174
#
# Static dielectric constant tensor:
#      x y z
#    x 3.707170 0.000000 -0.053900 
#    y 0.000000 3.774710 0.000000 
#    z -0.053900 0.000000 3.905600 
# 
# 
# High freq. dielectric constant tensor:
#      x y z
#    x 1.801860 0.000000 -0.002620 
#    y 0.000000 1.790410 0.000000 
#    z -0.002620 0.000000 1.805580 
# 
# From -- ./inp_files/49929.got.cif
#   From: 2010.06.25/outbox.cif.g09.slc.cpg/sg10_25_cif.got.tgz:49929.got - 2010.06.27 22:07:45.
