data_PCOD8066007
_publ_section_title
;
Structure prediction by ZEFSAII (Michael W. Deem and Ramdas Pophale) SiO2 
 PCOD8066007
Probable space group: P 2/M
;
_chemical_formula_sum "Si O2"
_cell_formula_units_Z 32
_cell_length_a 22.605966
_cell_length_b 8.869207
_cell_length_c 27.790495
_cell_angle_alpha 90.000000
_cell_angle_beta 162.221023
_cell_angle_gamma 90.000000
_cell_volume 1701.360231
_symmetry_space_group_name_H-M "P 2/M"
_symmetry_group_IT_number 10
_symmetry_cell_setting 'monoclinic'
loop_
_space_group_symop_operation_xyz
x,y,z
-x,y,-z
-x,-y,-z
x,-y,z
loop_
_atom_site_type_symbol
_atom_site_label
_atom_site_fract_x
_atom_site_fract_y
_atom_site_fract_z
Si Si1 0.134634 0.177864 0.746804
Si Si2 0.587982 0.180251 0.712390
Si Si3 0.914884 0.820493 0.037892
Si Si4 0.337534 0.179778 0.337456
Si Si5 0.182276 0.174108 0.674437
Si Si6 0.575923 0.322728 0.958485
Si Si7 0.160087 0.823023 0.913150
Si Si8 0.828406 0.176424 0.584105
O O1 0.122851 0.223002 0.682187
O O2 0.939796 0.237263 0.622812
O O3 0.156535 0.000000 0.771791
O O4 0.322294 0.253377 0.915725
O O5 0.617275 0.240049 0.680962
O O6 0.385085 0.248124 0.575445
O O7 0.585818 0.000000 0.710925
O O8 0.761781 0.241579 0.880320
O O9 0.850373 0.763597 0.040474
O O10 0.127747 0.756982 0.190575
O O11 0.920372 0.000000 0.041318
O O12 0.500000 0.242165 0.500000
O O13 0.337340 0.000000 0.338144
O O14 0.352205 0.277809 0.786164
O O15 0.000000 0.204498 0.500000
O O16 0.248025 0.000000 0.724055
O O17 0.598955 0.500000 0.978037
O O18 0.666557 0.261963 0.979232
O O19 0.955292 0.785517 0.729433
O O20 0.205103 0.000000 0.945368
O O21 0.799152 0.000000 0.556113
#
# Coordination Sequence:
#
# PCOD8066007 Si02
#       8
#     4   4   4   4   4   4   4   4
#     4   9  18  34  55  76 100 130 167 208 247 294
#     4   9  15  22  35  59  92 123 153 193 241 292
#     4   9  16  24  37  59  88 124 161 198 241 289
#     4   9  15  22  33  53  87 128 161 191 236 292
#     4  10  21  36  55  79 105 134 168 206 249 297
#     4  11  22  35  53  76 102 133 169 208 252 300
#     4   9  17  31  49  67  91 124 164 205 244 290
#     4   8  14  25  41  61  85 117 153 190 234 282
#
# _framework density 18.808479999999999
#
# number of rings (size 3 to 8) (size 9 to 14) (size 15 to 20)
#    0.000    2.750    0.000    3.375    0.000    7.750 
#    0.000    3.750    0.000    0.000    0.000    0.000 
#    0.000   14.500    0.000    0.000    0.000    1.500 
#
# Total GULP energy -396752.980469 kJ/mol
# GULP energy per Si atom -12398.530640 kJ/mol
# Density = 1.876567 g / cm^3
# Si number density = 18.808480 Si / 1000 Ang^3
#
#
#
# Elastic Constant Matrix: (Units=GPa)
#
#
# Indices 1 2 3 4 5 6 
#
# 1 131.1606 26.9038 82.1549 0.0000 -0.6821 0.0000
# 2 26.9038 30.2193 26.9140 0.0000 5.5834 0.0000
# 3 82.1549 26.9140 139.6453 0.0000 1.9744 0.0000
# 4 0.0000 0.0000 0.0000 2.8891 0.0000 -0.5332
# 5 -0.6821 5.5834 1.9744 0.0000 28.9958 0.0000
# 6 0.0000 0.0000 0.0000 -0.5332 0.0000 3.7266
#
#
#
# Elastic Compliance Matrix: (Units=1/GPa)
#
#
# Indices 1 2 3 4 5 6 
#
# 1 0.012934 -0.006119 -0.006457 0.000000 0.001922 0.000000
# 2 -0.006119 0.044393 -0.004838 0.000000 -0.008363 0.000000
# 3 -0.006457 -0.004838 0.011892 0.000000 -0.000030 0.000000
# 4 0.000000 0.000000 0.000000 0.355521 0.000000 0.050865
# 5 0.001922 -0.008363 -0.000030 0.000000 0.036145 0.000000
# 6 0.000000 0.000000 0.000000 0.050865 0.000000 0.275617
#
#
# Mechanical properties :
#
#
# Convention : Reuss Voigt Hill
#
# Bulk Modulus (GPa) = 29.07684 63.66340 46.37012
# Shear Modulus (GPa) = 6.38737 18.12578 12.25658
#
# Velocity S-wave (km/s) = 1.84482 3.10772 2.55552
# Velocity P-wave (km/s) = 4.47558 6.84098 5.78056
#
# Compressibility (1/GPa) = 0.03439163
#
# Stress axis : x y z
#
# Youngs Moduli (GPa) = 77.31642 22.52606 84.08679
#
# Poissons Ratio (x) = 0.13784 0.54294
# Poissons Ratio (y) = 0.47312 0.40678
# Poissons Ratio (z) = 0.49923 0.10897
#
# Static dielectric constant tensor:
#      x y z
#    x 3.839750 0.000000 0.102520 
#    y 0.000000 2.794840 0.000000 
#    z 0.102520 0.000000 3.607220 
# 
# 
# High freq. dielectric constant tensor:
#      x y z
#    x 1.746070 0.000000 0.006350 
#    y 0.000000 1.660340 0.000000 
#    z 0.006350 0.000000 1.737200 
# 
# From -- ./inp_files/93727.got.cif
#   From: 2010.06.25/outbox.cif.g09.slc.cpg/sg10_47_cif.got.tgz:93727.got - 2010.06.27 22:07:45.
