data_PCOD8066547
_publ_section_title
;
Structure prediction by ZEFSAII (Michael W. Deem and Ramdas Pophale) SiO2 
 PCOD8066547
Probable space group: P 2/M
;
_chemical_formula_sum "Si O2"
_cell_formula_units_Z 20
_cell_length_a 8.899620
_cell_length_b 7.354488
_cell_length_c 19.921201
_cell_angle_alpha 90.000000
_cell_angle_beta 132.075533
_cell_angle_gamma 90.000000
_cell_volume 967.824675
_symmetry_space_group_name_H-M "P 2/M"
_symmetry_group_IT_number 10
_symmetry_cell_setting 'monoclinic'
loop_
_space_group_symop_operation_xyz
x,y,z
-x,y,-z
-x,-y,-z
x,-y,z
loop_
_atom_site_type_symbol
_atom_site_label
_atom_site_fract_x
_atom_site_fract_y
_atom_site_fract_z
Si Si1 0.074341 0.500000 0.597685
Si Si2 0.410160 0.213321 0.722600
Si Si3 0.281286 0.500000 0.402315
Si Si4 0.183149 0.215354 0.901021
Si Si5 0.480087 0.784646 0.098979
Si Si6 0.242360 0.786678 0.277400
O O1 0.202479 0.318109 0.648571
O O2 0.000000 0.500000 0.500000
O O3 0.883255 0.500000 0.588837
O O4 0.512866 0.284077 0.822457
O O5 0.562729 0.259916 0.708486
O O6 0.359392 0.000000 0.710834
O O7 0.500000 0.500000 0.500000
O O8 0.256765 0.681890 0.351429
O O9 0.320553 0.286417 0.880369
O O10 0.954506 0.284078 0.822457
O O11 0.186184 0.000000 0.903130
O O12 0.278790 0.288211 0.000000
O O13 0.476793 0.000000 0.096867
O O14 0.226889 0.000000 0.289166
#
# Coordination Sequence:
#
# PCOD8066547 Si02
#       6
#     2   4   2   4   4   4
#     4  12  26  44  65  86 113 148 190 243 295 347
#     4  10  21  38  61  89 121 155 192 236 287 344
#     4  12  26  44  65  86 113 148 190 243 295 347
#     4   8  14  27  50  81 117 156 195 233 277 333
#     4   8  14  27  50  81 117 156 195 233 277 333
#     4  10  21  38  61  89 121 155 192 236 287 344
#
# _framework density 20.664901
#
# number of rings (size 3 to 8) (size 9 to 14) (size 15 to 20)
#    0.000    2.400    0.000    4.200    0.000    4.000 
#    0.000    5.000    0.000    6.000    0.000    0.000 
#    0.000    0.000    0.000    0.000    0.000    0.000 
#
# Total GULP energy -247931.186655 kJ/mol
# GULP energy per Si atom -12396.559333 kJ/mol
# Density = 2.061787 g / cm^3
# Si number density = 20.664901 Si / 1000 Ang^3
#
#
#
# Elastic Constant Matrix: (Units=GPa)
#
#
# Indices 1 2 3 4 5 6 
#
# 1 156.1541 45.6029 89.9861 0.0000 -2.1192 0.0000
# 2 45.6029 74.5529 50.1724 0.0000 -0.4188 0.0000
# 3 89.9861 50.1724 183.8893 0.0000 -0.4223 0.0000
# 4 0.0000 0.0000 0.0000 48.1109 0.0000 -2.1708
# 5 -2.1192 -0.4188 -0.4223 0.0000 44.4883 0.0000
# 6 0.0000 0.0000 0.0000 -2.1708 0.0000 24.4292
#
#
#
# Elastic Compliance Matrix: (Units=1/GPa)
#
#
# Indices 1 2 3 4 5 6 
#
# 1 0.009545 -0.003299 -0.003770 0.000000 0.000388 0.000000
# 2 -0.003299 0.017571 -0.003180 0.000000 -0.000022 0.000000
# 3 -0.003770 -0.003180 0.008150 0.000000 -0.000132 0.000000
# 4 0.000000 0.000000 0.000000 0.020869 0.000000 0.001854
# 5 0.000388 -0.000022 -0.000132 0.000000 0.022495 0.000000
# 6 0.000000 0.000000 0.000000 0.001854 0.000000 0.041099
#
#
# Mechanical properties :
#
#
# Convention : Reuss Voigt Hill
#
# Bulk Modulus (GPa) = 67.71093 87.34657 77.52875
# Shear Modulus (GPa) = 34.44707 38.66134 36.55421
#
# Velocity S-wave (km/s) = 4.08724 4.33005 4.21040
# Velocity P-wave (km/s) = 7.42370 8.20725 7.82529
#
# Compressibility (1/GPa) = 0.01476866
#
# Stress axis : x y z
#
# Youngs Moduli (GPa) = 104.76505 56.91138 122.69902
#
# Poissons Ratio (x) = 0.18778 0.46255
# Poissons Ratio (y) = 0.34567 0.39013
# Poissons Ratio (z) = 0.39494 0.18095
#
# Static dielectric constant tensor:
#      x y z
#    x 3.800340 0.000000 -0.035700 
#    y 0.000000 3.566620 0.000000 
#    z -0.035700 0.000000 4.189910 
# 
# 
# High freq. dielectric constant tensor:
#      x y z
#    x 1.804450 0.000000 -0.000940 
#    y 0.000000 1.800750 0.000000 
#    z -0.000940 0.000000 1.814760 
# 
# From -- ./inp_files/82127.got.cif
#   From: 2010.06.25/outbox.cif.g09.slc.cpg/sg10_42_cif.got.tgz:82127.got - 2010.06.27 22:07:45.
