data_PCOD8066344
_publ_section_title
;
Structure prediction by ZEFSAII (Michael W. Deem and Ramdas Pophale) SiO2 
 PCOD8066344
Probable space group: P 2/M
;
_chemical_formula_sum "Si O2"
_cell_formula_units_Z 32
_cell_length_a 9.783449
_cell_length_b 13.301769
_cell_length_c 12.290189
_cell_angle_alpha 90.000000
_cell_angle_beta 94.323547
_cell_angle_gamma 90.000000
_cell_volume 1594.858975
_symmetry_space_group_name_H-M "P 2/M"
_symmetry_group_IT_number 10
_symmetry_cell_setting 'monoclinic'
loop_
_space_group_symop_operation_xyz
x,y,z
-x,y,-z
-x,-y,-z
x,-y,z
loop_
_atom_site_type_symbol
_atom_site_label
_atom_site_fract_x
_atom_site_fract_y
_atom_site_fract_z
Si Si1 0.900363 0.106289 0.395314
Si Si2 0.153256 0.267557 0.000853
Si Si3 0.408617 0.892123 0.598617
Si Si4 0.023878 0.318729 0.632413
Si Si5 0.750291 0.384049 0.198492
Si Si6 0.481944 0.268383 0.241445
Si Si7 0.782321 0.382265 0.773767
Si Si8 0.369067 0.887478 0.066071
O O1 0.750809 0.124256 0.438034
O O2 0.000000 0.093225 0.500000
O O3 0.949422 0.202604 0.329694
O O4 0.903746 0.000000 0.327448
O O5 0.187603 0.331477 0.109503
O O6 0.248233 0.169049 0.993441
O O7 0.164071 0.338930 0.896380
O O8 0.000000 0.226463 0.000000
O O9 0.500000 0.903932 0.500000
O O10 0.453022 0.789942 0.655824
O O11 0.424224 0.000000 0.664777
O O12 0.889621 0.356049 0.685841
O O13 0.000000 0.332172 0.500000
O O14 0.159266 0.376557 0.684754
O O15 0.719011 0.500000 0.173832
O O16 0.604148 0.327815 0.189827
O O17 0.367814 0.347091 0.275604
O O18 0.408508 0.181795 0.168734
O O19 0.782389 0.500000 0.793141
O O20 0.321159 0.000000 0.099317
O O21 0.500000 0.898752 0.000000
#
# Coordination Sequence:
#
# PCOD8066344 Si02
#       8
#     4   4   4   4   4   4   4   4
#     4   9  19  37  61  89 120 158 205 256 311 366
#     4  11  23  42  66  95 128 158 209 263 307 363
#     4  10  21  37  60  89 123 164 209 256 307 370
#     4  11  24  42  63  92 127 168 204 255 320 378
#     4  12  24  41  66  93 123 166 215 261 311 366
#     4  11  23  40  62  92 126 161 209 259 308 368
#     4  11  25  42  64  91 124 165 209 263 313 361
#     4  10  21  40  64  91 129 167 197 244 313 382
#
# _framework density 20.064468999999999
#
# number of rings (size 3 to 8) (size 9 to 14) (size 15 to 20)
#    0.000    1.375    3.750    1.500    3.500    1.750 
#    0.000    5.000    0.000    2.250    0.000    0.000 
#    0.000    0.000    0.000    0.000    0.000    0.000 
#
# Total GULP energy -396507.567013 kJ/mol
# GULP energy per Si atom -12390.861469 kJ/mol
# Density = 2.001880 g / cm^3
# Si number density = 20.064469 Si / 1000 Ang^3
#
#
#
# Elastic Constant Matrix: (Units=GPa)
#
#
# Indices 1 2 3 4 5 6 
#
# 1 130.1021 60.7046 27.0957 0.0000 8.0038 0.0000
# 2 60.7046 148.3851 36.2538 0.0000 -1.4882 0.0000
# 3 27.0957 36.2538 69.8232 0.0000 4.3485 0.0000
# 4 0.0000 0.0000 0.0000 26.6990 0.0000 -0.8864
# 5 8.0038 -1.4882 4.3485 0.0000 23.1582 0.0000
# 6 0.0000 0.0000 0.0000 -0.8864 0.0000 26.6952
#
#
#
# Elastic Compliance Matrix: (Units=1/GPa)
#
#
# Indices 1 2 3 4 5 6 
#
# 1 0.009978 -0.003689 -0.001748 0.000000 -0.003357 0.000000
# 2 -0.003689 0.009119 -0.003460 0.000000 0.002510 0.000000
# 3 -0.001748 -0.003460 0.016971 0.000000 -0.002805 0.000000
# 4 0.000000 0.000000 0.000000 0.037496 0.000000 0.001245
# 5 -0.003357 0.002510 -0.002805 0.000000 0.045030 0.000000
# 6 0.000000 0.000000 0.000000 0.001245 0.000000 0.037501
#
#
# Mechanical properties :
#
#
# Convention : Reuss Voigt Hill
#
# Bulk Modulus (GPa) = 54.71707 66.26873 60.49290
# Shear Modulus (GPa) = 27.78115 30.26090 29.02103
#
# Velocity S-wave (km/s) = 3.72505 3.88775 3.80727
# Velocity P-wave (km/s) = 6.76987 7.29742 7.03859
#
# Compressibility (1/GPa) = 0.01827583
#
# Stress axis : x y z
#
# Youngs Moduli (GPa) = 100.22159 109.66505 58.92371
#
# Poissons Ratio (x) = 0.40451 0.10298
# Poissons Ratio (y) = 0.36968 0.20385
# Poissons Ratio (z) = 0.17516 0.37939
#
# Static dielectric constant tensor:
#      x y z
#    x 3.935150 0.000000 0.086630 
#    y 0.000000 4.406180 0.000000 
#    z 0.086630 0.000000 3.407300 
# 
# 
# High freq. dielectric constant tensor:
#      x y z
#    x 1.801200 0.000000 0.006380 
#    y 0.000000 1.803740 0.000000 
#    z 0.006380 0.000000 1.753620 
# 
# From -- ./inp_files/42974.got.cif
#   From: 2010.06.25/outbox.cif.g09.slc.cpg/sg10_22_cif.got.tgz:42974.got - 2010.06.27 22:07:45.
