data_PCOD8066023
_publ_section_title
;
Structure prediction by ZEFSAII (Michael W. Deem and Ramdas Pophale) SiO2 
 PCOD8066023
Probable space group: P 2/M
;
_chemical_formula_sum "Si O2"
_cell_formula_units_Z 28
_cell_length_a 5.068557
_cell_length_b 31.845204
_cell_length_c 9.083512
_cell_angle_alpha 90.000000
_cell_angle_beta 65.861070
_cell_angle_gamma 90.000000
_cell_volume 1337.956330
_symmetry_space_group_name_H-M "P 2/M"
_symmetry_group_IT_number 10
_symmetry_cell_setting 'monoclinic'
loop_
_space_group_symop_operation_xyz
x,y,z
-x,y,-z
-x,-y,-z
x,-y,z
loop_
_atom_site_type_symbol
_atom_site_label
_atom_site_fract_x
_atom_site_fract_y
_atom_site_fract_z
Si Si1 0.877318 0.685310 0.186773
Si Si2 0.819735 0.548200 0.894400
Si Si3 0.144230 0.827287 0.312158
Si Si4 0.627466 0.261177 0.815475
Si Si5 0.822127 0.606762 0.395694
Si Si6 0.666743 0.046370 0.106504
Si Si7 0.639386 0.875385 0.308273
O O1 0.630139 0.721406 0.229732
O O2 0.757385 0.645546 0.301242
O O3 0.145021 0.701589 0.220477
O O4 0.000000 0.671201 0.000000
O O5 0.793917 0.500000 0.849574
O O6 0.977210 0.572218 0.726989
O O7 0.500000 0.566799 0.000000
O O8 0.000000 0.553490 0.000000
O O9 0.192426 0.777727 0.287898
O O10 0.454486 0.848981 0.233899
O O11 0.000000 0.836354 0.500000
O O12 0.945025 0.850521 0.236262
O O13 0.500000 0.246567 0.000000
O O14 0.500000 0.588215 0.500000
O O15 0.000000 0.620817 0.500000
O O16 0.641751 0.077008 0.251506
O O17 0.541550 0.000000 0.176655
O O18 0.500000 0.063611 0.000000
O O19 0.000000 0.042104 0.000000
O O20 0.500000 0.875961 0.500000
#
# Coordination Sequence:
#
# PCOD8066023 Si02
#       7
#     4   4   4   4   4   4   4
#     4  10  22  40  59  81 115 156 197 241 291 356
#     4  10  22  42  67  92 123 169 214 249 301 372
#     4  10  21  36  55  81 112 145 182 232 288 341
#     4  10  21  37  58  83 109 146 196 242 286 343
#     4  12  25  39  61  95 127 158 202 257 312 359
#     4  10  21  37  57  83 113 146 186 233 285 336
#     4  10  21  37  56  81 112 147 187 226 277 344
#
# _framework density 20.927439
#
# number of rings (size 3 to 8) (size 9 to 14) (size 15 to 20)
#    0.000    1.714    0.000    3.857    0.000    6.000 
#    0.000    0.000    0.000    5.143    0.000    0.000 
#    0.000    0.000    0.000    0.000    0.000    0.000 
#
# Total GULP energy -347130.568312 kJ/mol
# GULP energy per Si atom -12397.520297 kJ/mol
# Density = 2.087981 g / cm^3
# Si number density = 20.927439 Si / 1000 Ang^3
#
#
#
# Elastic Constant Matrix: (Units=GPa)
#
#
# Indices 1 2 3 4 5 6 
#
# 1 157.6257 39.4524 45.1516 0.0000 -7.1725 0.0000
# 2 39.4524 101.9449 47.3873 0.0000 0.1325 0.0000
# 3 45.1516 47.3873 62.7553 0.0000 -6.9494 0.0000
# 4 0.0000 0.0000 0.0000 29.8683 0.0000 -7.1083
# 5 -7.1725 0.1325 -6.9494 0.0000 25.9690 0.0000
# 6 0.0000 0.0000 0.0000 -7.1083 0.0000 32.2337
#
#
#
# Elastic Compliance Matrix: (Units=1/GPa)
#
#
# Indices 1 2 3 4 5 6 
#
# 1 0.008037 -0.000720 -0.005145 0.000000 0.000846 0.000000
# 2 -0.000720 0.015446 -0.011518 0.000000 -0.003360 0.000000
# 3 -0.005145 -0.011518 0.029044 0.000000 0.006410 0.000000
# 4 0.000000 0.000000 0.000000 0.035335 0.000000 0.007792
# 5 0.000846 -0.003360 0.006410 0.000000 0.040474 0.000000
# 6 0.000000 0.000000 0.000000 0.007792 0.000000 0.032742
#
#
# Mechanical properties :
#
#
# Convention : Reuss Voigt Hill
#
# Bulk Modulus (GPa) = 56.30188 65.14539 60.72363
# Shear Modulus (GPa) = 24.78176 30.30318 27.54247
#
# Velocity S-wave (km/s) = 3.44492 3.80940 3.63174
# Velocity P-wave (km/s) = 6.54103 7.10954 6.83120
#
# Compressibility (1/GPa) = 0.01776140
#
# Stress axis : x y z
#
# Youngs Moduli (GPa) = 124.43113 64.74232 34.43100
#
# Poissons Ratio (x) = 0.04659 0.17715
# Poissons Ratio (y) = 0.08955 0.39656
# Poissons Ratio (z) = 0.64020 0.74568
#
# Static dielectric constant tensor:
#      x y z
#    x 4.175090 0.000000 -0.047800 
#    y 0.000000 3.828220 0.000000 
#    z -0.047800 0.000000 3.576210 
# 
# 
# High freq. dielectric constant tensor:
#      x y z
#    x 1.844060 0.000000 -0.002660 
#    y 0.000000 1.817860 0.000000 
#    z -0.002660 0.000000 1.803720 
# 
# From -- ./inp_files/15869.got.cif
#   From: 2010.06.25/outbox.cif.g09.slc.cpg/sg10_8_cif.got.tgz:15869.got - 2010.06.27 22:07:45.
