data_PCOD8066392
_publ_section_title
;
Structure prediction by ZEFSAII (Michael W. Deem and Ramdas Pophale) SiO2 
 PCOD8066392
Probable space group: P 2/M
;
_chemical_formula_sum "Si O2"
_cell_formula_units_Z 32
_cell_length_a 27.470798
_cell_length_b 9.367841
_cell_length_c 11.627850
_cell_angle_alpha 90.000000
_cell_angle_beta 147.232269
_cell_angle_gamma 90.000000
_cell_volume 1619.555567
_symmetry_space_group_name_H-M "P 2/M"
_symmetry_group_IT_number 10
_symmetry_cell_setting 'monoclinic'
loop_
_space_group_symop_operation_xyz
x,y,z
-x,y,-z
-x,-y,-z
x,-y,z
loop_
_atom_site_type_symbol
_atom_site_label
_atom_site_fract_x
_atom_site_fract_y
_atom_site_fract_z
Si Si1 0.421678 0.659882 0.424630
Si Si2 0.737806 0.832823 0.493517
Si Si3 0.616138 0.162850 0.038148
Si Si4 0.867508 0.161995 0.294589
Si Si5 0.054972 0.836629 0.791763
Si Si6 0.084283 0.669443 0.084959
Si Si7 0.296739 0.658847 0.974269
Si Si8 0.415908 0.834872 0.640208
O O1 0.500000 0.724471 0.500000
O O2 0.449334 0.500000 0.519414
O O3 0.403567 0.757820 0.495964
O O4 0.329355 0.656639 0.170167
O O5 0.695367 0.804491 0.284748
O O6 0.827442 0.739831 0.683774
O O7 0.661502 0.777554 0.429622
O O8 0.760531 0.000000 0.556259
O O9 0.627633 0.265326 0.952449
O O10 0.622465 0.000000 0.008403
O O11 0.516127 0.191022 0.891512
O O12 0.882047 0.209241 0.190615
O O13 0.796786 0.260008 0.218518
O O14 0.954741 0.176532 0.546200
O O15 0.832736 0.000000 0.226220
O O16 0.075487 0.000000 0.869985
O O17 0.069624 0.733194 0.928723
O O18 0.098167 0.500000 0.101732
O O19 0.000000 0.705898 0.000000
O O20 0.281905 0.500000 0.896839
O O21 0.399203 0.000000 0.584411
#
# Coordination Sequence:
#
# PCOD8066392 Si02
#       8
#     4   4   4   4   4   4   4   4
#     4  10  21  38  55  79 120 162 195 231 283 348
#     4  10  23  42  64  90 117 154 200 248 302 356
#     4  10  21  39  62  88 120 156 199 250 300 350
#     4   9  20  39  63  91 119 149 192 246 297 352
#     4   9  20  41  66  89 116 151 194 244 299 356
#     4  11  26  44  61  87 123 159 198 247 295 350
#     4  11  23  36  56  86 122 161 198 239 290 351
#     4  10  21  38  63  91 118 151 197 252 300 348
#
# _framework density 19.758507000000002
#
# number of rings (size 3 to 8) (size 9 to 14) (size 15 to 20)
#    0.000    2.000    1.250    1.875    3.500    5.750 
#    0.000    1.250    0.000    2.250    0.000    0.000 
#    0.000    0.000    0.000    0.000    0.000    0.000 
#
# Total GULP energy -396762.564624 kJ/mol
# GULP energy per Si atom -12398.830145 kJ/mol
# Density = 1.971354 g / cm^3
# Si number density = 19.758507 Si / 1000 Ang^3
#
#
#
# Elastic Constant Matrix: (Units=GPa)
#
#
# Indices 1 2 3 4 5 6 
#
# 1 90.7489 51.9372 43.4920 0.0000 12.7992 0.0000
# 2 51.9372 90.1105 52.1226 0.0000 8.3469 0.0000
# 3 43.4920 52.1226 95.9308 0.0000 6.0222 0.0000
# 4 0.0000 0.0000 0.0000 10.2491 0.0000 30.1622
# 5 12.7992 8.3469 6.0222 0.0000 33.8717 0.0000
# 6 0.0000 0.0000 0.0000 30.1622 0.0000 -53.5561
#
#
#
# Elastic Compliance Matrix: (Units=1/GPa)
#
#
# Indices 1 2 3 4 5 6 
#
# 1 0.017778 -0.007802 -0.003559 0.000000 -0.004162 0.000000
# 2 -0.007802 0.019812 -0.007186 0.000000 -0.000656 0.000000
# 3 -0.003559 -0.007186 0.015924 0.000000 0.000285 0.000000
# 4 0.000000 0.000000 0.000000 0.036716 0.000000 0.020678
# 5 -0.004162 -0.000656 0.000285 0.000000 0.031207 0.000000
# 6 0.000000 0.000000 0.000000 0.020678 0.000000 -0.007026
#
#
# Mechanical properties :
#
#
# Convention : Reuss Voigt Hill
#
# Bulk Modulus (GPa) = 60.90561 63.54376 62.22469
# Shear Modulus (GPa) = 31.85151 6.72884 19.29017
#
# Velocity S-wave (km/s) = 4.01938 1.84741 3.12797
# Velocity P-wave (km/s) = 7.24103 6.06470 6.67881
#
# Compressibility (1/GPa) = 0.01641885
#
# Stress axis : x y z
#
# Youngs Moduli (GPa) = 56.25061 50.47491 62.79663
#
# Poissons Ratio (x) = 0.39381 0.22351
# Poissons Ratio (y) = 0.43888 0.45126
# Poissons Ratio (z) = 0.20021 0.36271
#
# Static dielectric constant tensor:
#      x y z
#    x 3.638870 0.000000 0.064360 
#    y 0.000000 3.563060 0.000000 
#    z 0.064360 0.000000 3.585370 
# 
# 
# High freq. dielectric constant tensor:
#      x y z
#    x 1.772390 0.000000 0.004720 
#    y 0.000000 1.763590 0.000000 
#    z 0.004720 0.000000 1.777410 
# 
# From -- ./inp_files/58313.got.cif
#   From: 2010.06.25/outbox.cif.g09.slc.cpg/sg10_30_cif.got.tgz:58313.got - 2010.06.27 22:07:45.
