data_PCOD8066903
_publ_section_title
;
Structure prediction by ZEFSAII (Michael W. Deem and Ramdas Pophale) SiO2 
 PCOD8066903
Probable space group: P 2/M
;
_chemical_formula_sum "Si O2"
_cell_formula_units_Z 16
_cell_length_a 5.341915
_cell_length_b 21.216567
_cell_length_c 5.395135
_cell_angle_alpha 90.000000
_cell_angle_beta 90.261886
_cell_angle_gamma 90.000000
_cell_volume 611.462554
_symmetry_space_group_name_H-M "P 2/M"
_symmetry_group_IT_number 10
_symmetry_cell_setting 'monoclinic'
loop_
_space_group_symop_operation_xyz
x,y,z
-x,y,-z
-x,-y,-z
x,-y,z
loop_
_atom_site_type_symbol
_atom_site_label
_atom_site_fract_x
_atom_site_fract_y
_atom_site_fract_z
Si Si1 0.748207 0.799397 0.864257
Si Si2 0.000000 0.719726 0.500000
Si Si3 0.751119 0.930629 0.658331
Si Si4 0.641131 0.363774 0.249354
Si Si5 0.841507 0.500000 0.248144
O O1 0.774252 0.765484 0.596371
O O2 0.739121 0.875471 0.859219
O O3 0.500000 0.774161 0.000000
O O4 0.000000 0.777809 0.000000
O O5 0.902722 0.674183 0.275947
O O6 0.500000 0.924775 0.500000
O O7 0.000000 0.920113 0.500000
O O8 0.761155 0.000000 0.786929
O O9 0.500000 0.345134 0.500000
O O10 0.669734 0.438731 0.240787
O O11 0.500000 0.341114 0.000000
O O12 0.000000 0.500000 0.500000
O O13 0.000000 0.500000 0.000000
#
# Coordination Sequence:
#
# PCOD8066903 Si02
#       5
#     4   2   4   4   2
#     4  12  29  48  78 112 156 211 271 334 411 491
#     4  12  32  51  73 114 168 204 278 330 410 490
#     4  10  21  43  74 107 148 199 261 336 412 483
#     4  12  29  51  84 116 159 215 269 340 415 492
#     4  12  24  50  82 117 161 202 267 346 414 484
#
# _framework density 26.166772999999999
#
# number of rings (size 3 to 8) (size 9 to 14) (size 15 to 20)
#    0.000    0.500    2.500    3.750    7.000    1.000 
#    0.000    0.000    0.000    0.000    0.000    0.000 
#    0.000    0.000    0.000    0.000    0.000    0.000 
#
# Total GULP energy -198369.000270 kJ/mol
# GULP energy per Si atom -12398.062517 kJ/mol
# Density = 2.610722 g / cm^3
# Si number density = 26.166773 Si / 1000 Ang^3
#
#
#
# Elastic Constant Matrix: (Units=GPa)
#
#
# Indices 1 2 3 4 5 6 
#
# 1 174.3715 41.1223 58.4410 0.0000 -2.2576 0.0000
# 2 41.1223 183.0447 39.8185 0.0000 -1.3797 0.0000
# 3 58.4410 39.8185 151.4526 0.0000 1.4395 0.0000
# 4 0.0000 0.0000 0.0000 -8.2580 0.0000 -7.4139
# 5 -2.2576 -1.3797 1.4395 0.0000 56.2662 0.0000
# 6 0.0000 0.0000 0.0000 -7.4139 0.0000 8.7699
#
#
#
# Elastic Compliance Matrix: (Units=1/GPa)
#
#
# Indices 1 2 3 4 5 6 
#
# 1 0.006763 -0.001006 -0.002348 0.000000 0.000307 0.000000
# 2 -0.001006 0.005946 -0.001176 0.000000 0.000136 0.000000
# 3 -0.002348 -0.001176 0.007821 0.000000 -0.000323 0.000000
# 4 0.000000 0.000000 0.000000 -0.068844 0.000000 -0.058199
# 5 0.000307 0.000136 -0.000323 0.000000 0.017797 0.000000
# 6 0.000000 0.000000 0.000000 -0.058199 0.000000 0.064825
#
#
# Mechanical properties :
#
#
# Convention : Reuss Voigt Hill
#
# Bulk Modulus (GPa) = 87.19080 87.51471 87.35276
# Shear Modulus (GPa) = 105.94902 35.98809 70.96856
#
# Velocity S-wave (km/s) = 6.37007 3.71258 5.21349
# Velocity P-wave (km/s) = 9.35400 7.20383 8.34843
#
# Compressibility (1/GPa) = 0.01146910
#
# Stress axis : x y z
#
# Youngs Moduli (GPa) = 147.86083 168.17683 127.85938
#
# Poissons Ratio (x) = 0.16923 0.30022
# Poissons Ratio (y) = 0.14879 0.15040
# Poissons Ratio (z) = 0.34718 0.19782
#
# Static dielectric constant tensor:
#      x y z
#    x 4.801410 0.000000 -0.007980 
#    y 0.000000 7.071540 0.000000 
#    z -0.007980 0.000000 4.564330 
# 
# 
# High freq. dielectric constant tensor:
#      x y z
#    x 2.055760 0.000000 -0.000670 
#    y 0.000000 2.084310 0.000000 
#    z -0.000670 0.000000 2.031090 
# 
# From -- ./inp_files/1325.got.cif
#   From: 2010.06.25/outbox.cif.g09.slc.cpg/sg10_1_cif.got.tgz:1325.got - 2010.06.27 22:07:45.
