data_PCOD8066177
_publ_section_title
;
Structure prediction by ZEFSAII (Michael W. Deem and Ramdas Pophale) SiO2 
 PCOD8066177
Probable space group: P 2/M
;
_chemical_formula_sum "Si O2"
_cell_formula_units_Z 32
_cell_length_a 30.650768
_cell_length_b 8.830806
_cell_length_c 12.111155
_cell_angle_alpha 90.000000
_cell_angle_beta 150.573756
_cell_angle_gamma 90.000000
_cell_volume 1610.558366
_symmetry_space_group_name_H-M "P 2/M"
_symmetry_group_IT_number 10
_symmetry_cell_setting 'monoclinic'
loop_
_space_group_symop_operation_xyz
x,y,z
-x,y,-z
-x,-y,-z
x,-y,z
loop_
_atom_site_type_symbol
_atom_site_label
_atom_site_fract_x
_atom_site_fract_y
_atom_site_fract_z
Si Si1 0.760657 0.824047 0.134711
Si Si2 0.932916 0.676953 0.444441
Si Si3 0.811606 0.674831 0.703461
Si Si4 0.164587 0.830626 0.459997
Si Si5 0.014134 0.171768 0.828175
Si Si6 0.364766 0.176598 0.659167
Si Si7 0.424390 0.321247 0.247763
Si Si8 0.535970 0.176216 0.900030
O O1 0.837374 0.758898 0.223706
O O2 0.789358 0.792293 0.323176
O O3 0.750376 0.000000 0.086430
O O4 0.667359 0.744075 0.906842
O O5 0.915288 0.500000 0.392841
O O6 0.000000 0.738911 0.500000
O O7 0.981607 0.710862 0.665676
O O8 0.832200 0.500000 0.771981
O O9 0.800412 0.706827 0.548683
O O10 0.720493 0.723635 0.561861
O O11 0.890050 0.780064 0.919398
O O12 0.057679 0.821083 0.231595
O O13 0.192372 0.000000 0.482574
O O14 0.017793 0.000000 0.789256
O O15 0.438371 0.216623 0.730109
O O16 0.341336 0.000000 0.602214
O O17 0.395697 0.218982 0.851583
O O18 0.500000 0.266745 0.500000
O O19 0.417222 0.500000 0.229211
O O20 0.444185 0.266881 0.167310
O O21 0.544204 0.000000 0.889352
#
# Coordination Sequence:
#
# PCOD8066177 Si02
#       8
#     4   4   4   4   4   4   4   4
#     4  10  21  38  62  88 112 148 198 240 277 338
#     4  10  21  39  62  87 116 149 184 233 291 343
#     4  12  23  32  49  82 117 150 186 225 279 342
#     4   9  19  35  55  79 109 145 185 232 281 329
#     4  10  21  37  56  78 109 149 191 233 276 329
#     4   9  19  37  59  83 112 147 187 235 291 347
#     4  11  24  40  58  85 121 157 191 242 305 350
#     4   9  19  38  63  85 108 144 192 241 288 347
#
# _framework density 19.868884999999999
#
# number of rings (size 3 to 8) (size 9 to 14) (size 15 to 20)
#    0.000    2.000    0.000    5.250    0.000   10.500 
#    2.250    1.250    0.000    0.000    0.000    0.000 
#    0.000    0.000    0.000    0.000    0.000    0.000 
#
# Total GULP energy -396804.309762 kJ/mol
# GULP energy per Si atom -12400.134680 kJ/mol
# Density = 1.982366 g / cm^3
# Si number density = 19.868885 Si / 1000 Ang^3
#
#
#
# Elastic Constant Matrix: (Units=GPa)
#
#
# Indices 1 2 3 4 5 6 
#
# 1 96.4915 35.8402 39.6430 0.0000 20.7212 0.0000
# 2 35.8402 71.2223 36.5123 0.0000 13.0661 0.0000
# 3 39.6430 36.5123 110.5293 0.0000 31.5369 0.0000
# 4 0.0000 0.0000 0.0000 24.6615 0.0000 3.8546
# 5 20.7212 13.0661 31.5369 0.0000 28.8302 0.0000
# 6 0.0000 0.0000 0.0000 3.8546 0.0000 31.9688
#
#
#
# Elastic Compliance Matrix: (Units=1/GPa)
#
#
# Indices 1 2 3 4 5 6 
#
# 1 0.014295 -0.005223 -0.001665 0.000000 -0.006085 0.000000
# 2 -0.005223 0.018913 -0.004361 0.000000 -0.000047 0.000000
# 3 -0.001665 -0.004361 0.014799 0.000000 -0.013015 0.000000
# 4 0.000000 0.000000 0.000000 0.041328 0.000000 -0.004983
# 5 -0.006085 -0.000047 -0.013015 0.000000 0.053318 0.000000
# 6 0.000000 0.000000 0.000000 -0.004983 0.000000 0.031881
#
#
# Mechanical properties :
#
#
# Convention : Reuss Voigt Hill
#
# Bulk Modulus (GPa) = 39.20392 55.80380 47.50386
# Shear Modulus (GPa) = 24.32678 28.17526 26.25102
#
# Velocity S-wave (km/s) = 3.50289 3.76980 3.63879
# Velocity P-wave (km/s) = 6.01119 6.86262 6.45097
#
# Compressibility (1/GPa) = 0.02550765
#
# Stress axis : x y z
#
# Youngs Moduli (GPa) = 69.95639 52.87298 67.57349
#
# Poissons Ratio (x) = 0.27617 0.11253
# Poissons Ratio (y) = 0.36540 0.29469
# Poissons Ratio (z) = 0.11650 0.23058
#
# Static dielectric constant tensor:
#      x y z
#    x 3.665320 0.000000 0.243410 
#    y 0.000000 3.495310 0.000000 
#    z 0.243410 0.000000 3.641890 
# 
# 
# High freq. dielectric constant tensor:
#      x y z
#    x 1.769650 0.000000 0.021860 
#    y 0.000000 1.772160 0.000000 
#    z 0.021860 0.000000 1.775670 
# 
# From -- ./inp_files/58332.got.cif
#   From: 2010.06.25/outbox.cif.g09.slc.cpg/sg10_30_cif.got.tgz:58332.got - 2010.06.27 22:07:45.
