data_PCOD8066343
_publ_section_title
;
Structure prediction by ZEFSAII (Michael W. Deem and Ramdas Pophale) SiO2 
 PCOD8066343
Probable space group: P 2/M
;
_chemical_formula_sum "Si O2"
_cell_formula_units_Z 32
_cell_length_a 15.430546
_cell_length_b 9.358424
_cell_length_c 23.926301
_cell_angle_alpha 90.000000
_cell_angle_beta 28.205418
_cell_angle_gamma 90.000000
_cell_volume 1632.994139
_symmetry_space_group_name_H-M "P 2/M"
_symmetry_group_IT_number 10
_symmetry_cell_setting 'monoclinic'
loop_
_space_group_symop_operation_xyz
x,y,z
-x,y,-z
-x,-y,-z
x,-y,z
loop_
_atom_site_type_symbol
_atom_site_label
_atom_site_fract_x
_atom_site_fract_y
_atom_site_fract_z
Si Si1 0.803195 0.331217 0.092287
Si Si2 0.626658 0.161664 0.796395
Si Si3 0.778375 0.157280 0.997992
Si Si4 0.696416 0.666458 0.862394
Si Si5 0.031365 0.161821 0.219998
Si Si6 0.211282 0.664885 0.392769
Si Si7 0.550317 0.666587 0.637904
Si Si8 0.384674 0.834513 0.512734
O O1 0.803592 0.500000 0.089487
O O2 0.637758 0.278840 0.225972
O O3 0.773303 0.278160 0.046908
O O4 0.000000 0.270857 0.000000
O O5 0.727293 0.251023 0.787019
O O6 0.665074 0.232920 0.714996
O O7 0.703099 0.000000 0.753362
O O8 0.409425 0.164474 0.930742
O O9 0.943936 0.183713 0.860609
O O10 0.797446 0.000000 0.015106
O O11 0.723829 0.500000 0.834992
O O12 0.850503 0.719333 0.816597
O O13 0.500000 0.700843 0.000000
O O14 0.824157 0.191446 0.353157
O O15 0.091048 0.000000 0.202774
O O16 0.253016 0.500000 0.354109
O O17 0.273958 0.695107 0.421245
O O18 0.000000 0.702010 0.500000
O O19 0.536475 0.500000 0.631343
O O20 0.569734 0.750501 0.569428
O O21 0.500000 0.776139 0.500000
O O22 0.430545 0.000000 0.475798
#
# Coordination Sequence:
#
# PCOD8066343 Si02
#       8
#     4   4   4   4   4   4   4   4
#     4  10  22  39  61  89 119 152 193 243 302 359
#     4  11  22  37  59  86 119 156 197 245 297 356
#     4  10  21  37  60  89 119 153 195 243 300 359
#     4  11  23  37  57  87 120 157 198 240 293 358
#     4  10  22  41  61  86 122 160 201 249 302 356
#     4  10  22  40  61  86 120 161 199 243 298 357
#     4  10  22  41  62  88 124 159 197 251 303 353
#     4  10  24  44  65  88 119 162 208 255 302 355
#
# _framework density 19.595907
#
# number of rings (size 3 to 8) (size 9 to 14) (size 15 to 20)
#    0.000    1.750    2.500    0.750    3.500    3.750 
#    0.000    0.000    0.000    0.000    0.000    0.000 
#    0.000    0.000    0.000    0.000    0.000    0.000 
#
# Total GULP energy -396840.447387 kJ/mol
# GULP energy per Si atom -12401.263981 kJ/mol
# Density = 1.955131 g / cm^3
# Si number density = 19.595907 Si / 1000 Ang^3
#
#
#
# Elastic Constant Matrix: (Units=GPa)
#
#
# Indices 1 2 3 4 5 6 
#
# 1 129.5653 57.3422 61.7349 0.0000 6.2571 0.0000
# 2 57.3422 72.2346 44.3361 0.0000 9.5732 0.0000
# 3 61.7349 44.3361 113.1169 0.0000 6.5837 0.0000
# 4 0.0000 0.0000 0.0000 -58.0520 0.0000 31.5187
# 5 6.2571 9.5732 6.5837 0.0000 35.6552 0.0000
# 6 0.0000 0.0000 0.0000 31.5187 0.0000 28.5674
#
#
#
# Elastic Compliance Matrix: (Units=1/GPa)
#
#
# Indices 1 2 3 4 5 6 
#
# 1 0.013197 -0.008050 -0.004082 0.000000 0.000599 0.000000
# 2 -0.008050 0.023612 -0.004624 0.000000 -0.004073 0.000000
# 3 -0.004082 -0.004624 0.012905 0.000000 -0.000425 0.000000
# 4 0.000000 0.000000 0.000000 -0.010773 0.000000 0.011886
# 5 0.000599 -0.004073 -0.000425 0.000000 0.029113 0.000000
# 6 0.000000 0.000000 0.000000 0.011886 0.000000 0.021891
#
#
# Mechanical properties :
#
#
# Convention : Reuss Voigt Hill
#
# Bulk Modulus (GPa) = 61.72146 71.30481 66.51313
# Shear Modulus (GPa) = 38.80174 11.33436 25.06805
#
# Velocity S-wave (km/s) = 4.45465 2.40761 3.58054
# Velocity P-wave (km/s) = 7.61735 6.64796 7.14911
#
# Compressibility (1/GPa) = 0.01620182
#
# Stress axis : x y z
#
# Youngs Moduli (GPa) = 75.77522 42.35075 77.48648
#
# Poissons Ratio (x) = 0.34093 0.31630
# Poissons Ratio (y) = 0.61000 0.35832
# Poissons Ratio (z) = 0.30932 0.19584
#
# Static dielectric constant tensor:
#      x y z
#    x 3.513530 0.000000 -0.133530 
#    y 0.000000 3.525930 0.000000 
#    z -0.133530 0.000000 3.694060 
# 
# 
# High freq. dielectric constant tensor:
#      x y z
#    x 1.763110 0.000000 -0.000210 
#    y 0.000000 1.761340 0.000000 
#    z -0.000210 0.000000 1.768140 
# 
# From -- ./inp_files/66553.got.cif
#   From: 2010.06.25/outbox.cif.g09.slc.cpg/sg10_34_cif.got.tgz:66553.got - 2010.06.27 22:07:45.
