data_PCOD8066637
_publ_section_title
;
Structure prediction by ZEFSAII (Michael W. Deem and Ramdas Pophale) SiO2 
 PCOD8066637
Probable space group: P 2/M
;
_chemical_formula_sum "Si O2"
_cell_formula_units_Z 28
_cell_length_a 13.825884
_cell_length_b 9.170573
_cell_length_c 12.076693
_cell_angle_alpha 90.000000
_cell_angle_beta 121.451841
_cell_angle_gamma 90.000000
_cell_volume 1306.251130
_symmetry_space_group_name_H-M "P 2/M"
_symmetry_group_IT_number 10
_symmetry_cell_setting 'monoclinic'
loop_
_space_group_symop_operation_xyz
x,y,z
-x,y,-z
-x,-y,-z
x,-y,z
loop_
_atom_site_type_symbol
_atom_site_label
_atom_site_fract_x
_atom_site_fract_y
_atom_site_fract_z
Si Si1 0.806472 0.826840 0.506451
Si Si2 0.712201 0.164472 0.682330
Si Si3 0.095584 0.341290 0.128169
Si Si4 0.735561 0.331576 0.073784
Si Si5 0.015862 0.338892 0.706334
Si Si6 0.582647 0.169454 0.811664
Si Si7 0.642707 0.668415 0.253017
O O1 0.725148 0.779587 0.563422
O O2 0.752241 0.748051 0.368937
O O3 0.937953 0.772472 0.588448
O O4 0.806348 0.000000 0.489664
O O5 0.792903 0.247922 0.814936
O O6 0.595550 0.180904 0.683202
O O7 0.754456 0.000000 0.703965
O O8 0.120032 0.500000 0.088735
O O9 0.058341 0.359917 0.230265
O O10 0.000000 0.259217 0.000000
O O11 0.745245 0.500000 0.041489
O O12 0.860131 0.275224 0.188248
O O13 0.648889 0.317206 0.124375
O O14 0.688097 0.235869 0.944054
O O15 0.029056 0.500000 0.657172
O O16 0.470293 0.255762 0.772776
O O17 0.569918 0.000000 0.836930
O O18 0.642056 0.500000 0.289802
#
# Coordination Sequence:
#
# PCOD8066637 Si02
#       7
#     4   4   4   4   4   4   4
#     4  10  21  39  60  84 116 151 189 231 280 337
#     4   9  20  36  54  79 112 148 182 224 280 337
#     4   9  16  27  48  78 109 142 182 227 272 324
#     4  10  22  40  61  85 115 151 189 232 283 337
#     4   9  18  34  56  82 113 148 186 229 279 334
#     4  11  23  39  60  86 115 148 189 236 285 336
#     4  11  24  41  60  82 112 151 194 238 283 333
#
# _framework density 21.435388
#
# number of rings (size 3 to 8) (size 9 to 14) (size 15 to 20)
#    0.000    2.143    0.000    2.571    0.000    7.714 
#    0.000    8.571    0.000    0.000    0.000    0.000 
#    0.000    0.000    0.000    0.000    0.000    0.000 
#
# Total GULP energy -346870.751086 kJ/mol
# GULP energy per Si atom -12388.241110 kJ/mol
# Density = 2.138660 g / cm^3
# Si number density = 21.435388 Si / 1000 Ang^3
#
#
#
# Elastic Constant Matrix: (Units=GPa)
#
#
# Indices 1 2 3 4 5 6 
#
# 1 46.2775 14.8942 -8.5588 0.0000 8.7823 0.0000
# 2 14.8942 83.2902 24.8978 0.0000 1.9610 0.0000
# 3 -8.5588 24.8978 60.2169 0.0000 9.3401 0.0000
# 4 0.0000 0.0000 0.0000 47.5748 0.0000 11.2194
# 5 8.7823 1.9610 9.3401 0.0000 30.7300 0.0000
# 6 0.0000 0.0000 0.0000 11.2194 0.0000 29.5520
#
#
#
# Elastic Compliance Matrix: (Units=1/GPa)
#
#
# Indices 1 2 3 4 5 6 
#
# 1 0.027345 -0.007163 0.008385 0.000000 -0.009906 0.000000
# 2 -0.007163 0.015599 -0.008009 0.000000 0.003486 0.000000
# 3 0.008385 -0.008009 0.022461 0.000000 -0.008712 0.000000
# 4 0.000000 0.000000 0.000000 0.023087 0.000000 -0.008765
# 5 -0.009906 0.003486 -0.008712 0.000000 0.037798 0.000000
# 6 0.000000 0.000000 0.000000 -0.008765 0.000000 0.037166
#
#
# Mechanical properties :
#
#
# Convention : Reuss Voigt Hill
#
# Bulk Modulus (GPa) = 19.29333 28.02791 23.66062
# Shear Modulus (GPa) = 25.73252 32.14144 28.93698
#
# Velocity S-wave (km/s) = 3.46854 3.87648 3.67817
# Velocity P-wave (km/s) = 5.00612 5.75674 5.39450
#
# Compressibility (1/GPa) = 0.05183138
#
# Stress axis : x y z
#
# Youngs Moduli (GPa) = 36.56988 64.10638 44.52158
#
# Poissons Ratio (x) = 0.45920 -0.37331
# Poissons Ratio (y) = 0.26196 0.35655
# Poissons Ratio (z) = -0.30663 0.51340
#
# Static dielectric constant tensor:
#      x y z
#    x 3.914280 0.000000 -0.030360 
#    y 0.000000 4.066670 0.000000 
#    z -0.030360 0.000000 3.911400 
# 
# 
# High freq. dielectric constant tensor:
#      x y z
#    x 1.849440 0.000000 -0.004600 
#    y 0.000000 1.833270 0.000000 
#    z -0.004600 0.000000 1.832520 
# 
# From -- ./inp_files/66650.got.cif
#   From: 2010.06.25/outbox.cif.g09.slc.cpg/sg10_34_cif.got.tgz:66650.got - 2010.06.27 22:07:45.
