data_PCOD8066742
_publ_section_title
;
Structure prediction by ZEFSAII (Michael W. Deem and Ramdas Pophale) SiO2 
 PCOD8066742
Probable space group: P 2/M
;
_chemical_formula_sum "Si O2"
_cell_formula_units_Z 24
_cell_length_a 22.325557
_cell_length_b 8.574419
_cell_length_c 11.206279
_cell_angle_alpha 90.000000
_cell_angle_beta 31.492995
_cell_angle_gamma 90.000000
_cell_volume 1120.641959
_symmetry_space_group_name_H-M "P 2/M"
_symmetry_group_IT_number 10
_symmetry_cell_setting 'monoclinic'
loop_
_space_group_symop_operation_xyz
x,y,z
-x,y,-z
-x,-y,-z
x,-y,z
loop_
_atom_site_type_symbol
_atom_site_label
_atom_site_fract_x
_atom_site_fract_y
_atom_site_fract_z
Si Si1 0.817223 0.182529 0.106586
Si Si2 0.840523 0.176795 0.335618
Si Si3 0.753233 0.815700 0.835185
Si Si4 0.040251 0.318772 0.645535
Si Si5 0.367882 0.682632 0.730905
Si Si6 0.384545 0.822852 0.151760
O O1 0.859991 0.229840 0.166534
O O2 0.699081 0.273775 0.276945
O O3 0.791523 0.000000 0.141276
O O4 0.917885 0.231386 0.844140
O O5 0.905777 0.288754 0.315735
O O6 0.704910 0.185387 0.588228
O O7 0.885821 0.000000 0.279877
O O8 0.878290 0.740951 0.599868
O O9 0.667960 0.745892 0.878536
O O10 0.767884 0.000000 0.795509
O O11 0.700970 0.774540 0.050678
O O12 0.017580 0.500000 0.666560
O O13 0.500000 0.739260 0.500000
O O14 0.362783 0.500000 0.765805
O O15 0.416464 0.000000 0.064150
O O16 0.500000 0.735035 0.000000
#
# Coordination Sequence:
#
# PCOD8066742 Si02
#       6
#     4   4   4   4   4   4
#     4  11  23  39  63  91 121 160 211 256 297 353
#     4   9  19  35  57  89 125 158 199 252 299 351
#     4  10  21  39  64  89 119 156 205 257 298 351
#     4  11  22  38  62  91 127 162 197 245 312 373
#     4  11  26  45  62  86 125 164 200 246 304 366
#     4   8  15  29  54  86 116 148 190 244 298 343
#
# _framework density 21.416295000000002
#
# number of rings (size 3 to 8) (size 9 to 14) (size 15 to 20)
#    0.000    2.000    0.000    4.500    2.333    5.333 
#    0.000    3.333    0.000    2.500    0.000    0.000 
#    0.000    0.000    0.000    0.000    0.000    0.000 
#
# Total GULP energy -297589.260927 kJ/mol
# GULP energy per Si atom -12399.552539 kJ/mol
# Density = 2.136755 g / cm^3
# Si number density = 21.416295 Si / 1000 Ang^3
#
#
#
# Elastic Constant Matrix: (Units=GPa)
#
#
# Indices 1 2 3 4 5 6 
#
# 1 35.2109 12.5666 22.9843 0.0000 -1.6189 0.0000
# 2 12.5666 55.8193 17.2737 0.0000 -2.4728 0.0000
# 3 22.9843 17.2737 104.0229 0.0000 -6.0931 0.0000
# 4 0.0000 0.0000 0.0000 26.5103 0.0000 -1.4699
# 5 -1.6189 -2.4728 -6.0931 0.0000 40.4237 0.0000
# 6 0.0000 0.0000 0.0000 -1.4699 0.0000 27.2292
#
#
#
# Elastic Compliance Matrix: (Units=1/GPa)
#
#
# Indices 1 2 3 4 5 6 
#
# 1 0.034860 -0.005760 -0.006744 0.000000 0.000027 0.000000
# 2 -0.005760 0.019856 -0.001985 0.000000 0.000685 0.000000
# 3 -0.006744 -0.001985 0.011512 0.000000 0.001344 0.000000
# 4 0.000000 0.000000 0.000000 0.037834 0.000000 0.002042
# 5 0.000027 0.000685 0.001344 0.000000 0.024983 0.000000
# 6 0.000000 0.000000 0.000000 0.002042 0.000000 0.036835
#
#
# Mechanical properties :
#
#
# Convention : Reuss Voigt Hill
#
# Bulk Modulus (GPa) = 26.84538 33.41138 30.12838
# Shear Modulus (GPa) = 24.12259 28.31453 26.21856
#
# Velocity S-wave (km/s) = 3.35978 3.64002 3.50270
# Velocity P-wave (km/s) = 5.25481 5.77071 5.51879
#
# Compressibility (1/GPa) = 0.03725035
#
# Stress axis : x y z
#
# Youngs Moduli (GPa) = 28.68654 50.36240 86.86804
#
# Poissons Ratio (x) = 0.29007 0.58587
# Poissons Ratio (y) = 0.16522 0.17239
# Poissons Ratio (z) = 0.19347 0.09995
#
# Static dielectric constant tensor:
#      x y z
#    x 3.964240 0.000000 -0.159660 
#    y 0.000000 3.527650 0.000000 
#    z -0.159660 0.000000 4.005310 
# 
# 
# High freq. dielectric constant tensor:
#      x y z
#    x 1.840320 0.000000 -0.008300 
#    y 0.000000 1.813800 0.000000 
#    z -0.008300 0.000000 1.850690 
# 
# From -- ./inp_files/56554.got.cif
#   From: 2010.06.25/outbox.cif.g09.slc.cpg/sg10_29_cif.got.tgz:56554.got - 2010.06.27 22:07:45.
