data_PCOD8066217
_publ_section_title
;
Structure prediction by ZEFSAII (Michael W. Deem and Ramdas Pophale) SiO2 
 PCOD8066217
Probable space group: P 2/M
;
_chemical_formula_sum "Si O2"
_cell_formula_units_Z 32
_cell_length_a 29.201343
_cell_length_b 9.010093
_cell_length_c 12.208695
_cell_angle_alpha 90.000000
_cell_angle_beta 148.992149
_cell_angle_gamma 90.000000
_cell_volume 1654.777872
_symmetry_space_group_name_H-M "P 2/M"
_symmetry_group_IT_number 10
_symmetry_cell_setting 'monoclinic'
loop_
_space_group_symop_operation_xyz
x,y,z
-x,y,-z
-x,-y,-z
x,-y,z
loop_
_atom_site_type_symbol
_atom_site_label
_atom_site_fract_x
_atom_site_fract_y
_atom_site_fract_z
Si Si1 0.132216 0.167281 0.949681
Si Si2 0.479249 0.324296 0.633593
Si Si3 0.905428 0.324678 0.759051
Si Si4 0.165739 0.324907 0.798628
Si Si5 0.635312 0.324431 0.801603
Si Si6 0.066695 0.829453 0.403740
Si Si7 0.233438 0.171137 0.372334
Si Si8 0.436072 0.174208 0.771854
O O1 0.140782 0.286583 0.871617
O O2 0.039104 0.188979 0.820969
O O3 0.138912 0.000000 0.915337
O O4 0.209233 0.197167 0.195710
O O5 0.474026 0.500000 0.637378
O O6 0.574849 0.274623 0.780203
O O7 0.404180 0.265595 0.394814
O O8 0.467276 0.250875 0.725492
O O9 0.903737 0.500000 0.742845
O O10 0.888379 0.253586 0.605721
O O11 0.825718 0.275770 0.673513
O O12 0.000000 0.269284 0.000000
O O13 0.156836 0.500000 0.763321
O O14 0.098125 0.242282 0.581093
O O15 0.265043 0.265376 0.976955
O O16 0.634691 0.500000 0.792481
O O17 0.096155 0.000000 0.461023
O O18 0.335608 0.218494 0.597180
O O19 0.216825 0.000000 0.371345
O O20 0.444163 0.000000 0.769606
O O21 0.500000 0.229536 0.000000
#
# Coordination Sequence:
#
# PCOD8066217 Si02
#       8
#     4   4   4   4   4   4   4   4
#     4  10  21  37  57  80 108 147 194 233 273 338
#     4   9  17  35  61  81 105 145 190 228 274 336
#     4  11  23  39  61  88 115 141 185 245 290 330
#     4  11  22  35  54  83 118 148 183 234 289 335
#     4   8  17  34  56  83 111 142 180 229 283 336
#     4  11  23  39  58  79 111 153 192 229 276 341
#     4  10  21  39  62  84 112 155 195 230 282 346
#     4  10  22  38  55  82 119 150 184 235 286 329
#
# _framework density 19.337942999999999
#
# number of rings (size 3 to 8) (size 9 to 14) (size 15 to 20)
#    0.000    2.000    1.250    3.000    0.000    5.250 
#    0.000    5.625    0.000    0.000    0.000    0.000 
#    0.000    0.000    0.000    0.000    0.000    0.000 
#
# Total GULP energy -396891.114395 kJ/mol
# GULP energy per Si atom -12402.847325 kJ/mol
# Density = 1.929393 g / cm^3
# Si number density = 19.337943 Si / 1000 Ang^3
#
#
#
# Elastic Constant Matrix: (Units=GPa)
#
#
# Indices 1 2 3 4 5 6 
#
# 1 115.8776 47.4123 48.8208 0.0000 -2.7396 0.0000
# 2 47.4123 64.4874 37.9689 0.0000 -3.0210 0.0000
# 3 48.8208 37.9689 117.9241 0.0000 -0.1987 0.0000
# 4 0.0000 0.0000 0.0000 18.7394 0.0000 -2.3095
# 5 -2.7396 -3.0210 -0.1987 0.0000 21.1706 0.0000
# 6 0.0000 0.0000 0.0000 -2.3095 0.0000 25.5246
#
#
#
# Elastic Compliance Matrix: (Units=1/GPa)
#
#
# Indices 1 2 3 4 5 6 
#
# 1 0.013087 -0.007906 -0.002872 0.000000 0.000538 0.000000
# 2 -0.007906 0.024063 -0.004471 0.000000 0.002369 0.000000
# 3 -0.002872 -0.004471 0.011107 0.000000 -0.000905 0.000000
# 4 0.000000 0.000000 0.000000 0.053965 0.000000 0.004883
# 5 0.000538 0.002369 -0.000905 0.000000 0.047634 0.000000
# 6 0.000000 0.000000 0.000000 0.004883 0.000000 0.039620
#
#
# Mechanical properties :
#
#
# Convention : Reuss Voigt Hill
#
# Bulk Modulus (GPa) = 56.30542 62.96591 59.63567
# Shear Modulus (GPa) = 22.13442 24.02607 23.08025
#
# Velocity S-wave (km/s) = 3.38688 3.52864 3.45849
# Velocity P-wave (km/s) = 6.66891 7.01664 6.84498
#
# Compressibility (1/GPa) = 0.01776028
#
# Stress axis : x y z
#
# Youngs Moduli (GPa) = 76.41072 41.55820 90.03491
#
# Poissons Ratio (x) = 0.32856 0.25855
# Poissons Ratio (y) = 0.60410 0.40251
# Poissons Ratio (z) = 0.21943 0.18579
#
# Static dielectric constant tensor:
#      x y z
#    x 3.477430 0.000000 0.156130 
#    y 0.000000 3.353850 0.000000 
#    z 0.156130 0.000000 3.802360 
# 
# 
# High freq. dielectric constant tensor:
#      x y z
#    x 1.757730 0.000000 0.002030 
#    y 0.000000 1.739600 0.000000 
#    z 0.002030 0.000000 1.758370 
# 
# From -- ./inp_files/58261.got.cif
#   From: 2010.06.25/outbox.cif.g09.slc.cpg/sg10_30_cif.got.tgz:58261.got - 2010.06.27 22:07:45.
