data_PCOD8066599
_publ_section_title
;
Structure prediction by ZEFSAII (Michael W. Deem and Ramdas Pophale) SiO2 
 PCOD8066599
Probable space group: P 2/M
;
_chemical_formula_sum "Si O2"
_cell_formula_units_Z 20
_cell_length_a 10.784130
_cell_length_b 12.551938
_cell_length_c 13.364449
_cell_angle_alpha 90.000000
_cell_angle_beta 148.724165
_cell_angle_gamma 90.000000
_cell_volume 939.176216
_symmetry_space_group_name_H-M "P 2/M"
_symmetry_group_IT_number 10
_symmetry_cell_setting 'monoclinic'
loop_
_space_group_symop_operation_xyz
x,y,z
-x,y,-z
-x,-y,-z
x,-y,z
loop_
_atom_site_type_symbol
_atom_site_label
_atom_site_fract_x
_atom_site_fract_y
_atom_site_fract_z
Si Si1 0.148553 0.381166 0.731536
Si Si2 0.667978 0.877203 0.483098
Si Si3 0.837344 0.624105 0.030156
Si Si4 0.327041 0.700420 0.660459
Si Si5 0.842956 0.188751 0.803575
O O1 0.247479 0.500000 0.779435
O O2 0.198238 0.347477 0.878525
O O3 0.289019 0.299949 0.754654
O O4 0.863770 0.382244 0.516677
O O5 0.742413 0.816961 0.432468
O O6 0.431260 0.815953 0.355010
O O7 0.864259 0.867579 0.708450
O O8 0.618656 0.000000 0.424732
O O9 0.888301 0.500000 0.045759
O O10 0.060678 0.689697 0.139511
O O11 0.591320 0.663450 0.809398
O O12 0.000000 0.131430 0.000000
#
# Coordination Sequence:
#
# PCOD8066599 Si02
#       5
#     4   4   4   4   4
#     4  10  21  38  63  92 125 166 199 239 300 366
#     4  11  25  43  64  89 116 160 211 257 305 352
#     4  11  22  38  62  94 129 161 196 243 303 366
#     4  11  20  39  61  91 124 155 202 251 294 361
#     4  11  22  43  63  89 120 158 203 255 303 360
#
# _framework density 21.295256999999999
#
# number of rings (size 3 to 8) (size 9 to 14) (size 15 to 20)
#    0.000    1.200    4.000    4.200    0.000    3.600 
#    0.000    4.000    0.000    1.200    0.000    0.000 
#    0.000    0.000    0.000    0.000    0.000    0.000 
#
# Total GULP energy -247829.660213 kJ/mol
# GULP energy per Si atom -12391.483011 kJ/mol
# Density = 2.124679 g / cm^3
# Si number density = 21.295257 Si / 1000 Ang^3
#
#
#
# Elastic Constant Matrix: (Units=GPa)
#
#
# Indices 1 2 3 4 5 6 
#
# 1 82.3391 68.6375 28.0426 0.0000 -17.3462 0.0000
# 2 68.6375 121.5615 34.2845 0.0000 -0.6172 0.0000
# 3 28.0426 34.2845 96.8517 0.0000 -2.9307 0.0000
# 4 0.0000 0.0000 0.0000 17.7222 0.0000 -6.7472
# 5 -17.3462 -0.6172 -2.9307 0.0000 36.2136 0.0000
# 6 0.0000 0.0000 0.0000 -6.7472 0.0000 17.6973
#
#
#
# Elastic Compliance Matrix: (Units=1/GPa)
#
#
# Indices 1 2 3 4 5 6 
#
# 1 0.028590 -0.015391 -0.002429 0.000000 0.013236 0.000000
# 2 -0.015391 0.017424 -0.001931 0.000000 -0.007231 0.000000
# 3 -0.002429 -0.001931 0.011704 0.000000 -0.000249 0.000000
# 4 0.000000 0.000000 0.000000 0.066007 0.000000 0.025166
# 5 0.013236 -0.007231 -0.000249 0.000000 0.033810 0.000000
# 6 0.000000 0.000000 0.000000 0.025166 0.000000 0.066100
#
#
# Mechanical properties :
#
#
# Convention : Reuss Voigt Hill
#
# Bulk Modulus (GPa) = 54.89232 62.52017 58.70625
# Shear Modulus (GPa) = 18.57286 25.64580 22.10933
#
# Velocity S-wave (km/s) = 2.95644 3.47406 3.22565
# Velocity P-wave (km/s) = 6.12264 6.74645 6.44210
#
# Compressibility (1/GPa) = 0.01821748
#
# Stress axis : x y z
#
# Youngs Moduli (GPa) = 34.97714 57.39195 85.43838
#
# Poissons Ratio (x) = 0.88329 0.20757
# Poissons Ratio (y) = 0.53832 0.16494
# Poissons Ratio (z) = 0.08497 0.11080
#
# Static dielectric constant tensor:
#      x y z
#    x 3.928720 0.000000 -0.390200 
#    y 0.000000 3.503490 0.000000 
#    z -0.390200 0.000000 4.242570 
# 
# 
# High freq. dielectric constant tensor:
#      x y z
#    x 1.830990 0.000000 -0.018060 
#    y 0.000000 1.801170 0.000000 
#    z -0.018060 0.000000 1.851830 
# 
# From -- ./inp_files/50948.got.cif
#   From: 2010.06.25/outbox.cif.g09.slc.cpg/sg10_26_cif.got.tgz:50948.got - 2010.06.27 22:07:45.
