data_PCOD8066753
_publ_section_title
;
Structure prediction by ZEFSAII (Michael W. Deem and Ramdas Pophale) SiO2 
 PCOD8066753
Probable space group: P 2/M
;
_chemical_formula_sum "Si O2"
_cell_formula_units_Z 28
_cell_length_a 15.461768
_cell_length_b 8.557753
_cell_length_c 11.746882
_cell_angle_alpha 90.000000
_cell_angle_beta 116.781757
_cell_angle_gamma 90.000000
_cell_volume 1387.590478
_symmetry_space_group_name_H-M "P 2/M"
_symmetry_group_IT_number 10
_symmetry_cell_setting 'monoclinic'
loop_
_space_group_symop_operation_xyz
x,y,z
-x,y,-z
-x,-y,-z
x,-y,z
loop_
_atom_site_type_symbol
_atom_site_label
_atom_site_fract_x
_atom_site_fract_y
_atom_site_fract_z
Si Si1 0.625593 0.818856 0.986632
Si Si2 0.177917 0.817052 0.290944
Si Si3 0.789266 0.319141 0.930049
Si Si4 0.092712 0.180807 0.628862
Si Si5 0.250532 0.319136 0.564421
Si Si6 0.568742 0.320675 0.185464
Si Si7 0.970451 0.678278 0.183332
O O1 0.719651 0.777393 0.970443
O O2 0.528256 0.781417 0.857271
O O3 0.628125 0.000000 0.018988
O O4 0.626193 0.723374 0.104508
O O5 0.222032 0.743857 0.203555
O O6 0.235644 0.737259 0.427607
O O7 0.062987 0.789842 0.231941
O O8 0.197902 0.000000 0.305263
O O9 0.759714 0.500000 0.917680
O O10 0.900809 0.294611 0.033961
O O11 0.187249 0.216711 0.612453
O O12 0.092251 0.284580 0.741902
O O13 0.000000 0.226407 0.500000
O O14 0.092015 0.000000 0.663566
O O15 0.220502 0.500000 0.558232
O O16 0.362458 0.292663 0.664938
O O17 0.536977 0.500000 0.158164
O O18 0.007403 0.500000 0.208732
#
# Coordination Sequence:
#
# PCOD8066753 Si02
#       7
#     4   4   4   4   4   4   4
#     4  11  22  38  63  94 123 152 190 242 298 347
#     4  12  25  40  59  85 119 157 197 245 295 347
#     4  11  24  42  62  85 116 156 201 245 290 346
#     4  11  22  35  55  86 120 154 191 239 294 342
#     4  11  23  39  61  87 118 159 200 240 291 350
#     4  10  21  39  64  92 121 155 194 238 292 352
#     4  11  23  39  61  86 115 157 202 243 291 348
#
# _framework density 20.178865999999999
#
# number of rings (size 3 to 8) (size 9 to 14) (size 15 to 20)
#    0.000    1.000    1.429    6.857    0.000   10.286 
#    0.000    0.714    0.000    4.286    0.000    0.000 
#    0.000    0.000    0.000    0.000    0.000    0.000 
#
# Total GULP energy -347384.204673 kJ/mol
# GULP energy per Si atom -12406.578738 kJ/mol
# Density = 2.013294 g / cm^3
# Si number density = 20.178866 Si / 1000 Ang^3
#
#
#
# Elastic Constant Matrix: (Units=GPa)
#
#
# Indices 1 2 3 4 5 6 
#
# 1 51.8112 13.0230 30.5757 0.0000 2.0507 0.0000
# 2 13.0230 62.8301 21.0359 0.0000 12.4079 0.0000
# 3 30.5757 21.0359 85.6129 0.0000 13.1252 0.0000
# 4 0.0000 0.0000 0.0000 5.5872 0.0000 -3.0320
# 5 2.0507 12.4079 13.1252 0.0000 25.6043 0.0000
# 6 0.0000 0.0000 0.0000 -3.0320 0.0000 35.9319
#
#
#
# Elastic Compliance Matrix: (Units=1/GPa)
#
#
# Indices 1 2 3 4 5 6 
#
# 1 0.025121 -0.003036 -0.008837 0.000000 0.003989 0.000000
# 2 -0.003036 0.018856 -0.002372 0.000000 -0.007679 0.000000
# 3 -0.008837 -0.002372 0.016426 0.000000 -0.006563 0.000000
# 4 0.000000 0.000000 0.000000 0.187568 0.000000 0.015827
# 5 0.003989 -0.007679 -0.006563 0.000000 0.045822 0.000000
# 6 0.000000 0.000000 0.000000 0.015827 0.000000 0.029166
#
#
# Mechanical properties :
#
#
# Convention : Reuss Voigt Hill
#
# Bulk Modulus (GPa) = 31.33564 36.61372 33.97468
# Shear Modulus (GPa) = 13.80889 22.46601 18.13745
#
# Velocity S-wave (km/s) = 2.61880 3.34030 3.00131
# Velocity P-wave (km/s) = 4.97059 5.74985 5.37436
#
# Compressibility (1/GPa) = 0.03191254
#
# Stress axis : x y z
#
# Youngs Moduli (GPa) = 39.80675 53.03452 60.88086
#
# Poissons Ratio (x) = 0.16101 0.53803
# Poissons Ratio (y) = 0.12085 0.14438
# Poissons Ratio (z) = 0.35179 0.12577
#
# Static dielectric constant tensor:
#      x y z
#    x 3.486540 0.000000 0.085200 
#    y 0.000000 3.752500 0.000000 
#    z 0.085200 0.000000 3.893390 
# 
# 
# High freq. dielectric constant tensor:
#      x y z
#    x 1.774010 0.000000 0.003800 
#    y 0.000000 1.802350 0.000000 
#    z 0.003800 0.000000 1.795590 
# 
# From -- ./inp_files/50113.got.cif
#   From: 2010.06.25/outbox.cif.g09.slc.cpg/sg10_26_cif.got.tgz:50113.got - 2010.06.27 22:07:45.
