data_PCOD8066714
_publ_section_title
;
Structure prediction by ZEFSAII (Michael W. Deem and Ramdas Pophale) SiO2 
 PCOD8066714
Probable space group: P 2/M
;
_chemical_formula_sum "Si O2"
_cell_formula_units_Z 32
_cell_length_a 23.534194
_cell_length_b 9.029664
_cell_length_c 24.598187
_cell_angle_alpha 90.000000
_cell_angle_beta 18.179031
_cell_angle_gamma 90.000000
_cell_volume 1630.838046
_symmetry_space_group_name_H-M "P 2/M"
_symmetry_group_IT_number 10
_symmetry_cell_setting 'monoclinic'
loop_
_space_group_symop_operation_xyz
x,y,z
-x,y,-z
-x,-y,-z
x,-y,z
loop_
_atom_site_type_symbol
_atom_site_label
_atom_site_fract_x
_atom_site_fract_y
_atom_site_fract_z
Si Si1 0.686451 0.175018 0.179160
Si Si2 0.951450 0.825829 0.676642
Si Si3 0.550394 0.333506 0.200339
Si Si4 0.451747 0.328591 0.481803
Si Si5 0.937858 0.333368 0.798543
Si Si6 0.049061 0.673531 0.815725
Si Si7 0.700305 0.672978 0.668894
Si Si8 0.417502 0.671011 0.016031
O O1 0.566419 0.222772 0.236245
O O2 0.588887 0.231202 0.321986
O O3 0.700150 0.000000 0.168146
O O4 0.890261 0.240237 0.991682
O O5 0.988954 0.778268 0.704556
O O6 0.113829 0.762664 0.491883
O O7 0.949124 0.000000 0.674907
O O8 0.764450 0.764719 0.823214
O O9 0.533977 0.500000 0.239012
O O10 0.376929 0.292991 0.321329
O O11 0.723041 0.323391 0.003903
O O12 0.500000 0.300070 0.500000
O O13 0.474624 0.500000 0.444520
O O14 0.243550 0.277246 0.662174
O O15 0.992292 0.500000 0.731281
O O16 0.046217 0.286771 0.754349
O O17 0.010100 0.500000 0.859571
O O18 0.739954 0.500000 0.640729
O O19 0.560976 0.729388 0.841270
O O20 0.368686 0.500000 0.049307
O O21 0.500000 0.696034 0.000000
#
# Coordination Sequence:
#
# PCOD8066714 Si02
#       8
#     4   4   4   4   4   4   4   4
#     4  11  23  37  57  88 125 158 191 242 305 365
#     4  12  25  37  56  90 129 162 192 238 302 365
#     4   9  18  36  62  87 116 155 200 247 294 349
#     4  10  22  41  64  88 115 155 210 257 293 346
#     4   9  17  35  60  86 116 153 202 247 292 350
#     4   9  20  39  62  86 114 155 201 247 296 348
#     4  10  21  39  63  89 117 155 201 247 293 347
#     4  10  22  44  70  90 113 154 210 259 295 342
#
# _framework density 19.621813
#
# number of rings (size 3 to 8) (size 9 to 14) (size 15 to 20)
#    0.000    2.000    1.250    3.000    1.750    5.000 
#    0.000    5.000    0.000    0.000    0.000    0.000 
#    0.000    0.000    0.000    0.000    0.000    0.000 
#
# Total GULP energy -396911.339557 kJ/mol
# GULP energy per Si atom -12403.479361 kJ/mol
# Density = 1.957715 g / cm^3
# Si number density = 19.621813 Si / 1000 Ang^3
#
#
#
# Elastic Constant Matrix: (Units=GPa)
#
#
# Indices 1 2 3 4 5 6 
#
# 1 92.3269 50.5849 63.9516 0.0000 -9.3735 0.0000
# 2 50.5849 100.6656 60.5432 0.0000 -10.8338 0.0000
# 3 63.9516 60.5432 117.5868 0.0000 -21.1112 0.0000
# 4 0.0000 0.0000 0.0000 4.2735 0.0000 -1.3555
# 5 -9.3735 -10.8338 -21.1112 0.0000 22.7589 0.0000
# 6 0.0000 0.0000 0.0000 -1.3555 0.0000 6.1037
#
#
#
# Elastic Compliance Matrix: (Units=1/GPa)
#
#
# Indices 1 2 3 4 5 6 
#
# 1 0.018930 -0.004809 -0.008195 0.000000 -0.002095 0.000000
# 2 -0.004809 0.015612 -0.005332 0.000000 0.000505 0.000000
# 3 -0.008195 -0.005332 0.017572 0.000000 0.010386 0.000000
# 4 0.000000 0.000000 0.000000 0.251731 0.000000 0.055903
# 5 -0.002095 0.000505 0.010386 0.000000 0.052950 0.000000
# 6 0.000000 0.000000 0.000000 0.055903 0.000000 0.176249
#
#
# Mechanical properties :
#
#
# Convention : Reuss Voigt Hill
#
# Bulk Modulus (GPa) = 64.76542 73.41541 69.09042
# Shear Modulus (GPa) = 8.69773 15.66053 12.17913
#
# Velocity S-wave (km/s) = 2.10768 2.82816 2.49408
# Velocity P-wave (km/s) = 6.24512 6.93982 6.60162
#
# Compressibility (1/GPa) = 0.01544034
#
# Stress axis : x y z
#
# Youngs Moduli (GPa) = 52.82685 64.05529 56.90997
#
# Poissons Ratio (x) = 0.30803 0.46640
# Poissons Ratio (y) = 0.25403 0.30345
# Poissons Ratio (z) = 0.43294 0.34155
#
# Static dielectric constant tensor:
#      x y z
#    x 3.552590 0.000000 -0.063190 
#    y 0.000000 3.363000 0.000000 
#    z -0.063190 0.000000 3.623730 
# 
# 
# High freq. dielectric constant tensor:
#      x y z
#    x 1.763450 0.000000 -0.004090 
#    y 0.000000 1.743400 0.000000 
#    z -0.004090 0.000000 1.774130 
# 
# From -- ./inp_files/90614.got.cif
#   From: 2010.06.25/outbox.cif.g09.slc.cpg/sg10_46_cif.got.tgz:90614.got - 2010.06.27 22:07:45.
