data_PCOD8066179
_publ_section_title
;
Structure prediction by ZEFSAII (Michael W. Deem and Ramdas Pophale) SiO2 
 PCOD8066179
Probable space group: P 2/M
;
_chemical_formula_sum "Si O2"
_cell_formula_units_Z 28
_cell_length_a 9.859262
_cell_length_b 14.371619
_cell_length_c 22.213845
_cell_angle_alpha 90.000000
_cell_angle_beta 153.248023
_cell_angle_gamma 90.000000
_cell_volume 1416.808253
_symmetry_space_group_name_H-M "P 2/M"
_symmetry_group_IT_number 10
_symmetry_cell_setting 'monoclinic'
loop_
_space_group_symop_operation_xyz
x,y,z
-x,y,-z
-x,-y,-z
x,-y,z
loop_
_atom_site_type_symbol
_atom_site_label
_atom_site_fract_x
_atom_site_fract_y
_atom_site_fract_z
Si Si1 0.724138 0.893814 0.814010
Si Si2 0.063512 0.605581 0.958906
Si Si3 0.730600 0.738316 0.732982
Si Si4 0.421664 0.105672 0.108304
Si Si5 0.758547 0.782896 0.146275
Si Si6 0.657110 0.605854 0.498814
Si Si7 0.746589 0.601847 0.204232
O O1 0.570010 0.819165 0.708504
O O2 0.562939 0.880518 0.814119
O O3 0.678408 0.000000 0.774028
O O4 0.080841 0.868534 0.954462
O O5 0.936970 0.500000 0.899970
O O6 0.942037 0.673084 0.858637
O O7 0.421126 0.604075 0.103379
O O8 0.000000 0.646333 0.000000
O O9 0.470382 0.675766 0.601376
O O10 0.917462 0.797697 0.756462
O O11 0.684425 0.167681 0.180813
O O12 0.492794 0.000000 0.118449
O O13 0.758602 0.671529 0.153201
O O14 0.500000 0.819651 0.000000
O O15 0.500000 0.625488 0.500000
O O16 0.600214 0.500000 0.454726
O O17 0.012203 0.626866 0.647912
O O18 0.828889 0.500000 0.210194
#
# Coordination Sequence:
#
# PCOD8066179 Si02
#       7
#     4   4   4   4   4   4   4
#     4   9  19  35  56  80 111 152 190 235 292 351
#     4  10  22  37  56  85 121 155 190 239 292 339
#     4  12  22  33  59  89 117 148 194 246 284 344
#     4   9  19  35  54  80 116 151 184 231 298 356
#     4  12  21  31  52  89 116 143 191 241 293 336
#     4  10  21  38  57  80 118 161 196 233 283 342
#     4  10  21  37  56  78 115 157 193 230 278 341
#
# _framework density 19.762730000000001
#
# number of rings (size 3 to 8) (size 9 to 14) (size 15 to 20)
#    0.000    1.714    4.286    1.286    4.000    1.714 
#    0.000    0.714    0.000    4.714    0.000    2.000 
#    0.000    0.000    0.000    0.000    0.000    0.000 
#
# Total GULP energy -346984.606372 kJ/mol
# GULP energy per Si atom -12392.307370 kJ/mol
# Density = 1.971775 g / cm^3
# Si number density = 19.762730 Si / 1000 Ang^3
#
#
#
# Elastic Constant Matrix: (Units=GPa)
#
#
# Indices 1 2 3 4 5 6 
#
# 1 84.5243 47.1748 18.0480 0.0000 -10.4977 0.0000
# 2 47.1748 110.5948 35.3817 0.0000 -16.6737 0.0000
# 3 18.0480 35.3817 69.2873 0.0000 -8.7942 0.0000
# 4 0.0000 0.0000 0.0000 24.5103 0.0000 -10.0521
# 5 -10.4977 -16.6737 -8.7942 0.0000 15.2817 0.0000
# 6 0.0000 0.0000 0.0000 -10.0521 0.0000 32.4865
#
#
#
# Elastic Compliance Matrix: (Units=1/GPa)
#
#
# Indices 1 2 3 4 5 6 
#
# 1 0.015765 -0.005937 -0.000563 0.000000 0.004028 0.000000
# 2 -0.005937 0.014424 -0.004681 0.000000 0.008965 0.000000
# 3 -0.000563 -0.004681 0.017555 0.000000 0.004608 0.000000
# 4 0.000000 0.000000 0.000000 0.046729 0.000000 0.014459
# 5 0.004028 0.008965 0.004608 0.000000 0.080638 0.000000
# 6 0.000000 0.000000 0.000000 0.014459 0.000000 0.035256
#
#
# Mechanical properties :
#
#
# Convention : Reuss Voigt Hill
#
# Bulk Modulus (GPa) = 39.40110 51.73506 45.56808
# Shear Modulus (GPa) = 20.73049 25.37581 23.05315
#
# Velocity S-wave (km/s) = 3.24229 3.58721 3.41911
# Velocity P-wave (km/s) = 5.83069 6.58729 6.22051
#
# Compressibility (1/GPa) = 0.02538000
#
# Stress axis : x y z
#
# Youngs Moduli (GPa) = 63.43107 69.32988 56.96489
#
# Poissons Ratio (x) = 0.41163 0.03210
# Poissons Ratio (y) = 0.37661 0.26666
# Poissons Ratio (z) = 0.03574 0.32454
#
# Static dielectric constant tensor:
#      x y z
#    x 3.598410 0.000000 0.013100 
#    y 0.000000 3.835920 0.000000 
#    z 0.013100 0.000000 3.383470 
# 
# 
# High freq. dielectric constant tensor:
#      x y z
#    x 1.768740 0.000000 0.000180 
#    y 0.000000 1.778280 0.000000 
#    z 0.000180 0.000000 1.729430 
# 
# From -- ./inp_files/29625.got.cif
#   From: 2010.06.25/outbox.cif.g09.slc.cpg/sg10_15_cif.got.tgz:29625.got - 2010.06.27 22:07:45.
