data_PCOD8066681
_publ_section_title
;
Structure prediction by ZEFSAII (Michael W. Deem and Ramdas Pophale) SiO2 
 PCOD8066681
Probable space group: P 2/M
;
_chemical_formula_sum "Si O2"
_cell_formula_units_Z 28
_cell_length_a 8.996457
_cell_length_b 8.960754
_cell_length_c 25.291396
_cell_angle_alpha 90.000000
_cell_angle_beta 44.228203
_cell_angle_gamma 90.000000
_cell_volume 1422.146138
_symmetry_space_group_name_H-M "P 2/M"
_symmetry_group_IT_number 10
_symmetry_cell_setting 'monoclinic'
loop_
_space_group_symop_operation_xyz
x,y,z
-x,y,-z
-x,-y,-z
x,-y,z
loop_
_atom_site_type_symbol
_atom_site_label
_atom_site_fract_x
_atom_site_fract_y
_atom_site_fract_z
Si Si1 0.902514 0.323714 0.714078
Si Si2 0.345065 0.827656 0.408063
Si Si3 0.016787 0.826934 0.581395
Si Si4 0.783367 0.676177 0.275080
Si Si5 0.634294 0.328082 0.017165
Si Si6 0.878598 0.674349 0.133125
Si Si7 0.532913 0.823795 0.149805
O O1 0.868764 0.500000 0.723156
O O2 0.674950 0.244628 0.770108
O O3 0.032440 0.275796 0.628941
O O4 0.032848 0.267663 0.732078
O O5 0.226126 0.794764 0.493387
O O6 0.556436 0.731317 0.352779
O O7 0.193096 0.782997 0.398213
O O8 0.408250 0.000000 0.387835
O O9 0.007471 0.000000 0.600168
O O10 0.778921 0.500000 0.276437
O O11 0.835602 0.735204 0.203126
O O12 0.598975 0.500000 0.042705
O O13 0.546703 0.224129 0.085587
O O14 0.500000 0.287567 0.000000
O O15 0.878943 0.293973 0.943424
O O16 0.822388 0.500000 0.142524
O O17 0.739352 0.766447 0.127721
O O18 0.520895 0.000000 0.157184
#
# Coordination Sequence:
#
# PCOD8066681 Si02
#       7
#     4   4   4   4   4   4   4
#     4  11  23  39  58  82 113 149 190 236 285 336
#     4   9  19  36  58  82 113 150 186 228 280 339
#     4   9  19  37  58  83 113 147 188 231 279 336
#     4  10  22  38  57  83 113 145 188 237 281 331
#     4  10  21  40  65  89 116 151 190 231 277 331
#     4  10  21  39  62  85 112 150 191 231 278 331
#     4  12  25  39  58  86 118 150 188 234 281 334
#
# _framework density 19.688552000000001
#
# number of rings (size 3 to 8) (size 9 to 14) (size 15 to 20)
#    0.000    1.857    0.000    4.714    0.000   10.571 
#    0.000    5.714    0.000    0.000    0.000    0.000 
#    0.000    0.000    0.000    0.000    0.000    0.000 
#
# Total GULP energy -347338.860956 kJ/mol
# GULP energy per Si atom -12404.959320 kJ/mol
# Density = 1.964374 g / cm^3
# Si number density = 19.688552 Si / 1000 Ang^3
#
#
#
# Elastic Constant Matrix: (Units=GPa)
#
#
# Indices 1 2 3 4 5 6 
#
# 1 83.4210 27.4482 20.8582 0.0000 14.8024 0.0000
# 2 27.4482 49.9494 23.7620 0.0000 7.3800 0.0000
# 3 20.8582 23.7620 79.0274 0.0000 16.2404 0.0000
# 4 0.0000 0.0000 0.0000 25.9288 0.0000 10.2169
# 5 14.8024 7.3800 16.2404 0.0000 28.2625 0.0000
# 6 0.0000 0.0000 0.0000 10.2169 0.0000 19.8738
#
#
#
# Elastic Compliance Matrix: (Units=1/GPa)
#
#
# Indices 1 2 3 4 5 6 
#
# 1 0.015634 -0.007393 -0.000700 0.000000 -0.005855 0.000000
# 2 -0.007393 0.026995 -0.006251 0.000000 0.000415 0.000000
# 3 -0.000700 -0.006251 0.016223 0.000000 -0.007323 0.000000
# 4 0.000000 0.000000 0.000000 0.048364 0.000000 -0.024864
# 5 -0.005855 0.000415 -0.007323 0.000000 0.042549 0.000000
# 6 0.000000 0.000000 0.000000 -0.024864 0.000000 0.063100
#
#
# Mechanical properties :
#
#
# Convention : Reuss Voigt Hill
#
# Bulk Modulus (GPa) = 33.15184 39.61498 36.38341
# Shear Modulus (GPa) = 19.87213 24.16830 22.02021
#
# Velocity S-wave (km/s) = 3.18043 3.50741 3.34792
# Velocity P-wave (km/s) = 5.51013 6.04707 5.78484
#
# Compressibility (1/GPa) = 0.03016424
#
# Stress axis : x y z
#
# Youngs Moduli (GPa) = 63.96329 37.04358 61.64035
#
# Poissons Ratio (x) = 0.27386 0.04316
# Poissons Ratio (y) = 0.47288 0.38531
# Poissons Ratio (z) = 0.04478 0.23156
#
# Static dielectric constant tensor:
#      x y z
#    x 3.711700 0.000000 0.091070 
#    y 0.000000 3.425310 0.000000 
#    z 0.091070 0.000000 3.665660 
# 
# 
# High freq. dielectric constant tensor:
#      x y z
#    x 1.777120 0.000000 0.002840 
#    y 0.000000 1.754960 0.000000 
#    z 0.002840 0.000000 1.781870 
# 
# From -- ./inp_files/36995.got.cif
#   From: 2010.06.25/outbox.cif.g09.slc.cpg/sg10_19_cif.got.tgz:36995.got - 2010.06.27 22:07:45.
