data_PCOD8066329
_publ_section_title
;
Structure prediction by ZEFSAII (Michael W. Deem and Ramdas Pophale) SiO2 
 PCOD8066329
Probable space group: P 2/M
;
_chemical_formula_sum "Si O2"
_cell_formula_units_Z 32
_cell_length_a 12.055184
_cell_length_b 17.546231
_cell_length_c 15.079889
_cell_angle_alpha 90.000000
_cell_angle_beta 28.377219
_cell_angle_gamma 90.000000
_cell_volume 1516.003736
_symmetry_space_group_name_H-M "P 2/M"
_symmetry_group_IT_number 10
_symmetry_cell_setting 'monoclinic'
loop_
_space_group_symop_operation_xyz
x,y,z
-x,y,-z
-x,-y,-z
x,-y,z
loop_
_atom_site_type_symbol
_atom_site_label
_atom_site_fract_x
_atom_site_fract_y
_atom_site_fract_z
Si Si1 0.987009 0.413762 0.285932
Si Si2 0.131455 0.586390 0.993549
Si Si3 0.879281 0.806094 0.496590
Si Si4 0.758251 0.089469 0.431244
Si Si5 0.652315 0.809131 0.277313
Si Si6 0.734157 0.272243 0.888913
Si Si7 0.576644 0.321077 0.657996
Si Si8 0.912419 0.821445 0.918617
O O1 0.035118 0.500000 0.284587
O O2 0.211786 0.362486 0.153839
O O3 0.753211 0.383785 0.495904
O O4 0.958586 0.410691 0.199227
O O5 0.210084 0.500000 0.917624
O O6 0.361941 0.635228 0.854183
O O7 0.000000 0.620772 0.000000
O O8 0.770591 0.879174 0.523980
O O9 0.697198 0.736491 0.645267
O O10 0.000000 0.835996 0.500000
O O11 0.060017 0.772326 0.301442
O O12 0.523142 0.128153 0.557129
O O13 0.992811 0.108681 0.208854
O O14 0.725904 0.000000 0.456111
O O15 0.507957 0.731810 0.363184
O O16 0.851889 0.784310 0.206526
O O17 0.755698 0.845823 0.112970
O O18 0.751881 0.239179 0.977186
O O19 0.500000 0.253621 0.000000
#
# Coordination Sequence:
#
# PCOD8066329 Si02
#       8
#     4   4   4   4   4   4   4   4
#     4  10  22  39  56  84 120 157 203 247 304 365
#     4  10  22  37  56  86 121 161 202 243 300 364
#     4   9  21  39  60  88 115 154 209 250 295 353
#     4  10  22  40  61  91 128 159 189 237 297 361
#     4  10  22  37  64  92 118 157 202 241 291 358
#     4  10  22  37  63  84 115 157 201 258 305 349
#     4  10  21  37  60  86 115 156 198 256 300 345
#     4  10  22  40  59  93 123 151 199 249 293 346
#
# _framework density 21.108127
#
# number of rings (size 3 to 8) (size 9 to 14) (size 15 to 20)
#    0.000    2.125    0.000    2.250    8.750    2.500 
#    4.500    3.125    0.000    3.375    0.000    0.000 
#    0.000    0.000    0.000    0.000    0.000    0.000 
#
# Total GULP energy -396517.307425 kJ/mol
# GULP energy per Si atom -12391.165857 kJ/mol
# Density = 2.106008 g / cm^3
# Si number density = 21.108127 Si / 1000 Ang^3
#
#
#
# Elastic Constant Matrix: (Units=GPa)
#
#
# Indices 1 2 3 4 5 6 
#
# 1 116.7926 22.7747 18.8805 0.0000 -14.2215 0.0000
# 2 22.7747 114.9349 25.9464 0.0000 -9.1174 0.0000
# 3 18.8805 25.9464 71.3800 0.0000 -5.8402 0.0000
# 4 0.0000 0.0000 0.0000 30.1610 0.0000 3.7491
# 5 -14.2215 -9.1174 -5.8402 0.0000 34.9468 0.0000
# 6 0.0000 0.0000 0.0000 3.7491 0.0000 11.7686
#
#
#
# Elastic Compliance Matrix: (Units=1/GPa)
#
#
# Indices 1 2 3 4 5 6 
#
# 1 0.009485 -0.001216 -0.001802 0.000000 0.003242 0.000000
# 2 -0.001216 0.009763 -0.003102 0.000000 0.001534 0.000000
# 3 -0.001802 -0.003102 0.015702 0.000000 0.001082 0.000000
# 4 0.000000 0.000000 0.000000 0.034522 0.000000 -0.010998
# 5 0.003242 0.001534 0.001082 0.000000 0.030515 0.000000
# 6 0.000000 0.000000 0.000000 -0.010998 0.000000 0.088475
#
#
# Mechanical properties :
#
#
# Convention : Reuss Voigt Hill
#
# Bulk Modulus (GPa) = 44.02934 48.70119 46.36527
# Shear Modulus (GPa) = 24.00692 31.07565 27.54129
#
# Velocity S-wave (km/s) = 3.37609 3.84111 3.61608
# Velocity P-wave (km/s) = 6.00846 6.54175 6.28076
#
# Compressibility (1/GPa) = 0.02271213
#
# Stress axis : x y z
#
# Youngs Moduli (GPa) = 105.42685 102.42327 63.68559
#
# Poissons Ratio (x) = 0.12451 0.11475
# Poissons Ratio (y) = 0.12816 0.19755
# Poissons Ratio (z) = 0.18996 0.31771
#
# Static dielectric constant tensor:
#      x y z
#    x 2.443940 0.000000 -0.041310 
#    y 0.000000 3.650040 0.000000 
#    z -0.041310 0.000000 3.943820 
# 
# 
# High freq. dielectric constant tensor:
#      x y z
#    x 1.818770 0.000000 0.003720 
#    y 0.000000 1.805580 0.000000 
#    z 0.003720 0.000000 1.839060 
# 
# From -- ./inp_files/65382.got.cif
#   From: 2010.06.25/outbox.cif.g09.slc.cpg/sg10_33_cif.got.tgz:65382.got - 2010.06.27 22:07:45.
