data_PCOD8066045
_publ_section_title
;
Structure prediction by ZEFSAII (Michael W. Deem and Ramdas Pophale) SiO2 
 PCOD8066045
Probable space group: P 2/M
;
_chemical_formula_sum "Si O2"
_cell_formula_units_Z 30
_cell_length_a 10.721107
_cell_length_b 14.427374
_cell_length_c 12.709104
_cell_angle_alpha 90.000000
_cell_angle_beta 53.068287
_cell_angle_gamma 90.000000
_cell_volume 1571.375696
_symmetry_space_group_name_H-M "P 2/M"
_symmetry_group_IT_number 10
_symmetry_cell_setting 'monoclinic'
loop_
_space_group_symop_operation_xyz
x,y,z
-x,y,-z
-x,-y,-z
x,-y,z
loop_
_atom_site_type_symbol
_atom_site_label
_atom_site_fract_x
_atom_site_fract_y
_atom_site_fract_z
Si Si1 0.000011 0.247080 0.276554
Si Si2 0.000000 0.163298 0.500000
Si Si3 0.667532 0.778503 0.931827
Si Si4 0.326562 0.102631 0.273508
Si Si5 0.470647 0.603028 0.684262
Si Si6 0.892178 0.890546 0.155831
Si Si7 0.612185 0.794926 0.191890
Si Si8 0.748530 0.398305 0.403977
O O1 0.975673 0.227331 0.411132
O O2 0.967674 0.156358 0.220907
O O3 0.886124 0.329381 0.304430
O O4 0.178207 0.283310 0.166874
O O5 0.847248 0.100617 0.591355
O O6 0.674100 0.862995 0.846338
O O7 0.500000 0.725121 0.000000
O O8 0.678003 0.820222 0.043514
O O9 0.438508 0.163375 0.292072
O O10 0.395079 0.000000 0.238671
O O11 0.466848 0.500000 0.740247
O O12 0.402235 0.683047 0.793969
O O13 0.366560 0.599658 0.634625
O O14 0.647921 0.628716 0.558900
O O15 0.725083 0.840873 0.221158
O O16 0.869201 0.000000 0.189191
O O17 0.000000 0.872993 0.000000
O O18 0.822435 0.500000 0.383794
#
# Coordination Sequence:
#
# PCOD8066045 Si02
#       8
#     4   2   4   4   4   4   4   4
#     4  11  20  39  59  82 117 149 192 240 286 343
#     4  10  23  38  57  78 110 160 197 236 285 338
#     4   9  21  35  55  78 108 150 192 234 274 331
#     4  10  21  36  56  81 111 152 198 240 278 337
#     4   9  18  33  57  87 116 147 184 227 286 353
#     4  11  23  36  55  85 118 154 190 235 291 340
#     4  11  19  36  57  84 116 146 187 238 289 341
#     4   9  18  34  59  86 112 147 188 231 285 349
#
# _framework density 19.091553000000001
#
# number of rings (size 3 to 8) (size 9 to 14) (size 15 to 20)
#    0.000    2.000    2.667    2.200    0.000    5.600 
#    0.000    1.000    0.000   16.000    0.000    0.000 
#    0.000    0.000    0.000    0.000    0.000    0.000 
#
# Total GULP energy -371783.475009 kJ/mol
# GULP energy per Si atom -12392.782500 kJ/mol
# Density = 1.904810 g / cm^3
# Si number density = 19.091553 Si / 1000 Ang^3
#
#
#
# Elastic Constant Matrix: (Units=GPa)
#
#
# Indices 1 2 3 4 5 6 
#
# 1 95.6711 44.7644 43.6414 0.0000 -14.6786 0.0000
# 2 44.7644 119.7910 41.0814 0.0000 -19.4152 0.0000
# 3 43.6414 41.0814 89.3158 0.0000 -9.9168 0.0000
# 4 0.0000 0.0000 0.0000 19.6063 0.0000 -3.1011
# 5 -14.6786 -19.4152 -9.9168 0.0000 33.3111 0.0000
# 6 0.0000 0.0000 0.0000 -3.1011 0.0000 15.8229
#
#
#
# Elastic Compliance Matrix: (Units=1/GPa)
#
#
# Indices 1 2 3 4 5 6 
#
# 1 0.014920 -0.003198 -0.005477 0.000000 0.003080 0.000000
# 2 -0.003198 0.011319 -0.003172 0.000000 0.004243 0.000000
# 3 -0.005477 -0.003172 0.015366 0.000000 0.000312 0.000000
# 4 0.000000 0.000000 0.000000 0.052636 0.000000 0.010316
# 5 0.003080 0.004243 0.000312 0.000000 0.033943 0.000000
# 6 0.000000 0.000000 0.000000 0.010316 0.000000 0.065221
#
#
# Mechanical properties :
#
#
# Convention : Reuss Voigt Hill
#
# Bulk Modulus (GPa) = 55.83536 62.63912 59.23724
# Shear Modulus (GPa) = 22.41451 25.43412 23.92431
#
# Velocity S-wave (km/s) = 3.43016 3.65392 3.54381
# Velocity P-wave (km/s) = 6.70803 7.11917 6.91665
#
# Compressibility (1/GPa) = 0.01790980
#
# Stress axis : x y z
#
# Youngs Moduli (GPa) = 67.02509 88.35072 65.07733
#
# Poissons Ratio (x) = 0.28252 0.35645
# Poissons Ratio (y) = 0.21433 0.20645
# Poissons Ratio (z) = 0.36712 0.28028
#
# Static dielectric constant tensor:
#      x y z
#    x 3.665780 0.000000 -0.206690 
#    y 0.000000 3.409340 0.000000 
#    z -0.206690 0.000000 3.544880 
# 
# 
# High freq. dielectric constant tensor:
#      x y z
#    x 1.751270 0.000000 -0.011420 
#    y 0.000000 1.719340 0.000000 
#    z -0.011420 0.000000 1.737910 
# 
# From -- ./inp_files/47613.got.cif
#   From: 2010.06.25/outbox.cif.g09.slc.cpg/sg10_24_cif.got.tgz:47613.got - 2010.06.27 22:07:45.
