data_PCOD8066769
_publ_section_title
;
Structure prediction by ZEFSAII (Michael W. Deem and Ramdas Pophale) SiO2 
 PCOD8066769
Probable space group: P 2/M
;
_chemical_formula_sum "Si O2"
_cell_formula_units_Z 22
_cell_length_a 13.780196
_cell_length_b 17.700530
_cell_length_c 7.985540
_cell_angle_alpha 90.000000
_cell_angle_beta 33.781179
_cell_angle_gamma 90.000000
_cell_volume 1083.024826
_symmetry_space_group_name_H-M "P 2/M"
_symmetry_group_IT_number 10
_symmetry_cell_setting 'monoclinic'
loop_
_space_group_symop_operation_xyz
x,y,z
-x,y,-z
-x,-y,-z
x,-y,z
loop_
_atom_site_type_symbol
_atom_site_label
_atom_site_fract_x
_atom_site_fract_y
_atom_site_fract_z
Si Si1 0.171488 0.500000 0.492151
Si Si2 0.315353 0.189048 0.353930
Si Si3 0.025040 0.918420 0.655270
Si Si4 0.358264 0.354509 0.347089
Si Si5 0.231844 0.500000 0.016631
Si Si6 0.322899 0.914994 0.654940
Si Si7 0.500000 0.384238 0.500000
O O1 0.229230 0.426566 0.517587
O O2 0.252336 0.500000 0.189123
O O3 0.964182 0.500000 0.769072
O O4 0.166108 0.147062 0.466124
O O5 0.256885 0.276392 0.455423
O O6 0.332986 0.148562 0.503484
O O7 0.500000 0.182880 0.000000
O O8 0.000000 0.933290 0.500000
O O9 0.084771 0.000000 0.648477
O O10 0.842856 0.892716 0.995792
O O11 0.440895 0.341003 0.414923
O O12 0.500000 0.368423 0.000000
O O13 0.329028 0.428488 0.802198
O O14 0.500000 0.908769 0.500000
O O15 0.303429 0.000000 0.609991
#
# Coordination Sequence:
#
# PCOD8066769 Si02
#       7
#     2   4   4   4   2   4   2
#     4  11  21  45  65  96 130 161 216 266 318 373
#     4  11  24  40  59  93 128 170 206 259 319 373
#     4  10  21  41  66  92 125 166 211 260 317 382
#     4  11  24  43  66  92 132 170 210 270 315 378
#     4  10  22  39  73  96 117 164 213 269 317 384
#     4  10  21  39  65  93 122 162 210 257 310 378
#     4  11  22  42  68  96 119 170 212 254 329 378
#
# _framework density 20.313475
#
# number of rings (size 3 to 8) (size 9 to 14) (size 15 to 20)
#    0.000    1.455    1.818    3.545    1.273    5.818 
#    9.818    0.000    0.000    0.000    0.000    0.000 
#    0.000    0.000    0.000    0.000    0.000    0.000 
#
# Total GULP energy -272598.021611 kJ/mol
# GULP energy per Si atom -12390.819164 kJ/mol
# Density = 2.026724 g / cm^3
# Si number density = 20.313475 Si / 1000 Ang^3
#
#
#
# Elastic Constant Matrix: (Units=GPa)
#
#
# Indices 1 2 3 4 5 6 
#
# 1 113.0803 45.6943 38.7278 0.0000 -0.7017 0.0000
# 2 45.6943 145.6632 53.8818 0.0000 -12.8245 0.0000
# 3 38.7278 53.8818 107.0699 0.0000 2.1649 0.0000
# 4 0.0000 0.0000 0.0000 18.3985 0.0000 -3.7563
# 5 -0.7017 -12.8245 2.1649 0.0000 36.5475 0.0000
# 6 0.0000 0.0000 0.0000 -3.7563 0.0000 35.5539
#
#
#
# Elastic Compliance Matrix: (Units=1/GPa)
#
#
# Indices 1 2 3 4 5 6 
#
# 1 0.010729 -0.002429 -0.002648 0.000000 -0.000489 0.000000
# 2 -0.002429 0.009380 -0.003912 0.000000 0.003477 0.000000
# 3 -0.002648 -0.003912 0.012310 0.000000 -0.002153 0.000000
# 4 0.000000 0.000000 0.000000 0.055551 0.000000 0.005869
# 5 -0.000489 0.003477 -0.002153 0.000000 0.028700 0.000000
# 6 0.000000 0.000000 0.000000 0.005869 0.000000 0.028746
#
#
# Mechanical properties :
#
#
# Convention : Reuss Voigt Hill
#
# Bulk Modulus (GPa) = 69.25327 71.38015 70.31671
# Shear Modulus (GPa) = 29.72499 33.26727 31.49613
#
# Velocity S-wave (km/s) = 3.82948 4.05123 3.94192
# Velocity P-wave (km/s) = 7.32936 7.55638 7.44374
#
# Compressibility (1/GPa) = 0.01443975
#
# Stress axis : x y z
#
# Youngs Moduli (GPa) = 93.20707 106.60503 81.23487
#
# Poissons Ratio (x) = 0.25895 0.21514
# Poissons Ratio (y) = 0.22640 0.31781
# Poissons Ratio (z) = 0.24685 0.41707
#
# Static dielectric constant tensor:
#      x y z
#    x 3.790900 0.000000 0.103700 
#    y 0.000000 3.833010 0.000000 
#    z 0.103700 0.000000 3.728270 
# 
# 
# High freq. dielectric constant tensor:
#      x y z
#    x 1.802480 0.000000 0.006980 
#    y 0.000000 1.792420 0.000000 
#    z 0.006980 0.000000 1.801370 
# 
# From -- ./inp_files/30047.got.cif
#   From: 2010.06.25/outbox.cif.g09.slc.cpg/sg10_16_cif.got.tgz:30047.got - 2010.06.27 22:07:45.
