data_PCOD8066448
_publ_section_title
;
Structure prediction by ZEFSAII (Michael W. Deem and Ramdas Pophale) SiO2 
 PCOD8066448
Probable space group: P 2/M
;
_chemical_formula_sum "Si O2"
_cell_formula_units_Z 24
_cell_length_a 9.111264
_cell_length_b 16.308489
_cell_length_c 8.882286
_cell_angle_alpha 90.000000
_cell_angle_beta 121.835342
_cell_angle_gamma 90.000000
_cell_volume 1121.282365
_symmetry_space_group_name_H-M "P 2/M"
_symmetry_group_IT_number 10
_symmetry_cell_setting 'monoclinic'
loop_
_space_group_symop_operation_xyz
x,y,z
-x,y,-z
-x,-y,-z
x,-y,z
loop_
_atom_site_type_symbol
_atom_site_label
_atom_site_fract_x
_atom_site_fract_y
_atom_site_fract_z
Si Si1 0.680112 0.405628 0.667650
Si Si2 0.859734 0.136441 0.031623
Si Si3 0.519547 0.096890 0.686642
Si Si4 0.008192 0.316256 0.836927
Si Si5 0.824390 0.091945 0.344668
Si Si6 0.669399 0.593963 0.014790
O O1 0.500000 0.379563 0.500000
O O2 0.729477 0.500000 0.657092
O O3 0.655324 0.392236 0.830587
O O4 0.822550 0.344005 0.669745
O O5 0.954094 0.219987 0.134368
O O6 0.817983 0.087483 0.160533
O O7 0.682377 0.147185 0.841927
O O8 0.000000 0.090268 0.000000
O O9 0.500000 0.116015 0.500000
O O10 0.349244 0.131764 0.680166
O O11 0.550070 0.000000 0.732649
O O12 0.164034 0.358345 0.829489
O O13 0.000000 0.354950 0.000000
O O14 0.000000 0.136802 0.500000
O O15 0.827251 0.000000 0.411319
O O16 0.689548 0.500000 0.073077
O O17 0.500000 0.632403 0.000000
#
# Coordination Sequence:
#
# PCOD8066448 Si02
#       6
#     4   4   4   4   4   4
#     4   9  17  33  58  82 105 139 184 230 272 318
#     4  11  22  36  54  81 115 151 188 226 281 342
#     4  10  21  38  61  86 110 141 186 240 290 336
#     4   9  19  35  52  76 109 146 183 217 267 331
#     4  10  21  38  59  83 111 145 189 236 280 331
#     4   9  17  31  52  77 104 137 178 221 265 316
#
# _framework density 21.404062
#
# number of rings (size 3 to 8) (size 9 to 14) (size 15 to 20)
#    0.000    2.333    0.000    2.500    0.000    7.333 
#    0.000   15.000    0.000    4.000    0.000    0.000 
#    0.000    0.000    0.000    0.000    0.000    0.000 
#
# Total GULP energy -297436.572818 kJ/mol
# GULP energy per Si atom -12393.190534 kJ/mol
# Density = 2.135535 g / cm^3
# Si number density = 21.404062 Si / 1000 Ang^3
#
#
#
# Elastic Constant Matrix: (Units=GPa)
#
#
# Indices 1 2 3 4 5 6 
#
# 1 175.0106 25.7509 54.2439 0.0000 24.3230 0.0000
# 2 25.7509 57.8982 18.0183 0.0000 18.0326 0.0000
# 3 54.2439 18.0183 111.8869 0.0000 24.5508 0.0000
# 4 0.0000 0.0000 0.0000 20.1132 0.0000 6.0052
# 5 24.3230 18.0326 24.5508 0.0000 45.9763 0.0000
# 6 0.0000 0.0000 0.0000 6.0052 0.0000 20.7184
#
#
#
# Elastic Compliance Matrix: (Units=1/GPa)
#
#
# Indices 1 2 3 4 5 6 
#
# 1 0.007058 -0.001790 -0.002796 0.000000 -0.001539 0.000000
# 2 -0.001790 0.020409 -0.000986 0.000000 -0.006531 0.000000
# 3 -0.002796 -0.000986 0.011375 0.000000 -0.004209 0.000000
# 4 0.000000 0.000000 0.000000 0.054429 0.000000 -0.015776
# 5 -0.001539 -0.006531 -0.004209 0.000000 0.027374 0.000000
# 6 0.000000 0.000000 0.000000 -0.015776 0.000000 0.052839
#
#
# Mechanical properties :
#
#
# Convention : Reuss Voigt Hill
#
# Bulk Modulus (GPa) = 36.10217 60.09130 48.09674
# Shear Modulus (GPa) = 25.79205 33.81377 29.80291
#
# Velocity S-wave (km/s) = 3.47509 3.97896 3.73553
# Velocity P-wave (km/s) = 5.74502 7.01749 6.41289
#
# Compressibility (1/GPa) = 0.02769916
#
# Stress axis : x y z
#
# Youngs Moduli (GPa) = 141.68973 48.99881 87.91032
#
# Poissons Ratio (x) = 0.08769 0.24578
# Poissons Ratio (y) = 0.25357 0.08666
# Poissons Ratio (z) = 0.39613 0.04830
#
# Static dielectric constant tensor:
#      x y z
#    x 4.340600 0.000000 0.269770 
#    y 0.000000 3.464090 0.000000 
#    z 0.269770 0.000000 3.729500 
# 
# 
# High freq. dielectric constant tensor:
#      x y z
#    x 1.858300 0.000000 0.020300 
#    y 0.000000 1.807340 0.000000 
#    z 0.020300 0.000000 1.824050 
# 
# From -- ./inp_files/20258.got.cif
#   From: 2010.06.25/outbox.cif.g09.slc.cpg/sg10_11_cif.got.tgz:20258.got - 2010.06.27 22:07:45.
