data_PCOD8066909
_publ_section_title
;
Structure prediction by ZEFSAII (Michael W. Deem and Ramdas Pophale) SiO2 
 PCOD8066909
Probable space group: P 2/M
;
_chemical_formula_sum "Si O2"
_cell_formula_units_Z 22
_cell_length_a 25.455894
_cell_length_b 9.906207
_cell_length_c 23.359333
_cell_angle_alpha 90.000000
_cell_angle_beta 168.806295
_cell_angle_gamma 90.000000
_cell_volume 1143.513196
_symmetry_space_group_name_H-M "P 2/M"
_symmetry_group_IT_number 10
_symmetry_cell_setting 'monoclinic'
loop_
_space_group_symop_operation_xyz
x,y,z
-x,y,-z
-x,-y,-z
x,-y,z
loop_
_atom_site_type_symbol
_atom_site_label
_atom_site_fract_x
_atom_site_fract_y
_atom_site_fract_z
Si Si1 0.646840 0.349001 0.774794
Si Si2 0.701865 0.339000 0.167343
Si Si3 0.809745 0.500000 0.851254
Si Si4 0.477539 0.661048 0.148112
Si Si5 0.929234 0.339553 0.190517
Si Si6 0.704347 0.847172 0.665751
O O1 0.527613 0.500000 0.662903
O O2 0.841703 0.367681 0.926633
O O3 0.401932 0.247685 0.499170
O O4 0.819959 0.288893 0.012261
O O5 0.701444 0.500000 0.166549
O O6 0.000000 0.283627 0.500000
O O7 0.500000 0.283564 0.000000
O O8 0.606577 0.283315 0.004022
O O9 0.500000 0.500000 0.500000
O O10 0.000000 0.500000 0.000000
O O11 0.480344 0.500000 0.150572
O O12 0.771740 0.719186 0.479245
O O13 0.264847 0.716189 0.967114
O O14 0.939333 0.500000 0.202494
O O15 0.500000 0.838928 0.500000
O O16 0.726335 0.000000 0.665940
O O17 0.000000 0.793227 0.000000
#
# Coordination Sequence:
#
# PCOD8066909 Si02
#       6
#     4   4   2   4   4   4
#     4   9  21  36  52  77  98 130 162 209 245 310
#     4   9  15  22  33  51  74 107 152 192 225 266
#     4  10  22  34  48  72 100 124 152 204 256 292
#     4   9  16  25  39  54  82 115 149 194 235 274
#     4   9  17  29  40  60  84 114 151 189 237 283
#     4  10  22  39  56  75 100 129 163 204 254 309
#
# _framework density 19.238956000000002
#
# number of rings (size 3 to 8) (size 9 to 14) (size 15 to 20)
#    0.545    2.182    0.000    1.636    0.000   10.545 
#    0.000    0.000    0.000    0.000    0.000    0.000 
#    0.000    0.000    0.000    0.000    0.000   18.182 
#
# Total GULP energy -272623.489953 kJ/mol
# GULP energy per Si atom -12391.976816 kJ/mol
# Density = 1.919517 g / cm^3
# Si number density = 19.238956 Si / 1000 Ang^3
#
#
#
# Elastic Constant Matrix: (Units=GPa)
#
#
# Indices 1 2 3 4 5 6 
#
# 1 161.7150 7.0361 93.6457 0.0000 -8.1933 0.0000
# 2 7.0361 32.3631 24.1081 0.0000 -11.7632 0.0000
# 3 93.6457 24.1081 192.3378 0.0000 -11.0212 0.0000
# 4 0.0000 0.0000 0.0000 13.7270 0.0000 -1.2635
# 5 -8.1933 -11.7632 -11.0212 0.0000 45.3246 0.0000
# 6 0.0000 0.0000 0.0000 -1.2635 0.0000 2.7564
#
#
#
# Elastic Compliance Matrix: (Units=1/GPa)
#
#
# Indices 1 2 3 4 5 6 
#
# 1 0.008705 0.001732 -0.004401 0.000000 0.000953 0.000000
# 2 0.001732 0.037478 -0.005036 0.000000 0.008815 0.000000
# 3 -0.004401 -0.005036 0.007964 0.000000 -0.000166 0.000000
# 4 0.000000 0.000000 0.000000 0.076058 0.000000 0.034864
# 5 0.000953 0.008815 -0.000166 0.000000 0.024483 0.000000
# 6 0.000000 0.000000 0.000000 0.034864 0.000000 0.378768
#
#
# Mechanical properties :
#
#
# Convention : Reuss Voigt Hill
#
# Bulk Modulus (GPa) = 25.81455 70.66620 48.24037
# Shear Modulus (GPa) = 8.90031 29.80335 19.35183
#
# Velocity S-wave (km/s) = 2.15319 3.94015 3.17498
# Velocity P-wave (km/s) = 4.43042 7.58355 6.21043
#
# Compressibility (1/GPa) = 0.03873784
#
# Stress axis : x y z
#
# Youngs Moduli (GPa) = 114.87555 26.68212 125.57200
#
# Poissons Ratio (x) = -0.04622 0.55262
# Poissons Ratio (y) = -0.19898 0.63236
# Poissons Ratio (z) = 0.50555 0.13437
#
# Static dielectric constant tensor:
#      x y z
#    x 3.620090 0.000000 -0.110900 
#    y 0.000000 2.962160 0.000000 
#    z -0.110900 0.000000 3.697880 
# 
# 
# High freq. dielectric constant tensor:
#      x y z
#    x 1.753150 0.000000 -0.003470 
#    y 0.000000 1.662800 0.000000 
#    z -0.003470 0.000000 1.762280 
# 
# From -- ./inp_files/91243.got.cif
#   From: 2010.06.25/outbox.cif.g09.slc.cpg/sg10_46_cif.got.tgz:91243.got - 2010.06.27 22:07:45.
