data_PCOD8066811
_publ_section_title
;
Structure prediction by ZEFSAII (Michael W. Deem and Ramdas Pophale) SiO2 
 PCOD8066811
Probable space group: P 2/M
;
_chemical_formula_sum "Si O2"
_cell_formula_units_Z 28
_cell_length_a 8.867283
_cell_length_b 18.087048
_cell_length_c 15.542663
_cell_angle_alpha 90.000000
_cell_angle_beta 33.001467
_cell_angle_gamma 90.000000
_cell_volume 1357.718007
_symmetry_space_group_name_H-M "P 2/M"
_symmetry_group_IT_number 10
_symmetry_cell_setting 'monoclinic'
loop_
_space_group_symop_operation_xyz
x,y,z
-x,y,-z
-x,-y,-z
x,-y,z
loop_
_atom_site_type_symbol
_atom_site_label
_atom_site_fract_x
_atom_site_fract_y
_atom_site_fract_z
Si Si1 0.191859 0.083095 0.154325
Si Si2 0.832674 0.584153 0.662711
Si Si3 0.247002 0.637789 0.942252
Si Si4 0.756716 0.083591 0.676603
Si Si5 0.305267 0.798884 0.844973
Si Si6 0.182029 0.324028 0.157411
Si Si7 0.763174 0.802301 0.315490
O O1 0.109384 0.085056 0.293447
O O2 0.958304 0.125850 0.212351
O O3 0.198731 0.000000 0.113356
O O4 0.500000 0.118051 0.000000
O O5 0.925218 0.500000 0.635345
O O6 0.508057 0.586809 0.795578
O O7 0.886193 0.630330 0.723848
O O8 0.000000 0.616405 0.500000
O O9 0.330171 0.723804 0.888338
O O10 0.145350 0.626030 0.089311
O O11 0.000000 0.611458 0.000000
O O12 0.504527 0.139710 0.788608
O O13 0.000000 0.112510 0.500000
O O14 0.660693 0.000000 0.698456
O O15 0.357500 0.779833 0.719786
O O16 0.000000 0.832238 0.000000
O O17 0.957564 0.259384 0.264965
O O18 0.500000 0.294484 0.000000
O O19 0.500000 0.819112 0.500000
#
# Coordination Sequence:
#
# PCOD8066811 Si02
#       7
#     4   4   4   4   4   4   4
#     4  10  22  39  59  83 116 162 212 255 305 369
#     4  10  24  43  67  98 126 160 201 245 296 361
#     4  10  21  40  63  92 127 162 202 253 300 360
#     4  10  22  39  58  83 117 159 207 257 312 368
#     4  11  22  38  58  87 123 156 205 257 302 365
#     4  10  22  40  64  88 124 164 204 250 294 365
#     4  12  24  36  58  91 122 158 204 258 316 361
#
# _framework density 20.622838000000002
#
# number of rings (size 3 to 8) (size 9 to 14) (size 15 to 20)
#    0.000    1.571    2.857    2.143    6.000    4.571 
#    0.000    0.000    0.000    2.143    0.000    0.000 
#    0.000    0.000    0.000    0.000    0.000    0.000 
#
# Total GULP energy -347153.164590 kJ/mol
# GULP energy per Si atom -12398.327307 kJ/mol
# Density = 2.057590 g / cm^3
# Si number density = 20.622838 Si / 1000 Ang^3
#
#
#
# Elastic Constant Matrix: (Units=GPa)
#
#
# Indices 1 2 3 4 5 6 
#
# 1 97.6000 23.5132 24.2448 0.0000 15.2203 0.0000
# 2 23.5132 66.6303 19.7920 0.0000 1.4199 0.0000
# 3 24.2448 19.7920 113.0509 0.0000 16.1810 0.0000
# 4 0.0000 0.0000 0.0000 28.6094 0.0000 2.6636
# 5 15.2203 1.4199 16.1810 0.0000 37.5968 0.0000
# 6 0.0000 0.0000 0.0000 2.6636 0.0000 17.2242
#
#
#
# Elastic Compliance Matrix: (Units=1/GPa)
#
#
# Indices 1 2 3 4 5 6 
#
# 1 0.012149 -0.003800 -0.001339 0.000000 -0.004198 0.000000
# 2 -0.003800 0.017034 -0.002446 0.000000 0.001948 0.000000
# 3 -0.001339 -0.002446 0.010092 0.000000 -0.003709 0.000000
# 4 0.000000 0.000000 0.000000 0.035464 0.000000 -0.005484
# 5 -0.004198 0.001948 -0.003709 0.000000 0.029820 0.000000
# 6 0.000000 0.000000 0.000000 -0.005484 0.000000 0.058906
#
#
# Mechanical properties :
#
#
# Convention : Reuss Voigt Hill
#
# Bulk Modulus (GPa) = 41.48621 45.82013 43.65317
# Shear Modulus (GPa) = 26.78515 30.66816 28.72666
#
# Velocity S-wave (km/s) = 3.60781 3.86047 3.73628
# Velocity P-wave (km/s) = 6.12498 6.49133 6.31081
#
# Compressibility (1/GPa) = 0.02410439
#
# Stress axis : x y z
#
# Youngs Moduli (GPa) = 82.31314 58.70536 99.08965
#
# Poissons Ratio (x) = 0.22307 0.13271
# Poissons Ratio (y) = 0.31278 0.24238
# Poissons Ratio (z) = 0.11024 0.14360
#
# Static dielectric constant tensor:
#      x y z
#    x 3.881760 0.000000 0.122740 
#    y 0.000000 3.488220 0.000000 
#    z 0.122740 0.000000 3.888460 
# 
# 
# High freq. dielectric constant tensor:
#      x y z
#    x 1.811340 0.000000 0.011850 
#    y 0.000000 1.786750 0.000000 
#    z 0.011850 0.000000 1.817210 
# 
# From -- ./inp_files/62538.got.cif
#   From: 2010.06.25/outbox.cif.g09.slc.cpg/sg10_32_cif.got.tgz:62538.got - 2010.06.27 22:07:45.
