data_PCOD8066504
_publ_section_title
;
Structure prediction by ZEFSAII (Michael W. Deem and Ramdas Pophale) SiO2 
 PCOD8066504
Probable space group: P 2/M
;
_chemical_formula_sum "Si O2"
_cell_formula_units_Z 32
_cell_length_a 23.769217
_cell_length_b 9.225676
_cell_length_c 15.260277
_cell_angle_alpha 90.000000
_cell_angle_beta 28.259342
_cell_angle_gamma 90.000000
_cell_volume 1584.388938
_symmetry_space_group_name_H-M "P 2/M"
_symmetry_group_IT_number 10
_symmetry_cell_setting 'monoclinic'
loop_
_space_group_symop_operation_xyz
x,y,z
-x,y,-z
-x,-y,-z
x,-y,z
loop_
_atom_site_type_symbol
_atom_site_label
_atom_site_fract_x
_atom_site_fract_y
_atom_site_fract_z
Si Si1 0.408295 0.663214 0.204427
Si Si2 0.025543 0.830259 0.363981
Si Si3 0.632585 0.663499 0.318159
Si Si4 0.698567 0.164431 0.384901
Si Si5 0.135338 0.333046 0.550348
Si Si6 0.266732 0.664647 0.012672
Si Si7 0.895696 0.668718 0.208632
Si Si8 0.476603 0.164964 0.801682
O O1 0.409493 0.500000 0.242345
O O2 0.275391 0.701767 0.356139
O O3 0.446832 0.779316 0.222620
O O4 0.500000 0.675624 0.000000
O O5 0.921985 0.768150 0.444594
O O6 0.000000 0.797129 0.500000
O O7 0.146428 0.752231 0.174106
O O8 0.037736 0.000000 0.328832
O O9 0.500000 0.727315 0.500000
O O10 0.632165 0.500000 0.356176
O O11 0.714742 0.760136 0.268535
O O12 0.683758 0.668923 0.152074
O O13 0.776800 0.244683 0.349994
O O14 0.560291 0.174431 0.601553
O O15 0.742658 0.000000 0.317162
O O16 0.111353 0.500000 0.558057
O O17 0.076866 0.300913 0.726415
O O18 0.245414 0.500000 0.073807
O O19 0.359256 0.738635 0.951861
O O20 0.869854 0.500000 0.228937
O O21 0.000000 0.721765 0.000000
O O22 0.436795 0.000000 0.873847
#
# Coordination Sequence:
#
# PCOD8066504 Si02
#       8
#     4   4   4   4   4   4   4   4
#     4  10  22  40  65  96 123 156 205 256 311 371
#     4  11  27  48  67  91 128 171 212 264 327 381
#     4  10  21  38  60  88 122 162 205 249 302 364
#     4  11  23  37  58  89 126 164 202 250 310 372
#     4  10  22  42  66  94 128 165 211 264 309 364
#     4  11  24  42  67  93 122 166 218 265 310 368
#     4  10  22  40  63  89 121 163 209 255 306 369
#     4  11  23  39  61  93 130 164 203 254 319 380
#
# _framework density 20.19706
#
# number of rings (size 3 to 8) (size 9 to 14) (size 15 to 20)
#    0.000    1.500    2.500    1.500    3.500    4.750 
#    0.000    0.000    0.000    0.000    0.000    0.000 
#    0.000    0.000    0.000    0.000    0.000    0.000 
#
# Total GULP energy -396907.023214 kJ/mol
# GULP energy per Si atom -12403.344475 kJ/mol
# Density = 2.015109 g / cm^3
# Si number density = 20.197060 Si / 1000 Ang^3
#
#
#
# Elastic Constant Matrix: (Units=GPa)
#
#
# Indices 1 2 3 4 5 6 
#
# 1 125.1165 77.3913 38.6922 0.0000 -8.4770 0.0000
# 2 77.3913 116.7604 37.0463 0.0000 -4.4328 0.0000
# 3 38.6922 37.0463 97.5511 0.0000 -5.6421 0.0000
# 4 0.0000 0.0000 0.0000 27.5188 0.0000 5.2776
# 5 -8.4770 -4.4328 -5.6421 0.0000 28.0646 0.0000
# 6 0.0000 0.0000 0.0000 5.2776 0.0000 15.6721
#
#
#
# Elastic Compliance Matrix: (Units=1/GPa)
#
#
# Indices 1 2 3 4 5 6 
#
# 1 0.014155 -0.008587 -0.002210 0.000000 0.002475 0.000000
# 2 -0.008587 0.014965 -0.002317 0.000000 -0.000696 0.000000
# 3 -0.002210 -0.002317 0.012089 0.000000 0.001397 0.000000
# 4 0.000000 0.000000 0.000000 0.038848 0.000000 -0.013082
# 5 0.002475 -0.000696 0.001397 0.000000 0.036551 0.000000
# 6 0.000000 0.000000 0.000000 -0.013082 0.000000 0.068213
#
#
# Mechanical properties :
#
#
# Convention : Reuss Voigt Hill
#
# Bulk Modulus (GPa) = 66.75920 71.74308 69.25114
# Shear Modulus (GPa) = 23.14346 26.67098 24.90722
#
# Velocity S-wave (km/s) = 3.38876 3.63786 3.51552
# Velocity P-wave (km/s) = 6.95969 7.29685 7.13026
#
# Compressibility (1/GPa) = 0.01497921
#
# Stress axis : x y z
#
# Youngs Moduli (GPa) = 70.64399 66.82135 82.72263
#
# Poissons Ratio (x) = 0.57382 0.18284
# Poissons Ratio (y) = 0.60664 0.19171
# Poissons Ratio (z) = 0.15614 0.15486
#
# Static dielectric constant tensor:
#      x y z
#    x 3.563210 0.000000 0.028410 
#    y 0.000000 3.775070 0.000000 
#    z 0.028410 0.000000 3.695510 
# 
# 
# High freq. dielectric constant tensor:
#      x y z
#    x 1.790840 0.000000 -0.000190 
#    y 0.000000 1.790960 0.000000 
#    z -0.000190 0.000000 1.791650 
# 
# From -- ./inp_files/71487.got.cif
#   From: 2010.06.25/outbox.cif.g09.slc.cpg/sg10_36_cif.got.tgz:71487.got - 2010.06.27 22:07:45.
