data_PCOD8066575
_publ_section_title
;
Structure prediction by ZEFSAII (Michael W. Deem and Ramdas Pophale) SiO2 
 PCOD8066575
Probable space group: P 2/M
;
_chemical_formula_sum "Si O2"
_cell_formula_units_Z 24
_cell_length_a 14.717366
_cell_length_b 8.573286
_cell_length_c 14.991292
_cell_angle_alpha 90.000000
_cell_angle_beta 139.962932
_cell_angle_gamma 90.000000
_cell_volume 1216.798288
_symmetry_space_group_name_H-M "P 2/M"
_symmetry_group_IT_number 10
_symmetry_cell_setting 'monoclinic'
loop_
_space_group_symop_operation_xyz
x,y,z
-x,y,-z
-x,-y,-z
x,-y,z
loop_
_atom_site_type_symbol
_atom_site_label
_atom_site_fract_x
_atom_site_fract_y
_atom_site_fract_z
Si Si1 0.653002 0.817998 0.142312
Si Si2 0.356522 0.683090 0.178800
Si Si3 0.659509 0.818182 0.644182
Si Si4 0.351913 0.180963 0.656872
Si Si5 0.153361 0.682798 0.366455
Si Si6 0.166916 0.316402 0.874431
O O1 0.684113 0.779193 0.268330
O O2 0.775216 0.739343 0.176896
O O3 0.656333 0.000000 0.124239
O O4 0.500000 0.749180 0.000000
O O5 0.334126 0.500000 0.177917
O O6 0.307597 0.775665 0.229363
O O7 0.519575 0.714472 0.280520
O O8 0.261866 0.749975 0.026687
O O9 0.500000 0.771090 0.500000
O O10 0.763472 0.718272 0.661370
O O11 0.686307 0.000000 0.646871
O O12 0.215606 0.221662 0.496274
O O13 0.392941 0.000000 0.675712
O O14 0.160987 0.500000 0.393460
O O15 0.993079 0.741202 0.233727
O O16 0.175769 0.500000 0.883598
#
# Coordination Sequence:
#
# PCOD8066575 Si02
#       6
#     4   4   4   4   4   4
#     4  10  21  38  62  90 121 160 202 247 298 354
#     4  11  22  38  63  91 119 157 201 246 299 354
#     4  11  23  39  62  91 122 156 200 248 296 357
#     4  11  22  38  61  91 122 155 203 251 294 354
#     4  11  24  42  62  88 124 161 199 246 303 357
#     4  10  24  42  61  90 125 159 199 249 299 356
#
# _framework density 19.723894000000001
#
# number of rings (size 3 to 8) (size 9 to 14) (size 15 to 20)
#    0.000    1.333    3.333    2.000    0.000    5.667 
#    0.000    6.667    0.000    0.000    0.000    0.000 
#    0.000    0.000    0.000    0.000    0.000    0.000 
#
# Total GULP energy -297754.602755 kJ/mol
# GULP energy per Si atom -12406.441781 kJ/mol
# Density = 1.967900 g / cm^3
# Si number density = 19.723894 Si / 1000 Ang^3
#
#
#
# Elastic Constant Matrix: (Units=GPa)
#
#
# Indices 1 2 3 4 5 6 
#
# 1 128.1815 18.6046 62.5971 0.0000 -1.9741 0.0000
# 2 18.6046 26.7830 24.3276 0.0000 2.2886 0.0000
# 3 62.5971 24.3276 110.0433 0.0000 -13.2407 0.0000
# 4 0.0000 0.0000 0.0000 12.0789 0.0000 -8.8280
# 5 -1.9741 2.2886 -13.2407 0.0000 37.3257 0.0000
# 6 0.0000 0.0000 0.0000 -8.8280 0.0000 31.8914
#
#
#
# Elastic Compliance Matrix: (Units=1/GPa)
#
#
# Indices 1 2 3 4 5 6 
#
# 1 0.010995 -0.002106 -0.005957 0.000000 -0.001403 0.000000
# 2 -0.002106 0.048845 -0.010419 0.000000 -0.006802 0.000000
# 3 -0.005957 -0.010419 0.015479 0.000000 0.005815 0.000000
# 4 0.000000 0.000000 0.000000 0.103786 0.000000 0.028729
# 5 -0.001403 -0.006802 0.005815 0.000000 0.029197 0.000000
# 6 0.000000 0.000000 0.000000 0.028729 0.000000 0.039309
#
#
# Mechanical properties :
#
#
# Convention : Reuss Voigt Hill
#
# Bulk Modulus (GPa) = 26.07276 52.89626 39.48451
# Shear Modulus (GPa) = 16.81461 26.89109 21.85285
#
# Velocity S-wave (km/s) = 2.92293 3.69640 3.33218
# Velocity P-wave (km/s) = 4.96376 6.71524 5.90480
#
# Compressibility (1/GPa) = 0.03835421
#
# Stress axis : x y z
#
# Youngs Moduli (GPa) = 90.95158 20.47293 64.60342
#
# Poissons Ratio (x) = 0.04312 0.38487
# Poissons Ratio (y) = 0.19158 0.67307
# Poissons Ratio (z) = 0.54184 0.21330
#
# Static dielectric constant tensor:
#      x y z
#    x 3.594390 0.000000 -0.062270 
#    y 0.000000 3.496990 0.000000 
#    z -0.062270 0.000000 3.814000 
# 
# 
# High freq. dielectric constant tensor:
#      x y z
#    x 1.774610 0.000000 -0.010190 
#    y 0.000000 1.767860 0.000000 
#    z -0.010190 0.000000 1.775150 
# 
# From -- ./inp_files/66329.got.cif
#   From: 2010.06.25/outbox.cif.g09.slc.cpg/sg10_34_cif.got.tgz:66329.got - 2010.06.27 22:07:45.
