data_PCOD8066052
_publ_section_title
;
Structure prediction by ZEFSAII (Michael W. Deem and Ramdas Pophale) SiO2 
 PCOD8066052
Probable space group: P 2/M
;
_chemical_formula_sum "Si O2"
_cell_formula_units_Z 32
_cell_length_a 28.335029
_cell_length_b 8.905926
_cell_length_c 12.074219
_cell_angle_alpha 90.000000
_cell_angle_beta 30.849511
_cell_angle_gamma 90.000000
_cell_volume 1562.417314
_symmetry_space_group_name_H-M "P 2/M"
_symmetry_group_IT_number 10
_symmetry_cell_setting 'monoclinic'
loop_
_space_group_symop_operation_xyz
x,y,z
-x,y,-z
-x,-y,-z
x,-y,z
loop_
_atom_site_type_symbol
_atom_site_label
_atom_site_fract_x
_atom_site_fract_y
_atom_site_fract_z
Si Si1 0.368021 0.323645 0.478166
Si Si2 0.883623 0.822973 0.437022
Si Si3 0.978705 0.675995 0.670209
Si Si4 0.827276 0.821722 0.106669
Si Si5 0.138926 0.668908 0.740042
Si Si6 0.671374 0.172907 0.897635
Si Si7 0.474476 0.322932 0.671851
Si Si8 0.354806 0.334515 0.262796
O O1 0.344575 0.500000 0.538288
O O2 0.277907 0.229147 0.688833
O O3 0.447625 0.269226 0.399563
O O4 0.403364 0.289975 0.281190
O O5 0.942870 0.752657 0.414735
O O6 0.910177 0.748551 0.265482
O O7 0.778313 0.785144 0.679355
O O8 0.900967 0.000000 0.393490
O O9 0.975045 0.500000 0.703758
O O10 0.000000 0.708551 0.500000
O O11 0.880532 0.751681 0.894678
O O12 0.880090 0.763274 0.110306
O O13 0.832663 0.000000 0.093276
O O14 0.099720 0.500000 0.831991
O O15 0.247225 0.664333 0.504536
O O16 0.622334 0.218929 0.880728
O O17 0.653900 0.000000 0.951972
O O18 0.624542 0.259292 0.093650
O O19 0.500000 0.258780 0.500000
O O20 0.466168 0.500000 0.685776
O O21 0.387480 0.500000 0.157798
#
# Coordination Sequence:
#
# PCOD8066052 Si02
#       8
#     4   4   4   4   4   4   4   4
#     4   9  19  37  59  84 114 148 187 232 281 333
#     4  10  21  38  60  88 120 151 186 232 288 342
#     4  11  25  43  61  82 110 149 198 243 281 333
#     4  11  22  37  60  88 118 150 184 231 291 346
#     4   9  17  33  58  87 118 151 188 228 275 337
#     4  10  21  36  56  83 116 148 179 226 283 337
#     4  10  22  39  58  80 108 147 196 240 275 325
#     4   8  15  30  54  81 110 144 181 223 272 331
#
# _framework density 20.481083999999999
#
# number of rings (size 3 to 8) (size 9 to 14) (size 15 to 20)
#    0.000    2.250    0.000    3.375    0.000    8.250 
#    0.000    8.750    0.000    0.000    0.000    0.000 
#    0.000    0.000    0.000    0.000    0.000    0.000 
#
# Total GULP energy -396844.418228 kJ/mol
# GULP energy per Si atom -12401.388070 kJ/mol
# Density = 2.043447 g / cm^3
# Si number density = 20.481084 Si / 1000 Ang^3
#
#
#
# Elastic Constant Matrix: (Units=GPa)
#
#
# Indices 1 2 3 4 5 6 
#
# 1 64.6077 13.4623 -2.6439 0.0000 7.4962 0.0000
# 2 13.4623 81.9635 25.6572 0.0000 4.2637 0.0000
# 3 -2.6439 25.6572 58.7280 0.0000 18.4820 0.0000
# 4 0.0000 0.0000 0.0000 31.5700 0.0000 0.3696
# 5 7.4962 4.2637 18.4820 0.0000 27.5264 0.0000
# 6 0.0000 0.0000 0.0000 0.3696 0.0000 15.2459
#
#
#
# Elastic Compliance Matrix: (Units=1/GPa)
#
#
# Indices 1 2 3 4 5 6 
#
# 1 0.017360 -0.003983 0.004837 0.000000 -0.007358 0.000000
# 2 -0.003983 0.015182 -0.008132 0.000000 0.004193 0.000000
# 3 0.004837 -0.008132 0.026393 0.000000 -0.017779 0.000000
# 4 0.000000 0.000000 0.000000 0.031685 0.000000 -0.000768
# 5 -0.007358 0.004193 -0.017779 0.000000 0.049620 0.000000
# 6 0.000000 0.000000 0.000000 -0.000768 0.000000 0.065610
#
#
# Mechanical properties :
#
#
# Convention : Reuss Voigt Hill
#
# Bulk Modulus (GPa) = 22.53235 30.91672 26.72454
# Shear Modulus (GPa) = 21.25874 26.12336 23.69105
#
# Velocity S-wave (km/s) = 3.22525 3.57527 3.40476
# Velocity P-wave (km/s) = 4.98950 5.67199 5.34165
#
# Compressibility (1/GPa) = 0.04438063
#
# Stress axis : x y z
#
# Youngs Moduli (GPa) = 57.60494 65.86739 37.88885
#
# Poissons Ratio (x) = 0.26233 -0.18328
# Poissons Ratio (y) = 0.22942 0.30809
# Poissons Ratio (z) = -0.27865 0.53560
#
# Static dielectric constant tensor:
#      x y z
#    x 3.826190 0.000000 0.155340 
#    y 0.000000 3.687970 0.000000 
#    z 0.155340 0.000000 3.750970 
# 
# 
# High freq. dielectric constant tensor:
#      x y z
#    x 1.796990 0.000000 0.002230 
#    y 0.000000 1.798290 0.000000 
#    z 0.002230 0.000000 1.803940 
# 
# From -- ./inp_files/58113.got.cif
#   From: 2010.06.25/outbox.cif.g09.slc.cpg/sg10_30_cif.got.tgz:58113.got - 2010.06.27 22:07:45.
