data_PCOD8066286
_publ_section_title
;
Structure prediction by ZEFSAII (Michael W. Deem and Ramdas Pophale) SiO2 
 PCOD8066286
Probable space group: P 2/M
;
_chemical_formula_sum "Si O2"
_cell_formula_units_Z 28
_cell_length_a 9.389710
_cell_length_b 9.135533
_cell_length_c 24.917290
_cell_angle_alpha 90.000000
_cell_angle_beta 139.258011
_cell_angle_gamma 90.000000
_cell_volume 1394.985727
_symmetry_space_group_name_H-M "P 2/M"
_symmetry_group_IT_number 10
_symmetry_cell_setting 'monoclinic'
loop_
_space_group_symop_operation_xyz
x,y,z
-x,y,-z
-x,-y,-z
x,-y,z
loop_
_atom_site_type_symbol
_atom_site_label
_atom_site_fract_x
_atom_site_fract_y
_atom_site_fract_z
Si Si1 0.908579 0.333652 0.809945
Si Si2 0.849651 0.663958 0.912334
Si Si3 0.898474 0.168797 0.367650
Si Si4 0.561013 0.164729 0.184143
Si Si5 0.651231 0.327630 0.492227
Si Si6 0.526133 0.826931 0.347553
Si Si7 0.666255 0.830713 0.093398
O O1 0.874792 0.500000 0.779583
O O2 0.971496 0.331833 0.890530
O O3 0.692157 0.241055 0.738875
O O4 0.113830 0.261949 0.839566
O O5 0.803442 0.500000 0.919030
O O6 0.617601 0.737480 0.838431
O O7 0.000000 0.744317 0.000000
O O8 0.791567 0.196639 0.278671
O O9 0.730265 0.209948 0.367237
O O10 0.103090 0.275653 0.427439
O O11 0.973904 0.000000 0.395693
O O12 0.557277 0.193372 0.119841
O O13 0.492741 0.000000 0.177856
O O14 0.500000 0.289658 0.500000
O O15 0.651459 0.500000 0.480410
O O16 0.559426 0.241879 0.415207
O O17 0.494898 0.000000 0.344211
O O18 0.725749 0.000000 0.099838
O O19 0.500000 0.773892 0.000000
#
# Coordination Sequence:
#
# PCOD8066286 Si02
#       7
#     4   4   4   4   4   4   4
#     4  11  23  38  60  90 124 161 205 253 306 363
#     4  10  21  37  58  87 122 160 203 249 301 360
#     4  10  22  41  64  92 122 159 206 249 301 359
#     4  10  21  38  60  88 120 158 206 253 298 354
#     4  11  26  44  64  95 129 159 197 242 297 362
#     4  11  23  42  67  92 122 159 203 250 302 362
#     4  10  22  39  59  87 123 165 211 256 306 361
#
# _framework density 20.071888999999999
#
# number of rings (size 3 to 8) (size 9 to 14) (size 15 to 20)
#    0.000    1.571    1.429    2.571    2.000    6.286 
#    0.000    0.000    0.000    0.000    0.000    0.000 
#    0.000    0.000    0.000    0.000    0.000    0.000 
#
# Total GULP energy -347239.036902 kJ/mol
# GULP energy per Si atom -12401.394175 kJ/mol
# Density = 2.002620 g / cm^3
# Si number density = 20.071889 Si / 1000 Ang^3
#
#
#
# Elastic Constant Matrix: (Units=GPa)
#
#
# Indices 1 2 3 4 5 6 
#
# 1 80.8099 47.4725 41.4955 0.0000 1.4258 0.0000
# 2 47.4725 93.8699 44.1008 0.0000 8.1982 0.0000
# 3 41.4955 44.1008 98.6329 0.0000 -3.9299 0.0000
# 4 0.0000 0.0000 0.0000 33.4238 0.0000 0.1757
# 5 1.4258 8.1982 -3.9299 0.0000 41.6193 0.0000
# 6 0.0000 0.0000 0.0000 0.1757 0.0000 29.3583
#
#
#
# Elastic Compliance Matrix: (Units=1/GPa)
#
#
# Indices 1 2 3 4 5 6 
#
# 1 0.019209 -0.007543 -0.004693 0.000000 0.000385 0.000000
# 2 -0.007543 0.016897 -0.004521 0.000000 -0.003497 0.000000
# 3 -0.004693 -0.004521 0.014230 0.000000 0.002395 0.000000
# 4 0.000000 0.000000 0.000000 0.029920 0.000000 -0.000179
# 5 0.000385 -0.003497 0.002395 0.000000 0.024929 0.000000
# 6 0.000000 0.000000 0.000000 -0.000179 0.000000 0.034063
#
#
# Mechanical properties :
#
#
# Convention : Reuss Voigt Hill
#
# Bulk Modulus (GPa) = 59.44829 59.93889 59.69359
# Shear Modulus (GPa) = 28.03152 30.22990 29.13071
#
# Velocity S-wave (km/s) = 3.74111 3.88504 3.81375
# Velocity P-wave (km/s) = 6.95292 7.07472 7.01408
#
# Compressibility (1/GPa) = 0.01682134
#
# Stress axis : x y z
#
# Youngs Moduli (GPa) = 52.05803 59.18127 70.27413
#
# Poissons Ratio (x) = 0.44642 0.32983
# Poissons Ratio (y) = 0.39269 0.31770
# Poissons Ratio (z) = 0.24433 0.26755
#
# Static dielectric constant tensor:
#      x y z
#    x 3.643780 0.000000 -0.220710 
#    y 0.000000 3.715380 0.000000 
#    z -0.220710 0.000000 3.812610 
# 
# 
# High freq. dielectric constant tensor:
#      x y z
#    x 1.785470 0.000000 -0.008560 
#    y 0.000000 1.783390 0.000000 
#    z -0.008560 0.000000 1.796410 
# 
# From -- ./inp_files/37310.got.cif
#   From: 2010.06.25/outbox.cif.g09.slc.cpg/sg10_19_cif.got.tgz:37310.got - 2010.06.27 22:07:45.
