data_PCOD8066926
_publ_section_title
;
Structure prediction by ZEFSAII (Michael W. Deem and Ramdas Pophale) SiO2 
 PCOD8066926
Probable space group: P 2/M
;
_chemical_formula_sum "Si O2"
_cell_formula_units_Z 32
_cell_length_a 12.180631
_cell_length_b 17.353297
_cell_length_c 15.323835
_cell_angle_alpha 90.000000
_cell_angle_beta 151.457537
_cell_angle_gamma 90.000000
_cell_volume 1547.655985
_symmetry_space_group_name_H-M "P 2/M"
_symmetry_group_IT_number 10
_symmetry_cell_setting 'monoclinic'
loop_
_space_group_symop_operation_xyz
x,y,z
-x,y,-z
-x,-y,-z
x,-y,z
loop_
_atom_site_type_symbol
_atom_site_label
_atom_site_fract_x
_atom_site_fract_y
_atom_site_fract_z
Si Si1 0.888369 0.292133 0.510893
Si Si2 0.280675 0.767650 0.903375
Si Si3 0.537107 0.177934 0.314412
Si Si4 0.709148 0.911454 0.587363
Si Si5 0.911611 0.337138 0.082457
Si Si6 0.326673 0.680708 0.255043
Si Si7 0.763827 0.410941 0.562997
Si Si8 0.773423 0.088856 0.030025
O O1 0.680161 0.232116 0.346604
O O2 0.809328 0.370563 0.501916
O O3 0.000000 0.319584 0.500000
O O4 0.059011 0.245905 0.691293
O O5 0.244511 0.722597 0.970726
O O6 0.500000 0.739362 0.000000
O O7 0.299869 0.858382 0.938654
O O8 0.715655 0.132880 0.500249
O O9 0.389891 0.233460 0.272408
O O10 0.375518 0.115336 0.156333
O O11 0.500000 0.878955 0.500000
O O12 0.661916 0.000000 0.533401
O O13 0.957517 0.899865 0.806092
O O14 0.140886 0.301106 0.200019
O O15 0.012566 0.403274 0.217326
O O16 0.764023 0.365852 0.895610
O O17 0.535585 0.630747 0.441579
O O18 0.712727 0.500000 0.511873
O O19 0.718867 0.000000 0.014793
#
# Coordination Sequence:
#
# PCOD8066926 Si02
#       8
#     4   4   4   4   4   4   4   4
#     4  10  22  40  65  93 121 161 210 261 313 365
#     4  11  22  40  66  87 122 163 212 262 310 372
#     4  11  21  37  64  90 119 163 211 262 307 372
#     4  10  23  38  55  85 126 166 204 255 316 374
#     4  10  22  40  60  93 124 162 203 252 304 367
#     4  10  22  36  64  92 125 160 204 250 305 364
#     4  10  23  41  63  94 128 162 201 248 308 375
#     4  11  23  40  61  90 125 165 211 259 317 373
#
# _framework density 20.67643
#
# number of rings (size 3 to 8) (size 9 to 14) (size 15 to 20)
#    0.000    1.625    2.500    1.500    3.500    2.500 
#    0.000    3.125    0.000    3.375    0.000    0.000 
#    0.000    0.000    0.000    0.000    0.000    0.000 
#
# Total GULP energy -396572.506871 kJ/mol
# GULP energy per Si atom -12392.890840 kJ/mol
# Density = 2.062937 g / cm^3
# Si number density = 20.676430 Si / 1000 Ang^3
#
#
#
# Elastic Constant Matrix: (Units=GPa)
#
#
# Indices 1 2 3 4 5 6 
#
# 1 127.9679 40.4660 20.2880 0.0000 15.8945 0.0000
# 2 40.4660 94.2492 28.9818 0.0000 1.9048 0.0000
# 3 20.2880 28.9818 86.6651 0.0000 2.7973 0.0000
# 4 0.0000 0.0000 0.0000 21.0725 0.0000 -3.6594
# 5 15.8945 1.9048 2.7973 0.0000 32.7912 0.0000
# 6 0.0000 0.0000 0.0000 -3.6594 0.0000 4.7889
#
#
#
# Elastic Compliance Matrix: (Units=1/GPa)
#
#
# Indices 1 2 3 4 5 6 
#
# 1 0.009704 -0.003815 -0.000854 0.000000 -0.004409 0.000000
# 2 -0.003815 0.013330 -0.003609 0.000000 0.001383 0.000000
# 3 -0.000854 -0.003609 0.012961 0.000000 -0.000482 0.000000
# 4 0.000000 0.000000 0.000000 0.054716 0.000000 0.041811
# 5 -0.004409 0.001383 -0.000482 0.000000 0.032594 0.000000
# 6 0.000000 0.000000 0.000000 0.041811 0.000000 0.240766
#
#
# Mechanical properties :
#
#
# Convention : Reuss Voigt Hill
#
# Bulk Modulus (GPa) = 51.44170 54.26153 52.85161
# Shear Modulus (GPa) = 12.91635 26.34027 19.62831
#
# Velocity S-wave (km/s) = 2.50209 3.57308 3.08443
# Velocity P-wave (km/s) = 5.76894 6.58200 6.18884
#
# Compressibility (1/GPa) = 0.01943948
#
# Stress axis : x y z
#
# Youngs Moduli (GPa) = 103.05315 75.01905 77.15417
#
# Poissons Ratio (x) = 0.28618 0.06586
# Poissons Ratio (y) = 0.39312 0.27847
# Poissons Ratio (z) = 0.08797 0.27077
#
# Static dielectric constant tensor:
#      x y z
#    x 4.069590 0.000000 0.030270 
#    y 0.000000 3.458000 0.000000 
#    z 0.030270 0.000000 3.985180 
# 
# 
# High freq. dielectric constant tensor:
#      x y z
#    x 1.799660 0.000000 0.001190 
#    y 0.000000 1.784600 0.000000 
#    z 0.001190 0.000000 1.829420 
# 
# From -- ./inp_files/51972.got.cif
#   From: 2010.06.25/outbox.cif.g09.slc.cpg/sg10_26_cif.got.tgz:51972.got - 2010.06.27 22:07:45.
