data_PCOD8066754
_publ_section_title
;
Structure prediction by ZEFSAII (Michael W. Deem and Ramdas Pophale) SiO2 
 PCOD8066754
Probable space group: P 2/M
;
_chemical_formula_sum "Si O2"
_cell_formula_units_Z 24
_cell_length_a 11.506389
_cell_length_b 8.910072
_cell_length_c 21.767023
_cell_angle_alpha 90.000000
_cell_angle_beta 31.050626
_cell_angle_gamma 90.000000
_cell_volume 1151.056515
_symmetry_space_group_name_H-M "P 2/M"
_symmetry_group_IT_number 10
_symmetry_cell_setting 'monoclinic'
loop_
_space_group_symop_operation_xyz
x,y,z
-x,y,-z
-x,-y,-z
x,-y,z
loop_
_atom_site_type_symbol
_atom_site_label
_atom_site_fract_x
_atom_site_fract_y
_atom_site_fract_z
Si Si1 0.049644 0.827557 0.546654
Si Si2 0.841490 0.676678 0.755227
Si Si3 0.739844 0.674709 0.114748
Si Si4 0.039787 0.174589 0.776729
Si Si5 0.387109 0.823446 0.950384
Si Si6 0.568334 0.828684 0.310491
O O1 0.310342 0.807492 0.446382
O O2 0.000000 0.771815 0.500000
O O3 0.902576 0.727819 0.658938
O O4 0.972907 0.000000 0.588465
O O5 0.824128 0.500000 0.764732
O O6 0.029564 0.732969 0.718158
O O7 0.602876 0.746788 0.884376
O O8 0.705467 0.500000 0.115834
O O9 0.621818 0.771341 0.115796
O O10 0.622832 0.714874 0.231483
O O11 0.000000 0.719577 0.000000
O O12 0.278149 0.211501 0.700405
O O13 0.017162 0.000000 0.770840
O O14 0.839819 0.227581 0.912535
O O15 0.421004 0.000000 0.938067
O O16 0.617033 0.000000 0.267055
#
# Coordination Sequence:
#
# PCOD8066754 Si02
#       6
#     4   4   4   4   4   4
#     4  10  22  42  67  92 119 156 204 254 302 358
#     4  12  26  41  61  89 124 162 201 251 313 373
#     4  11  22  35  57  92 131 163 194 243 306 364
#     4  10  22  40  62  89 121 161 208 255 303 358
#     4  11  22  39  64  89 121 163 210 257 299 357
#     4  10  21  39  64  92 122 162 211 257 298 352
#
# _framework density 20.850411000000001
#
# number of rings (size 3 to 8) (size 9 to 14) (size 15 to 20)
#    0.000    1.333    1.667    4.000    0.000    7.667 
#    0.000    3.333    0.000    0.000    0.000    0.000 
#    0.000    0.000    0.000    0.000    0.000    0.000 
#
# Total GULP energy -297777.060172 kJ/mol
# GULP energy per Si atom -12407.377507 kJ/mol
# Density = 2.080295 g / cm^3
# Si number density = 20.850411 Si / 1000 Ang^3
#
#
#
# Elastic Constant Matrix: (Units=GPa)
#
#
# Indices 1 2 3 4 5 6 
#
# 1 126.9462 41.8453 33.1474 0.0000 -9.8679 0.0000
# 2 41.8453 86.0237 32.2208 0.0000 1.6438 0.0000
# 3 33.1474 32.2208 76.4711 0.0000 -11.1274 0.0000
# 4 0.0000 0.0000 0.0000 23.4138 0.0000 5.0446
# 5 -9.8679 1.6438 -11.1274 0.0000 34.2652 0.0000
# 6 0.0000 0.0000 0.0000 5.0446 0.0000 16.6384
#
#
#
# Elastic Compliance Matrix: (Units=1/GPa)
#
#
# Indices 1 2 3 4 5 6 
#
# 1 0.009989 -0.004048 -0.002286 0.000000 0.002329 0.000000
# 2 -0.004048 0.015681 -0.005386 0.000000 -0.003667 0.000000
# 3 -0.002286 -0.005386 0.017086 0.000000 0.005149 0.000000
# 4 0.000000 0.000000 0.000000 0.045695 0.000000 -0.013854
# 5 0.002329 -0.003667 0.005149 0.000000 0.031703 0.000000
# 6 0.000000 0.000000 0.000000 -0.013854 0.000000 0.064302
#
#
# Mechanical properties :
#
#
# Convention : Reuss Voigt Hill
#
# Bulk Modulus (GPa) = 51.76631 55.98535 53.87583
# Shear Modulus (GPa) = 23.32792 27.01199 25.16995
#
# Velocity S-wave (km/s) = 3.34851 3.60323 3.47820
# Velocity P-wave (km/s) = 6.31121 6.64983 6.48273
#
# Compressibility (1/GPa) = 0.01931758
#
# Stress axis : x y z
#
# Youngs Moduli (GPa) = 100.10589 63.77071 58.52629
#
# Poissons Ratio (x) = 0.25812 0.13378
# Poissons Ratio (y) = 0.40519 0.31524
# Poissons Ratio (z) = 0.22882 0.34349
#
# Static dielectric constant tensor:
#      x y z
#    x 3.926210 0.000000 -0.189060 
#    y 0.000000 3.599160 0.000000 
#    z -0.189060 0.000000 3.722080 
# 
# 
# High freq. dielectric constant tensor:
#      x y z
#    x 1.830470 0.000000 -0.009780 
#    y 0.000000 1.805980 0.000000 
#    z -0.009780 0.000000 1.813330 
# 
# From -- ./inp_files/45252.got.cif
#   From: 2010.06.25/outbox.cif.g09.slc.cpg/sg10_23_cif.got.tgz:45252.got - 2010.06.27 22:07:45.
