data_PCOD8066118
_publ_section_title
;
Structure prediction by ZEFSAII (Michael W. Deem and Ramdas Pophale) SiO2 
 PCOD8066118
Probable space group: P 2/M
;
_chemical_formula_sum "Si O2"
_cell_formula_units_Z 28
_cell_length_a 10.116405
_cell_length_b 11.220027
_cell_length_c 14.773704
_cell_angle_alpha 90.000000
_cell_angle_beta 60.163798
_cell_angle_gamma 90.000000
_cell_volume 1454.636867
_symmetry_space_group_name_H-M "P 2/M"
_symmetry_group_IT_number 10
_symmetry_cell_setting 'monoclinic'
loop_
_space_group_symop_operation_xyz
x,y,z
-x,y,-z
-x,-y,-z
x,-y,z
loop_
_atom_site_type_symbol
_atom_site_label
_atom_site_fract_x
_atom_site_fract_y
_atom_site_fract_z
Si Si1 0.424208 0.363905 0.429343
Si Si2 0.574126 0.138439 0.881702
Si Si3 0.555266 0.500000 0.124389
Si Si4 0.112468 0.260138 0.209450
Si Si5 0.921537 0.861695 0.122322
Si Si6 0.923817 0.362501 0.430652
Si Si7 0.739129 0.500000 0.880108
Si Si8 0.394967 0.740507 0.790653
O O1 0.500000 0.350688 0.500000
O O2 0.438872 0.500000 0.387692
O O3 0.250605 0.326357 0.500039
O O4 0.501687 0.272297 0.333707
O O5 0.731688 0.203521 0.807231
O O6 0.461783 0.161101 0.836193
O O7 0.605964 0.000000 0.881829
O O8 0.500000 0.189353 0.000000
O O9 0.370646 0.500000 0.172314
O O10 0.613107 0.614279 0.157853
O O11 0.632172 0.500000 0.001886
O O12 0.149619 0.387604 0.154057
O O13 0.039792 0.174329 0.159676
O O14 0.998140 0.275383 0.332015
O O15 0.771860 0.781189 0.183067
O O16 0.878295 0.000000 0.148276
O O17 0.000000 0.836923 0.000000
O O18 0.944259 0.500000 0.393168
O O19 0.000000 0.338339 0.500000
#
# Coordination Sequence:
#
# PCOD8066118 Si02
#       8
#     4   4   2   4   4   4   2   4
#     4  10  21  38  59  85 118 154 199 244 295 366
#     4  11  23  39  62  89 119 164 212 245 289 363
#     4  11  22  35  57  95 130 155 187 249 318 371
#     4  12  22  39  63  89 126 160 198 254 309 359
#     4  11  25  43  62  87 123 168 212 247 290 359
#     4  10  21  36  59  89 120 154 197 244 301 369
#     4  11  22  35  57  94 132 156 185 245 320 379
#     4  12  22  39  65  89 122 160 202 253 303 360
#
# _framework density 19.248791000000001
#
# number of rings (size 3 to 8) (size 9 to 14) (size 15 to 20)
#    0.000    1.000    2.857    5.143    0.000    2.857 
#    0.000    1.429    0.000   17.143    0.000    0.000 
#    0.000    0.000    0.000    0.000    0.000    0.000 
#
# Total GULP energy -347360.467208 kJ/mol
# GULP energy per Si atom -12405.730972 kJ/mol
# Density = 1.920498 g / cm^3
# Si number density = 19.248791 Si / 1000 Ang^3
#
#
#
# Elastic Constant Matrix: (Units=GPa)
#
#
# Indices 1 2 3 4 5 6 
#
# 1 91.0119 20.5829 26.0005 0.0000 -17.4627 0.0000
# 2 20.5829 78.5690 39.6061 0.0000 -6.5811 0.0000
# 3 26.0005 39.6061 113.2319 0.0000 -14.3779 0.0000
# 4 0.0000 0.0000 0.0000 2.2342 0.0000 -5.7762
# 5 -17.4627 -6.5811 -14.3779 0.0000 23.5985 0.0000
# 6 0.0000 0.0000 0.0000 -5.7762 0.0000 37.0034
#
#
#
# Elastic Compliance Matrix: (Units=1/GPa)
#
#
# Indices 1 2 3 4 5 6 
#
# 1 0.013490 -0.002188 -0.001238 0.000000 0.008618 0.000000
# 2 -0.002188 0.015834 -0.005073 0.000000 -0.000294 0.000000
# 3 -0.001238 -0.005073 0.011483 0.000000 0.004665 0.000000
# 4 0.000000 0.000000 0.000000 0.750425 0.000000 0.117140
# 5 0.008618 -0.000294 0.004665 0.000000 0.051513 0.000000
# 6 0.000000 0.000000 0.000000 0.117140 0.000000 0.045310
#
#
# Mechanical properties :
#
#
# Convention : Reuss Voigt Hill
#
# Bulk Modulus (GPa) = 42.00376 50.57685 46.29031
# Shear Modulus (GPa) = 5.47653 25.67546 15.57600
#
# Velocity S-wave (km/s) = 1.68858 3.65619 2.84772
# Velocity P-wave (km/s) = 5.06662 6.64500 5.90875
#
# Compressibility (1/GPa) = 0.02380739
#
# Stress axis : x y z
#
# Youngs Moduli (GPa) = 74.13140 63.15699 87.08863
#
# Poissons Ratio (x) = 0.13819 0.10781
# Poissons Ratio (y) = 0.16220 0.44182
# Poissons Ratio (z) = 0.09177 0.32041
#
# Static dielectric constant tensor:
#      x y z
#    x 3.566830 0.000000 -0.023420 
#    y 0.000000 3.636320 0.000000 
#    z -0.023420 0.000000 3.584240 
# 
# 
# High freq. dielectric constant tensor:
#      x y z
#    x 1.761720 0.000000 -0.002680 
#    y 0.000000 1.739190 0.000000 
#    z -0.002680 0.000000 1.755280 
# 
# From -- ./inp_files/61151.got.cif
#   From: 2010.06.25/outbox.cif.g09.slc.cpg/sg10_31_cif.got.tgz:61151.got - 2010.06.27 22:07:45.
