data_PCOD8066893
_publ_section_title
;
Structure prediction by ZEFSAII (Michael W. Deem and Ramdas Pophale) SiO2 
 PCOD8066893
Probable space group: P 2/M
;
_chemical_formula_sum "Si O2"
_cell_formula_units_Z 16
_cell_length_a 9.685721
_cell_length_b 10.300416
_cell_length_c 8.858976
_cell_angle_alpha 90.000000
_cell_angle_beta 125.978575
_cell_angle_gamma 90.000000
_cell_volume 715.230181
_symmetry_space_group_name_H-M "P 2/M"
_symmetry_group_IT_number 10
_symmetry_cell_setting 'monoclinic'
loop_
_space_group_symop_operation_xyz
x,y,z
-x,y,-z
-x,-y,-z
x,-y,z
loop_
_atom_site_type_symbol
_atom_site_label
_atom_site_fract_x
_atom_site_fract_y
_atom_site_fract_z
Si Si1 0.141105 0.000000 0.960817
Si Si2 0.626764 0.228815 0.455790
Si Si3 0.212743 0.500000 0.859843
Si Si4 0.545154 0.500000 0.265481
Si Si5 0.479205 0.000000 0.806388
Si Si6 0.002594 0.740257 0.822550
O O1 0.111417 0.868337 0.847601
O O2 0.000000 0.000000 0.000000
O O3 0.332611 0.000000 0.147748
O O4 0.500000 0.170965 0.500000
O O5 0.561080 0.371552 0.373823
O O6 0.621203 0.129602 0.310468
O O7 0.814292 0.238653 0.641803
O O8 0.304532 0.500000 0.759066
O O9 0.091362 0.623833 0.791951
O O10 0.354206 0.500000 0.079701
O O11 0.500000 0.000000 0.000000
O O12 0.000000 0.712480 0.000000
#
# Coordination Sequence:
#
# PCOD8066893 Si02
#       6
#     2   4   2   2   2   4
#     4  10  21  42  68  95 134 179 228 276 339 408
#     4  12  25  46  73 103 139 184 234 281 345 422
#     4  11  24  43  66  97 146 179 224 291 351 403
#     4  11  26  43  70 101 138 185 232 284 350 412
#     4  12  28  46  73 107 143 182 233 291 357 409
#     4  11  23  42  70 101 137 183 232 284 342 412
#
# _framework density 22.370422000000001
#
# number of rings (size 3 to 8) (size 9 to 14) (size 15 to 20)
#    0.000    0.750    0.000    8.625    7.000    2.000 
#    0.000    1.250    0.000    0.000    0.000    0.000 
#    0.000    0.000    0.000    0.000    0.000    0.000 
#
# Total GULP energy -198443.634697 kJ/mol
# GULP energy per Si atom -12402.727169 kJ/mol
# Density = 2.231951 g / cm^3
# Si number density = 22.370422 Si / 1000 Ang^3
#
#
#
# Elastic Constant Matrix: (Units=GPa)
#
#
# Indices 1 2 3 4 5 6 
#
# 1 84.1414 34.1449 65.1388 0.0000 26.2785 0.0000
# 2 34.1449 177.0037 47.3117 0.0000 5.1373 0.0000
# 3 65.1388 47.3117 153.8079 0.0000 17.4147 0.0000
# 4 0.0000 0.0000 0.0000 35.0554 0.0000 9.3639
# 5 26.2785 5.1373 17.4147 0.0000 44.3790 0.0000
# 6 0.0000 0.0000 0.0000 9.3639 0.0000 38.0380
#
#
#
# Elastic Compliance Matrix: (Units=1/GPa)
#
#
# Indices 1 2 3 4 5 6 
#
# 1 0.021328 -0.001865 -0.007381 0.000000 -0.009517 0.000000
# 2 -0.001865 0.006319 -0.001252 0.000000 0.000864 0.000000
# 3 -0.007381 -0.001252 0.009943 0.000000 0.000614 0.000000
# 4 0.000000 0.000000 0.000000 0.030534 0.000000 -0.007517
# 5 -0.009517 0.000864 0.000614 0.000000 0.027828 0.000000
# 6 0.000000 0.000000 0.000000 -0.007517 0.000000 0.028140
#
#
# Mechanical properties :
#
#
# Convention : Reuss Voigt Hill
#
# Bulk Modulus (GPa) = 60.26292 78.68266 69.47279
# Shear Modulus (GPa) = 33.19622 41.38499 37.29061
#
# Velocity S-wave (km/s) = 3.85636 4.30581 4.08727
# Velocity P-wave (km/s) = 6.84294 7.74397 7.30736
#
# Compressibility (1/GPa) = 0.01659395
#
# Stress axis : x y z
#
# Youngs Moduli (GPa) = 46.88613 158.25630 100.57120
#
# Poissons Ratio (x) = 0.29517 0.74236
# Poissons Ratio (y) = 0.08745 0.12588
# Poissons Ratio (z) = 0.34609 0.19808
#
# Static dielectric constant tensor:
#      x y z
#    x 3.995050 0.000000 0.133550 
#    y 0.000000 4.691890 0.000000 
#    z 0.133550 0.000000 4.134140 
# 
# 
# High freq. dielectric constant tensor:
#      x y z
#    x 1.879760 0.000000 0.017450 
#    y 0.000000 1.905470 0.000000 
#    z 0.017450 0.000000 1.887860 
# 
# From -- ./inp_files/18144.got.cif
#   From: 2010.06.25/outbox.cif.g09.slc.cpg/sg10_10_cif.got.tgz:18144.got - 2010.06.27 22:07:45.
