data_PCOD8066630
_publ_section_title
;
Structure prediction by ZEFSAII (Michael W. Deem and Ramdas Pophale) SiO2 
 PCOD8066630
Probable space group: P 2/M
;
_chemical_formula_sum "Si O2"
_cell_formula_units_Z 20
_cell_length_a 12.030705
_cell_length_b 9.177268
_cell_length_c 9.506996
_cell_angle_alpha 90.000000
_cell_angle_beta 102.852270
_cell_angle_gamma 90.000000
_cell_volume 1023.360704
_symmetry_space_group_name_H-M "P 2/M"
_symmetry_group_IT_number 10
_symmetry_cell_setting 'monoclinic'
loop_
_space_group_symop_operation_xyz
x,y,z
-x,y,-z
-x,-y,-z
x,-y,z
loop_
_atom_site_type_symbol
_atom_site_label
_atom_site_fract_x
_atom_site_fract_y
_atom_site_fract_z
Si Si1 0.592909 0.836045 0.645885
Si Si2 0.993151 0.667331 0.159913
Si Si3 0.834187 0.827793 0.592085
Si Si4 0.790101 0.668108 0.301364
Si Si5 0.462248 0.672556 0.838288
O O1 0.500000 0.827406 0.500000
O O2 0.711574 0.780797 0.616578
O O3 0.557721 0.728993 0.759594
O O4 0.603687 0.000000 0.708031
O O5 0.034078 0.500000 0.185692
O O6 0.072757 0.770071 0.274052
O O7 0.864119 0.685308 0.180081
O O8 0.000000 0.718431 0.000000
O O9 0.850468 0.757108 0.443286
O O10 0.846974 0.000000 0.579199
O O11 0.783934 0.500000 0.346520
O O12 0.663972 0.731610 0.234982
O O13 0.461986 0.500000 0.834472
O O14 0.500000 0.732162 0.000000
#
# Coordination Sequence:
#
# PCOD8066630 Si02
#       5
#     4   4   4   4   4
#     4  10  21  39  59  84 119 154 191 233 285 346
#     4  10  23  41  62  86 116 153 191 238 294 346
#     4  11  23  39  61  87 116 153 196 240 283 339
#     4  10  21  39  60  86 117 152 194 237 289 346
#     4  10  22  37  59  90 120 150 191 241 287 340
#
# _framework density 19.543451000000001
#
# number of rings (size 3 to 8) (size 9 to 14) (size 15 to 20)
#    0.000    1.800    2.000    1.200    2.800    6.000 
#    0.000    0.000    0.000    0.000    0.000    0.000 
#    0.000    0.000    0.000    0.000    0.000    0.000 
#
# Total GULP energy -248079.823016 kJ/mol
# GULP energy per Si atom -12403.991151 kJ/mol
# Density = 1.949897 g / cm^3
# Si number density = 19.543451 Si / 1000 Ang^3
#
#
#
# Elastic Constant Matrix: (Units=GPa)
#
#
# Indices 1 2 3 4 5 6 
#
# 1 78.1082 27.7856 39.4541 0.0000 -7.5337 0.0000
# 2 27.7856 48.9121 42.5265 0.0000 0.7306 0.0000
# 3 39.4541 42.5265 136.0066 0.0000 -6.9073 0.0000
# 4 0.0000 0.0000 0.0000 19.3060 0.0000 -3.6747
# 5 -7.5337 0.7306 -6.9073 0.0000 34.7638 0.0000
# 6 0.0000 0.0000 0.0000 -3.6747 0.0000 31.8742
#
#
#
# Elastic Compliance Matrix: (Units=1/GPa)
#
#
# Indices 1 2 3 4 5 6 
#
# 1 0.017060 -0.007675 -0.002377 0.000000 0.003386 0.000000
# 2 -0.007675 0.031724 -0.007891 0.000000 -0.003898 0.000000
# 3 -0.002377 -0.007891 0.010599 0.000000 0.001757 0.000000
# 4 0.000000 0.000000 0.000000 0.052960 0.000000 0.006106
# 5 0.003386 -0.003898 0.001757 0.000000 0.029930 0.000000
# 6 0.000000 0.000000 0.000000 0.006106 0.000000 0.032077
#
#
# Mechanical properties :
#
#
# Convention : Reuss Voigt Hill
#
# Bulk Modulus (GPa) = 42.55982 53.61771 48.08877
# Shear Modulus (GPa) = 22.92853 27.40618 25.16735
#
# Velocity S-wave (km/s) = 3.42893 3.74882 3.59244
# Velocity P-wave (km/s) = 6.12381 6.79948 6.47047
#
# Compressibility (1/GPa) = 0.02349634
#
# Stress axis : x y z
#
# Youngs Moduli (GPa) = 58.61501 31.52202 94.35127
#
# Poissons Ratio (x) = 0.24194 0.22429
# Poissons Ratio (y) = 0.44989 0.74451
# Poissons Ratio (z) = 0.13934 0.24873
#
# Static dielectric constant tensor:
#      x y z
#    x 3.958060 0.000000 -0.239470 
#    y 0.000000 3.463470 0.000000 
#    z -0.239470 0.000000 3.744950 
# 
# 
# High freq. dielectric constant tensor:
#      x y z
#    x 1.774100 0.000000 -0.005840 
#    y 0.000000 1.751470 0.000000 
#    z -0.005840 0.000000 1.764530 
# 
# From -- ./inp_files/22095.got.cif
#   From: 2010.06.25/outbox.cif.g09.slc.cpg/sg10_12_cif.got.tgz:22095.got - 2010.06.27 22:07:45.
