data_PCOD8066826
_publ_section_title
;
Structure prediction by ZEFSAII (Michael W. Deem and Ramdas Pophale) SiO2 
 PCOD8066826
Probable space group: P 2/M
;
_chemical_formula_sum "Si O2"
_cell_formula_units_Z 32
_cell_length_a 18.781557
_cell_length_b 13.450268
_cell_length_c 12.183342
_cell_angle_alpha 90.000000
_cell_angle_beta 29.579231
_cell_angle_gamma 90.000000
_cell_volume 1519.244131
_symmetry_space_group_name_H-M "P 2/M"
_symmetry_group_IT_number 10
_symmetry_cell_setting 'monoclinic'
loop_
_space_group_symop_operation_xyz
x,y,z
-x,y,-z
-x,-y,-z
x,-y,z
loop_
_atom_site_type_symbol
_atom_site_label
_atom_site_fract_x
_atom_site_fract_y
_atom_site_fract_z
Si Si1 0.369622 0.386146 0.759573
Si Si2 0.392719 0.882838 0.841353
Si Si3 0.278566 0.615959 0.341839
Si Si4 0.793173 0.792551 0.087349
Si Si5 0.155708 0.883008 0.323490
Si Si6 0.280900 0.117184 0.589989
Si Si7 0.883226 0.803020 0.396720
Si Si8 0.438536 0.384040 0.909829
O O1 0.500000 0.374530 0.500000
O O2 0.320132 0.500000 0.836926
O O3 0.235248 0.325104 0.890419
O O4 0.408589 0.338684 0.828094
O O5 0.337161 0.852042 0.795765
O O6 0.554847 0.844982 0.645495
O O7 0.390907 0.000000 0.852151
O O8 0.284737 0.836010 0.077397
O O9 0.241458 0.500000 0.411084
O O10 0.145346 0.684281 0.558469
O O11 0.411958 0.653139 0.237865
O O12 0.311148 0.635617 0.168842
O O13 0.793915 0.821679 0.212794
O O14 0.946161 0.821865 0.830581
O O15 0.190476 0.857033 0.401742
O O16 0.000000 0.836536 0.500000
O O17 0.152184 0.000000 0.309386
O O18 0.187708 0.143139 0.610156
O O19 0.273934 0.000000 0.624322
O O20 0.456634 0.500000 0.865902
#
# Coordination Sequence:
#
# PCOD8066826 Si02
#       8
#     4   4   4   4   4   4   4   4
#     4  10  22  39  64  94 126 164 215 270 314 364
#     4  10  22  41  68  94 121 161 210 263 315 374
#     4   9  20  37  61  91 129 168 208 258 317 377
#     4  12  25  41  63  91 129 170 215 255 316 384
#     4  10  21  40  64  93 129 163 202 258 325 388
#     4  11  26  46  66  93 124 163 218 271 315 372
#     4  12  26  39  63  95 130 172 210 256 324 381
#     4   8  17  37  62  91 121 164 215 261 313 367
#
# _framework density 21.063106000000001
#
# number of rings (size 3 to 8) (size 9 to 14) (size 15 to 20)
#    0.000    1.750    1.250    3.000    5.250    5.000 
#    0.000    1.875    0.000    4.125    0.000    0.000 
#    0.000    0.000    0.000    0.000    0.000    0.000 
#
# Total GULP energy -396818.128784 kJ/mol
# GULP energy per Si atom -12400.566524 kJ/mol
# Density = 2.101517 g / cm^3
# Si number density = 21.063106 Si / 1000 Ang^3
#
#
#
# Elastic Constant Matrix: (Units=GPa)
#
#
# Indices 1 2 3 4 5 6 
#
# 1 115.5068 21.7032 24.5674 0.0000 17.0460 0.0000
# 2 21.7032 37.9808 29.6851 0.0000 1.1883 0.0000
# 3 24.5674 29.6851 83.4196 0.0000 0.8343 0.0000
# 4 0.0000 0.0000 0.0000 25.6743 0.0000 4.4456
# 5 17.0460 1.1883 0.8343 0.0000 36.7958 0.0000
# 6 0.0000 0.0000 0.0000 4.4456 0.0000 32.4763
#
#
#
# Elastic Compliance Matrix: (Units=1/GPa)
#
#
# Indices 1 2 3 4 5 6 
#
# 1 0.010543 -0.004831 -0.001339 0.000000 -0.004698 0.000000
# 2 -0.004831 0.038716 -0.012367 0.000000 0.001268 0.000000
# 3 -0.001339 -0.012367 0.016776 0.000000 0.000639 0.000000
# 4 0.000000 0.000000 0.000000 0.039895 0.000000 -0.005461
# 5 -0.004698 0.001268 0.000639 0.000000 0.029298 0.000000
# 6 0.000000 0.000000 0.000000 -0.005461 0.000000 0.031539
#
#
# Mechanical properties :
#
#
# Convention : Reuss Voigt Hill
#
# Bulk Modulus (GPa) = 34.52887 43.20207 38.86547
# Shear Modulus (GPa) = 23.41963 29.71937 26.56950
#
# Velocity S-wave (km/s) = 3.33810 3.76036 3.55551
# Velocity P-wave (km/s) = 5.59338 6.27766 5.94537
#
# Compressibility (1/GPa) = 0.02896127
#
# Stress axis : x y z
#
# Youngs Moduli (GPa) = 94.84650 25.82912 59.60785
#
# Poissons Ratio (x) = 0.12479 0.07980
# Poissons Ratio (y) = 0.45824 0.73717
# Poissons Ratio (z) = 0.12698 0.31943
#
# Static dielectric constant tensor:
#      x y z
#    x 3.887400 0.000000 0.097690 
#    y 0.000000 3.738360 0.000000 
#    z 0.097690 0.000000 3.857020 
# 
# 
# High freq. dielectric constant tensor:
#      x y z
#    x 1.828250 0.000000 0.012740 
#    y 0.000000 1.828570 0.000000 
#    z 0.012740 0.000000 1.818700 
# 
# From -- ./inp_files/54024.got.cif
#   From: 2010.06.25/outbox.cif.g09.slc.cpg/sg10_28_cif.got.tgz:54024.got - 2010.06.27 22:07:45.
