data_PCOD8066540
_publ_section_title
;
Structure prediction by ZEFSAII (Michael W. Deem and Ramdas Pophale) SiO2 
 PCOD8066540
Probable space group: P 2/M
;
_chemical_formula_sum "Si O2"
_cell_formula_units_Z 28
_cell_length_a 14.250557
_cell_length_b 19.108265
_cell_length_c 8.876181
_cell_angle_alpha 90.000000
_cell_angle_beta 32.940034
_cell_angle_gamma 90.000000
_cell_volume 1314.278142
_symmetry_space_group_name_H-M "P 2/M"
_symmetry_group_IT_number 10
_symmetry_cell_setting 'monoclinic'
loop_
_space_group_symop_operation_xyz
x,y,z
-x,y,-z
-x,-y,-z
x,-y,z
loop_
_atom_site_type_symbol
_atom_site_label
_atom_site_fract_x
_atom_site_fract_y
_atom_site_fract_z
Si Si1 0.178271 0.876748 0.197690
Si Si2 0.689434 0.423211 0.302771
Si Si3 0.153681 0.081153 0.907009
Si Si4 0.996722 0.419735 0.673788
Si Si5 0.562629 0.077340 0.707976
Si Si6 0.684188 0.794539 0.728865
Si Si7 0.837880 0.678929 0.323798
O O1 0.210411 0.805262 0.254852
O O2 0.000000 0.912214 0.500000
O O3 0.143414 0.866629 0.065529
O O4 0.355447 0.920616 0.968596
O O5 0.500000 0.426922 0.500000
O O6 0.742304 0.500000 0.300263
O O7 0.695890 0.360503 0.414166
O O8 0.809205 0.407790 0.997798
O O9 0.340987 0.093393 0.579417
O O10 0.133226 0.000000 0.986416
O O11 0.000000 0.101738 0.000000
O O12 0.056951 0.500000 0.599309
O O13 0.000000 0.391609 0.500000
O O14 0.133155 0.373736 0.578830
O O15 0.640327 0.127812 0.729320
O O16 0.614217 0.000000 0.693563
O O17 0.784145 0.752981 0.465000
O O18 0.500000 0.755248 0.000000
O O19 0.000000 0.693262 0.000000
#
# Coordination Sequence:
#
# PCOD8066540 Si02
#       7
#     4   4   4   4   4   4   4
#     4  11  23  38  60  88 117 149 191 246 306 363
#     4   9  18  35  61  93 124 158 202 246 291 347
#     4  10  21  38  61  88 116 147 186 236 299 370
#     4   9  18  34  58  90 125 160 201 248 295 344
#     4  10  22  42  64  86 115 152 197 251 310 371
#     4  10  24  42  59  85 119 157 200 250 304 361
#     4  10  21  39  62  86 120 164 205 243 294 355
#
# _framework density 21.304469999999998
#
# number of rings (size 3 to 8) (size 9 to 14) (size 15 to 20)
#    0.000    2.143    0.000    2.143    0.000   10.571 
#    0.000    8.571    0.000    4.286    0.000    0.000 
#    0.000    0.000    0.000    0.000    0.000    0.143 
#
# Total GULP energy -346916.491224 kJ/mol
# GULP energy per Si atom -12389.874687 kJ/mol
# Density = 2.125598 g / cm^3
# Si number density = 21.304470 Si / 1000 Ang^3
#
#
#
# Elastic Constant Matrix: (Units=GPa)
#
#
# Indices 1 2 3 4 5 6 
#
# 1 140.1544 51.4875 64.5555 0.0000 17.9601 0.0000
# 2 51.4875 83.8233 42.1582 0.0000 11.9945 0.0000
# 3 64.5555 42.1582 124.3870 0.0000 6.3983 0.0000
# 4 0.0000 0.0000 0.0000 28.2861 0.0000 10.7857
# 5 17.9601 11.9945 6.3983 0.0000 39.3624 0.0000
# 6 0.0000 0.0000 0.0000 10.7857 0.0000 18.8870
#
#
#
# Elastic Compliance Matrix: (Units=1/GPa)
#
#
# Indices 1 2 3 4 5 6 
#
# 1 0.010972 -0.004241 -0.004100 0.000000 -0.003047 0.000000
# 2 -0.004241 0.016551 -0.003276 0.000000 -0.002576 0.000000
# 3 -0.004100 -0.003276 0.011224 0.000000 0.001045 0.000000
# 4 0.000000 0.000000 0.000000 0.045194 0.000000 -0.025809
# 5 -0.003047 -0.002576 0.001045 0.000000 0.027410 0.000000
# 6 0.000000 0.000000 0.000000 -0.025809 0.000000 0.067685
#
#
# Mechanical properties :
#
#
# Convention : Reuss Voigt Hill
#
# Bulk Modulus (GPa) = 64.46451 73.86301 69.16376
# Shear Modulus (GPa) = 24.10305 29.98466 27.04385
#
# Velocity S-wave (km/s) = 3.36722 3.75565 3.56673
# Velocity P-wave (km/s) = 6.74106 7.31792 7.03541
#
# Compressibility (1/GPa) = 0.01551241
#
# Stress axis : x y z
#
# Youngs Moduli (GPa) = 91.13974 60.41844 89.09510
#
# Poissons Ratio (x) = 0.25625 0.36531
# Poissons Ratio (y) = 0.38655 0.29187
# Poissons Ratio (z) = 0.37369 0.19793
#
# Static dielectric constant tensor:
#      x y z
#    x 3.943150 0.000000 0.108130 
#    y 0.000000 3.673910 0.000000 
#    z 0.108130 0.000000 4.323030 
# 
# 
# High freq. dielectric constant tensor:
#      x y z
#    x 1.836260 0.000000 0.005540 
#    y 0.000000 1.804820 0.000000 
#    z 0.005540 0.000000 1.853140 
# 
# From -- ./inp_files/30379.got.cif
#   From: 2010.06.25/outbox.cif.g09.slc.cpg/sg10_16_cif.got.tgz:30379.got - 2010.06.27 22:07:45.
