data_PCOD8066090
_publ_section_title
;
Structure prediction by ZEFSAII (Michael W. Deem and Ramdas Pophale) SiO2 
 PCOD8066090
Probable space group: P 2/M
;
_chemical_formula_sum "Si O2"
_cell_formula_units_Z 24
_cell_length_a 12.474878
_cell_length_b 8.812721
_cell_length_c 12.299946
_cell_angle_alpha 90.000000
_cell_angle_beta 70.538259
_cell_angle_gamma 90.000000
_cell_volume 1274.966194
_symmetry_space_group_name_H-M "P 2/M"
_symmetry_group_IT_number 10
_symmetry_cell_setting 'monoclinic'
loop_
_space_group_symop_operation_xyz
x,y,z
-x,y,-z
-x,-y,-z
x,-y,z
loop_
_atom_site_type_symbol
_atom_site_label
_atom_site_fract_x
_atom_site_fract_y
_atom_site_fract_z
Si Si1 0.618732 0.322808 0.257849
Si Si2 0.002541 0.679361 0.375544
Si Si3 0.224025 0.178700 0.625322
Si Si4 0.230871 0.822751 0.220078
Si Si5 0.382865 0.822766 0.373212
Si Si6 0.378437 0.677133 0.995599
O O1 0.632256 0.500000 0.275050
O O2 0.720145 0.234624 0.282160
O O3 0.498356 0.270167 0.346125
O O4 0.627419 0.282037 0.128582
O O5 0.993809 0.500000 0.376716
O O6 0.116866 0.730379 0.278487
O O7 0.000000 0.741726 0.500000
O O8 0.898724 0.746691 0.343020
O O9 0.301292 0.229890 0.497921
O O10 0.208386 0.000000 0.633401
O O11 0.322643 0.780271 0.280846
O O12 0.202160 0.000000 0.230966
O O13 0.280758 0.773430 0.087374
O O14 0.412208 0.000000 0.371064
O O15 0.358023 0.500000 0.025372
O O16 0.500000 0.729434 0.000000
#
# Coordination Sequence:
#
# PCOD8066090 Si02
#       6
#     4   4   4   4   4   4
#     4  11  23  38  59  87 121 158 199 245 294 351
#     4  11  23  39  62  89 119 155 197 242 291 350
#     4  11  23  40  60  85 123 160 196 242 295 353
#     4  11  22  37  61  91 120 152 197 245 291 346
#     4  10  21  36  57  87 122 157 191 239 297 351
#     4  10  21  39  60  85 119 157 197 244 296 347
#
# _framework density 18.824027999999998
#
# number of rings (size 3 to 8) (size 9 to 14) (size 15 to 20)
#    0.000    1.333    3.333    2.500    0.000    6.333 
#    0.000    0.833    0.000    5.000    0.000    0.000 
#    0.000    0.000    0.000    0.000    0.000    0.000 
#
# Total GULP energy -297783.103625 kJ/mol
# GULP energy per Si atom -12407.629318 kJ/mol
# Density = 1.878118 g / cm^3
# Si number density = 18.824028 Si / 1000 Ang^3
#
#
#
# Elastic Constant Matrix: (Units=GPa)
#
#
# Indices 1 2 3 4 5 6 
#
# 1 114.2789 38.1529 32.9533 0.0000 -1.8108 0.0000
# 2 38.1529 62.4178 30.4555 0.0000 0.0012 0.0000
# 3 32.9533 30.4555 82.5327 0.0000 -2.8952 0.0000
# 4 0.0000 0.0000 0.0000 41.1724 0.0000 -7.0567
# 5 -1.8108 0.0012 -2.8952 0.0000 26.1663 0.0000
# 6 0.0000 0.0000 0.0000 -7.0567 0.0000 39.6924
#
#
#
# Elastic Compliance Matrix: (Units=1/GPa)
#
#
# Indices 1 2 3 4 5 6 
#
# 1 0.011381 -0.005791 -0.002389 0.000000 0.000524 0.000000
# 2 -0.005791 0.022503 -0.006029 0.000000 -0.001069 0.000000
# 3 -0.002389 -0.006029 0.015349 0.000000 0.001533 0.000000
# 4 0.000000 0.000000 0.000000 0.025051 0.000000 0.004454
# 5 0.000524 -0.001069 0.001533 0.000000 0.038423 0.000000
# 6 0.000000 0.000000 0.000000 0.004454 0.000000 0.025986
#
#
# Mechanical properties :
#
#
# Convention : Reuss Voigt Hill
#
# Bulk Modulus (GPa) = 48.04315 51.37253 49.70784
# Shear Modulus (GPa) = 28.72762 31.91740 30.32251
#
# Velocity S-wave (km/s) = 3.91079 4.12219 4.01788
# Velocity P-wave (km/s) = 6.78012 7.07155 6.92737
#
# Compressibility (1/GPa) = 0.02081462
#
# Stress axis : x y z
#
# Youngs Moduli (GPa) = 87.86533 44.43926 65.15189
#
# Poissons Ratio (x) = 0.25735 0.15564
# Poissons Ratio (y) = 0.50884 0.39280
# Poissons Ratio (z) = 0.20989 0.26792
#
# Static dielectric constant tensor:
#      x y z
#    x 3.441850 0.000000 0.061520 
#    y 0.000000 3.424060 0.000000 
#    z 0.061520 0.000000 3.461400 
# 
# 
# High freq. dielectric constant tensor:
#      x y z
#    x 1.734050 0.000000 -0.000130 
#    y 0.000000 1.737610 0.000000 
#    z -0.000130 0.000000 1.731340 
# 
# From -- ./inp_files/44991.got.cif
#   From: 2010.06.25/outbox.cif.g09.slc.cpg/sg10_23_cif.got.tgz:44991.got - 2010.06.27 22:07:45.
