data_PCOD8066881
_publ_section_title
;
Structure prediction by ZEFSAII (Michael W. Deem and Ramdas Pophale) SiO2 
 PCOD8066881
Probable space group: P 2/M
;
_chemical_formula_sum "Si O2"
_cell_formula_units_Z 28
_cell_length_a 20.681206
_cell_length_b 9.032528
_cell_length_c 15.144129
_cell_angle_alpha 90.000000
_cell_angle_beta 151.611665
_cell_angle_gamma 90.000000
_cell_volume 1345.023467
_symmetry_space_group_name_H-M "P 2/M"
_symmetry_group_IT_number 10
_symmetry_cell_setting 'monoclinic'
loop_
_space_group_symop_operation_xyz
x,y,z
-x,y,-z
-x,-y,-z
x,-y,z
loop_
_atom_site_type_symbol
_atom_site_label
_atom_site_fract_x
_atom_site_fract_y
_atom_site_fract_z
Si Si1 0.817866 0.334380 0.361225
Si Si2 0.632044 0.675267 0.419741
Si Si3 0.939560 0.324674 0.832893
Si Si4 0.865833 0.665721 0.226109
Si Si5 0.158853 0.173016 0.977816
Si Si6 0.398695 0.826610 0.800933
Si Si7 0.423060 0.336065 0.317330
O O1 0.765521 0.500000 0.321804
O O2 0.784970 0.297865 0.219253
O O3 0.751150 0.214001 0.344881
O O4 0.976136 0.324157 0.566269
O O5 0.633233 0.500000 0.409807
O O6 0.783443 0.728079 0.631567
O O7 0.578832 0.746580 0.265118
O O8 0.524588 0.726999 0.364606
O O9 0.951703 0.500000 0.838683
O O10 0.028440 0.253259 0.862253
O O11 0.000000 0.271845 0.000000
O O12 0.827776 0.500000 0.148141
O O13 0.823862 0.786363 0.104161
O O14 0.140541 0.000000 0.969193
O O15 0.298448 0.227331 0.189175
O O16 0.413164 0.000000 0.802609
O O17 0.500000 0.769913 0.000000
O O18 0.500000 0.350651 0.500000
O O19 0.370242 0.500000 0.226001
#
# Coordination Sequence:
#
# PCOD8066881 Si02
#       7
#     4   4   4   4   4   4   4
#     4   9  19  37  61  85 111 147 199 255 297 340
#     4  10  22  40  66  95 120 158 210 261 311 362
#     4  10  21  41  68  94 121 156 204 260 312 367
#     4   9  19  37  60  86 114 148 194 250 300 345
#     4  12  25  37  57  91 128 162 197 239 300 372
#     4  11  25  40  55  81 123 167 203 245 302 368
#     4  10  22  43  68  92 120 158 207 259 310 364
#
# _framework density 20.81748
#
# number of rings (size 3 to 8) (size 9 to 14) (size 15 to 20)
#    0.000    1.857    0.000    4.286    2.000    9.714 
#    0.000    2.857    0.000    0.000    0.000    0.000 
#    0.000    0.000    0.000    0.000    0.000    0.000 
#
# Total GULP energy -347174.393890 kJ/mol
# GULP energy per Si atom -12399.085496 kJ/mol
# Density = 2.077010 g / cm^3
# Si number density = 20.817480 Si / 1000 Ang^3
#
#
#
# Elastic Constant Matrix: (Units=GPa)
#
#
# Indices 1 2 3 4 5 6 
#
# 1 102.7408 23.3690 19.3402 0.0000 -1.0100 0.0000
# 2 23.3690 46.2362 23.5216 0.0000 0.9636 0.0000
# 3 19.3402 23.5216 74.9535 0.0000 -10.3788 0.0000
# 4 0.0000 0.0000 0.0000 -59.1642 0.0000 75.2324
# 5 -1.0100 0.9636 -10.3788 0.0000 36.3037 0.0000
# 6 0.0000 0.0000 0.0000 75.2324 0.0000 -68.7746
#
#
#
# Elastic Compliance Matrix: (Units=1/GPa)
#
#
# Indices 1 2 3 4 5 6 
#
# 1 0.011105 -0.004952 -0.001302 0.000000 0.000068 0.000000
# 2 -0.004952 0.028288 -0.008041 0.000000 -0.003187 0.000000
# 3 -0.001302 -0.008041 0.016894 0.000000 0.005007 0.000000
# 4 0.000000 0.000000 0.000000 0.043230 0.000000 0.047289
# 5 0.000068 -0.003187 0.005007 0.000000 0.029063 0.000000
# 6 0.000000 0.000000 0.000000 0.047289 0.000000 0.037189
#
#
# Mechanical properties :
#
#
# Convention : Reuss Voigt Hill
#
# Bulk Modulus (GPa) = 36.10388 39.59912 37.85150
# Shear Modulus (GPa) = 24.55896 -7.81370 8.37263
#
# Velocity S-wave (km/s) = 3.43844 -1.93948 2.00765
# Velocity P-wave (km/s) = 5.75713 3.74805 4.85760
#
# Compressibility (1/GPa) = 0.02769786
#
# Stress axis : x y z
#
# Youngs Moduli (GPa) = 90.04664 35.35071 59.19180
#
# Poissons Ratio (x) = 0.17506 0.07707
# Poissons Ratio (y) = 0.44591 0.47595
# Poissons Ratio (z) = 0.11725 0.28425
#
# Static dielectric constant tensor:
#      x y z
#    x 4.115070 0.000000 -0.282770 
#    y 0.000000 3.536770 0.000000 
#    z -0.282770 0.000000 4.145560 
# 
# 
# High freq. dielectric constant tensor:
#      x y z
#    x 1.827290 0.000000 -0.004880 
#    y 0.000000 1.789620 0.000000 
#    z -0.004880 0.000000 1.823800 
# 
# From -- ./inp_files/70318.got.cif
#   From: 2010.06.25/outbox.cif.g09.slc.cpg/sg10_36_cif.got.tgz:70318.got - 2010.06.27 22:07:45.
