data_PCOD8066963
_publ_section_title
;
Structure prediction by ZEFSAII (Michael W. Deem and Ramdas Pophale) SiO2 
 PCOD8066963
Probable space group: P 2/M
;
_chemical_formula_sum "Si O2"
_cell_formula_units_Z 24
_cell_length_a 22.138219
_cell_length_b 7.517486
_cell_length_c 9.189216
_cell_angle_alpha 90.000000
_cell_angle_beta 51.491765
_cell_angle_gamma 90.000000
_cell_volume 1196.708784
_symmetry_space_group_name_H-M "P 2/M"
_symmetry_group_IT_number 10
_symmetry_cell_setting 'monoclinic'
loop_
_space_group_symop_operation_xyz
x,y,z
-x,y,-z
-x,-y,-z
x,-y,z
loop_
_atom_site_type_symbol
_atom_site_label
_atom_site_fract_x
_atom_site_fract_y
_atom_site_fract_z
Si Si1 0.700118 0.795988 0.619241
Si Si2 0.851851 0.788753 0.558378
Si Si3 0.419750 0.500000 0.200917
Si Si4 0.700119 0.204012 0.280403
Si Si5 0.419749 0.500000 0.539835
Si Si6 0.000001 0.212243 0.835433
Si Si7 0.851852 0.211248 0.886068
O O1 0.773581 0.725567 0.598358
O O2 0.627356 0.676370 0.773372
O O3 0.720481 0.773694 0.419278
O O4 0.679818 0.000000 0.688002
O O5 0.924737 0.712852 0.360186
O O6 0.853934 0.712681 0.719099
O O7 0.855598 0.000000 0.554185
O O8 0.437685 0.500000 0.343473
O O9 0.500000 0.500000 0.000000
O O10 0.627358 0.323630 0.344555
O O11 0.679819 0.000000 0.272542
O O12 0.773583 0.274431 0.080899
O O13 0.500000 0.500000 0.500000
O O14 0.924740 0.287152 0.865596
O O15 0.999999 0.000000 0.835527
O O16 0.000000 0.285361 0.000000
O O17 0.855602 0.000000 0.879015
#
# Coordination Sequence:
#
# PCOD8066963 Si02
#       7
#     4   4   2   4   2   4   4
#     4   9  18  34  54  75 102 136 171 207 251 304
#     4   9  16  26  43  70 102 135 173 215 255 296
#     4  10  22  38  56  79 104 131 166 208 255 308
#     4   9  18  34  54  75 102 136 171 207 251 304
#     4  10  22  38  56  79 104 131 166 208 255 308
#     4   9  15  23  39  66 101 140 178 213 251 298
#     4   9  16  26  43  70 102 135 173 215 255 296
#
# _framework density 20.055002999999999
#
# number of rings (size 3 to 8) (size 9 to 14) (size 15 to 20)
#    0.000    2.833    0.000    1.500    0.000    8.000 
#    0.000    0.000    0.000    1.000    0.000    7.000 
#    0.000    0.000    0.000    0.000    0.000    0.000 
#
# Total GULP energy -297604.902118 kJ/mol
# GULP energy per Si atom -12400.204255 kJ/mol
# Density = 2.000936 g / cm^3
# Si number density = 20.055003 Si / 1000 Ang^3
#
#
#
# Elastic Constant Matrix: (Units=GPa)
#
#
# Indices 1 2 3 4 5 6 
#
# 1 195.6300 47.7184 95.0672 0.0000 -16.8252 0.0000
# 2 47.7184 69.3365 43.4463 0.0000 -12.1195 0.0000
# 3 95.0672 43.4463 182.2375 0.0000 -21.1641 0.0000
# 4 0.0000 0.0000 0.0000 -8.9368 0.0000 19.0730
# 5 -16.8252 -12.1195 -21.1641 0.0000 35.0058 0.0000
# 6 0.0000 0.0000 0.0000 19.0730 0.0000 -15.6618
#
#
#
# Elastic Compliance Matrix: (Units=1/GPa)
#
#
# Indices 1 2 3 4 5 6 
#
# 1 0.007399 -0.003065 -0.003054 0.000000 0.000649 0.000000
# 2 -0.003065 0.018679 -0.002446 0.000000 0.003515 0.000000
# 3 -0.003054 -0.002446 0.007953 0.000000 0.002494 0.000000
# 4 0.000000 0.000000 0.000000 0.069977 0.000000 0.085219
# 5 0.000649 0.003515 0.002494 0.000000 0.031603 0.000000
# 6 0.000000 0.000000 0.000000 0.085219 0.000000 0.039930
#
#
# Mechanical properties :
#
#
# Convention : Reuss Voigt Hill
#
# Bulk Modulus (GPa) = 59.16689 91.07418 75.12054
# Shear Modulus (GPa) = 25.21364 19.47958 22.34661
#
# Velocity S-wave (km/s) = 3.54958 3.11996 3.34168
# Velocity P-wave (km/s) = 6.80924 7.64785 7.24070
#
# Compressibility (1/GPa) = 0.01690134
#
# Stress axis : x y z
#
# Youngs Moduli (GPa) = 135.15012 53.53610 125.73682
#
# Poissons Ratio (x) = 0.16411 0.38397
# Poissons Ratio (y) = 0.41428 0.30754
# Poissons Ratio (z) = 0.41272 0.13094
#
# Static dielectric constant tensor:
#      x y z
#    x 3.665060 0.000000 0.082380 
#    y 0.000000 3.417620 0.000000 
#    z 0.082380 0.000000 3.694060 
# 
# 
# High freq. dielectric constant tensor:
#      x y z
#    x 1.781540 0.000000 0.002460 
#    y 0.000000 1.763910 0.000000 
#    z 0.002460 0.000000 1.782400 
# 
# From -- ./inp_files/33844.got.cif
#   From: 2010.06.25/outbox.cif.g09.slc.cpg/sg10_17_cif.got.tgz:33844.got - 2010.06.27 22:07:45.
