data_PCOD8066827
_publ_section_title
;
Structure prediction by ZEFSAII (Michael W. Deem and Ramdas Pophale) SiO2 
 PCOD8066827
Probable space group: P 2/M
;
_chemical_formula_sum "Si O2"
_cell_formula_units_Z 18
_cell_length_a 5.392103
_cell_length_b 13.510276
_cell_length_c 12.070311
_cell_angle_alpha 90.000000
_cell_angle_beta 87.107458
_cell_angle_gamma 90.000000
_cell_volume 878.187373
_symmetry_space_group_name_H-M "P 2/M"
_symmetry_group_IT_number 10
_symmetry_cell_setting 'monoclinic'
loop_
_space_group_symop_operation_xyz
x,y,z
-x,y,-z
-x,-y,-z
x,-y,z
loop_
_atom_site_type_symbol
_atom_site_label
_atom_site_fract_x
_atom_site_fract_y
_atom_site_fract_z
Si Si1 0.000000 0.770118 0.500000
Si Si2 0.492164 0.726538 0.204077
Si Si3 0.740488 0.113619 0.319997
Si Si4 0.672477 0.389970 0.602016
Si Si5 0.006540 0.206221 0.877491
O O1 0.815444 0.840707 0.436803
O O2 0.878132 0.696156 0.592858
O O3 0.500577 0.825631 0.282168
O O4 0.481097 0.629305 0.282016
O O5 0.249480 0.733432 0.132447
O O6 0.752238 0.719937 0.130370
O O7 0.957874 0.124589 0.220899
O O8 0.668968 0.000000 0.339053
O O9 0.500000 0.379936 0.500000
O O10 0.791469 0.500000 0.604193
O O11 0.000000 0.156402 0.000000
#
# Coordination Sequence:
#
# PCOD8066827 Si02
#       5
#     2   4   4   4   4
#     4  12  20  42  58  96 126 164 204 252 304 382
#     4  10  21  41  58  92 125 156 209 254 307 362
#     4  10  23  37  61  91 127 167 202 249 305 366
#     4  11  21  37  62  91 123 162 205 257 309 368
#     4  10  21  40  65  86 122 164 210 257 302 355
#
# _framework density 20.496765
#
# number of rings (size 3 to 8) (size 9 to 14) (size 15 to 20)
#    1.333    0.222    4.444    1.333    0.000    1.333 
#    0.000    2.222    0.000    4.000    0.000    0.000 
#    0.000    0.000    0.000    0.000    0.000    0.000 
#
# Total GULP energy -222989.608281 kJ/mol
# GULP energy per Si atom -12388.311571 kJ/mol
# Density = 2.045011 g / cm^3
# Si number density = 20.496765 Si / 1000 Ang^3
#
#
#
# Elastic Constant Matrix: (Units=GPa)
#
#
# Indices 1 2 3 4 5 6 
#
# 1 108.7304 17.1173 14.0706 0.0000 8.5684 0.0000
# 2 17.1173 96.4245 33.3427 0.0000 5.3167 0.0000
# 3 14.0706 33.3427 83.9847 0.0000 6.2987 0.0000
# 4 0.0000 0.0000 0.0000 -9.8141 0.0000 -19.8807
# 5 8.5684 5.3167 6.2987 0.0000 24.9072 0.0000
# 6 0.0000 0.0000 0.0000 -19.8807 0.0000 1.4413
#
#
#
# Elastic Compliance Matrix: (Units=1/GPa)
#
#
# Indices 1 2 3 4 5 6 
#
# 1 0.009738 -0.001253 -0.000920 0.000000 -0.002850 0.000000
# 2 -0.001253 0.012229 -0.004568 0.000000 -0.001024 0.000000
# 3 -0.000920 -0.004568 0.014044 0.000000 -0.002260 0.000000
# 4 0.000000 0.000000 0.000000 -0.003521 0.000000 -0.048562
# 5 -0.002850 -0.001024 -0.002260 0.000000 0.041919 0.000000
# 6 0.000000 0.000000 0.000000 -0.048562 0.000000 0.023973
#
#
# Mechanical properties :
#
#
# Convention : Reuss Voigt Hill
#
# Bulk Modulus (GPa) = 44.38945 46.46674 45.42810
# Shear Modulus (GPa) = 41.88429 18.28082 30.08255
#
# Velocity S-wave (km/s) = 4.52537 2.98969 3.83518
# Velocity P-wave (km/s) = 7.00065 5.88533 6.46708
#
# Compressibility (1/GPa) = 0.02252787
#
# Stress axis : x y z
#
# Youngs Moduli (GPa) = 102.69020 81.76951 71.20330
#
# Poissons Ratio (x) = 0.10249 0.06552
# Poissons Ratio (y) = 0.12871 0.32529
# Poissons Ratio (z) = 0.09449 0.37356
#
# Static dielectric constant tensor:
#      x y z
#    x 3.612670 0.000000 -0.087010 
#    y 0.000000 3.386060 0.000000 
#    z -0.087010 0.000000 3.608020 
# 
# 
# High freq. dielectric constant tensor:
#      x y z
#    x 1.796260 0.000000 0.000950 
#    y 0.000000 1.763010 0.000000 
#    z 0.000950 0.000000 1.801210 
# 
# From -- ./inp_files/38896.got.cif
#   From: 2010.06.25/outbox.cif.g09.slc.cpg/sg10_20_cif.got.tgz:38896.got - 2010.06.27 22:07:45.
