data_PCOD8066915
_publ_section_title
;
Structure prediction by ZEFSAII (Michael W. Deem and Ramdas Pophale) SiO2 
 PCOD8066915
Probable space group: P 2/M
;
_chemical_formula_sum "Si O2"
_cell_formula_units_Z 32
_cell_length_a 22.047153
_cell_length_b 9.200633
_cell_length_c 20.867397
_cell_angle_alpha 90.000000
_cell_angle_beta 154.870730
_cell_angle_gamma 90.000000
_cell_volume 1797.553756
_symmetry_space_group_name_H-M "P 2/M"
_symmetry_group_IT_number 10
_symmetry_cell_setting 'monoclinic'
loop_
_space_group_symop_operation_xyz
x,y,z
-x,y,-z
-x,-y,-z
x,-y,z
loop_
_atom_site_type_symbol
_atom_site_label
_atom_site_fract_x
_atom_site_fract_y
_atom_site_fract_z
Si Si1 0.551687 0.334018 0.282622
Si Si2 0.254986 0.673202 0.642497
Si Si3 0.043589 0.325885 0.697949
Si Si4 0.486452 0.670594 0.559808
Si Si5 0.049148 0.833275 0.833112
Si Si6 0.158560 0.660079 0.679473
Si Si7 0.776441 0.664262 0.608302
Si Si8 0.349716 0.166374 0.177045
O O1 0.496296 0.500000 0.228716
O O2 0.602205 0.282292 0.259903
O O3 0.690042 0.321200 0.459885
O O4 0.424965 0.232742 0.185957
O O5 0.243846 0.500000 0.637154
O O6 0.254578 0.738530 0.715481
O O7 0.116653 0.727458 0.471052
O O8 0.052019 0.500000 0.712331
O O9 0.091092 0.253941 0.809408
O O10 0.148955 0.267573 0.741152
O O11 0.500000 0.724054 0.500000
O O12 0.516754 0.500000 0.596104
O O13 0.327409 0.708270 0.432368
O O14 0.605273 0.751142 0.715512
O O15 0.911052 0.770336 0.736897
O O16 0.020129 0.000000 0.787178
O O17 0.180105 0.818547 0.007611
O O18 0.222544 0.500000 0.751551
O O19 0.000000 0.647923 0.500000
O O20 0.832949 0.500000 0.670606
O O21 0.398190 0.000000 0.229039
#
# Coordination Sequence:
#
# PCOD8066915 Si02
#       8
#     4   4   4   4   4   4   4   4
#     4   9  16  29  50  74  97 124 163 211 255 293
#     4   8  12  22  42  70  97 118 153 207 258 299
#     4   9  15  26  45  68  94 126 163 203 251 299
#     4   9  19  38  62  84 103 124 155 196 240 286
#     4  11  22  33  46  69 103 138 169 203 239 280
#     4   7  11  19  37  65  93 120 152 198 255 302
#     4   9  17  31  53  79 101 124 159 199 239 287
#     4  10  22  36  49  71 103 136 169 199 234 285
#
# _framework density 17.801971000000002
#
# number of rings (size 3 to 8) (size 9 to 14) (size 15 to 20)
#    0.000    3.000    1.250    3.000    0.000    4.250 
#    0.000    0.625    0.000    8.625    0.000    5.250 
#    0.000    0.000    0.000    0.000    0.000    0.000 
#
# Total GULP energy -396489.180915 kJ/mol
# GULP energy per Si atom -12390.286904 kJ/mol
# Density = 1.776145 g / cm^3
# Si number density = 17.801971 Si / 1000 Ang^3
#
#
#
# Elastic Constant Matrix: (Units=GPa)
#
#
# Indices 1 2 3 4 5 6 
#
# 1 147.9042 38.3704 33.4586 0.0000 5.5399 0.0000
# 2 38.3704 62.9517 34.1715 0.0000 0.8958 0.0000
# 3 33.4586 34.1715 57.1389 0.0000 4.6295 0.0000
# 4 0.0000 0.0000 0.0000 23.5853 0.0000 2.0259
# 5 5.5399 0.8958 4.6295 0.0000 16.5430 0.0000
# 6 0.0000 0.0000 0.0000 2.0259 0.0000 5.3974
#
#
#
# Elastic Compliance Matrix: (Units=1/GPa)
#
#
# Indices 1 2 3 4 5 6 
#
# 1 0.008364 -0.003695 -0.002534 0.000000 -0.001892 0.000000
# 2 -0.003695 0.025274 -0.013241 0.000000 0.003574 0.000000
# 3 -0.002534 -0.013241 0.027398 0.000000 -0.006102 0.000000
# 4 0.000000 0.000000 0.000000 0.043812 0.000000 -0.016444
# 5 -0.001892 0.003574 -0.006102 0.000000 0.062596 0.000000
# 6 0.000000 0.000000 0.000000 -0.016444 0.000000 0.191445
#
#
# Mechanical properties :
#
#
# Convention : Reuss Voigt Hill
#
# Bulk Modulus (GPa) = 45.25859 53.33286 49.29572
# Shear Modulus (GPa) = 12.33973 19.90477 16.12225
#
# Velocity S-wave (km/s) = 2.63566 3.34746 3.01266
# Velocity P-wave (km/s) = 5.89414 6.70557 6.31290
#
# Compressibility (1/GPa) = 0.02209525
#
# Stress axis : x y z
#
# Youngs Moduli (GPa) = 119.56008 39.56631 36.49888
#
# Poissons Ratio (x) = 0.14621 0.09250
# Poissons Ratio (y) = 0.44182 0.48327
# Poissons Ratio (z) = 0.30301 0.52388
#
# Static dielectric constant tensor:
#      x y z
#    x 3.678670 0.000000 0.124770 
#    y 0.000000 3.006550 0.000000 
#    z 0.124770 0.000000 2.915760 
# 
# 
# High freq. dielectric constant tensor:
#      x y z
#    x 1.702400 0.000000 0.010760 
#    y 0.000000 1.653450 0.000000 
#    z 0.010760 0.000000 1.652320 
# 
# From -- ./inp_files/90658.got.cif
#   From: 2010.06.25/outbox.cif.g09.slc.cpg/sg10_46_cif.got.tgz:90658.got - 2010.06.27 22:07:45.
