data_PCOD8066781
_publ_section_title
;
Structure prediction by ZEFSAII (Michael W. Deem and Ramdas Pophale) SiO2 
 PCOD8066781
Probable space group: P 2/M
;
_chemical_formula_sum "Si O2"
_cell_formula_units_Z 32
_cell_length_a 9.119766
_cell_length_b 18.433281
_cell_length_c 10.895044
_cell_angle_alpha 90.000000
_cell_angle_beta 53.750560
_cell_angle_gamma 90.000000
_cell_volume 1477.042460
_symmetry_space_group_name_H-M "P 2/M"
_symmetry_group_IT_number 10
_symmetry_cell_setting 'monoclinic'
loop_
_space_group_symop_operation_xyz
x,y,z
-x,y,-z
-x,-y,-z
x,-y,z
loop_
_atom_site_type_symbol
_atom_site_label
_atom_site_fract_x
_atom_site_fract_y
_atom_site_fract_z
Si Si1 0.372342 0.580696 0.889627
Si Si2 0.318870 0.701179 0.279727
Si Si3 0.320247 0.852188 0.148110
Si Si4 0.803032 0.081919 0.562436
Si Si5 0.310006 0.215050 0.530137
Si Si6 0.306459 0.418070 0.643599
Si Si7 0.080687 0.355902 0.198801
Si Si8 0.025260 0.209327 0.127515
O O1 0.460984 0.500000 0.860124
O O2 0.521543 0.643620 0.825684
O O3 0.283092 0.586811 0.800473
O O4 0.214781 0.584793 0.071715
O O5 0.365906 0.775267 0.187390
O O6 0.284358 0.722236 0.439275
O O7 0.138965 0.666419 0.308207
O O8 0.295025 0.915602 0.259063
O O9 0.151735 0.848448 0.136096
O O10 0.500000 0.881857 0.000000
O O11 0.703486 0.133637 0.515320
O O12 0.000000 0.114308 0.500000
O O13 0.809872 0.000000 0.506691
O O14 0.500000 0.227202 0.500000
O O15 0.164157 0.221463 0.709588
O O16 0.500000 0.383612 0.500000
O O17 0.300884 0.500000 0.596513
O O18 0.129126 0.378287 0.678572
O O19 0.114148 0.288895 0.087845
O O20 0.000000 0.182823 0.000000
#
# Coordination Sequence:
#
# PCOD8066781 Si02
#       8
#     4   4   4   4   4   4   4   4
#     4  11  23  41  63  93 132 174 221 274 341 405
#     4  10  24  41  65  98 128 168 220 283 331 389
#     4  10  21  39  66  96 137 172 222 274 321 387
#     4  10  21  43  71  99 137 182 223 265 322 385
#     4  11  26  43  70 101 134 175 220 273 331 393
#     4  10  23  41  59  86 124 167 216 271 331 398
#     4  11  23  38  65  90 124 168 219 274 334 398
#     4  11  24  39  62  98 132 168 219 276 328 386
#
# _framework density 21.664915000000001
#
# number of rings (size 3 to 8) (size 9 to 14) (size 15 to 20)
#    0.000    1.500    1.250    3.375    8.750    3.000 
#    0.000    0.000    0.000    3.000    0.000    0.000 
#    0.000    0.000    0.000    0.000    0.000    0.000 
#
# Total GULP energy -396604.184480 kJ/mol
# GULP energy per Si atom -12393.880765 kJ/mol
# Density = 2.161560 g / cm^3
# Si number density = 21.664915 Si / 1000 Ang^3
#
#
#
# Elastic Constant Matrix: (Units=GPa)
#
#
# Indices 1 2 3 4 5 6 
#
# 1 128.9153 33.8452 54.4106 0.0000 4.6593 0.0000
# 2 33.8452 73.7986 16.1926 0.0000 6.4371 0.0000
# 3 54.4106 16.1926 140.7649 0.0000 -1.8946 0.0000
# 4 0.0000 0.0000 0.0000 20.7487 0.0000 -7.2477
# 5 4.6593 6.4371 -1.8946 0.0000 41.0754 0.0000
# 6 0.0000 0.0000 0.0000 -7.2477 0.0000 -47.4075
#
#
#
# Elastic Compliance Matrix: (Units=1/GPa)
#
#
# Indices 1 2 3 4 5 6 
#
# 1 0.010298 -0.003882 -0.003544 0.000000 -0.000723 0.000000
# 2 -0.003882 0.015576 -0.000318 0.000000 -0.002015 0.000000
# 3 -0.003544 -0.000318 0.008522 0.000000 0.000845 0.000000
# 4 0.000000 0.000000 0.000000 0.045753 0.000000 -0.006995
# 5 -0.000723 -0.002015 0.000845 0.000000 0.024782 0.000000
# 6 0.000000 0.000000 0.000000 -0.006995 0.000000 -0.020024
#
#
# Mechanical properties :
#
#
# Convention : Reuss Voigt Hill
#
# Bulk Modulus (GPa) = 52.88815 61.37507 57.13161
# Shear Modulus (GPa) = 46.86121 18.81866 32.83993
#
# Velocity S-wave (km/s) = 4.65585 2.95044 3.89757
# Velocity P-wave (km/s) = 7.30531 6.32436 6.83246
#
# Compressibility (1/GPa) = 0.01890783
#
# Stress axis : x y z
#
# Youngs Moduli (GPa) = 97.10544 64.19940 117.34593
#
# Poissons Ratio (x) = 0.24924 0.41584
# Poissons Ratio (y) = 0.37698 0.03735
# Poissons Ratio (z) = 0.34412 0.02044
#
# Static dielectric constant tensor:
#      x y z
#    x 3.961250 0.000000 0.111860 
#    y 0.000000 3.747330 0.000000 
#    z 0.111860 0.000000 3.988920 
# 
# 
# High freq. dielectric constant tensor:
#      x y z
#    x 1.851910 0.000000 -0.001710 
#    y 0.000000 1.836910 0.000000 
#    z -0.001710 0.000000 1.856470 
# 
# From -- ./inp_files/43605.got.cif
#   From: 2010.06.25/outbox.cif.g09.slc.cpg/sg10_22_cif.got.tgz:43605.got - 2010.06.27 22:07:45.
