data_PCOD8066891
_publ_section_title
;
Structure prediction by ZEFSAII (Michael W. Deem and Ramdas Pophale) SiO2 
 PCOD8066891
Probable space group: P 2/M
;
_chemical_formula_sum "Si O2"
_cell_formula_units_Z 28
_cell_length_a 28.633605
_cell_length_b 7.823453
_cell_length_c 9.824223
_cell_angle_alpha 90.000000
_cell_angle_beta 140.203744
_cell_angle_gamma 90.000000
_cell_volume 1408.617448
_symmetry_space_group_name_H-M "P 2/M"
_symmetry_group_IT_number 10
_symmetry_cell_setting 'monoclinic'
loop_
_space_group_symop_operation_xyz
x,y,z
-x,y,-z
-x,-y,-z
x,-y,z
loop_
_atom_site_type_symbol
_atom_site_label
_atom_site_fract_x
_atom_site_fract_y
_atom_site_fract_z
Si Si1 0.181526 0.696895 0.195028
Si Si2 0.572360 0.000000 0.073000
Si Si3 0.328167 0.689405 0.020039
Si Si4 0.209764 0.807017 0.954486
Si Si5 0.316850 0.301804 0.684384
Si Si6 0.022136 0.194629 0.902674
Si Si7 0.568719 0.000000 0.749389
Si Si8 0.940285 0.306619 0.468058
O O1 0.162806 0.500000 0.172985
O O2 0.246066 0.753836 0.440503
O O3 0.206828 0.730927 0.098501
O O4 0.108522 0.798658 0.068217
O O5 0.617818 0.172488 0.208836
O O6 0.500000 0.000000 0.000000
O O7 0.547371 0.000000 0.860023
O O8 0.363701 0.500000 0.106548
O O9 0.387585 0.829628 0.191332
O O10 0.263149 0.694421 0.982474
O O11 0.296892 0.723050 0.798448
O O12 0.131400 0.807149 0.706134
O O13 0.238939 0.000000 0.025751
O O14 0.339208 0.500000 0.702852
O O15 0.974214 0.307073 0.693554
O O16 0.996624 0.000000 0.829905
O O17 0.000000 0.266782 0.000000
O O18 0.500000 0.000000 0.500000
O O19 0.920361 0.500000 0.380472
O O20 0.000000 0.227845 0.500000
#
# Coordination Sequence:
#
# PCOD8066891 Si02
#       8
#     4   2   4   4   4   4   2   4
#     4  11  23  40  60  87 119 159 206 255 308 365
#     4  10  22  40  66  96 126 166 198 241 298 364
#     4  10  21  42  65  93 127 166 207 249 304 363
#     4  12  24  38  61  90 121 161 205 257 311 369
#     4   9  22  41  64  92 126 163 205 252 299 358
#     4  11  25  41  57  85 117 156 206 260 313 368
#     4  10  22  42  64  98 132 160 204 246 296 362
#     4  11  23  40  60  83 116 159 205 258 312 364
#
# _framework density 19.877647
#
# number of rings (size 3 to 8) (size 9 to 14) (size 15 to 20)
#    0.000    1.429    2.143    2.571    4.000    3.429 
#    0.000    0.000    0.000    0.000    0.000    0.000 
#    0.000    0.000    0.000    0.000    0.000    0.000 
#
# Total GULP energy -347279.025869 kJ/mol
# GULP energy per Si atom -12402.822352 kJ/mol
# Density = 1.983240 g / cm^3
# Si number density = 19.877647 Si / 1000 Ang^3
#
#
#
# Elastic Constant Matrix: (Units=GPa)
#
#
# Indices 1 2 3 4 5 6 
#
# 1 133.5595 28.9980 52.5320 0.0000 -5.8634 0.0000
# 2 28.9980 87.0677 37.9296 0.0000 6.2572 0.0000
# 3 52.5320 37.9296 149.3563 0.0000 -3.9031 0.0000
# 4 0.0000 0.0000 0.0000 19.1213 0.0000 -0.9459
# 5 -5.8634 6.2572 -3.9031 0.0000 24.9780 0.0000
# 6 0.0000 0.0000 0.0000 -0.9459 0.0000 14.7999
#
#
#
# Elastic Compliance Matrix: (Units=1/GPa)
#
#
# Indices 1 2 3 4 5 6 
#
# 1 0.009054 -0.002039 -0.002608 0.000000 0.002229 0.000000
# 2 -0.002039 0.013735 -0.002885 0.000000 -0.004370 0.000000
# 3 -0.002608 -0.002885 0.008383 0.000000 0.001420 0.000000
# 4 0.000000 0.000000 0.000000 0.052464 0.000000 0.003353
# 5 0.002229 -0.004370 0.001420 0.000000 0.041875 0.000000
# 6 0.000000 0.000000 0.000000 0.003353 0.000000 0.067782
#
#
# Mechanical properties :
#
#
# Convention : Reuss Voigt Hill
#
# Bulk Modulus (GPa) = 62.08695 67.65586 64.87141
# Shear Modulus (GPa) = 23.39433 28.48144 25.93789
#
# Velocity S-wave (km/s) = 3.43434 3.78939 3.61623
# Velocity P-wave (km/s) = 6.85774 7.29767 7.08113
#
# Compressibility (1/GPa) = 0.01610644
#
# Stress axis : x y z
#
# Youngs Moduli (GPa) = 110.45079 72.80440 119.29468
#
# Poissons Ratio (x) = 0.14847 0.31116
# Poissons Ratio (y) = 0.22524 0.34418
# Poissons Ratio (z) = 0.28809 0.21005
#
# Static dielectric constant tensor:
#      x y z
#    x 3.558590 0.000000 -0.161900 
#    y 0.000000 3.852500 0.000000 
#    z -0.161900 0.000000 3.530690 
# 
# 
# High freq. dielectric constant tensor:
#      x y z
#    x 1.770340 0.000000 -0.013540 
#    y 0.000000 1.790930 0.000000 
#    z -0.013540 0.000000 1.770380 
# 
# From -- ./inp_files/37429.got.cif
#   From: 2010.06.25/outbox.cif.g09.slc.cpg/sg10_19_cif.got.tgz:37429.got - 2010.06.27 22:07:45.
