data_PCOD8066917
_publ_section_title
;
Structure prediction by ZEFSAII (Michael W. Deem and Ramdas Pophale) SiO2 
 PCOD8066917
Probable space group: P 2/M
;
_chemical_formula_sum "Si O2"
_cell_formula_units_Z 24
_cell_length_a 12.156445
_cell_length_b 14.211351
_cell_length_c 14.103944
_cell_angle_alpha 90.000000
_cell_angle_beta 30.115755
_cell_angle_gamma 90.000000
_cell_volume 1222.555862
_symmetry_space_group_name_H-M "P 2/M"
_symmetry_group_IT_number 10
_symmetry_cell_setting 'monoclinic'
loop_
_space_group_symop_operation_xyz
x,y,z
-x,y,-z
-x,-y,-z
x,-y,z
loop_
_atom_site_type_symbol
_atom_site_label
_atom_site_fract_x
_atom_site_fract_y
_atom_site_fract_z
Si Si1 0.630707 0.706679 0.130334
Si Si2 0.802962 0.610372 0.577081
Si Si3 0.344144 0.894063 0.978422
Si Si4 0.943853 0.609674 0.262578
Si Si5 0.749342 0.604218 0.219216
Si Si6 0.173642 0.894545 0.300678
O O1 0.411302 0.672590 0.238522
O O2 0.616673 0.676227 0.251371
O O3 0.667537 0.819542 0.098823
O O4 0.830695 0.660379 0.927018
O O5 0.745899 0.500000 0.629240
O O6 0.000000 0.638429 0.500000
O O7 0.868181 0.638906 0.422503
O O8 0.194074 0.854523 0.177879
O O9 0.273336 0.000000 0.998912
O O10 0.592597 0.896705 0.825632
O O11 0.995216 0.500000 0.216200
O O12 0.751836 0.635577 0.328461
O O13 0.642915 0.500000 0.286737
O O14 0.000000 0.601125 0.000000
O O15 0.000000 0.840230 0.500000
O O16 0.084249 0.000000 0.353212
#
# Coordination Sequence:
#
# PCOD8066917 Si02
#       6
#     4   4   4   4   4   4
#     4  11  20  32  53  75 103 140 171 207 257 304
#     4  10  22  36  50  77 112 139 168 204 252 320
#     4   9  19  31  45  72 102 131 172 214 252 300
#     4   9  19  36  56  77 101 130 170 220 260 298
#     4   8  15  31  55  78  96 123 172 221 257 297
#     4   8  15  31  51  66  89 129 174 219 258 290
#
# _framework density 19.631004999999998
#
# number of rings (size 3 to 8) (size 9 to 14) (size 15 to 20)
#    0.000    2.833    0.000    3.500    0.000    6.000 
#    0.000    5.000    0.000    4.500    0.000    1.167 
#    0.000    0.000    0.000    0.000    0.000    0.000 
#
# Total GULP energy -297373.737012 kJ/mol
# GULP energy per Si atom -12390.572376 kJ/mol
# Density = 1.958632 g / cm^3
# Si number density = 19.631005 Si / 1000 Ang^3
#
#
#
# Elastic Constant Matrix: (Units=GPa)
#
#
# Indices 1 2 3 4 5 6 
#
# 1 121.0832 60.1449 32.7368 0.0000 10.7109 0.0000
# 2 60.1449 94.5872 42.6837 0.0000 6.7998 0.0000
# 3 32.7368 42.6837 65.6018 0.0000 4.6373 0.0000
# 4 0.0000 0.0000 0.0000 13.2735 0.0000 5.4198
# 5 10.7109 6.7998 4.6373 0.0000 29.3192 0.0000
# 6 0.0000 0.0000 0.0000 5.4198 0.0000 4.9269
#
#
#
# Elastic Compliance Matrix: (Units=1/GPa)
#
#
# Indices 1 2 3 4 5 6 
#
# 1 0.012372 -0.007042 -0.001404 0.000000 -0.002664 0.000000
# 2 -0.007042 0.019086 -0.008872 0.000000 -0.000451 0.000000
# 3 -0.001404 -0.008872 0.021779 0.000000 -0.000874 0.000000
# 4 0.000000 0.000000 0.000000 0.136769 0.000000 -0.150450
# 5 -0.002664 -0.000451 -0.000874 0.000000 0.035323 0.000000
# 6 0.000000 0.000000 0.000000 -0.150450 0.000000 0.368466
#
#
# Mechanical properties :
#
#
# Convention : Reuss Voigt Hill
#
# Bulk Modulus (GPa) = 53.76190 61.37812 57.57001
# Shear Modulus (GPa) = 7.87859 19.21772 13.54815
#
# Velocity S-wave (km/s) = 2.00551 3.13221 2.62990
# Velocity P-wave (km/s) = 5.72786 6.66444 6.21382
#
# Compressibility (1/GPa) = 0.01860053
#
# Stress axis : x y z
#
# Youngs Moduli (GPa) = 80.82856 52.39402 45.91661
#
# Poissons Ratio (x) = 0.36895 0.06445
# Poissons Ratio (y) = 0.56918 0.40739
# Poissons Ratio (z) = 0.11346 0.46486
#
# Static dielectric constant tensor:
#      x y z
#    x 3.788890 0.000000 0.262010 
#    y 0.000000 3.567620 0.000000 
#    z 0.262010 0.000000 3.755820 
# 
# 
# High freq. dielectric constant tensor:
#      x y z
#    x 1.744310 0.000000 0.007560 
#    y 0.000000 1.739020 0.000000 
#    z 0.007560 0.000000 1.773390 
# 
# From -- ./inp_files/51532.got.cif
#   From: 2010.06.25/outbox.cif.g09.slc.cpg/sg10_26_cif.got.tgz:51532.got - 2010.06.27 22:07:45.
