data_PCOD8066697
_publ_section_title
;
Structure prediction by ZEFSAII (Michael W. Deem and Ramdas Pophale) SiO2 
 PCOD8066697
Probable space group: P 2/M
;
_chemical_formula_sum "Si O2"
_cell_formula_units_Z 24
_cell_length_a 20.393876
_cell_length_b 8.421801
_cell_length_c 10.247222
_cell_angle_alpha 90.000000
_cell_angle_beta 43.185333
_cell_angle_gamma 90.000000
_cell_volume 1204.469521
_symmetry_space_group_name_H-M "P 2/M"
_symmetry_group_IT_number 10
_symmetry_cell_setting 'monoclinic'
loop_
_space_group_symop_operation_xyz
x,y,z
-x,y,-z
-x,-y,-z
x,-y,z
loop_
_atom_site_type_symbol
_atom_site_label
_atom_site_fract_x
_atom_site_fract_y
_atom_site_fract_z
Si Si1 0.937150 0.184256 0.468133
Si Si2 0.454697 0.812649 0.928803
Si Si3 0.238344 0.815401 0.885593
Si Si4 0.956168 0.684209 0.926339
Si Si5 0.251479 0.683111 0.151612
Si Si6 0.566555 0.812246 0.517352
O O1 0.825838 0.212856 0.658245
O O2 0.000000 0.242250 0.500000
O O3 0.967171 0.283935 0.298272
O O4 0.956171 0.000000 0.412038
O O5 0.528658 0.750252 0.711409
O O6 0.436263 0.000000 0.944318
O O7 0.500000 0.763973 0.000000
O O8 0.354771 0.724114 0.058228
O O9 0.323753 0.759760 0.665304
O O10 0.248612 0.000000 0.907708
O O11 0.139016 0.786448 0.957183
O O12 0.245169 0.716298 0.007553
O O13 0.928377 0.500000 0.968732
O O14 0.000000 0.739153 0.000000
O O15 0.228249 0.500000 0.210020
O O16 0.500000 0.739319 0.500000
O O17 0.558242 0.000000 0.526829
#
# Coordination Sequence:
#
# PCOD8066697 Si02
#       6
#     4   4   4   4   4   4
#     4  11  23  40  66  94 119 159 213 260 301 362
#     4  10  21  39  62  89 121 158 203 253 302 359
#     4  11  21  37  63  90 118 159 212 256 297 358
#     4  11  25  43  62  91 131 166 197 247 316 375
#     4  12  24  38  61  91 125 161 199 252 316 372
#     4   9  17  33  59  87 117 152 195 248 297 344
#
# _framework density 19.925784
#
# number of rings (size 3 to 8) (size 9 to 14) (size 15 to 20)
#    0.000    1.333    3.333    3.000    0.000    3.667 
#    0.000    4.167    0.000    0.000    0.000    0.000 
#    0.000    0.000    0.000    0.000    0.000    0.000 
#
# Total GULP energy -297717.301346 kJ/mol
# GULP energy per Si atom -12404.887556 kJ/mol
# Density = 1.988043 g / cm^3
# Si number density = 19.925784 Si / 1000 Ang^3
#
#
#
# Elastic Constant Matrix: (Units=GPa)
#
#
# Indices 1 2 3 4 5 6 
#
# 1 137.1713 20.5054 66.2501 0.0000 7.8541 0.0000
# 2 20.5054 42.7641 8.4085 0.0000 1.0145 0.0000
# 3 66.2501 8.4085 159.2915 0.0000 -1.7555 0.0000
# 4 0.0000 0.0000 0.0000 17.3274 0.0000 -0.9555
# 5 7.8541 1.0145 -1.7555 0.0000 39.4866 0.0000
# 6 0.0000 0.0000 0.0000 -0.9555 0.0000 25.1152
#
#
#
# Elastic Compliance Matrix: (Units=1/GPa)
#
#
# Indices 1 2 3 4 5 6 
#
# 1 0.009891 -0.003922 -0.003929 0.000000 -0.002041 0.000000
# 2 -0.003922 0.025202 0.000302 0.000000 0.000146 0.000000
# 3 -0.003929 0.000302 0.007908 0.000000 0.001125 0.000000
# 4 0.000000 0.000000 0.000000 0.057834 0.000000 0.002200
# 5 -0.002041 0.000146 0.001125 0.000000 0.025777 0.000000
# 6 0.000000 0.000000 0.000000 0.002200 0.000000 0.039900
#
#
# Mechanical properties :
#
#
# Convention : Reuss Voigt Hill
#
# Bulk Modulus (GPa) = 35.83727 58.83945 47.33836
# Shear Modulus (GPa) = 26.19027 32.65669 29.42348
#
# Velocity S-wave (km/s) = 3.62939 4.05274 3.84689
# Velocity P-wave (km/s) = 5.96554 7.17587 6.59851
#
# Compressibility (1/GPa) = 0.02790391
#
# Stress axis : x y z
#
# Youngs Moduli (GPa) = 101.10224 39.67997 126.44763
#
# Poissons Ratio (x) = 0.15561 0.49684
# Poissons Ratio (y) = 0.39649 -0.03823
# Poissons Ratio (z) = 0.39725 -0.01200
#
# Static dielectric constant tensor:
#      x y z
#    x 3.770190 0.000000 0.028460 
#    y 0.000000 3.409140 0.000000 
#    z 0.028460 0.000000 3.862430 
# 
# 
# High freq. dielectric constant tensor:
#      x y z
#    x 1.773810 0.000000 -0.003900 
#    y 0.000000 1.762680 0.000000 
#    z -0.003900 0.000000 1.794150 
# 
# From -- ./inp_files/54596.got.cif
#   From: 2010.06.25/outbox.cif.g09.slc.cpg/sg10_28_cif.got.tgz:54596.got - 2010.06.27 22:07:45.
