data_PCOD8066225
_publ_section_title
;
Structure prediction by ZEFSAII (Michael W. Deem and Ramdas Pophale) SiO2 
 PCOD8066225
Probable space group: P 2/M
;
_chemical_formula_sum "Si O2"
_cell_formula_units_Z 28
_cell_length_a 11.754596
_cell_length_b 8.651102
_cell_length_c 15.211393
_cell_angle_alpha 90.000000
_cell_angle_beta 116.069012
_cell_angle_gamma 90.000000
_cell_volume 1389.481567
_symmetry_space_group_name_H-M "P 2/M"
_symmetry_group_IT_number 10
_symmetry_cell_setting 'monoclinic'
loop_
_space_group_symop_operation_xyz
x,y,z
-x,y,-z
-x,-y,-z
x,-y,z
loop_
_atom_site_type_symbol
_atom_site_label
_atom_site_fract_x
_atom_site_fract_y
_atom_site_fract_z
Si Si1 0.862817 0.183619 0.977801
Si Si2 0.197092 0.682762 0.541327
Si Si3 0.810435 0.818565 0.155484
Si Si4 0.472720 0.316438 0.588747
Si Si5 0.553010 0.680507 0.112648
Si Si6 0.034924 0.317136 0.649978
Si Si7 0.382971 0.181797 0.204767
O O1 0.757085 0.239287 0.872016
O O2 0.870803 0.000000 0.982029
O O3 0.823702 0.243341 0.060793
O O4 0.000000 0.254232 0.000000
O O5 0.204903 0.500000 0.547620
O O6 0.337127 0.752533 0.574189
O O7 0.137146 0.740684 0.612252
O O8 0.105590 0.730291 0.429508
O O9 0.699791 0.724463 0.166225
O O10 0.938586 0.776236 0.251419
O O11 0.782257 0.000000 0.148275
O O12 0.500000 0.254549 0.500000
O O13 0.470343 0.500000 0.589036
O O14 0.582822 0.260351 0.691300
O O15 0.535074 0.500000 0.125657
O O16 0.482315 0.774966 0.163407
O O17 0.500000 0.730315 0.000000
O O18 0.044927 0.500000 0.669295
O O19 0.385136 0.000000 0.218745
#
# Coordination Sequence:
#
# PCOD8066225 Si02
#       7
#     4   4   4   4   4   4   4
#     4   9  20  38  56  76 110 154 190 223 276 340
#     4   8  16  33  54  75 103 143 185 226 278 336
#     4  11  21  34  55  84 115 147 187 232 280 337
#     4  10  21  37  57  81 113 152 192 235 286 341
#     4  11  22  36  58  85 116 149 185 232 288 346
#     4   9  17  32  55  78 104 141 184 228 278 335
#     4  11  22  38  61  86 114 150 193 242 288 337
#
# _framework density 20.151399999999999
#
# number of rings (size 3 to 8) (size 9 to 14) (size 15 to 20)
#    0.000    2.143    1.429    3.000    0.000    3.143 
#    0.000    2.143    0.000    6.000    0.000    0.000 
#    0.000    0.000    0.000    0.000    0.000    0.000 
#
# Total GULP energy -347209.278671 kJ/mol
# GULP energy per Si atom -12400.331381 kJ/mol
# Density = 2.010553 g / cm^3
# Si number density = 20.151400 Si / 1000 Ang^3
#
#
#
# Elastic Constant Matrix: (Units=GPa)
#
#
# Indices 1 2 3 4 5 6 
#
# 1 114.0464 10.0655 53.4803 0.0000 13.4751 0.0000
# 2 10.0655 19.5056 17.3827 0.0000 -0.0234 0.0000
# 3 53.4803 17.3827 161.0325 0.0000 10.2992 0.0000
# 4 0.0000 0.0000 0.0000 31.2925 0.0000 5.1838
# 5 13.4751 -0.0234 10.2992 0.0000 29.8383 0.0000
# 6 0.0000 0.0000 0.0000 5.1838 0.0000 11.7242
#
#
#
# Elastic Compliance Matrix: (Units=1/GPa)
#
#
# Indices 1 2 3 4 5 6 
#
# 1 0.010920 -0.002909 -0.003065 0.000000 -0.003876 0.000000
# 2 -0.002909 0.057641 -0.005464 0.000000 0.003245 0.000000
# 3 -0.003065 -0.005464 0.007904 0.000000 -0.001348 0.000000
# 4 0.000000 0.000000 0.000000 0.034482 0.000000 -0.015246
# 5 -0.003876 0.003245 -0.001348 0.000000 0.035732 0.000000
# 6 0.000000 0.000000 0.000000 -0.015246 0.000000 0.092035
#
#
# Mechanical properties :
#
#
# Convention : Reuss Voigt Hill
#
# Bulk Modulus (GPa) = 18.65978 50.71570 34.68774
# Shear Modulus (GPa) = 17.89214 28.81472 23.35343
#
# Velocity S-wave (km/s) = 2.98297 3.78552 3.40795
# Velocity P-wave (km/s) = 4.59827 6.65799 5.72158
#
# Compressibility (1/GPa) = 0.05359119
#
# Stress axis : x y z
#
# Youngs Moduli (GPa) = 91.57305 17.34870 126.52147
#
# Poissons Ratio (x) = 0.05046 0.38777
# Poissons Ratio (y) = 0.26634 0.69127
# Poissons Ratio (z) = 0.28066 0.09479
#
# Static dielectric constant tensor:
#      x y z
#    x 3.872920 0.000000 0.154910 
#    y 0.000000 3.236960 0.000000 
#    z 0.154910 0.000000 3.905100 
# 
# 
# High freq. dielectric constant tensor:
#      x y z
#    x 1.780120 0.000000 0.009690 
#    y 0.000000 1.752370 0.000000 
#    z 0.009690 0.000000 1.804420 
# 
# From -- ./inp_files/49137.got.cif
#   From: 2010.06.25/outbox.cif.g09.slc.cpg/sg10_25_cif.got.tgz:49137.got - 2010.06.27 22:07:45.
