data_PCOD8066803
_publ_section_title
;
Structure prediction by ZEFSAII (Michael W. Deem and Ramdas Pophale) SiO2 
 PCOD8066803
Probable space group: P 2/M
;
_chemical_formula_sum "Si O2"
_cell_formula_units_Z 28
_cell_length_a 9.431887
_cell_length_b 14.169235
_cell_length_c 11.209269
_cell_angle_alpha 90.000000
_cell_angle_beta 64.467414
_cell_angle_gamma 90.000000
_cell_volume 1351.738347
_symmetry_space_group_name_H-M "P 2/M"
_symmetry_group_IT_number 10
_symmetry_cell_setting 'monoclinic'
loop_
_space_group_symop_operation_xyz
x,y,z
-x,y,-z
-x,-y,-z
x,-y,z
loop_
_atom_site_type_symbol
_atom_site_label
_atom_site_fract_x
_atom_site_fract_y
_atom_site_fract_z
Si Si1 0.687648 0.607253 0.927686
Si Si2 0.956977 0.609381 0.650194
Si Si3 0.123383 0.891939 0.120788
Si Si4 0.706477 0.769075 0.100401
Si Si5 0.410900 0.105452 0.192729
Si Si6 0.336617 0.102468 0.492354
Si Si7 0.848656 0.240289 0.295688
O O1 0.729284 0.500000 0.949904
O O2 0.777059 0.627821 0.766567
O O3 0.500000 0.620301 0.000000
O O4 0.752592 0.678379 0.003982
O O5 0.997827 0.500000 0.642127
O O6 0.077283 0.660145 0.695829
O O7 0.000000 0.645299 0.500000
O O8 0.270417 0.872213 0.154257
O O9 0.977210 0.837045 0.222707
O O10 0.077460 0.000000 0.126541
O O11 0.168745 0.851741 0.974269
O O12 0.535393 0.810579 0.131560
O O13 0.727286 0.742665 0.231098
O O14 0.348109 0.107716 0.347707
O O15 0.482059 0.000000 0.139958
O O16 0.500000 0.108633 0.500000
O O17 0.240352 0.194725 0.561104
O O18 0.259443 0.000000 0.553714
#
# Coordination Sequence:
#
# PCOD8066803 Si02
#       7
#     4   4   4   4   4   4   4
#     4  10  22  42  69  98 126 165 217 268 321 388
#     4  10  24  46  70  95 129 169 213 269 334 392
#     4  11  24  38  57  90 126 164 213 265 309 367
#     4  12  23  38  61  91 128 168 206 256 321 385
#     4  10  22  40  62  88 124 173 220 261 313 380
#     4  10  21  40  62  88 127 174 216 260 317 382
#     4  12  25  38  62  95 125 165 212 261 327 385
#
# _framework density 20.714067
#
# number of rings (size 3 to 8) (size 9 to 14) (size 15 to 20)
#    0.000    1.286    2.857    2.571    2.000    4.000 
#    0.000    3.571    0.000    0.429    0.000    0.000 
#    0.000    0.000    0.000    0.000    0.000    0.000 
#
# Total GULP energy -346976.520623 kJ/mol
# GULP energy per Si atom -12392.018594 kJ/mol
# Density = 2.066692 g / cm^3
# Si number density = 20.714067 Si / 1000 Ang^3
#
#
#
# Elastic Constant Matrix: (Units=GPa)
#
#
# Indices 1 2 3 4 5 6 
#
# 1 35.8232 15.2161 16.6490 0.0000 2.7011 0.0000
# 2 15.2161 64.1026 22.1902 0.0000 0.2351 0.0000
# 3 16.6490 22.1902 107.8091 0.0000 -0.7252 0.0000
# 4 0.0000 0.0000 0.0000 37.1563 0.0000 -4.2593
# 5 2.7011 0.2351 -0.7252 0.0000 29.4312 0.0000
# 6 0.0000 0.0000 0.0000 -4.2593 0.0000 24.9637
#
#
#
# Elastic Compliance Matrix: (Units=1/GPa)
#
#
# Indices 1 2 3 4 5 6 
#
# 1 0.032613 -0.006438 -0.003732 0.000000 -0.003034 0.000000
# 2 -0.006438 0.018069 -0.002722 0.000000 0.000379 0.000000
# 3 -0.003732 -0.002722 0.010416 0.000000 0.000621 0.000000
# 4 0.000000 0.000000 0.000000 0.027450 0.000000 0.004683
# 5 -0.003034 0.000379 0.000621 0.000000 0.034268 0.000000
# 6 0.000000 0.000000 0.000000 0.004683 0.000000 0.040857
#
#
# Mechanical properties :
#
#
# Convention : Reuss Voigt Hill
#
# Bulk Modulus (GPa) = 28.31763 35.09395 31.70579
# Shear Modulus (GPa) = 24.84720 28.55555 26.70138
#
# Velocity S-wave (km/s) = 3.46718 3.71692 3.59422
# Velocity P-wave (km/s) = 5.45242 5.94975 5.70651
#
# Compressibility (1/GPa) = 0.03531369
#
# Stress axis : x y z
#
# Youngs Moduli (GPa) = 30.66294 55.34255 96.00208
#
# Poissons Ratio (x) = 0.35632 0.35824
# Poissons Ratio (y) = 0.19742 0.26135
# Poissons Ratio (z) = 0.11442 0.15066
#
# Static dielectric constant tensor:
#      x y z
#    x 3.620940 0.000000 -0.083870 
#    y 0.000000 3.989960 0.000000 
#    z -0.083870 0.000000 4.036960 
# 
# 
# High freq. dielectric constant tensor:
#      x y z
#    x 1.795990 0.000000 -0.001500 
#    y 0.000000 1.819550 0.000000 
#    z -0.001500 0.000000 1.823370 
# 
# From -- ./inp_files/25399.got.cif
#   From: 2010.06.25/outbox.cif.g09.slc.cpg/sg10_13_cif.got.tgz:25399.got - 2010.06.27 22:07:45.
