data_PCOD8066099
_publ_section_title
;
Structure prediction by ZEFSAII (Michael W. Deem and Ramdas Pophale) SiO2 
 PCOD8066099
Probable space group: P 2/M
;
_chemical_formula_sum "Si O2"
_cell_formula_units_Z 32
_cell_length_a 10.792424
_cell_length_b 8.997203
_cell_length_c 18.932782
_cell_angle_alpha 90.000000
_cell_angle_beta 58.769824
_cell_angle_gamma 90.000000
_cell_volume 1572.003275
_symmetry_space_group_name_H-M "P 2/M"
_symmetry_group_IT_number 10
_symmetry_cell_setting 'monoclinic'
loop_
_space_group_symop_operation_xyz
x,y,z
-x,y,-z
-x,-y,-z
x,-y,z
loop_
_atom_site_type_symbol
_atom_site_label
_atom_site_fract_x
_atom_site_fract_y
_atom_site_fract_z
Si Si1 0.437266 0.830809 0.216024
Si Si2 0.895673 0.325575 0.236935
Si Si3 0.308865 0.168858 0.457492
Si Si4 0.814549 0.675043 0.637511
Si Si5 0.604190 0.165552 0.312791
Si Si6 0.926036 0.323810 0.950225
Si Si7 0.932974 0.170731 0.368521
Si Si8 0.592592 0.674932 0.041831
O O1 0.290478 0.738628 0.270572
O O2 0.533036 0.821596 0.257538
O O3 0.525899 0.760240 0.126750
O O4 0.397319 0.000000 0.209222
O O5 0.916886 0.500000 0.239798
O O6 0.726407 0.289372 0.281411
O O7 0.961919 0.245559 0.285046
O O8 0.979727 0.264830 0.143452
O O9 0.239090 0.285112 0.424410
O O10 0.482037 0.196873 0.409013
O O11 0.235088 0.188157 0.556339
O O12 0.282167 0.000000 0.436969
O O13 0.825123 0.500000 0.642856
O O14 0.971521 0.747555 0.600949
O O15 0.670929 0.000000 0.304442
O O16 0.932815 0.500000 0.951372
O O17 0.760140 0.272004 0.987265
O O18 0.000000 0.258613 0.000000
O O19 0.978735 0.000000 0.349952
O O20 0.584151 0.500000 0.058731
O O21 0.500000 0.718028 0.000000
#
# Coordination Sequence:
#
# PCOD8066099 Si02
#       8
#     4   4   4   4   4   4   4   4
#     4  10  21  38  60  86 116 153 195 240 293 356
#     4  11  23  37  58  87 118 152 194 245 299 356
#     4   9  20  39  61  84 114 156 200 240 291 354
#     4  11  22  36  59  88 119 153 195 245 294 349
#     4   9  19  38  60  82 111 149 196 243 289 348
#     4   9  19  37  59  83 116 156 196 241 301 367
#     4  11  23  39  58  82 118 160 197 238 294 357
#     4  10  21  36  58  87 117 153 197 248 307 363
#
# _framework density 20.356193000000001
#
# number of rings (size 3 to 8) (size 9 to 14) (size 15 to 20)
#    0.000    2.000    0.000    4.125    1.750    6.750 
#    0.000    3.750    0.000    3.375    0.000    0.000 
#    0.000    0.000    0.000    0.000    0.000    0.000 
#
# Total GULP energy -396810.008147 kJ/mol
# GULP energy per Si atom -12400.312755 kJ/mol
# Density = 2.030986 g / cm^3
# Si number density = 20.356193 Si / 1000 Ang^3
#
#
#
# Elastic Constant Matrix: (Units=GPa)
#
#
# Indices 1 2 3 4 5 6 
#
# 1 79.4024 24.3718 26.1146 0.0000 -11.9512 0.0000
# 2 24.3718 88.9589 42.0360 0.0000 -9.6655 0.0000
# 3 26.1146 42.0360 117.6295 0.0000 -4.4934 0.0000
# 4 0.0000 0.0000 0.0000 27.5572 0.0000 -0.4450
# 5 -11.9512 -9.6655 -4.4934 0.0000 22.4730 0.0000
# 6 0.0000 0.0000 0.0000 -0.4450 0.0000 26.8984
#
#
#
# Elastic Compliance Matrix: (Units=1/GPa)
#
#
# Indices 1 2 3 4 5 6 
#
# 1 0.015039 -0.002346 -0.002250 0.000000 0.006538 0.000000
# 2 -0.002346 0.014446 -0.004486 0.000000 0.004068 0.000000
# 3 -0.002250 -0.004486 0.010565 0.000000 -0.001014 0.000000
# 4 0.000000 0.000000 0.000000 0.036298 0.000000 0.000600
# 5 0.006538 0.004068 -0.001014 0.000000 0.049522 0.000000
# 6 0.000000 0.000000 0.000000 0.000600 0.000000 0.037187
#
#
# Mechanical properties :
#
#
# Convention : Reuss Voigt Hill
#
# Bulk Modulus (GPa) = 45.69520 52.33727 49.01624
# Shear Modulus (GPa) = 26.52286 28.28361 27.40324
#
# Velocity S-wave (km/s) = 3.61354 3.73156 3.67302
# Velocity P-wave (km/s) = 6.31718 6.65827 6.48997
#
# Compressibility (1/GPa) = 0.02188413
#
# Stress axis : x y z
#
# Youngs Moduli (GPa) = 66.49599 69.22438 94.64958
#
# Poissons Ratio (x) = 0.16242 0.21300
# Poissons Ratio (y) = 0.15601 0.42460
# Poissons Ratio (z) = 0.14965 0.31054
#
# Static dielectric constant tensor:
#      x y z
#    x 3.722380 0.000000 -0.149340 
#    y 0.000000 3.535200 0.000000 
#    z -0.149340 0.000000 3.902940 
# 
# 
# High freq. dielectric constant tensor:
#      x y z
#    x 1.792030 0.000000 -0.007250 
#    y 0.000000 1.781770 0.000000 
#    z -0.007250 0.000000 1.808290 
# 
# From -- ./inp_files/83576.got.cif
#   From: 2010.06.25/outbox.cif.g09.slc.cpg/sg10_42_cif.got.tgz:83576.got - 2010.06.27 22:07:45.
