data_PCOD8066203
_publ_section_title
;
Structure prediction by ZEFSAII (Michael W. Deem and Ramdas Pophale) SiO2 
 PCOD8066203
Probable space group: P 2/M
;
_chemical_formula_sum "Si O2"
_cell_formula_units_Z 32
_cell_length_a 14.434377
_cell_length_b 8.938147
_cell_length_c 12.820318
_cell_angle_alpha 90.000000
_cell_angle_beta 78.700509
_cell_angle_gamma 90.000000
_cell_volume 1621.972500
_symmetry_space_group_name_H-M "P 2/M"
_symmetry_group_IT_number 10
_symmetry_cell_setting 'monoclinic'
loop_
_space_group_symop_operation_xyz
x,y,z
-x,y,-z
-x,-y,-z
x,-y,z
loop_
_atom_site_type_symbol
_atom_site_label
_atom_site_fract_x
_atom_site_fract_y
_atom_site_fract_z
Si Si1 0.858537 0.665689 0.275843
Si Si2 0.892056 0.323674 0.038614
Si Si3 0.717164 0.177451 0.989158
Si Si4 0.909665 0.824041 0.460403
Si Si5 0.368636 0.325820 0.195178
Si Si6 0.584351 0.326283 0.186026
Si Si7 0.645020 0.333569 0.393973
Si Si8 0.703209 0.823355 0.579308
O O1 0.903656 0.500000 0.267258
O O2 0.863700 0.732478 0.159555
O O3 0.918365 0.768220 0.340222
O O4 0.751545 0.661042 0.333516
O O5 0.876188 0.500000 0.025762
O O6 0.824915 0.235348 0.973330
O O7 0.000000 0.276608 0.000000
O O8 0.657079 0.231914 0.101557
O O9 0.715394 0.000000 0.985410
O O10 0.675324 0.240151 0.891872
O O11 0.811530 0.772835 0.535238
O O12 0.000000 0.755402 0.500000
O O13 0.915086 0.000000 0.457463
O O14 0.342216 0.500000 0.195044
O O15 0.480626 0.301855 0.163557
O O16 0.328957 0.259466 0.310363
O O17 0.615758 0.500000 0.173803
O O18 0.585261 0.273394 0.307563
O O19 0.610431 0.500000 0.434050
O O20 0.636415 0.226575 0.496777
O O21 0.693365 0.000000 0.595761
#
# Coordination Sequence:
#
# PCOD8066203 Si02
#       8
#     4   4   4   4   4   4   4   4
#     4   9  17  32  55  81 109 142 185 240 286 333
#     4  10  21  39  62  88 118 154 199 247 295 348
#     4  12  25  40  61  88 123 159 196 247 305 362
#     4   9  19  35  55  79 110 151 192 233 286 350
#     4  11  24  41  62  85 117 161 204 247 298 357
#     4  10  21  40  65  89 114 154 206 250 292 355
#     4   9  17  34  60  84 111 147 192 241 290 349
#     4  10  21  37  56  83 120 153 191 243 303 359
#
# _framework density 19.729066
#
# number of rings (size 3 to 8) (size 9 to 14) (size 15 to 20)
#    0.000    2.000    1.250    2.250    0.000    6.000 
#    0.000    5.000    0.000    0.000    0.000    0.000 
#    0.000    0.000    0.000    0.000    0.000    0.000 
#
# Total GULP energy -396798.433624 kJ/mol
# GULP energy per Si atom -12399.951051 kJ/mol
# Density = 1.968416 g / cm^3
# Si number density = 19.729066 Si / 1000 Ang^3
#
#
#
# Elastic Constant Matrix: (Units=GPa)
#
#
# Indices 1 2 3 4 5 6 
#
# 1 96.0961 56.1813 56.5254 0.0000 23.4768 0.0000
# 2 56.1813 88.9118 50.6128 0.0000 3.5328 0.0000
# 3 56.5254 50.6128 108.8095 0.0000 18.4066 0.0000
# 4 0.0000 0.0000 0.0000 188.2976 0.0000 97.6918
# 5 23.4768 3.5328 18.4066 0.0000 30.2642 0.0000
# 6 0.0000 0.0000 0.0000 97.6918 0.0000 80.1750
#
#
#
# Elastic Compliance Matrix: (Units=1/GPa)
#
#
# Indices 1 2 3 4 5 6 
#
# 1 0.023125 -0.011651 -0.004224 0.000000 -0.014010 0.000000
# 2 -0.011651 0.021389 -0.005577 0.000000 0.009933 0.000000
# 3 -0.004224 -0.005577 0.014841 0.000000 -0.005099 0.000000
# 4 0.000000 0.000000 0.000000 0.014438 0.000000 -0.017592
# 5 -0.014010 0.009933 -0.005099 0.000000 0.045852 0.000000
# 6 0.000000 0.000000 0.000000 -0.017592 0.000000 0.033909
#
#
# Mechanical properties :
#
#
# Convention : Reuss Voigt Hill
#
# Bulk Modulus (GPa) = 60.78324 68.93960 64.86142
# Shear Modulus (GPa) = 24.75964 68.44722 46.60343
#
# Velocity S-wave (km/s) = 3.54642 5.89652 4.86549
# Velocity P-wave (km/s) = 6.90256 9.02095 8.03190
#
# Compressibility (1/GPa) = 0.01645190
#
# Stress axis : x y z
#
# Youngs Moduli (GPa) = 43.24289 46.75267 67.38019
#
# Poissons Ratio (x) = 0.54473 0.28460
# Poissons Ratio (y) = 0.50383 0.37577
# Poissons Ratio (z) = 0.18265 0.26073
#
# Static dielectric constant tensor:
#      x y z
#    x 3.782150 0.000000 0.230010 
#    y 0.000000 3.576340 0.000000 
#    z 0.230010 0.000000 3.804810 
# 
# 
# High freq. dielectric constant tensor:
#      x y z
#    x 1.769340 0.000000 0.010580 
#    y 0.000000 1.758770 0.000000 
#    z 0.010580 0.000000 1.778120 
# 
# From -- ./inp_files/49919.got.cif
#   From: 2010.06.25/outbox.cif.g09.slc.cpg/sg10_25_cif.got.tgz:49919.got - 2010.06.27 22:07:45.
