data_PCOD8066876
_publ_section_title
;
Structure prediction by ZEFSAII (Michael W. Deem and Ramdas Pophale) SiO2 
 PCOD8066876
Probable space group: P 2/M
;
_chemical_formula_sum "Si O2"
_cell_formula_units_Z 24
_cell_length_a 13.418567
_cell_length_b 14.065500
_cell_length_c 11.558110
_cell_angle_alpha 90.000000
_cell_angle_beta 145.608354
_cell_angle_gamma 90.000000
_cell_volume 1232.192971
_symmetry_space_group_name_H-M "P 2/M"
_symmetry_group_IT_number 10
_symmetry_cell_setting 'monoclinic'
loop_
_space_group_symop_operation_xyz
x,y,z
-x,y,-z
-x,-y,-z
x,-y,z
loop_
_atom_site_type_symbol
_atom_site_label
_atom_site_fract_x
_atom_site_fract_y
_atom_site_fract_z
Si Si1 0.706339 0.707766 0.985464
Si Si2 0.950072 0.707134 0.824824
Si Si3 0.609172 0.107027 0.781566
Si Si4 0.794050 0.390009 0.298000
Si Si5 0.640805 0.611252 0.399933
Si Si6 0.235615 0.107037 0.319186
O O1 0.674400 0.821004 0.943487
O O2 0.553271 0.654344 0.767366
O O3 0.701463 0.676250 0.114064
O O4 0.894792 0.678122 0.113710
O O5 0.770333 0.654803 0.618927
O O6 0.918765 0.821247 0.791044
O O7 0.000000 0.671940 0.000000
O O8 0.399530 0.116680 0.563376
O O9 0.705082 0.133374 0.753664
O O10 0.656117 0.000000 0.865726
O O11 0.757908 0.500000 0.231009
O O12 0.708798 0.362219 0.337633
O O13 0.000000 0.368065 0.500000
O O14 0.633061 0.500000 0.412724
O O15 0.159280 0.000000 0.251009
#
# Coordination Sequence:
#
# PCOD8066876 Si02
#       6
#     4   4   4   4   4   4
#     4  12  22  37  66  91 122 159 203 250 308 352
#     4  12  24  37  61  93 127 160 201 248 302 366
#     4   9  18  34  61  90 121 161 203 246 295 359
#     4  10  21  41  67  91 113 151 212 262 298 352
#     4  11  25  44  63  86 120 161 208 257 301 355
#     4   9  18  36  59  87 124 163 204 246 290 353
#
# _framework density 19.47747
#
# number of rings (size 3 to 8) (size 9 to 14) (size 15 to 20)
#    0.000    1.500    5.000    2.000    0.000    4.000 
#    0.000    0.833    0.000    3.500    0.000    0.000 
#    0.000    0.000    0.000    0.000    0.000    0.000 
#
# Total GULP energy -297692.154531 kJ/mol
# GULP energy per Si atom -12403.839772 kJ/mol
# Density = 1.943314 g / cm^3
# Si number density = 19.477470 Si / 1000 Ang^3
#
#
#
# Elastic Constant Matrix: (Units=GPa)
#
#
# Indices 1 2 3 4 5 6 
#
# 1 52.7172 30.3324 28.2708 0.0000 7.1282 0.0000
# 2 30.3324 103.9208 51.3052 0.0000 -10.9775 0.0000
# 3 28.2708 51.3052 113.6731 0.0000 -1.8402 0.0000
# 4 0.0000 0.0000 0.0000 34.3557 0.0000 -9.2606
# 5 7.1282 -10.9775 -1.8402 0.0000 36.0950 0.0000
# 6 0.0000 0.0000 0.0000 -9.2606 0.0000 21.6756
#
#
#
# Elastic Compliance Matrix: (Units=1/GPa)
#
#
# Indices 1 2 3 4 5 6 
#
# 1 0.025572 -0.006468 -0.003557 0.000000 -0.007198 0.000000
# 2 -0.006468 0.014471 -0.004835 0.000000 0.005432 0.000000
# 3 -0.003557 -0.004835 0.011861 0.000000 -0.000163 0.000000
# 4 0.000000 0.000000 0.000000 0.032896 0.000000 0.014054
# 5 -0.007198 0.005432 -0.000163 0.000000 0.030770 0.000000
# 6 0.000000 0.000000 0.000000 0.014054 0.000000 0.052139
#
#
# Mechanical properties :
#
#
# Convention : Reuss Voigt Hill
#
# Bulk Modulus (GPa) = 45.07697 54.45866 49.76782
# Shear Modulus (GPa) = 24.41120 29.11878 26.76499
#
# Velocity S-wave (km/s) = 3.54404 3.87072 3.71098
# Velocity P-wave (km/s) = 6.31984 6.92799 6.63089
#
# Compressibility (1/GPa) = 0.02218428
#
# Stress axis : x y z
#
# Youngs Moduli (GPa) = 39.10587 69.10165 84.30763
#
# Poissons Ratio (x) = 0.44696 0.29987
# Poissons Ratio (y) = 0.25294 0.40762
# Poissons Ratio (z) = 0.13910 0.33410
#
# Static dielectric constant tensor:
#      x y z
#    x 3.353560 0.000000 0.154090 
#    y 0.000000 3.570050 0.000000 
#    z 0.154090 0.000000 3.637010 
# 
# 
# High freq. dielectric constant tensor:
#      x y z
#    x 1.735270 0.000000 0.019150 
#    y 0.000000 1.756740 0.000000 
#    z 0.019150 0.000000 1.772210 
# 
# From -- ./inp_files/51520.got.cif
#   From: 2010.06.25/outbox.cif.g09.slc.cpg/sg10_26_cif.got.tgz:51520.got - 2010.06.27 22:07:45.
