data_PCOD8066856
_publ_section_title
;
Structure prediction by ZEFSAII (Michael W. Deem and Ramdas Pophale) SiO2 
 PCOD8066856
Probable space group: P 2/M
;
_chemical_formula_sum "Si O2"
_cell_formula_units_Z 20
_cell_length_a 20.951210
_cell_length_b 7.860985
_cell_length_c 9.496514
_cell_angle_alpha 90.000000
_cell_angle_beta 38.391213
_cell_angle_gamma 90.000000
_cell_volume 971.317427
_symmetry_space_group_name_H-M "P 2/M"
_symmetry_group_IT_number 10
_symmetry_cell_setting 'monoclinic'
loop_
_space_group_symop_operation_xyz
x,y,z
-x,y,-z
-x,-y,-z
x,-y,z
loop_
_atom_site_type_symbol
_atom_site_label
_atom_site_fract_x
_atom_site_fract_y
_atom_site_fract_z
Si Si1 0.360012 0.500000 0.373309
Si Si2 0.756120 0.687585 0.204775
Si Si3 0.691326 0.809402 0.026637
Si Si4 0.400129 0.500000 0.986147
Si Si5 0.906304 0.692623 0.570278
Si Si6 0.978730 0.194654 0.883585
O O1 0.310236 0.667709 0.535308
O O2 0.480155 0.500000 0.192697
O O3 0.338352 0.500000 0.242582
O O4 0.789123 0.500000 0.092991
O O5 0.687857 0.774396 0.200705
O O6 0.858970 0.793496 0.051677
O O7 0.808017 0.807658 0.769696
O O8 0.647430 0.000000 0.075235
O O9 0.625339 0.670054 0.056840
O O10 0.877892 0.500000 0.661351
O O11 0.000000 0.766178 0.500000
O O12 0.943683 0.697918 0.345693
O O13 0.012872 0.000000 0.814738
O O14 0.000000 0.270837 0.000000
#
# Coordination Sequence:
#
# PCOD8066856 Si02
#       6
#     2   4   4   2   4   4
#     4   9  25  45  75  89 129 166 208 282 332 395
#     4  10  21  41  63  94 122 174 214 263 318 377
#     4  12  24  40  68 100 133 171 219 268 317 388
#     4  11  23  51  69  99 123 165 216 269 348 385
#     4  11  22  37  59  91 127 174 215 252 307 370
#     4  11  24  37  55  92 137 174 215 259 311 380
#
# _framework density 20.590589999999999
#
# number of rings (size 3 to 8) (size 9 to 14) (size 15 to 20)
#    0.600    0.600    4.000    1.800    2.800    4.000 
#    0.000    6.000    0.000    0.000    0.000    0.000 
#    0.000    0.000    0.000    0.000    0.000    0.000 
#
# Total GULP energy -247948.163035 kJ/mol
# GULP energy per Si atom -12397.408152 kJ/mol
# Density = 2.054373 g / cm^3
# Si number density = 20.590590 Si / 1000 Ang^3
#
#
#
# Elastic Constant Matrix: (Units=GPa)
#
#
# Indices 1 2 3 4 5 6 
#
# 1 82.0127 26.2406 7.4043 0.0000 22.6999 0.0000
# 2 26.2406 97.7339 5.1820 0.0000 6.8059 0.0000
# 3 7.4043 5.1820 82.0725 0.0000 22.3357 0.0000
# 4 0.0000 0.0000 0.0000 -19.0050 0.0000 -5.3108
# 5 22.6999 6.8059 22.3357 0.0000 37.5357 0.0000
# 6 0.0000 0.0000 0.0000 -5.3108 0.0000 23.7264
#
#
#
# Elastic Compliance Matrix: (Units=1/GPa)
#
#
# Indices 1 2 3 4 5 6 
#
# 1 0.015968 -0.003678 0.001478 0.000000 -0.009869 0.000000
# 2 -0.003678 0.011212 -0.000511 0.000000 0.000496 0.000000
# 3 0.001478 -0.000511 0.014678 0.000000 -0.009535 0.000000
# 4 0.000000 0.000000 0.000000 -0.049520 0.000000 -0.011084
# 5 -0.009869 0.000496 -0.009535 0.000000 0.038194 0.000000
# 6 0.000000 0.000000 0.000000 -0.011084 0.000000 0.039666
#
#
# Mechanical properties :
#
#
# Convention : Reuss Voigt Hill
#
# Bulk Modulus (GPa) = 27.44609 37.71920 32.58264
# Shear Modulus (GPa) = 56.96876 23.31756 40.14316
#
# Velocity S-wave (km/s) = 5.26569 3.36882 4.42020
# Velocity P-wave (km/s) = 7.09424 5.78709 6.47374
#
# Compressibility (1/GPa) = 0.03643506
#
# Stress axis : x y z
#
# Youngs Moduli (GPa) = 62.62347 89.18964 68.12774
#
# Poissons Ratio (x) = 0.32808 -0.10066
# Poissons Ratio (y) = 0.23036 0.03481
# Poissons Ratio (z) = -0.09253 0.04557
#
# Static dielectric constant tensor:
#      x y z
#    x 3.739480 0.000000 0.272950 
#    y 0.000000 3.520320 0.000000 
#    z 0.272950 0.000000 3.716520 
# 
# 
# High freq. dielectric constant tensor:
#      x y z
#    x 1.801520 0.000000 0.015560 
#    y 0.000000 1.795290 0.000000 
#    z 0.015560 0.000000 1.804490 
# 
# From -- ./inp_files/33663.got.cif
#   From: 2010.06.25/outbox.cif.g09.slc.cpg/sg10_17_cif.got.tgz:33663.got - 2010.06.27 22:07:45.
