data_PCOD8066238
_publ_section_title
;
Structure prediction by ZEFSAII (Michael W. Deem and Ramdas Pophale) SiO2 
 PCOD8066238
Probable space group: P 2/M
;
_chemical_formula_sum "Si O2"
_cell_formula_units_Z 28
_cell_length_a 4.955782
_cell_length_b 31.434447
_cell_length_c 9.553206
_cell_angle_alpha 90.000000
_cell_angle_beta 65.117103
_cell_angle_gamma 90.000000
_cell_volume 1350.068100
_symmetry_space_group_name_H-M "P 2/M"
_symmetry_group_IT_number 10
_symmetry_cell_setting 'monoclinic'
loop_
_space_group_symop_operation_xyz
x,y,z
-x,y,-z
-x,-y,-z
x,-y,z
loop_
_atom_site_type_symbol
_atom_site_label
_atom_site_fract_x
_atom_site_fract_y
_atom_site_fract_z
Si Si1 0.259155 0.698112 0.665634
Si Si2 0.824880 0.548918 0.896448
Si Si3 0.107053 0.822958 0.324864
Si Si4 0.628697 0.263259 0.820899
Si Si5 0.820719 0.604620 0.398055
Si Si6 0.664835 0.046198 0.101637
Si Si7 0.597915 0.879526 0.326370
O O1 0.500000 0.714431 0.500000
O O2 0.354931 0.721510 0.785876
O O3 0.257373 0.646979 0.673245
O O4 0.920787 0.711097 0.708624
O O5 0.803123 0.500000 0.853281
O O6 0.978603 0.573508 0.736742
O O7 0.500000 0.567873 0.000000
O O8 0.000000 0.554704 0.000000
O O9 0.288025 0.786346 0.205730
O O10 0.320797 0.862426 0.300512
O O11 0.000000 0.805312 0.500000
O O12 0.840978 0.841387 0.286453
O O13 0.500000 0.274327 0.000000
O O14 0.500000 0.582574 0.500000
O O15 0.000000 0.616092 0.500000
O O16 0.688365 0.078603 0.224988
O O17 0.514663 0.000000 0.173513
O O18 0.500000 0.065466 0.000000
O O19 0.000000 0.035859 0.000000
O O20 0.500000 0.894909 0.500000
#
# Coordination Sequence:
#
# PCOD8066238 Si02
#       7
#     4   4   4   4   4   4   4
#     4  11  23  42  62  84 119 161 198 242 305 366
#     4  10  22  40  62  91 128 168 205 248 310 371
#     4  10  21  38  59  84 115 153 192 237 297 356
#     4  12  25  40  61  91 119 151 201 251 297 355
#     4  11  23  40  63  92 120 157 209 256 301 358
#     4  10  21  37  57  83 116 154 191 233 294 356
#     4  10  21  37  59  85 112 148 196 240 284 345
#
# _framework density 20.739695999999999
#
# number of rings (size 3 to 8) (size 9 to 14) (size 15 to 20)
#    0.000    1.429    0.000    6.000    0.000    5.429 
#    0.000    0.000    0.000    5.143    0.000    0.000 
#    0.000    0.000    0.000    0.000    0.000    0.000 
#
# Total GULP energy -347104.422379 kJ/mol
# GULP energy per Si atom -12396.586514 kJ/mol
# Density = 2.069249 g / cm^3
# Si number density = 20.739696 Si / 1000 Ang^3
#
#
#
# Elastic Constant Matrix: (Units=GPa)
#
#
# Indices 1 2 3 4 5 6 
#
# 1 98.9674 18.7580 25.1075 0.0000 -6.1129 0.0000
# 2 18.7580 91.4495 56.7321 0.0000 -0.2395 0.0000
# 3 25.1075 56.7321 99.7392 0.0000 -6.9333 0.0000
# 4 0.0000 0.0000 0.0000 47.0672 0.0000 -25.9619
# 5 -6.1129 -0.2395 -6.9333 0.0000 36.7128 0.0000
# 6 0.0000 0.0000 0.0000 -25.9619 0.0000 -2.3031
#
#
#
# Elastic Compliance Matrix: (Units=1/GPa)
#
#
# Indices 1 2 3 4 5 6 
#
# 1 0.010904 -0.000913 -0.002128 0.000000 0.001408 0.000000
# 2 -0.000913 0.017083 -0.009616 0.000000 -0.001857 0.000000
# 3 -0.002128 -0.009616 0.016215 0.000000 0.002645 0.000000
# 4 0.000000 0.000000 0.000000 0.002944 0.000000 -0.033181
# 5 0.001408 -0.001857 0.002645 0.000000 0.027960 0.000000
# 6 0.000000 0.000000 0.000000 -0.033181 0.000000 -0.060156
#
#
# Mechanical properties :
#
#
# Convention : Reuss Voigt Hill
#
# Bulk Modulus (GPa) = 52.94148 54.59457 53.76803
# Shear Modulus (GPa) = 107.38783 28.93261 68.16022
#
# Velocity S-wave (km/s) = 7.20356 3.73907 5.73899
# Velocity P-wave (km/s) = 9.73501 6.70982 8.36039
#
# Compressibility (1/GPa) = 0.01888878
#
# Stress axis : x y z
#
# Youngs Moduli (GPa) = 91.70830 58.53813 61.67013
#
# Poissons Ratio (x) = 0.05344 0.13122
# Poissons Ratio (y) = 0.08373 0.59302
# Poissons Ratio (z) = 0.19513 0.56291
#
# Static dielectric constant tensor:
#      x y z
#    x 4.352650 0.000000 0.605890 
#    y 0.000000 3.602910 0.000000 
#    z 0.605890 0.000000 5.013280 
# 
# 
# High freq. dielectric constant tensor:
#      x y z
#    x 1.834390 0.000000 -0.003750 
#    y 0.000000 1.807410 0.000000 
#    z -0.003750 0.000000 1.802580 
# 
# From -- ./inp_files/15870.got.cif
#   From: 2010.06.25/outbox.cif.g09.slc.cpg/sg10_8_cif.got.tgz:15870.got - 2010.06.27 22:07:45.
