data_PCOD8066305
_publ_section_title
;
Structure prediction by ZEFSAII (Michael W. Deem and Ramdas Pophale) SiO2 
 PCOD8066305
Probable space group: P 2/M
;
_chemical_formula_sum "Si O2"
_cell_formula_units_Z 32
_cell_length_a 8.820551
_cell_length_b 22.173704
_cell_length_c 15.534800
_cell_angle_alpha 90.000000
_cell_angle_beta 30.805141
_cell_angle_gamma 90.000000
_cell_volume 1556.006150
_symmetry_space_group_name_H-M "P 2/M"
_symmetry_group_IT_number 10
_symmetry_cell_setting 'monoclinic'
loop_
_space_group_symop_operation_xyz
x,y,z
-x,y,-z
-x,-y,-z
x,-y,z
loop_
_atom_site_type_symbol
_atom_site_label
_atom_site_fract_x
_atom_site_fract_y
_atom_site_fract_z
Si Si1 0.820446 0.743491 0.815041
Si Si2 0.809396 0.565880 0.807254
Si Si3 0.788322 0.144380 0.186230
Si Si4 0.163665 0.121420 0.176635
Si Si5 0.188751 0.070830 0.490322
Si Si6 0.314566 0.276383 0.807935
Si Si7 0.223165 0.658658 0.694372
Si Si8 0.203359 0.336499 0.322018
O O1 0.800179 0.812630 0.799988
O O2 0.959776 0.706288 0.667231
O O3 0.056976 0.724506 0.772105
O O4 0.500000 0.717904 0.000000
O O5 0.957866 0.500000 0.716884
O O6 0.739158 0.599819 0.751978
O O7 0.006948 0.603290 0.779166
O O8 0.500000 0.553660 0.000000
O O9 0.515304 0.098523 0.324592
O O10 0.626914 0.210314 0.263329
O O11 0.992558 0.130091 0.169969
O O12 0.000000 0.133301 0.000000
O O13 0.977393 0.084023 0.337613
O O14 0.500000 0.094604 0.000000
O O15 0.000000 0.093911 0.500000
O O16 0.234506 0.000000 0.462724
O O17 0.341877 0.335925 0.733684
O O18 0.521642 0.294366 0.786441
O O19 0.000000 0.268569 0.000000
O O20 0.500000 0.650958 0.500000
O O21 0.000000 0.351749 0.500000
#
# Coordination Sequence:
#
# PCOD8066305 Si02
#       8
#     4   4   4   4   4   4   4   4
#     4  10  21  37  59  86 125 167 203 247 306 390
#     4  10  22  43  65  81 114 172 222 254 304 387
#     4  11  25  41  66 102 136 177 223 275 339 405
#     4  11  24  41  69  99 133 179 222 275 333 403
#     4  11  27  48  70  96 132 178 226 284 336 397
#     4  11  22  35  58  91 128 157 197 261 323 382
#     4  11  21  36  58  90 126 155 199 254 317 374
#     4  11  23  36  58  92 122 161 200 259 322 373
#
# _framework density 20.565473000000001
#
# number of rings (size 3 to 8) (size 9 to 14) (size 15 to 20)
#    0.000    1.250    1.250    5.625   10.500    2.000 
#    0.000    0.625    0.000    2.250    0.000    0.000 
#    0.000    0.000    0.000    0.000    0.000    0.000 
#
# Total GULP energy -396422.252523 kJ/mol
# GULP energy per Si atom -12388.195391 kJ/mol
# Density = 2.051867 g / cm^3
# Si number density = 20.565473 Si / 1000 Ang^3
#
#
#
# Elastic Constant Matrix: (Units=GPa)
#
#
# Indices 1 2 3 4 5 6 
#
# 1 92.0014 39.7860 32.4167 0.0000 10.6115 0.0000
# 2 39.7860 103.6604 40.3413 0.0000 0.3032 0.0000
# 3 32.4167 40.3413 92.7506 0.0000 4.6734 0.0000
# 4 0.0000 0.0000 0.0000 28.0085 0.0000 -11.3077
# 5 10.6115 0.3032 4.6734 0.0000 38.3871 0.0000
# 6 0.0000 0.0000 0.0000 -11.3077 0.0000 -34.4565
#
#
#
# Elastic Compliance Matrix: (Units=1/GPa)
#
#
# Indices 1 2 3 4 5 6 
#
# 1 0.014155 -0.004293 -0.002902 0.000000 -0.003526 0.000000
# 2 -0.004293 0.012925 -0.004202 0.000000 0.001596 0.000000
# 3 -0.002902 -0.004202 0.013665 0.000000 -0.000828 0.000000
# 4 0.000000 0.000000 0.000000 0.031526 0.000000 -0.010346
# 5 -0.003526 0.001596 -0.000828 0.000000 0.027113 0.000000
# 6 0.000000 0.000000 0.000000 -0.010346 0.000000 -0.025627
#
#
# Mechanical properties :
#
#
# Convention : Reuss Voigt Hill
#
# Bulk Modulus (GPa) = 55.70649 57.05560 56.38105
# Shear Modulus (GPa) = 48.76307 18.11240 33.43773
#
# Velocity S-wave (km/s) = 4.87469 2.97091 4.03664
# Velocity P-wave (km/s) = 7.67005 6.29063 7.01433
#
# Compressibility (1/GPa) = 0.01795123
#
# Stress axis : x y z
#
# Youngs Moduli (GPa) = 70.64507 77.36879 73.17843
#
# Poissons Ratio (x) = 0.33215 0.21239
# Poissons Ratio (y) = 0.30329 0.30747
# Poissons Ratio (z) = 0.20504 0.32508
#
# Static dielectric constant tensor:
#      x y z
#    x 4.411120 0.000000 -0.023570 
#    y 0.000000 3.791950 0.000000 
#    z -0.023570 0.000000 3.715800 
# 
# 
# High freq. dielectric constant tensor:
#      x y z
#    x 1.820750 0.000000 -0.000770 
#    y 0.000000 1.791700 0.000000 
#    z -0.000770 0.000000 1.811520 
# 
# From -- ./inp_files/30610.got.cif
#   From: 2010.06.25/outbox.cif.g09.slc.cpg/sg10_16_cif.got.tgz:30610.got - 2010.06.27 22:07:45.
