data_PCOD8066162
_publ_section_title
;
Structure prediction by ZEFSAII (Michael W. Deem and Ramdas Pophale) SiO2 
 PCOD8066162
Probable space group: P 2/M
;
_chemical_formula_sum "Si O2"
_cell_formula_units_Z 32
_cell_length_a 24.752552
_cell_length_b 14.524012
_cell_length_c 9.076733
_cell_angle_alpha 90.000000
_cell_angle_beta 30.031867
_cell_angle_gamma 90.000000
_cell_volume 1633.143135
_symmetry_space_group_name_H-M "P 2/M"
_symmetry_group_IT_number 10
_symmetry_cell_setting 'monoclinic'
loop_
_space_group_symop_operation_xyz
x,y,z
-x,y,-z
-x,-y,-z
x,-y,z
loop_
_atom_site_type_symbol
_atom_site_label
_atom_site_fract_x
_atom_site_fract_y
_atom_site_fract_z
Si Si1 0.063558 0.170121 0.212040
Si Si2 0.200085 0.219494 0.628635
Si Si3 0.745760 0.897930 0.055477
Si Si4 0.324632 0.601625 0.354088
Si Si5 0.537249 0.208125 0.568121
Si Si6 0.451514 0.398912 0.341803
Si Si7 0.595842 0.896513 0.887244
Si Si8 0.872230 0.104617 0.473257
O O1 0.000000 0.221060 0.500000
O O2 0.983867 0.110807 0.298696
O O3 0.126077 0.235843 0.948838
O O4 0.149953 0.103914 0.085666
O O5 0.242681 0.321211 0.487308
O O6 0.297588 0.148747 0.435750
O O7 0.133298 0.176912 0.648631
O O8 0.653750 0.831754 0.335366
O O9 0.697504 0.000000 0.174994
O O10 0.776074 0.872205 0.815040
O O11 0.270653 0.500000 0.467959
O O12 0.357438 0.621717 0.445529
O O13 0.432644 0.603316 0.005822
O O14 0.500000 0.171121 0.500000
O O15 0.550952 0.318569 0.532008
O O16 0.442589 0.173568 0.897248
O O17 0.432211 0.500000 0.459798
O O18 0.622675 0.000000 0.882384
O O19 0.500000 0.903456 0.000000
O O20 0.862516 0.000000 0.435986
#
# Coordination Sequence:
#
# PCOD8066162 Si02
#       8
#     4   4   4   4   4   4   4   4
#     4  10  22  39  59  80 105 144 192 238 279 326
#     4  12  21  34  59  84 112 140 180 234 286 332
#     4  10  21  37  55  76 111 159 197 223 265 328
#     4   9  18  34  60  85 107 143 189 231 272 329
#     4  12  23  34  53  84 123 156 181 225 281 338
#     4   9  18  35  56  80 112 149 190 231 269 320
#     4  11  23  36  52  79 115 155 195 225 262 330
#     4  10  22  38  56  81 111 145 191 241 282 318
#
# _framework density 19.594118999999999
#
# number of rings (size 3 to 8) (size 9 to 14) (size 15 to 20)
#    0.000    1.625    1.250    5.250    0.000    7.250 
#    0.000    0.000    0.000    1.875    0.000    1.750 
#    0.000    0.000    0.000    0.000    0.000    0.000 
#
# Total GULP energy -396561.079790 kJ/mol
# GULP energy per Si atom -12392.533743 kJ/mol
# Density = 1.954952 g / cm^3
# Si number density = 19.594119 Si / 1000 Ang^3
#
#
#
# Elastic Constant Matrix: (Units=GPa)
#
#
# Indices 1 2 3 4 5 6 
#
# 1 90.2148 38.5051 32.8619 0.0000 -1.9170 0.0000
# 2 38.5051 133.5583 37.3088 0.0000 -0.6055 0.0000
# 3 32.8619 37.3088 86.5873 0.0000 1.8982 0.0000
# 4 0.0000 0.0000 0.0000 20.7883 0.0000 1.0414
# 5 -1.9170 -0.6055 1.8982 0.0000 27.0910 0.0000
# 6 0.0000 0.0000 0.0000 1.0414 0.0000 21.5182
#
#
#
# Elastic Compliance Matrix: (Units=1/GPa)
#
#
# Indices 1 2 3 4 5 6 
#
# 1 0.013794 -0.002844 -0.004036 0.000000 0.001195 0.000000
# 2 -0.002844 0.009104 -0.002848 0.000000 0.000202 0.000000
# 3 -0.004036 -0.002848 0.014337 0.000000 -0.001354 0.000000
# 4 0.000000 0.000000 0.000000 0.048221 0.000000 -0.002334
# 5 0.001195 0.000202 -0.001354 0.000000 0.037097 0.000000
# 6 0.000000 0.000000 0.000000 -0.002334 0.000000 0.046585
#
#
# Mechanical properties :
#
#
# Convention : Reuss Voigt Hill
#
# Bulk Modulus (GPa) = 56.24302 58.63466 57.43884
# Shear Modulus (GPa) = 25.70431 27.32513 26.51472
#
# Velocity S-wave (km/s) = 3.62586 3.73843 3.68257
# Velocity P-wave (km/s) = 6.80408 6.97310 6.88911
#
# Compressibility (1/GPa) = 0.01777998
#
# Stress axis : x y z
#
# Youngs Moduli (GPa) = 72.49491 109.84555 69.74739
#
# Poissons Ratio (x) = 0.31240 0.28150
# Poissons Ratio (y) = 0.20618 0.19862
# Poissons Ratio (z) = 0.29259 0.31280
#
# Static dielectric constant tensor:
#      x y z
#    x 3.528930 0.000000 0.107530 
#    y 0.000000 3.780180 0.000000 
#    z 0.107530 0.000000 3.800610 
# 
# 
# High freq. dielectric constant tensor:
#      x y z
#    x 1.761420 0.000000 0.000060 
#    y 0.000000 1.742400 0.000000 
#    z 0.000060 0.000000 1.758150 
# 
# From -- ./inp_files/36341.got.cif
#   From: 2010.06.25/outbox.cif.g09.slc.cpg/sg10_19_cif.got.tgz:36341.got - 2010.06.27 22:07:45.
