data_PCOD8066724
_publ_section_title
;
Structure prediction by ZEFSAII (Michael W. Deem and Ramdas Pophale) SiO2 
 PCOD8066724
Probable space group: P 2/M
;
_chemical_formula_sum "Si O2"
_cell_formula_units_Z 26
_cell_length_a 8.164930
_cell_length_b 9.558573
_cell_length_c 18.689993
_cell_angle_alpha 90.000000
_cell_angle_beta 123.862666
_cell_angle_gamma 90.000000
_cell_volume 1211.237231
_symmetry_space_group_name_H-M "P 2/M"
_symmetry_group_IT_number 10
_symmetry_cell_setting 'monoclinic'
loop_
_space_group_symop_operation_xyz
x,y,z
-x,y,-z
-x,-y,-z
x,-y,z
loop_
_atom_site_type_symbol
_atom_site_label
_atom_site_fract_x
_atom_site_fract_y
_atom_site_fract_z
Si Si1 0.602154 0.840360 0.452860
Si Si2 0.725678 0.658124 0.061961
Si Si3 0.306967 0.154590 0.182739
Si Si4 0.990272 0.843049 0.220326
Si Si5 0.000000 0.255085 0.000000
Si Si6 0.611832 0.666761 0.320588
Si Si7 0.019384 0.156779 0.618458
O O1 0.500000 0.789064 0.500000
O O2 0.531831 0.733896 0.374604
O O3 0.836999 0.831891 0.520233
O O4 0.538178 0.000000 0.418236
O O5 0.716516 0.500000 0.086443
O O6 0.817973 0.743716 0.149829
O O7 0.863848 0.660418 0.023845
O O8 0.500000 0.714207 0.000000
O O9 0.479345 0.271776 0.222708
O O10 0.191295 0.184597 0.227500
O O11 0.403038 0.000000 0.205515
O O12 0.156967 0.161045 0.080106
O O13 0.046540 0.817068 0.316162
O O14 0.913368 0.000000 0.188163
O O15 0.600211 0.500000 0.318794
O O16 0.833165 0.719554 0.365289
O O17 0.113296 0.000000 0.633522
#
# Coordination Sequence:
#
# PCOD8066724 Si02
#       7
#     4   4   4   4   2   4   4
#     4  10  21  41  68  92 118 156 204 254 304 358
#     4  10  22  38  58  86 124 166 205 250 311 381
#     4  10  21  41  66  90 119 155 205 259 313 368
#     4   9  20  39  62  89 115 150 201 256 306 359
#     4  10  22  40  64  92 122 160 212 270 314 372
#     4  12  26  39  57  90 128 164 201 244 301 367
#     4  10  21  39  63  90 121 159 202 251 304 358
#
# _framework density 21.465654000000001
#
# number of rings (size 3 to 8) (size 9 to 14) (size 15 to 20)
#    0.000    1.846    0.000    3.231    2.154    9.846 
#    0.000    1.538    0.000    0.000    0.000    0.000 
#    0.000    0.000    0.000    0.000    0.000    0.000 
#
# Total GULP energy -322291.933554 kJ/mol
# GULP energy per Si atom -12395.843598 kJ/mol
# Density = 2.141680 g / cm^3
# Si number density = 21.465654 Si / 1000 Ang^3
#
#
#
# Elastic Constant Matrix: (Units=GPa)
#
#
# Indices 1 2 3 4 5 6 
#
# 1 51.9785 15.8489 3.1803 0.0000 7.2739 0.0000
# 2 15.8489 132.3880 45.6988 0.0000 13.5588 0.0000
# 3 3.1803 45.6988 93.1354 0.0000 8.0684 0.0000
# 4 0.0000 0.0000 0.0000 18.4286 0.0000 5.0525
# 5 7.2739 13.5588 8.0684 0.0000 32.2904 0.0000
# 6 0.0000 0.0000 0.0000 5.0525 0.0000 18.7363
#
#
#
# Elastic Compliance Matrix: (Units=1/GPa)
#
#
# Indices 1 2 3 4 5 6 
#
# 1 0.020434 -0.002322 0.000772 0.000000 -0.003821 0.000000
# 2 -0.002322 0.009605 -0.004425 0.000000 -0.002405 0.000000
# 3 0.000772 -0.004425 0.013018 0.000000 -0.001569 0.000000
# 4 0.000000 0.000000 0.000000 0.058595 0.000000 -0.015801
# 5 -0.003821 -0.002405 -0.001569 0.000000 0.033231 0.000000
# 6 0.000000 0.000000 0.000000 -0.015801 0.000000 0.057633
#
#
# Mechanical properties :
#
#
# Convention : Reuss Voigt Hill
#
# Bulk Modulus (GPa) = 32.14586 45.21753 38.68169
# Shear Modulus (GPa) = 23.27353 28.07600 25.67476
#
# Velocity S-wave (km/s) = 3.29632 3.62048 3.46220
# Velocity P-wave (km/s) = 5.43099 6.21192 5.83454
#
# Compressibility (1/GPa) = 0.03110821
#
# Stress axis : x y z
#
# Youngs Moduli (GPa) = 48.93785 104.10845 76.81665
#
# Poissons Ratio (x) = 0.24169 -0.05933
# Poissons Ratio (y) = 0.11361 0.33995
# Poissons Ratio (z) = -0.03780 0.46073
#
# Static dielectric constant tensor:
#      x y z
#    x 3.970910 0.000000 -0.061260 
#    y 0.000000 3.616790 0.000000 
#    z -0.061260 0.000000 3.956760 
# 
# 
# High freq. dielectric constant tensor:
#      x y z
#    x 1.845260 0.000000 0.001180 
#    y 0.000000 1.820460 0.000000 
#    z 0.001180 0.000000 1.855310 
# 
# From -- ./inp_files/34226.got.cif
#   From: 2010.06.25/outbox.cif.g09.slc.cpg/sg10_18_cif.got.tgz:34226.got - 2010.06.27 22:07:45.
