data_PCOD8066843
_publ_section_title
;
Structure prediction by ZEFSAII (Michael W. Deem and Ramdas Pophale) SiO2 
 PCOD8066843
Probable space group: P 2/M
;
_chemical_formula_sum "Si O2"
_cell_formula_units_Z 28
_cell_length_a 24.620200
_cell_length_b 8.506842
_cell_length_c 22.277163
_cell_angle_alpha 90.000000
_cell_angle_beta 17.072907
_cell_angle_gamma 90.000000
_cell_volume 1369.804600
_symmetry_space_group_name_H-M "P 2/M"
_symmetry_group_IT_number 10
_symmetry_cell_setting 'monoclinic'
loop_
_space_group_symop_operation_xyz
x,y,z
-x,y,-z
-x,-y,-z
x,-y,z
loop_
_atom_site_type_symbol
_atom_site_label
_atom_site_fract_x
_atom_site_fract_y
_atom_site_fract_z
Si Si1 0.327845 0.312950 0.364287
Si Si2 0.996448 0.673693 0.437723
Si Si3 0.572079 0.671770 0.864390
Si Si4 0.931527 0.818099 0.758959
Si Si5 0.546196 0.182956 0.365531
Si Si6 0.601722 0.681944 0.179023
Si Si7 0.209177 0.686148 0.790519
O O1 0.292923 0.500000 0.394958
O O2 0.460105 0.254647 0.168020
O O3 0.432619 0.270232 0.314472
O O4 0.136075 0.220003 0.566643
O O5 0.090338 0.500000 0.342137
O O6 0.789685 0.654472 0.635083
O O7 0.000000 0.754462 0.500000
O O8 0.099038 0.778550 0.279476
O O9 0.474367 0.500000 0.970383
O O10 0.500000 0.768024 0.000000
O O11 0.887659 0.000000 0.815430
O O12 0.794581 0.712916 0.942634
O O13 0.586545 0.211856 0.253575
O O14 0.714313 0.256160 0.226240
O O15 0.346831 0.255379 0.592918
O O16 0.539346 0.000000 0.386856
O O17 0.591129 0.500000 0.208516
O O18 0.208629 0.500000 0.790767
O O19 0.000000 0.749824 0.000000
#
# Coordination Sequence:
#
# PCOD8066843 Si02
#       7
#     4   4   4   4   4   4   4
#     4   9  20  38  59  82 109 148 198 249 296 350
#     4   9  18  32  53  77 103 140 191 243 290 351
#     4   8  14  26  48  77 102 126 174 240 295 342
#     4  11  23  38  56  81 119 155 188 240 305 369
#     4  11  23  39  61  93 130 162 200 247 298 353
#     4  11  23  40  64  87 116 158 207 253 295 350
#     4  10  21  40  67  95 127 166 206 245 286 336
#
# _framework density 20.44087
#
# number of rings (size 3 to 8) (size 9 to 14) (size 15 to 20)
#    0.000    2.143    0.000    5.143    2.000    3.714 
#    0.000    1.429    0.000    1.714    0.000    0.000 
#    0.000    0.000    0.000    0.000    0.000    0.000 
#
# Total GULP energy -347000.685797 kJ/mol
# GULP energy per Si atom -12392.881636 kJ/mol
# Density = 2.039435 g / cm^3
# Si number density = 20.440870 Si / 1000 Ang^3
#
#
#
# Elastic Constant Matrix: (Units=GPa)
#
#
# Indices 1 2 3 4 5 6 
#
# 1 132.6915 23.0557 53.7579 0.0000 12.9127 0.0000
# 2 23.0557 65.7660 19.2599 0.0000 -5.3732 0.0000
# 3 53.7579 19.2599 100.8810 0.0000 0.1488 0.0000
# 4 0.0000 0.0000 0.0000 14.1274 0.0000 1.0565
# 5 12.9127 -5.3732 0.1488 0.0000 34.9026 0.0000
# 6 0.0000 0.0000 0.0000 1.0565 0.0000 19.0676
#
#
#
# Elastic Compliance Matrix: (Units=1/GPa)
#
#
# Indices 1 2 3 4 5 6 
#
# 1 0.010443 -0.002520 -0.005078 0.000000 -0.004230 0.000000
# 2 -0.002520 0.016934 -0.001896 0.000000 0.003547 0.000000
# 3 -0.005078 -0.001896 0.012978 0.000000 0.001531 0.000000
# 4 0.000000 0.000000 0.000000 0.071079 0.000000 -0.003938
# 5 -0.004230 0.003547 0.001531 0.000000 0.030756 0.000000
# 6 0.000000 0.000000 0.000000 -0.003938 0.000000 0.052663
#
#
# Mechanical properties :
#
#
# Convention : Reuss Voigt Hill
#
# Bulk Modulus (GPa) = 46.79626 54.60953 50.70290
# Shear Modulus (GPa) = 22.62846 27.17049 24.89948
#
# Velocity S-wave (km/s) = 3.33080 3.64981 3.49395
# Velocity P-wave (km/s) = 6.14292 6.67348 6.41369
#
# Compressibility (1/GPa) = 0.02136923
#
# Stress axis : x y z
#
# Youngs Moduli (GPa) = 95.76026 59.05413 77.05330
#
# Poissons Ratio (x) = 0.14879 0.39124
# Poissons Ratio (y) = 0.24127 0.14606
# Poissons Ratio (z) = 0.48622 0.11194
#
# Static dielectric constant tensor:
#      x y z
#    x 3.925010 0.000000 0.053150 
#    y 0.000000 3.482240 0.000000 
#    z 0.053150 0.000000 3.686200 
# 
# 
# High freq. dielectric constant tensor:
#      x y z
#    x 1.809760 0.000000 0.004320 
#    y 0.000000 1.771660 0.000000 
#    z 0.004320 0.000000 1.798660 
# 
# From -- ./inp_files/86453.got.cif
#   From: 2010.06.25/outbox.cif.g09.slc.cpg/sg10_44_cif.got.tgz:86453.got - 2010.06.27 22:07:45.
