data_PCOD8066082
_publ_section_title
;
Structure prediction by ZEFSAII (Michael W. Deem and Ramdas Pophale) SiO2 
 PCOD8066082
Probable space group: P 2/M
;
_chemical_formula_sum "Si O2"
_cell_formula_units_Z 32
_cell_length_a 23.224716
_cell_length_b 8.731123
_cell_length_c 15.674843
_cell_angle_alpha 90.000000
_cell_angle_beta 149.334505
_cell_angle_gamma 90.000000
_cell_volume 1621.120070
_symmetry_space_group_name_H-M "P 2/M"
_symmetry_group_IT_number 10
_symmetry_cell_setting 'monoclinic'
loop_
_space_group_symop_operation_xyz
x,y,z
-x,y,-z
-x,-y,-z
x,-y,z
loop_
_atom_site_type_symbol
_atom_site_label
_atom_site_fract_x
_atom_site_fract_y
_atom_site_fract_z
Si Si1 0.174911 0.323172 0.177045
Si Si2 0.174140 0.818930 0.684736
Si Si3 0.568702 0.322627 0.510050
Si Si4 0.049118 0.818541 0.691796
Si Si5 0.015490 0.320306 0.820280
Si Si6 0.573495 0.182156 0.013516
Si Si7 0.436366 0.318061 0.686586
Si Si8 0.197404 0.821137 0.382548
O O1 0.156252 0.500000 0.179542
O O2 0.300489 0.296564 0.302444
O O3 0.152343 0.221247 0.231197
O O4 0.090307 0.269982 0.996060
O O5 0.141233 0.767254 0.738771
O O6 0.297474 0.756257 0.814191
O O7 0.076339 0.762299 0.496188
O O8 0.176016 0.000000 0.684993
O O9 0.500000 0.241705 0.500000
O O10 0.536560 0.500000 0.466702
O O11 0.538140 0.256033 0.377212
O O12 0.081517 0.730344 0.819421
O O13 0.051952 0.000000 0.709838
O O14 0.993018 0.500000 0.792053
O O15 0.897727 0.229078 0.671632
O O16 0.569391 0.000000 0.005157
O O17 0.500000 0.243590 0.000000
O O18 0.525621 0.245380 0.864154
O O19 0.442966 0.500000 0.699301
O O20 0.310683 0.267823 0.552096
O O21 0.221335 0.000000 0.420984
#
# Coordination Sequence:
#
# PCOD8066082 Si02
#       8
#     4   4   4   4   4   4   4   4
#     4   9  19  35  52  75 111 147 179 222 276 326
#     4   8  17  36  57  78 109 147 188 235 280 327
#     4   8  15  31  55  78 103 142 185 220 264 330
#     4   9  18  35  58  79 105 148 194 230 275 332
#     4  11  22  34  52  81 113 143 180 229 281 331
#     4  10  21  36  57  84 114 149 193 237 282 335
#     4  10  21  37  56  82 114 146 184 231 286 338
#     4  11  22  36  56  78 107 145 186 227 273 334
#
# _framework density 19.739439000000001
#
# number of rings (size 3 to 8) (size 9 to 14) (size 15 to 20)
#    0.000    2.500    0.000    3.750    1.750    3.750 
#    0.000    3.750    0.000    9.375    0.000    0.000 
#    0.000    0.000    0.000    0.000    0.000    0.000 
#
# Total GULP energy -396738.532145 kJ/mol
# GULP energy per Si atom -12398.079130 kJ/mol
# Density = 1.969451 g / cm^3
# Si number density = 19.739439 Si / 1000 Ang^3
#
#
#
# Elastic Constant Matrix: (Units=GPa)
#
#
# Indices 1 2 3 4 5 6 
#
# 1 106.2679 23.7225 33.2262 0.0000 13.8044 0.0000
# 2 23.7225 21.0772 18.1782 0.0000 -1.6715 0.0000
# 3 33.2262 18.1782 81.1365 0.0000 8.2991 0.0000
# 4 0.0000 0.0000 0.0000 26.7802 0.0000 -6.8294
# 5 13.8044 -1.6715 8.2991 0.0000 26.4284 0.0000
# 6 0.0000 0.0000 0.0000 -6.8294 0.0000 22.0018
#
#
#
# Elastic Compliance Matrix: (Units=1/GPa)
#
#
# Indices 1 2 3 4 5 6 
#
# 1 0.014403 -0.015448 -0.001620 0.000000 -0.007992 0.000000
# 2 -0.015448 0.077111 -0.012682 0.000000 0.016928 0.000000
# 3 -0.001620 -0.012682 0.016350 0.000000 -0.005090 0.000000
# 4 0.000000 0.000000 0.000000 0.040551 0.000000 0.012587
# 5 -0.007992 0.016928 -0.005090 0.000000 0.044682 0.000000
# 6 0.000000 0.000000 0.000000 0.012587 0.000000 0.049358
#
#
# Mechanical properties :
#
#
# Convention : Reuss Voigt Hill
#
# Bulk Modulus (GPa) = 20.67576 39.85952 30.26764
# Shear Modulus (GPa) = 15.71951 23.93238 19.82595
#
# Velocity S-wave (km/s) = 2.82503 3.48575 3.17264
# Velocity P-wave (km/s) = 4.59762 6.03633 5.36542
#
# Compressibility (1/GPa) = 0.04836581
#
# Stress axis : x y z
#
# Youngs Moduli (GPa) = 69.42902 12.96827 61.16111
#
# Poissons Ratio (x) = 0.20033 0.09907
# Poissons Ratio (y) = 1.07251 0.77564
# Poissons Ratio (z) = 0.11247 0.16446
#
# Static dielectric constant tensor:
#      x y z
#    x 3.957310 0.000000 0.081180 
#    y 0.000000 3.229540 0.000000 
#    z 0.081180 0.000000 3.685450 
# 
# 
# High freq. dielectric constant tensor:
#      x y z
#    x 1.779970 0.000000 -0.001300 
#    y 0.000000 1.736860 0.000000 
#    z -0.001300 0.000000 1.767980 
# 
# From -- ./inp_files/71593.got.cif
#   From: 2010.06.25/outbox.cif.g09.slc.cpg/sg10_36_cif.got.tgz:71593.got - 2010.06.27 22:07:45.
