data_PCOD8066358
_publ_section_title
;
Structure prediction by ZEFSAII (Michael W. Deem and Ramdas Pophale) SiO2 
 PCOD8066358
Probable space group: P 2/M
;
_chemical_formula_sum "Si O2"
_cell_formula_units_Z 32
_cell_length_a 21.006346
_cell_length_b 8.842554
_cell_length_c 26.973893
_cell_angle_alpha 90.000000
_cell_angle_beta 160.361746
_cell_angle_gamma 90.000000
_cell_volume 1683.895507
_symmetry_space_group_name_H-M "P 2/M"
_symmetry_group_IT_number 10
_symmetry_cell_setting 'monoclinic'
loop_
_space_group_symop_operation_xyz
x,y,z
-x,y,-z
-x,-y,-z
x,-y,z
loop_
_atom_site_type_symbol
_atom_site_label
_atom_site_fract_x
_atom_site_fract_y
_atom_site_fract_z
Si Si1 0.789044 0.821698 0.347450
Si Si2 0.435931 0.820441 0.723354
Si Si3 0.855936 0.177945 0.051774
Si Si4 0.546537 0.325056 0.454709
Si Si5 0.480505 0.823483 0.042784
Si Si6 0.799420 0.674438 0.734898
Si Si7 0.884119 0.678576 0.177962
Si Si8 0.253731 0.178453 0.488036
O O1 0.678017 0.752915 0.313212
O O2 0.676361 0.783077 0.214314
O O3 0.000000 0.750386 0.500000
O O4 0.805531 0.000000 0.366646
O O5 0.341016 0.761752 0.603487
O O6 0.433872 0.000000 0.723807
O O7 0.651978 0.762776 0.884139
O O8 0.913318 0.258447 0.144584
O O9 0.011553 0.223553 0.124632
O O10 0.855588 0.000000 0.060562
O O11 0.569164 0.500000 0.456176
O O12 0.330532 0.289452 0.312573
O O13 0.683700 0.285892 0.600632
O O14 0.599328 0.220433 0.447362
O O15 0.430746 0.000000 0.012429
O O16 0.500000 0.777036 0.000000
O O17 0.315215 0.727595 0.945936
O O18 0.859607 0.500000 0.779197
O O19 0.897134 0.500000 0.185727
O O20 0.051981 0.741404 0.335105
O O21 0.221500 0.000000 0.464766
#
# Coordination Sequence:
#
# PCOD8066358 Si02
#       8
#     4   4   4   4   4   4   4   4
#     4   9  17  32  56  84 114 146 180 226 282 334
#     4   9  20  36  55  82 117 148 185 236 288 335
#     4  11  20  36  60  86 112 146 192 242 283 331
#     4   9  18  34  54  80 117 152 185 230 283 340
#     4  10  21  37  61  90 114 142 189 240 283 332
#     4   9  18  33  55  82 114 151 187 228 283 344
#     4  12  24  38  57  82 118 156 190 233 285 337
#     4  11  22  36  58  86 114 148 193 241 283 333
#
# _framework density 19.003554999999999
#
# number of rings (size 3 to 8) (size 9 to 14) (size 15 to 20)
#    0.000    2.000    2.500    2.625    1.750    0.750 
#    0.000    4.375    0.000    4.125    0.000    0.000 
#    0.000    0.000    0.000    0.000    0.000    0.000 
#
# Total GULP energy -396836.251949 kJ/mol
# GULP energy per Si atom -12401.132873 kJ/mol
# Density = 1.896030 g / cm^3
# Si number density = 19.003555 Si / 1000 Ang^3
#
#
#
# Elastic Constant Matrix: (Units=GPa)
#
#
# Indices 1 2 3 4 5 6 
#
# 1 86.9742 23.2537 53.7103 0.0000 6.3728 0.0000
# 2 23.2537 61.6316 35.0560 0.0000 4.0556 0.0000
# 3 53.7103 35.0560 146.8550 0.0000 12.4483 0.0000
# 4 0.0000 0.0000 0.0000 15.0864 0.0000 12.2736
# 5 6.3728 4.0556 12.4483 0.0000 38.1388 0.0000
# 6 0.0000 0.0000 0.0000 12.2736 0.0000 15.0575
#
#
#
# Elastic Compliance Matrix: (Units=1/GPa)
#
#
# Indices 1 2 3 4 5 6 
#
# 1 0.015333 -0.002990 -0.004838 0.000000 -0.000665 0.000000
# 2 -0.002990 0.019369 -0.003495 0.000000 -0.000419 0.000000
# 3 -0.004838 -0.003495 0.009578 0.000000 -0.001946 0.000000
# 4 0.000000 0.000000 0.000000 0.196775 0.000000 -0.160395
# 5 -0.000665 -0.000419 -0.001946 0.000000 0.027011 0.000000
# 6 0.000000 0.000000 0.000000 -0.160395 0.000000 0.197154
#
#
# Mechanical properties :
#
#
# Convention : Reuss Voigt Hill
#
# Bulk Modulus (GPa) = 46.21980 57.72232 51.97106
# Shear Modulus (GPa) = 10.09946 25.88593 17.99269
#
# Velocity S-wave (km/s) = 2.30782 3.69475 3.08036
# Velocity P-wave (km/s) = 5.61033 6.97438 6.32921
#
# Compressibility (1/GPa) = 0.02163575
#
# Stress axis : x y z
#
# Youngs Moduli (GPa) = 65.21724 51.62956 104.40596
#
# Poissons Ratio (x) = 0.15436 0.50511
# Poissons Ratio (y) = 0.19498 0.36485
# Poissons Ratio (z) = 0.31552 0.18042
#
# Static dielectric constant tensor:
#      x y z
#    x 3.649230 0.000000 0.140550 
#    y 0.000000 3.168650 0.000000 
#    z 0.140550 0.000000 3.648190 
# 
# 
# High freq. dielectric constant tensor:
#      x y z
#    x 1.740330 0.000000 0.014240 
#    y 0.000000 1.710520 0.000000 
#    z 0.014240 0.000000 1.744430 
# 
# From -- ./inp_files/93784.got.cif
#   From: 2010.06.25/outbox.cif.g09.slc.cpg/sg10_47_cif.got.tgz:93784.got - 2010.06.27 22:07:45.
