data_PCOD8066916
_publ_section_title
;
Structure prediction by ZEFSAII (Michael W. Deem and Ramdas Pophale) SiO2 
 PCOD8066916
Probable space group: P 2/M
;
_chemical_formula_sum "Si O2"
_cell_formula_units_Z 28
_cell_length_a 28.113525
_cell_length_b 9.229878
_cell_length_c 9.405108
_cell_angle_alpha 90.000000
_cell_angle_beta 140.075080
_cell_angle_gamma 90.000000
_cell_volume 1566.258428
_symmetry_space_group_name_H-M "P 2/M"
_symmetry_group_IT_number 10
_symmetry_cell_setting 'monoclinic'
loop_
_space_group_symop_operation_xyz
x,y,z
-x,y,-z
-x,-y,-z
x,-y,z
loop_
_atom_site_type_symbol
_atom_site_label
_atom_site_fract_x
_atom_site_fract_y
_atom_site_fract_z
Si Si1 0.896615 0.328575 0.378975
Si Si2 0.190196 0.665479 0.294207
Si Si3 0.301161 0.833814 0.730377
Si Si4 0.945228 0.329153 0.183722
Si Si5 0.415284 0.670073 0.808017
Si Si6 0.306869 0.336512 0.315984
Si Si7 0.251718 0.833788 0.927632
O O1 0.881298 0.500000 0.346583
O O2 0.913555 0.268440 0.259911
O O3 0.968462 0.286963 0.641026
O O4 0.825140 0.248763 0.275824
O O5 0.190587 0.500000 0.351104
O O6 0.225425 0.765887 0.495065
O O7 0.234990 0.676679 0.249908
O O8 0.106554 0.721284 0.066885
O O9 0.373524 0.752448 0.838632
O O10 0.304522 0.000000 0.689299
O O11 0.301163 0.818526 0.899933
O O12 0.939083 0.500000 0.184440
O O13 0.406955 0.500000 0.820290
O O14 0.379078 0.708728 0.572795
O O15 0.500000 0.721066 0.000000
O O16 0.314850 0.500000 0.276779
O O17 0.299682 0.231426 0.165815
O O18 0.233985 0.000000 0.921679
#
# Coordination Sequence:
#
# PCOD8066916 Si02
#       7
#     4   4   4   4   4   4   4
#     4   9  16  29  50  72  98 132 169 216 265 302
#     4   9  16  31  53  76  98 127 173 222 259 299
#     4  10  22  36  50  73 106 142 172 201 245 300
#     4   8  14  27  49  75  98 124 167 222 267 300
#     4   9  19  38  62  85 104 124 159 207 252 298
#     4   9  17  31  55  80 100 128 166 206 250 299
#     4  11  22  34  47  71 108 142 174 208 244 295
#
# _framework density 17.876998
#
# number of rings (size 3 to 8) (size 9 to 14) (size 15 to 20)
#    0.000    2.714    1.429    2.571    0.000    4.857 
#    0.000    3.571    0.000    8.571    0.000    0.000 
#    0.000    0.000    0.000    0.000    0.000    0.000 
#
# Total GULP energy -347097.779065 kJ/mol
# GULP energy per Si atom -12396.349252 kJ/mol
# Density = 1.783631 g / cm^3
# Si number density = 17.876998 Si / 1000 Ang^3
#
#
#
# Elastic Constant Matrix: (Units=GPa)
#
#
# Indices 1 2 3 4 5 6 
#
# 1 66.1950 43.6634 48.8799 0.0000 5.2731 0.0000
# 2 43.6634 81.6665 45.8566 0.0000 0.4556 0.0000
# 3 48.8799 45.8566 124.0653 0.0000 18.6871 0.0000
# 4 0.0000 0.0000 0.0000 13.7344 0.0000 -8.5733
# 5 5.2731 0.4556 18.6871 0.0000 28.1715 0.0000
# 6 0.0000 0.0000 0.0000 -8.5733 0.0000 21.9509
#
#
#
# Elastic Compliance Matrix: (Units=1/GPa)
#
#
# Indices 1 2 3 4 5 6 
#
# 1 0.027171 -0.010797 -0.006637 0.000000 -0.000508 0.000000
# 2 -0.010797 0.020144 -0.003830 0.000000 0.004236 0.000000
# 3 -0.006637 -0.003830 0.013215 0.000000 -0.007461 0.000000
# 4 0.000000 0.000000 0.000000 0.096285 0.000000 0.037606
# 5 -0.000508 0.004236 -0.007461 0.000000 0.040473 0.000000
# 6 0.000000 0.000000 0.000000 0.037606 0.000000 0.060244
#
#
# Mechanical properties :
#
#
# Convention : Reuss Voigt Hill
#
# Bulk Modulus (GPa) = 55.55214 60.96962 58.26088
# Shear Modulus (GPa) = 16.33666 21.67315 19.00490
#
# Velocity S-wave (km/s) = 3.02625 3.48566 3.26405
# Velocity P-wave (km/s) = 6.58430 7.09781 6.84587
#
# Compressibility (1/GPa) = 0.01800111
#
# Stress axis : x y z
#
# Youngs Moduli (GPa) = 36.80456 49.64143 75.67280
#
# Poissons Ratio (x) = 0.53598 0.50228
# Poissons Ratio (y) = 0.39738 0.28982
# Poissons Ratio (z) = 0.24429 0.19012
#
# Static dielectric constant tensor:
#      x y z
#    x 3.002040 0.000000 0.116630 
#    y 0.000000 3.141240 0.000000 
#    z 0.116630 0.000000 3.629700 
# 
# 
# High freq. dielectric constant tensor:
#      x y z
#    x 1.663500 0.000000 0.004790 
#    y 0.000000 1.672890 0.000000 
#    z 0.004790 0.000000 1.699690 
# 
# From -- ./inp_files/37264.got.cif
#   From: 2010.06.25/outbox.cif.g09.slc.cpg/sg10_19_cif.got.tgz:37264.got - 2010.06.27 22:07:45.
