data_PCOD8066577
_publ_section_title
;
Structure prediction by ZEFSAII (Michael W. Deem and Ramdas Pophale) SiO2 
 PCOD8066577
Probable space group: P 2/M
;
_chemical_formula_sum "Si O2"
_cell_formula_units_Z 30
_cell_length_a 14.371316
_cell_length_b 8.684524
_cell_length_c 12.088549
_cell_angle_alpha 90.000000
_cell_angle_beta 115.826516
_cell_angle_gamma 90.000000
_cell_volume 1358.050189
_symmetry_space_group_name_H-M "P 2/M"
_symmetry_group_IT_number 10
_symmetry_cell_setting 'monoclinic'
loop_
_space_group_symop_operation_xyz
x,y,z
-x,y,-z
-x,-y,-z
x,-y,z
loop_
_atom_site_type_symbol
_atom_site_label
_atom_site_fract_x
_atom_site_fract_y
_atom_site_fract_z
Si Si1 0.614537 0.679281 0.723277
Si Si2 0.605219 0.680792 0.298581
Si Si3 0.298060 0.821472 0.440346
Si Si4 0.796283 0.317108 0.985978
Si Si5 0.906029 0.664677 0.727953
Si Si6 0.267478 0.821005 0.817896
Si Si7 0.000000 0.715776 0.000000
Si Si8 0.070196 0.321286 0.637665
O O1 0.611292 0.500000 0.691585
O O2 0.511205 0.731141 0.732460
O O3 0.620705 0.771004 0.611504
O O4 0.712717 0.719254 0.849078
O O5 0.615047 0.500000 0.284456
O O6 0.682119 0.729650 0.436672
O O7 0.631648 0.765361 0.196892
O O8 0.182617 0.789830 0.335576
O O9 0.311106 0.000000 0.472484
O O10 0.826461 0.500000 0.005452
O O11 0.745397 0.273089 0.075768
O O12 0.900809 0.211280 0.014993
O O13 0.866350 0.500000 0.659562
O O14 0.009640 0.715661 0.719122
O O15 0.934550 0.631196 0.870597
O O16 0.171179 0.784425 0.687626
O O17 0.276259 0.000000 0.849570
O O18 0.102662 0.500000 0.645549
O O19 0.000000 0.269041 0.500000
#
# Coordination Sequence:
#
# PCOD8066577 Si02
#       8
#     4   4   4   4   4   4   2   4
#     4  10  23  43  70  98 125 165 221 272 313 370
#     4  11  24  45  70  93 122 168 222 273 317 372
#     4  12  25  40  63  99 138 172 205 259 328 388
#     4  11  22  42  69  97 128 167 217 265 313 376
#     4  11  21  37  63  94 126 168 216 260 308 371
#     4  12  26  42  62  93 131 169 209 263 329 389
#     4  12  21  38  71  98 125 166 215 266 309 366
#     4  10  21  38  62  90 121 165 215 260 310 374
#
# _framework density 22.090496000000002
#
# number of rings (size 3 to 8) (size 9 to 14) (size 15 to 20)
#    0.000    0.933    2.667    5.200    0.000    5.600 
#    0.000    3.333    0.000    0.000    0.000    0.000 
#    0.000    0.000    0.000    0.000    0.000    0.000 
#
# Total GULP energy -371773.815772 kJ/mol
# GULP energy per Si atom -12392.460526 kJ/mol
# Density = 2.204022 g / cm^3
# Si number density = 22.090496 Si / 1000 Ang^3
#
#
#
# Elastic Constant Matrix: (Units=GPa)
#
#
# Indices 1 2 3 4 5 6 
#
# 1 126.5765 27.7861 21.6168 0.0000 -16.7019 0.0000
# 2 27.7861 65.1037 12.9457 0.0000 -3.1139 0.0000
# 3 21.6168 12.9457 84.9892 0.0000 -14.3206 0.0000
# 4 0.0000 0.0000 0.0000 8.8185 0.0000 -2.2761
# 5 -16.7019 -3.1139 -14.3206 0.0000 41.4946 0.0000
# 6 0.0000 0.0000 0.0000 -2.2761 0.0000 14.8144
#
#
#
# Elastic Compliance Matrix: (Units=1/GPa)
#
#
# Indices 1 2 3 4 5 6 
#
# 1 0.009307 -0.003566 -0.001314 0.000000 0.003025 0.000000
# 2 -0.003566 0.017212 -0.001846 0.000000 -0.000781 0.000000
# 3 -0.001314 -0.001846 0.013027 0.000000 0.003828 0.000000
# 4 0.000000 0.000000 0.000000 0.118081 0.000000 0.018142
# 5 0.003025 -0.000781 0.003828 0.000000 0.026580 0.000000
# 6 0.000000 0.000000 0.000000 0.018142 0.000000 0.070289
#
#
# Mechanical properties :
#
#
# Convention : Reuss Voigt Hill
#
# Bulk Modulus (GPa) = 38.32577 44.59627 41.46102
# Shear Modulus (GPa) = 18.07364 27.31355 22.69359
#
# Velocity S-wave (km/s) = 2.86346 3.52012 3.20863
# Velocity P-wave (km/s) = 5.32162 6.06246 5.70408
#
# Compressibility (1/GPa) = 0.02609210
#
# Stress axis : x y z
#
# Youngs Moduli (GPa) = 107.44863 58.09934 76.76499
#
# Poissons Ratio (x) = 0.20719 0.10089
# Poissons Ratio (y) = 0.38317 0.14173
# Poissons Ratio (z) = 0.14122 0.10727
#
# Static dielectric constant tensor:
#      x y z
#    x 4.319190 0.000000 -0.128420 
#    y 0.000000 3.547520 0.000000 
#    z -0.128420 0.000000 4.039030 
# 
# 
# High freq. dielectric constant tensor:
#      x y z
#    x 1.889890 0.000000 -0.012410 
#    y 0.000000 1.829520 0.000000 
#    z -0.012410 0.000000 1.879530 
# 
# From -- ./inp_files/49996.got.cif
#   From: 2010.06.25/outbox.cif.g09.slc.cpg/sg10_25_cif.got.tgz:49996.got - 2010.06.27 22:07:45.
