data_PCOD8066733
_publ_section_title
;
Structure prediction by ZEFSAII (Michael W. Deem and Ramdas Pophale) SiO2 
 PCOD8066733
Probable space group: P 2/M
;
_chemical_formula_sum "Si O2"
_cell_formula_units_Z 14
_cell_length_a 4.936757
_cell_length_b 16.087498
_cell_length_c 9.452122
_cell_angle_alpha 90.000000
_cell_angle_beta 122.758371
_cell_angle_gamma 90.000000
_cell_volume 631.298703
_symmetry_space_group_name_H-M "P 2/M"
_symmetry_group_IT_number 10
_symmetry_cell_setting 'monoclinic'
loop_
_space_group_symop_operation_xyz
x,y,z
-x,y,-z
-x,-y,-z
x,-y,z
loop_
_atom_site_type_symbol
_atom_site_label
_atom_site_fract_x
_atom_site_fract_y
_atom_site_fract_z
Si Si1 0.081817 0.754859 0.686928
Si Si2 0.876898 0.092066 0.114393
Si Si3 0.621238 0.500000 0.378147
Si Si4 0.295924 0.335980 0.188110
O O1 0.017459 0.846637 0.730479
O O2 0.458217 0.730960 0.811146
O O3 0.000000 0.752813 0.500000
O O4 0.842046 0.691576 0.698564
O O5 0.028132 0.000000 0.184461
O O6 0.500000 0.083956 0.000000
O O7 0.000000 0.129040 0.000000
O O8 0.500000 0.500000 0.500000
O O9 0.497104 0.420257 0.258270
O O10 0.000000 0.500000 0.500000
O O11 0.000000 0.349306 0.000000
#
# Coordination Sequence:
#
# PCOD8066733 Si02
#       4
#     4   4   2   4
#     4  12  24  40  64  95 129 166 210 262 317 368
#     4  10  21  39  63  91 125 166 210 256 310 373
#     4  12  25  44  67  94 129 162 205 262 319 368
#     4  12  25  43  66  93 126 168 214 256 309 377
#
# _framework density 22.176508999999999
#
# number of rings (size 3 to 8) (size 9 to 14) (size 15 to 20)
#    0.000    0.571    0.000   10.714    0.000    0.571 
#    0.000    4.286    0.000    8.571    0.000    0.000 
#    0.000    0.000    0.000    0.000    0.000    0.000 
#
# Total GULP energy -173662.738441 kJ/mol
# GULP energy per Si atom -12404.481317 kJ/mol
# Density = 2.212603 g / cm^3
# Si number density = 22.176509 Si / 1000 Ang^3
#
#
#
# Elastic Constant Matrix: (Units=GPa)
#
#
# Indices 1 2 3 4 5 6 
#
# 1 161.0349 53.9775 53.7480 0.0000 -5.6323 0.0000
# 2 53.9775 142.4481 78.6846 0.0000 -2.3316 0.0000
# 3 53.7480 78.6846 124.7922 0.0000 -3.1929 0.0000
# 4 0.0000 0.0000 0.0000 31.6662 0.0000 -5.1330
# 5 -5.6323 -2.3316 -3.1929 0.0000 47.3388 0.0000
# 6 0.0000 0.0000 0.0000 -5.1330 0.0000 34.1751
#
#
#
# Elastic Compliance Matrix: (Units=1/GPa)
#
#
# Indices 1 2 3 4 5 6 
#
# 1 0.007509 -0.001623 -0.002194 0.000000 0.000666 0.000000
# 2 -0.001623 0.011123 -0.006316 0.000000 -0.000071 0.000000
# 3 -0.002194 -0.006316 0.012948 0.000000 0.000301 0.000000
# 4 0.000000 0.000000 0.000000 0.032368 0.000000 0.004862
# 5 0.000666 -0.000071 0.000301 0.000000 0.021220 0.000000
# 6 0.000000 0.000000 0.000000 0.004862 0.000000 0.029991
#
#
# Mechanical properties :
#
#
# Convention : Reuss Voigt Hill
#
# Bulk Modulus (GPa) = 88.37976 89.01058 88.69517
# Shear Modulus (GPa) = 35.92040 38.76035 37.34037
#
# Velocity S-wave (km/s) = 4.02898 4.18522 4.10784
# Velocity P-wave (km/s) = 7.84748 7.97366 7.91082
#
# Compressibility (1/GPa) = 0.01131481
#
# Stress axis : x y z
#
# Youngs Moduli (GPa) = 133.16769 89.90708 77.22926
#
# Poissons Ratio (x) = 0.14588 0.16945
# Poissons Ratio (y) = 0.21608 0.48778
# Poissons Ratio (z) = 0.29219 0.56786
#
# Static dielectric constant tensor:
#      x y z
#    x 4.342810 0.000000 -0.081960 
#    y 0.000000 4.583350 0.000000 
#    z -0.081960 0.000000 3.700780 
# 
# 
# High freq. dielectric constant tensor:
#      x y z
#    x 1.899850 0.000000 -0.008330 
#    y 0.000000 1.885610 0.000000 
#    z -0.008330 0.000000 1.859870 
# 
# From -- ./inp_files/14249.got.cif
#   From: 2010.06.25/outbox.cif.g09.slc.cpg/sg10_8_cif.got.tgz:14249.got - 2010.06.27 22:07:45.
