data_PCOD8066664
_publ_section_title
;
Structure prediction by ZEFSAII (Michael W. Deem and Ramdas Pophale) SiO2 
 PCOD8066664
Probable space group: P 2/M
;
_chemical_formula_sum "Si O2"
_cell_formula_units_Z 16
_cell_length_a 14.350430
_cell_length_b 7.462690
_cell_length_c 14.350414
_cell_angle_alpha 90.000000
_cell_angle_beta 148.881873
_cell_angle_gamma 90.000000
_cell_volume 794.238226
_symmetry_space_group_name_H-M "P 2/M"
_symmetry_group_IT_number 10
_symmetry_cell_setting 'monoclinic'
loop_
_space_group_symop_operation_xyz
x,y,z
-x,y,-z
-x,-y,-z
x,-y,z
loop_
_atom_site_type_symbol
_atom_site_label
_atom_site_fract_x
_atom_site_fract_y
_atom_site_fract_z
Si Si1 0.446332 0.211973 0.553664
Si Si2 0.681549 0.794683 0.927009
Si Si3 0.508992 0.500000 0.897670
Si Si4 0.927015 0.794683 0.681557
Si Si5 0.102327 0.500000 0.491004
O O1 0.500000 0.297615 0.500000
O O2 0.590573 0.277317 0.754126
O O3 0.245866 0.277312 0.409416
O O4 0.450559 0.000000 0.549449
O O5 0.614004 0.677848 0.955852
O O6 0.624957 0.000000 0.898237
O O7 0.897655 0.776490 0.102337
O O8 0.314334 0.500000 0.685664
O O9 0.500000 0.500000 0.000000
O O10 0.955854 0.677847 0.614008
O O11 0.898245 0.000000 0.624965
O O12 0.000000 0.500000 0.500000
#
# Coordination Sequence:
#
# PCOD8066664 Si02
#       5
#     4   4   2   4   2
#     4   9  18  35  61  91 122 159 199 240 295 355
#     4  10  21  39  61  87 122 157 195 245 295 350
#     4  12  24  40  62  86 117 155 200 250 298 353
#     4  10  21  39  61  87 122 157 195 245 295 350
#     4  12  24  40  62  86 117 155 200 250 298 353
#
# _framework density 20.145088999999999
#
# number of rings (size 3 to 8) (size 9 to 14) (size 15 to 20)
#    0.000    1.750    2.500    2.250    0.000    2.000 
#    0.000    7.500    0.000    3.000    0.000    0.000 
#    0.000    0.000    0.000    0.000    0.000    0.000 
#
# Total GULP energy -198423.543230 kJ/mol
# GULP energy per Si atom -12401.471452 kJ/mol
# Density = 2.009924 g / cm^3
# Si number density = 20.145089 Si / 1000 Ang^3
#
#
#
# Elastic Constant Matrix: (Units=GPa)
#
#
# Indices 1 2 3 4 5 6 
#
# 1 165.6266 53.9179 74.7203 0.0000 -11.2955 0.0000
# 2 53.9179 92.3452 39.8328 0.0000 -5.9094 0.0000
# 3 74.7203 39.8328 157.8051 0.0000 8.0188 0.0000
# 4 0.0000 0.0000 0.0000 22.9797 0.0000 3.0294
# 5 -11.2955 -5.9094 8.0188 0.0000 40.0924 0.0000
# 6 0.0000 0.0000 0.0000 3.0294 0.0000 15.7581
#
#
#
# Elastic Compliance Matrix: (Units=1/GPa)
#
#
# Indices 1 2 3 4 5 6 
#
# 1 0.008946 -0.003551 -0.003476 0.000000 0.002692 0.000000
# 2 -0.003551 0.013801 -0.001874 0.000000 0.001408 0.000000
# 3 -0.003476 -0.001874 0.008607 0.000000 -0.002977 0.000000
# 4 0.000000 0.000000 0.000000 0.044648 0.000000 -0.008583
# 5 0.002692 0.001408 -0.002977 0.000000 0.026504 0.000000
# 6 0.000000 0.000000 0.000000 -0.008583 0.000000 0.065110
#
#
# Mechanical properties :
#
#
# Convention : Reuss Voigt Hill
#
# Bulk Modulus (GPa) = 73.79343 83.63543 78.71443
# Shear Modulus (GPa) = 26.32491 32.25308 29.28900
#
# Velocity S-wave (km/s) = 3.61884 4.00564 3.81714
# Velocity P-wave (km/s) = 7.36015 7.93727 7.65415
#
# Compressibility (1/GPa) = 0.01355134
#
# Stress axis : x y z
#
# Youngs Moduli (GPa) = 111.78701 72.45962 116.18421
#
# Poissons Ratio (x) = 0.25734 0.40386
# Poissons Ratio (y) = 0.39700 0.21768
# Poissons Ratio (z) = 0.38858 0.13576
#
# Static dielectric constant tensor:
#      x y z
#    x 2.908470 0.000000 0.387150 
#    y 0.000000 3.617320 0.000000 
#    z 0.387150 0.000000 3.830660 
# 
# 
# High freq. dielectric constant tensor:
#      x y z
#    x 1.773800 0.000000 0.012340 
#    y 0.000000 1.786460 0.000000 
#    z 0.012340 0.000000 1.803210 
# 
# From -- ./inp_files/35759.got.cif
#   From: 2010.06.25/outbox.cif.g09.slc.cpg/sg10_18_cif.got.tgz:35759.got - 2010.06.27 22:07:45.
