data_PCOD8066566
_publ_section_title
;
Structure prediction by ZEFSAII (Michael W. Deem and Ramdas Pophale) SiO2 
 PCOD8066566
Probable space group: P 2/M
;
_chemical_formula_sum "Si O2"
_cell_formula_units_Z 28
_cell_length_a 9.289760
_cell_length_b 8.794978
_cell_length_c 27.212632
_cell_angle_alpha 90.000000
_cell_angle_beta 141.265369
_cell_angle_gamma 90.000000
_cell_volume 1391.188082
_symmetry_space_group_name_H-M "P 2/M"
_symmetry_group_IT_number 10
_symmetry_cell_setting 'monoclinic'
loop_
_space_group_symop_operation_xyz
x,y,z
-x,y,-z
-x,-y,-z
x,-y,z
loop_
_atom_site_type_symbol
_atom_site_label
_atom_site_fract_x
_atom_site_fract_y
_atom_site_fract_z
Si Si1 0.771558 0.830435 0.969649
Si Si2 0.035691 0.822021 0.224089
Si Si3 0.769633 0.327411 0.067743
Si Si4 0.692302 0.678116 0.511420
Si Si5 0.330036 0.819794 0.794656
Si Si6 0.182123 0.179836 0.649930
Si Si7 0.528913 0.321468 0.360114
O O1 0.564245 0.758211 0.881968
O O2 0.699642 0.000000 0.969179
O O3 0.837002 0.718509 0.030905
O O4 0.000000 0.844614 0.000000
O O5 0.270981 0.731638 0.282941
O O6 0.889262 0.787716 0.136764
O O7 0.891463 0.765096 0.233022
O O8 0.089963 0.000000 0.241055
O O9 0.848346 0.500000 0.099343
O O10 0.500000 0.306870 0.000000
O O11 0.500000 0.722500 0.500000
O O12 0.750281 0.500000 0.528930
O O13 0.605788 0.728195 0.434802
O O14 0.918135 0.772604 0.583842
O O15 0.309367 0.759721 0.733250
O O16 0.337787 0.000000 0.796256
O O17 0.299315 0.249446 0.633380
O O18 0.198643 0.000000 0.650328
O O19 0.541897 0.500000 0.356715
#
# Coordination Sequence:
#
# PCOD8066566 Si02
#       7
#     4   4   4   4   4   4   4
#     4  10  21  38  62  87 116 159 207 251 301 355
#     4  11  22  39  64  88 116 156 204 251 301 357
#     4  11  23  39  59  88 123 158 200 250 304 358
#     4  10  22  42  66  90 121 162 203 245 299 360
#     4   9  20  38  58  87 120 153 199 252 300 351
#     4  11  23  39  62  92 126 160 200 248 299 356
#     4  11  24  41  61  90 125 158 197 246 302 360
#
# _framework density 20.126684000000001
#
# number of rings (size 3 to 8) (size 9 to 14) (size 15 to 20)
#    0.000    1.571    1.429    3.000    2.000    4.000 
#    0.000    3.571    0.000    0.000    0.000    0.000 
#    0.000    0.000    0.000    0.000    0.000    0.000 
#
# Total GULP energy -347282.369384 kJ/mol
# GULP energy per Si atom -12402.941764 kJ/mol
# Density = 2.008087 g / cm^3
# Si number density = 20.126684 Si / 1000 Ang^3
#
#
#
# Elastic Constant Matrix: (Units=GPa)
#
#
# Indices 1 2 3 4 5 6 
#
# 1 142.2289 36.5713 56.9607 0.0000 -12.8010 0.0000
# 2 36.5713 45.9105 31.4096 0.0000 -3.7479 0.0000
# 3 56.9607 31.4096 101.8529 0.0000 -16.2779 0.0000
# 4 0.0000 0.0000 0.0000 29.0736 0.0000 -0.2129
# 5 -12.8010 -3.7479 -16.2779 0.0000 39.0954 0.0000
# 6 0.0000 0.0000 0.0000 -0.2129 0.0000 30.1978
#
#
#
# Elastic Compliance Matrix: (Units=1/GPa)
#
#
# Indices 1 2 3 4 5 6 
#
# 1 0.010012 -0.005295 -0.003775 0.000000 0.001199 0.000000
# 2 -0.005295 0.030440 -0.006681 0.000000 -0.001597 0.000000
# 3 -0.003775 -0.006681 0.014665 0.000000 0.004230 0.000000
# 4 0.000000 0.000000 0.000000 0.034397 0.000000 0.000242
# 5 0.001199 -0.001597 0.004230 0.000000 0.027579 0.000000
# 6 0.000000 0.000000 0.000000 0.000242 0.000000 0.033117
#
#
# Mechanical properties :
#
#
# Convention : Reuss Voigt Hill
#
# Bulk Modulus (GPa) = 42.34495 59.98615 51.16555
# Shear Modulus (GPa) = 26.37352 30.67674 28.52513
#
# Velocity S-wave (km/s) = 3.62384 3.90831 3.76876
# Velocity P-wave (km/s) = 6.21245 7.08770 6.66446
#
# Compressibility (1/GPa) = 0.02361556
#
# Stress axis : x y z
#
# Youngs Moduli (GPa) = 99.87957 32.85151 68.18786
#
# Poissons Ratio (x) = 0.17395 0.25739
# Poissons Ratio (y) = 0.52887 0.45558
# Poissons Ratio (z) = 0.37701 0.21949
#
# Static dielectric constant tensor:
#      x y z
#    x 3.751100 0.000000 -0.118010 
#    y 0.000000 3.556650 0.000000 
#    z -0.118010 0.000000 3.849130 
# 
# 
# High freq. dielectric constant tensor:
#      x y z
#    x 1.797920 0.000000 -0.002230 
#    y 0.000000 1.773970 0.000000 
#    z -0.002230 0.000000 1.798910 
# 
# From -- ./inp_files/34307.got.cif
#   From: 2010.06.25/outbox.cif.g09.slc.cpg/sg10_18_cif.got.tgz:34307.got - 2010.06.27 22:07:45.
