data_PCOD8066702
_publ_section_title
;
Structure prediction by ZEFSAII (Michael W. Deem and Ramdas Pophale) SiO2 
 PCOD8066702
Probable space group: P 2/M
;
_chemical_formula_sum "Si O2"
_cell_formula_units_Z 24
_cell_length_a 26.509535
_cell_length_b 8.342844
_cell_length_c 11.613992
_cell_angle_alpha 90.000000
_cell_angle_beta 151.736550
_cell_angle_gamma 90.000000
_cell_volume 1216.303592
_symmetry_space_group_name_H-M "P 2/M"
_symmetry_group_IT_number 10
_symmetry_cell_setting 'monoclinic'
loop_
_space_group_symop_operation_xyz
x,y,z
-x,y,-z
-x,-y,-z
x,-y,z
loop_
_atom_site_type_symbol
_atom_site_label
_atom_site_fract_x
_atom_site_fract_y
_atom_site_fract_z
Si Si1 0.683418 0.685229 0.594234
Si Si2 0.098959 0.812937 0.557473
Si Si3 0.297255 0.314722 0.834767
Si Si4 0.872003 0.312627 0.137915
Si Si5 0.494417 0.185291 0.357241
Si Si6 0.378076 0.814609 0.765640
O O1 0.696010 0.500000 0.586681
O O2 0.574487 0.707471 0.444786
O O3 0.682589 0.787965 0.476135
O O4 0.782357 0.746616 0.868970
O O5 0.178040 0.743722 0.620738
O O6 0.145072 0.783047 0.777896
O O7 0.987090 0.722863 0.315255
O O8 0.081301 0.000000 0.502483
O O9 0.310211 0.500000 0.892590
O O10 0.320230 0.288818 0.746621
O O11 0.375977 0.211085 0.072193
O O12 0.860247 0.500000 0.141358
O O13 0.500000 0.241797 0.500000
O O14 0.526751 0.000000 0.409115
O O15 0.373742 0.000000 0.792641
O O16 0.500000 0.756039 0.000000
#
# Coordination Sequence:
#
# PCOD8066702 Si02
#       6
#     4   4   4   4   4   4
#     4  11  23  38  60  88 118 155 197 242 293 351
#     4  11  22  38  62  90 121 158 200 242 296 353
#     4  12  24  39  61  86 118 155 198 246 295 351
#     4  10  21  39  62  90 123 157 198 243 295 351
#     4  11  23  37  56  85 120 154 192 241 294 351
#     4  11  23  40  62  86 117 157 199 244 295 351
#
# _framework density 19.731915000000001
#
# number of rings (size 3 to 8) (size 9 to 14) (size 15 to 20)
#    0.000    1.000    1.667    7.000    0.000    7.333 
#    0.000    0.833    0.000    5.000    0.000    0.000 
#    0.000    0.000    0.000    0.000    0.000    0.000 
#
# Total GULP energy -297802.872772 kJ/mol
# GULP energy per Si atom -12408.453032 kJ/mol
# Density = 1.968700 g / cm^3
# Si number density = 19.731915 Si / 1000 Ang^3
#
#
#
# Elastic Constant Matrix: (Units=GPa)
#
#
# Indices 1 2 3 4 5 6 
#
# 1 108.1895 12.3536 24.2851 0.0000 6.7917 0.0000
# 2 12.3536 56.6250 6.5407 0.0000 -0.9742 0.0000
# 3 24.2851 6.5407 66.9093 0.0000 2.1109 0.0000
# 4 0.0000 0.0000 0.0000 26.5265 0.0000 -1.9889
# 5 6.7917 -0.9742 2.1109 0.0000 32.2516 0.0000
# 6 0.0000 0.0000 0.0000 -1.9889 0.0000 32.3941
#
#
#
# Elastic Compliance Matrix: (Units=1/GPa)
#
#
# Indices 1 2 3 4 5 6 
#
# 1 0.010375 -0.001892 -0.003517 0.000000 -0.002012 0.000000
# 2 -0.001892 0.018221 -0.001127 0.000000 0.001023 0.000000
# 3 -0.003517 -0.001127 0.016344 0.000000 -0.000363 0.000000
# 4 0.000000 0.000000 0.000000 0.037872 0.000000 0.002325
# 5 -0.002012 0.001023 -0.000363 0.000000 0.031485 0.000000
# 6 0.000000 0.000000 0.000000 0.002325 0.000000 0.031013
#
#
# Mechanical properties :
#
#
# Convention : Reuss Voigt Hill
#
# Bulk Modulus (GPa) = 31.37979 35.34252 33.36115
# Shear Modulus (GPa) = 29.58532 30.80408 30.19470
#
# Velocity S-wave (km/s) = 3.87636 3.95540 3.91608
# Velocity P-wave (km/s) = 5.99771 6.22981 6.11486
#
# Compressibility (1/GPa) = 0.03186764
#
# Stress axis : x y z
#
# Youngs Moduli (GPa) = 96.38708 54.88317 61.18534
#
# Poissons Ratio (x) = 0.10383 0.21520
# Poissons Ratio (y) = 0.18234 0.06894
# Poissons Ratio (z) = 0.33901 0.06184
#
# Static dielectric constant tensor:
#      x y z
#    x 3.574620 0.000000 0.023180 
#    y 0.000000 3.566080 0.000000 
#    z 0.023180 0.000000 3.626400 
# 
# 
# High freq. dielectric constant tensor:
#      x y z
#    x 1.769240 0.000000 0.001930 
#    y 0.000000 1.780180 0.000000 
#    z 0.001930 0.000000 1.765230 
# 
# From -- ./inp_files/57318.got.cif
#   From: 2010.06.25/outbox.cif.g09.slc.cpg/sg10_29_cif.got.tgz:57318.got - 2010.06.27 22:07:45.
