data_PCOD8066847
_publ_section_title
;
Structure prediction by ZEFSAII (Michael W. Deem and Ramdas Pophale) SiO2 
 PCOD8066847
Probable space group: P 2/M
;
_chemical_formula_sum "Si O2"
_cell_formula_units_Z 24
_cell_length_a 8.497153
_cell_length_b 20.577695
_cell_length_c 8.337604
_cell_angle_alpha 90.000000
_cell_angle_beta 53.125487
_cell_angle_gamma 90.000000
_cell_volume 1166.205742
_symmetry_space_group_name_H-M "P 2/M"
_symmetry_group_IT_number 10
_symmetry_cell_setting 'monoclinic'
loop_
_space_group_symop_operation_xyz
x,y,z
-x,y,-z
-x,-y,-z
x,-y,z
loop_
_atom_site_type_symbol
_atom_site_label
_atom_site_fract_x
_atom_site_fract_y
_atom_site_fract_z
Si Si1 0.951814 0.332098 0.347730
Si Si2 0.345535 0.768355 0.366909
Si Si3 0.639796 0.665963 0.044597
Si Si4 0.711382 0.426745 0.292125
Si Si5 0.000000 0.150042 0.500000
Si Si6 0.915553 0.074438 0.221288
Si Si7 0.500000 0.873824 0.500000
O O1 0.780005 0.277677 0.434187
O O2 0.876790 0.397074 0.306967
O O3 0.000000 0.350986 0.500000
O O4 0.155824 0.306015 0.149189
O O5 0.510360 0.727175 0.177586
O O6 0.460124 0.826736 0.377327
O O7 0.185106 0.802768 0.350775
O O8 0.699073 0.614407 0.139617
O O9 0.500000 0.629584 0.000000
O O10 0.500000 0.425039 0.500000
O O11 0.776413 0.500000 0.211717
O O12 0.016186 0.109600 0.655858
O O13 0.681256 0.079506 0.349901
O O14 0.982125 0.000000 0.197760
O O15 0.000000 0.103086 0.000000
#
# Coordination Sequence:
#
# PCOD8066847 Si02
#       7
#     4   4   4   4   2   4   2
#     4  12  23  42  64  89 125 163 205 256 325 377
#     4  11  21  40  59  94 128 156 208 255 312 381
#     4  12  23  40  66  88 125 168 199 262 322 380
#     4  11  24  43  65  90 121 160 213 264 312 382
#     4  10  21  40  68  94 131 166 212 268 308 378
#     4  10  22  42  64  93 130 171 215 259 313 370
#     4  10  23  36  64  92 127 164 208 260 310 368
#
# _framework density 20.579559
#
# number of rings (size 3 to 8) (size 9 to 14) (size 15 to 20)
#    0.000    1.000    4.167    2.000    0.000    6.000 
#    0.000    2.500    0.000    9.000    0.000    0.000 
#    0.000    0.000    0.000    0.000    0.000    0.000 
#
# Total GULP energy -297440.895115 kJ/mol
# GULP energy per Si atom -12393.370630 kJ/mol
# Density = 2.053272 g / cm^3
# Si number density = 20.579559 Si / 1000 Ang^3
#
#
#
# Elastic Constant Matrix: (Units=GPa)
#
#
# Indices 1 2 3 4 5 6 
#
# 1 103.1950 44.3256 53.7894 0.0000 -0.1806 0.0000
# 2 44.3256 103.5577 50.3159 0.0000 4.8021 0.0000
# 3 53.7894 50.3159 147.5940 0.0000 -9.0418 0.0000
# 4 0.0000 0.0000 0.0000 20.4013 0.0000 -13.8951
# 5 -0.1806 4.8021 -9.0418 0.0000 43.8200 0.0000
# 6 0.0000 0.0000 0.0000 -13.8951 0.0000 27.3434
#
#
#
# Elastic Compliance Matrix: (Units=1/GPa)
#
#
# Indices 1 2 3 4 5 6 
#
# 1 0.013199 -0.003949 -0.003478 0.000000 -0.000231 0.000000
# 2 -0.003949 0.012951 -0.003103 0.000000 -0.002076 0.000000
# 3 -0.003478 -0.003103 0.009238 0.000000 0.002232 0.000000
# 4 0.000000 0.000000 0.000000 0.074962 0.000000 0.038093
# 5 -0.000231 -0.002076 0.002232 0.000000 0.023508 0.000000
# 6 0.000000 0.000000 0.000000 0.038093 0.000000 0.055930
#
#
# Mechanical properties :
#
#
# Convention : Reuss Voigt Hill
#
# Bulk Modulus (GPa) = 69.79824 72.35652 71.07738
# Shear Modulus (GPa) = 23.18865 32.04063 27.61464
#
# Velocity S-wave (km/s) = 3.36040 3.95006 3.66710
# Velocity P-wave (km/s) = 7.00331 7.48597 7.24865
#
# Compressibility (1/GPa) = 0.01432701
#
# Stress axis : x y z
#
# Youngs Moduli (GPa) = 75.76221 77.21642 108.25432
#
# Poissons Ratio (x) = 0.30492 0.37653
# Poissons Ratio (y) = 0.29918 0.33591
# Poissons Ratio (z) = 0.26352 0.23960
#
# Static dielectric constant tensor:
#      x y z
#    x 3.774220 0.000000 0.142230 
#    y 0.000000 3.736900 0.000000 
#    z 0.142230 0.000000 3.686520 
# 
# 
# High freq. dielectric constant tensor:
#      x y z
#    x 1.824390 0.000000 -0.008800 
#    y 0.000000 1.798670 0.000000 
#    z -0.008800 0.000000 1.809530 
# 
# From -- ./inp_files/20152.got.cif
#   From: 2010.06.25/outbox.cif.g09.slc.cpg/sg10_11_cif.got.tgz:20152.got - 2010.06.27 22:07:45.
