data_PCOD8066094
_publ_section_title
;
Structure prediction by ZEFSAII (Michael W. Deem and Ramdas Pophale) SiO2 
 PCOD8066094
Probable space group: P 2/M
;
_chemical_formula_sum "Si O2"
_cell_formula_units_Z 28
_cell_length_a 19.079301
_cell_length_b 9.232372
_cell_length_c 13.947113
_cell_angle_alpha 90.000000
_cell_angle_beta 144.622647
_cell_angle_gamma 90.000000
_cell_volume 1422.354450
_symmetry_space_group_name_H-M "P 2/M"
_symmetry_group_IT_number 10
_symmetry_cell_setting 'monoclinic'
loop_
_space_group_symop_operation_xyz
x,y,z
-x,y,-z
-x,-y,-z
x,-y,z
loop_
_atom_site_type_symbol
_atom_site_label
_atom_site_fract_x
_atom_site_fract_y
_atom_site_fract_z
Si Si1 0.439639 0.336998 0.330593
Si Si2 0.214425 0.335778 0.490362
Si Si3 0.550027 0.829801 0.284168
Si Si4 0.790593 0.168569 0.970618
Si Si5 0.004464 0.666896 0.116173
Si Si6 0.123537 0.666997 0.594156
Si Si7 0.702735 0.165006 0.083235
O O1 0.500000 0.342690 0.500000
O O2 0.417570 0.500000 0.267124
O O3 0.529891 0.252472 0.361246
O O4 0.313047 0.254604 0.201299
O O5 0.264819 0.500000 0.548263
O O6 0.325633 0.225421 0.623012
O O7 0.139019 0.309300 0.308628
O O8 0.126230 0.309359 0.482782
O O9 0.557461 0.000000 0.313830
O O10 0.438760 0.795750 0.088406
O O11 0.775802 0.195059 0.067124
O O12 0.918840 0.228501 0.080773
O O13 0.779331 0.000000 0.932291
O O14 0.963754 0.500000 0.083866
O O15 0.000000 0.711940 0.000000
O O16 0.129043 0.500000 0.629161
O O17 0.242487 0.738950 0.771679
O O18 0.000000 0.735859 0.500000
O O19 0.716602 0.000000 0.130978
#
# Coordination Sequence:
#
# PCOD8066094 Si02
#       7
#     4   4   4   4   4   4   4
#     4  10  21  36  58  84 112 150 194 239 287 342
#     4  10  22  39  58  85 120 154 194 245 296 351
#     4  10  22  39  58  84 119 155 193 239 293 349
#     4  10  21  37  57  84 116 148 188 238 291 345
#     4  10  22  39  59  82 113 154 197 241 290 348
#     4  10  21  37  60  88 116 150 194 242 292 343
#     4   9  20  38  58  83 115 151 190 234 288 348
#
# _framework density 19.685669999999998
#
# number of rings (size 3 to 8) (size 9 to 14) (size 15 to 20)
#    0.000    2.143    0.000    3.000    2.000    8.000 
#    0.000    2.857    0.000    0.000    0.000    0.000 
#    0.000    0.000    0.000    0.000    0.000    0.000 
#
# Total GULP energy -347283.699727 kJ/mol
# GULP energy per Si atom -12402.989276 kJ/mol
# Density = 1.964086 g / cm^3
# Si number density = 19.685670 Si / 1000 Ang^3
#
#
#
# Elastic Constant Matrix: (Units=GPa)
#
#
# Indices 1 2 3 4 5 6 
#
# 1 75.7954 39.0277 46.3624 0.0000 9.1215 0.0000
# 2 39.0277 100.3071 50.2603 0.0000 3.5754 0.0000
# 3 46.3624 50.2603 107.0371 0.0000 -4.2532 0.0000
# 4 0.0000 0.0000 0.0000 23.7565 0.0000 8.1198
# 5 9.1215 3.5754 -4.2532 0.0000 32.0126 0.0000
# 6 0.0000 0.0000 0.0000 8.1198 0.0000 32.5666
#
#
#
# Elastic Compliance Matrix: (Units=1/GPa)
#
#
# Indices 1 2 3 4 5 6 
#
# 1 0.020478 -0.004148 -0.007174 0.000000 -0.006325 0.000000
# 2 -0.004148 0.014045 -0.004839 0.000000 -0.001030 0.000000
# 3 -0.007174 -0.004839 0.014903 0.000000 0.004565 0.000000
# 4 0.000000 0.000000 0.000000 0.046015 0.000000 -0.011473
# 5 -0.006325 -0.001030 0.004565 0.000000 0.033761 0.000000
# 6 0.000000 0.000000 0.000000 -0.011473 0.000000 0.033567
#
#
# Mechanical properties :
#
#
# Convention : Reuss Voigt Hill
#
# Bulk Modulus (GPa) = 58.46209 61.60449 60.03329
# Shear Modulus (GPa) = 24.90130 27.49974 26.20052
#
# Velocity S-wave (km/s) = 3.56047 3.74162 3.65217
# Velocity P-wave (km/s) = 6.83117 7.07307 6.95317
#
# Compressibility (1/GPa) = 0.01710510
#
# Stress axis : x y z
#
# Youngs Moduli (GPa) = 48.83214 71.20158 67.09860
#
# Poissons Ratio (x) = 0.29533 0.48135
# Poissons Ratio (y) = 0.20255 0.32470
# Poissons Ratio (z) = 0.35031 0.34455
#
# Static dielectric constant tensor:
#      x y z
#    x 3.517920 0.000000 0.063060 
#    y 0.000000 3.640220 0.000000 
#    z 0.063060 0.000000 3.564000 
# 
# 
# High freq. dielectric constant tensor:
#      x y z
#    x 1.761730 0.000000 0.001290 
#    y 0.000000 1.769820 0.000000 
#    z 0.001290 0.000000 1.769290 
# 
# From -- ./inp_files/70205.got.cif
#   From: 2010.06.25/outbox.cif.g09.slc.cpg/sg10_36_cif.got.tgz:70205.got - 2010.06.27 22:07:45.
