data_PCOD8066352
_publ_section_title
;
Structure prediction by ZEFSAII (Michael W. Deem and Ramdas Pophale) SiO2 
 PCOD8066352
Probable space group: P 2/M
;
_chemical_formula_sum "Si O2"
_cell_formula_units_Z 28
_cell_length_a 21.526192
_cell_length_b 10.730831
_cell_length_c 5.272104
_cell_angle_alpha 90.000000
_cell_angle_beta 98.643724
_cell_angle_gamma 90.000000
_cell_volume 1203.991943
_symmetry_space_group_name_H-M "P 2/M"
_symmetry_group_IT_number 10
_symmetry_cell_setting 'monoclinic'
loop_
_space_group_symop_operation_xyz
x,y,z
-x,y,-z
-x,-y,-z
x,-y,z
loop_
_atom_site_type_symbol
_atom_site_label
_atom_site_fract_x
_atom_site_fract_y
_atom_site_fract_z
Si Si1 0.571506 0.355971 0.994961
Si Si2 0.765891 0.000000 0.972901
Si Si3 0.365399 0.260841 0.461487
Si Si4 0.764234 0.638550 0.561981
Si Si5 0.835754 0.793985 0.259168
Si Si6 0.103523 0.639572 0.074864
Si Si7 0.683325 0.000000 0.433233
Si Si8 0.943415 0.863951 0.656187
O O1 0.578051 0.500000 0.919850
O O2 0.609499 0.335348 0.278779
O O3 0.500000 0.317732 0.000000
O O4 0.592853 0.273634 0.766083
O O5 0.811413 0.120168 0.014971
O O6 0.715154 0.000000 0.172991
O O7 0.737592 0.000000 0.677667
O O8 0.297601 0.314466 0.330139
O O9 0.361392 0.118024 0.548858
O O10 0.752622 0.500000 0.450350
O O11 0.772815 0.733694 0.335057
O O12 0.827222 0.642409 0.764147
O O13 0.875854 0.875060 0.479603
O O14 0.883255 0.682468 0.204373
O O15 0.074094 0.500000 0.069686
O O16 0.056326 0.743451 0.159330
O O17 0.000000 0.841649 0.500000
O O18 0.952317 0.000000 0.799566
#
# Coordination Sequence:
#
# PCOD8066352 Si02
#       8
#     4   2   4   4   4   4   2   4
#     4  11  25  46  71 100 134 178 231 282 332 389
#     4  12  24  40  67  95 144 182 218 275 344 406
#     4  12  24  43  68 100 137 180 224 279 334 399
#     4  10  21  37  60  93 129 163 210 268 334 399
#     4  11  22  37  62  93 125 171 210 272 336 405
#     4  10  23  40  62  91 128 168 211 275 341 412
#     4  12  26  44  63 106 140 179 222 271 328 420
#     4  10  23  42  62  88 122 166 226 280 333 398
#
# _framework density 23.255969
#
# number of rings (size 3 to 8) (size 9 to 14) (size 15 to 20)
#    0.000    1.143    2.143    3.857    5.000    2.571 
#    0.000    4.286    0.000    0.000    0.000    0.000 
#    0.000    0.000    0.000    0.000    0.000    0.000 
#
# Total GULP energy -347044.714095 kJ/mol
# GULP energy per Si atom -12394.454075 kJ/mol
# Density = 2.320304 g / cm^3
# Si number density = 23.255969 Si / 1000 Ang^3
#
#
#
# Elastic Constant Matrix: (Units=GPa)
#
#
# Indices 1 2 3 4 5 6 
#
# 1 96.6768 43.2166 16.8063 0.0000 -23.3618 0.0000
# 2 43.2166 156.2952 10.6333 0.0000 -22.6279 0.0000
# 3 16.8063 10.6333 72.1415 0.0000 -12.4322 0.0000
# 4 0.0000 0.0000 0.0000 26.7854 0.0000 -3.6335
# 5 -23.3618 -22.6279 -12.4322 0.0000 33.7520 0.0000
# 6 0.0000 0.0000 0.0000 -3.6335 0.0000 50.2300
#
#
#
# Elastic Compliance Matrix: (Units=1/GPa)
#
#
# Indices 1 2 3 4 5 6 
#
# 1 0.013470 -0.002605 -0.001547 0.000000 0.007008 0.000000
# 2 -0.002605 0.007594 0.000058 0.000000 0.003309 0.000000
# 3 -0.001547 0.000058 0.014987 0.000000 0.004489 0.000000
# 4 0.000000 0.000000 0.000000 0.037704 0.000000 0.002727
# 5 0.007008 0.003309 0.004489 0.000000 0.038350 0.000000
# 6 0.000000 0.000000 0.000000 0.002727 0.000000 0.020106
#
#
# Mechanical properties :
#
#
# Convention : Reuss Voigt Hill
#
# Bulk Modulus (GPa) = 35.88883 51.82512 43.85698
# Shear Modulus (GPa) = 33.40334 39.11730 36.26032
#
# Velocity S-wave (km/s) = 3.79401 4.10571 3.95293
# Velocity P-wave (km/s) = 5.88713 6.69394 6.30346
#
# Compressibility (1/GPa) = 0.02786382
#
# Stress axis : x y z
#
# Youngs Moduli (GPa) = 74.23664 131.69030 66.72480
#
# Poissons Ratio (x) = 0.34304 0.10319
# Poissons Ratio (y) = 0.19338 -0.00386
# Poissons Ratio (z) = 0.11481 -0.00762
#
# Static dielectric constant tensor:
#      x y z
#    x 4.088760 0.000000 -0.094040 
#    y 0.000000 4.556950 0.000000 
#    z -0.094040 0.000000 3.992010 
# 
# 
# High freq. dielectric constant tensor:
#      x y z
#    x 1.915020 0.000000 -0.008720 
#    y 0.000000 1.937360 0.000000 
#    z -0.008720 0.000000 1.908420 
# 
# From -- ./inp_files/12281.got.cif
#   From: 2010.06.25/outbox.cif.g09.slc.cpg/sg10_7_cif.got.tgz:12281.got - 2010.06.27 22:07:45.
