data_PCOD8066473
_publ_section_title
;
Structure prediction by ZEFSAII (Michael W. Deem and Ramdas Pophale) SiO2 
 PCOD8066473
Probable space group: P 2/M
;
_chemical_formula_sum "Si O2"
_cell_formula_units_Z 32
_cell_length_a 26.742832
_cell_length_b 14.107910
_cell_length_c 8.537048
_cell_angle_alpha 90.000000
_cell_angle_beta 148.737437
_cell_angle_gamma 90.000000
_cell_volume 1671.522663
_symmetry_space_group_name_H-M "P 2/M"
_symmetry_group_IT_number 10
_symmetry_cell_setting 'monoclinic'
loop_
_space_group_symop_operation_xyz
x,y,z
-x,y,-z
-x,-y,-z
x,-y,z
loop_
_atom_site_type_symbol
_atom_site_label
_atom_site_fract_x
_atom_site_fract_y
_atom_site_fract_z
Si Si1 0.612453 0.396084 0.954660
Si Si2 0.609669 0.607788 0.598520
Si Si3 0.249710 0.731089 0.198014
Si Si4 0.723987 0.757359 0.379993
Si Si5 0.602268 0.107152 0.844996
Si Si6 0.911945 0.388608 0.378895
Si Si7 0.789026 0.106592 0.137183
Si Si8 0.094917 0.758048 0.356361
O O1 0.655266 0.500000 0.062016
O O2 0.503767 0.397045 0.720016
O O3 0.632031 0.352275 0.833719
O O4 0.670647 0.342475 0.242233
O O5 0.650382 0.500000 0.681864
O O6 0.647679 0.686596 0.578227
O O7 0.245739 0.772732 0.361387
O O8 0.179116 0.644558 0.966431
O O9 0.217496 0.826226 0.027768
O O10 0.817111 0.740572 0.524316
O O11 0.644945 0.833464 0.105828
O O12 0.500000 0.147212 0.500000
O O13 0.583966 0.000000 0.856116
O O14 0.683979 0.108908 0.932918
O O15 0.903947 0.500000 0.399912
O O16 0.919388 0.329600 0.561397
O O17 0.000000 0.367366 0.500000
O O18 0.876951 0.144598 0.480011
O O19 0.816060 0.000000 0.159211
O O20 0.000000 0.774269 0.000000
#
# Coordination Sequence:
#
# PCOD8066473 Si02
#       8
#     4   4   4   4   4   4   4   4
#     4   9  19  34  53  76 105 145 191 231 269 323
#     4   9  18  34  54  75 105 147 190 229 272 325
#     4  11  22  35  53  82 117 151 182 233 280 334
#     4  11  23  34  55  84 113 148 186 230 280 340
#     4   9  19  37  59  80 106 144 189 237 284 339
#     4  10  21  38  60  84 115 152 188 231 283 335
#     4   9  20  38  59  83 110 147 189 230 284 341
#     4  10  21  39  61  85 114 145 187 236 280 333
#
# _framework density 19.144223
#
# number of rings (size 3 to 8) (size 9 to 14) (size 15 to 20)
#    0.000    2.250    0.000    4.125    3.500    4.000 
#    0.000    1.250    0.000   15.000    0.000    0.000 
#    0.000    0.000    0.000    0.000    0.000    0.000 
#
# Total GULP energy -396470.573303 kJ/mol
# GULP energy per Si atom -12389.705416 kJ/mol
# Density = 1.910065 g / cm^3
# Si number density = 19.144223 Si / 1000 Ang^3
#
#
#
# Elastic Constant Matrix: (Units=GPa)
#
#
# Indices 1 2 3 4 5 6 
#
# 1 94.7726 58.1146 43.1556 0.0000 -13.6626 0.0000
# 2 58.1146 110.8607 61.4864 0.0000 1.6457 0.0000
# 3 43.1556 61.4864 119.3037 0.0000 -15.3610 0.0000
# 4 0.0000 0.0000 0.0000 19.9600 0.0000 5.5859
# 5 -13.6626 1.6457 -15.3610 0.0000 21.2260 0.0000
# 6 0.0000 0.0000 0.0000 5.5859 0.0000 17.0282
#
#
#
# Elastic Compliance Matrix: (Units=1/GPa)
#
#
# Indices 1 2 3 4 5 6 
#
# 1 0.018397 -0.009863 0.000057 0.000000 0.012648 0.000000
# 2 -0.009863 0.018725 -0.007815 0.000000 -0.013456 0.000000
# 3 0.000057 -0.007815 0.013753 0.000000 0.010596 0.000000
# 4 0.000000 0.000000 0.000000 0.055165 0.000000 -0.018096
# 5 0.012648 -0.013456 0.010596 0.000000 0.063964 0.000000
# 6 0.000000 0.000000 0.000000 -0.018096 0.000000 0.064662
#
#
# Mechanical properties :
#
#
# Convention : Reuss Voigt Hill
#
# Bulk Modulus (GPa) = 63.96911 72.27225 68.12068
# Shear Modulus (GPa) = 18.17382 22.45487 20.31434
#
# Velocity S-wave (km/s) = 3.08443 3.42852 3.26102
# Velocity P-wave (km/s) = 6.79498 7.31481 7.05968
#
# Compressibility (1/GPa) = 0.01563255
#
# Stress axis : x y z
#
# Youngs Moduli (GPa) = 54.35615 53.40409 72.70950
#
# Poissons Ratio (x) = 0.52675 -0.00415
# Poissons Ratio (y) = 0.53614 0.56824
# Poissons Ratio (z) = -0.00310 0.41736
#
# Static dielectric constant tensor:
#      x y z
#    x 3.422160 0.000000 0.046420 
#    y 0.000000 3.675600 0.000000 
#    z 0.046420 0.000000 3.661040 
# 
# 
# High freq. dielectric constant tensor:
#      x y z
#    x 1.733570 0.000000 0.008380 
#    y 0.000000 1.750280 0.000000 
#    z 0.008380 0.000000 1.743420 
# 
# From -- ./inp_files/37738.got.cif
#   From: 2010.06.25/outbox.cif.g09.slc.cpg/sg10_19_cif.got.tgz:37738.got - 2010.06.27 22:07:45.
