data_PCOD8066711
_publ_section_title
;
Structure prediction by ZEFSAII (Michael W. Deem and Ramdas Pophale) SiO2 
 PCOD8066711
Probable space group: P 2/M
;
_chemical_formula_sum "Si O2"
_cell_formula_units_Z 28
_cell_length_a 30.311456
_cell_length_b 7.874276
_cell_length_c 9.396955
_cell_angle_alpha 90.000000
_cell_angle_beta 39.192233
_cell_angle_gamma 90.000000
_cell_volume 1417.325487
_symmetry_space_group_name_H-M "P 2/M"
_symmetry_group_IT_number 10
_symmetry_cell_setting 'monoclinic'
loop_
_space_group_symop_operation_xyz
x,y,z
-x,y,-z
-x,-y,-z
x,-y,z
loop_
_atom_site_type_symbol
_atom_site_label
_atom_site_fract_x
_atom_site_fract_y
_atom_site_fract_z
Si Si1 0.331726 0.689571 0.507680
Si Si2 0.794258 0.193301 0.353309
Si Si3 0.205748 0.193300 0.324579
Si Si4 0.428255 0.000000 0.596843
Si Si5 0.079140 0.699320 0.463829
Si Si6 0.571747 0.000000 0.738122
Si Si7 0.920867 0.300680 0.859525
Si Si8 0.331730 0.310430 0.833676
O O1 0.364205 0.500000 0.409820
O O2 0.261365 0.694476 0.592261
O O3 0.386843 0.830513 0.318025
O O4 0.310871 0.726543 0.722820
O O5 0.799142 0.261437 0.502148
O O6 0.768411 0.000000 0.414314
O O7 0.870158 0.203266 0.092742
O O8 0.129851 0.203260 0.443487
O O9 0.231600 0.000000 0.256350
O O10 0.261373 0.305527 0.100898
O O11 0.500000 0.000000 0.500000
O O12 0.443405 0.000000 0.391483
O O13 0.386847 0.830511 0.747744
O O14 0.090575 0.500000 0.453027
O O15 0.095650 0.754537 0.260868
O O16 0.000004 0.749695 0.701138
O O17 0.500000 0.000000 0.000000
O O18 0.909437 0.500000 0.905880
O O19 0.364209 0.500000 0.769137
#
# Coordination Sequence:
#
# PCOD8066711 Si02
#       8
#     4   4   4   2   4   2   4   4
#     4  10  21  39  63  88 115 153 198 237 280 338
#     4  11  23  36  53  81 116 151 190 239 293 344
#     4  11  23  36  53  81 116 151 190 239 293 344
#     4  10  22  40  62  90 123 154 187 232 280 335
#     4   9  19  36  56  78 106 144 192 242 291 346
#     4  10  22  40  62  90 123 154 187 232 280 335
#     4   9  19  36  56  78 106 144 192 242 291 346
#     4  10  21  39  63  88 115 153 198 237 280 338
#
# _framework density 19.755520000000001
#
# number of rings (size 3 to 8) (size 9 to 14) (size 15 to 20)
#    0.000    2.000    1.429    2.571    0.000    9.143 
#    0.000    4.286    0.000    0.000    0.000    0.000 
#    0.000    0.000    0.000    0.000    0.000    0.000 
#
# Total GULP energy -347268.409165 kJ/mol
# GULP energy per Si atom -12402.443184 kJ/mol
# Density = 1.971056 g / cm^3
# Si number density = 19.755520 Si / 1000 Ang^3
#
#
#
# Elastic Constant Matrix: (Units=GPa)
#
#
# Indices 1 2 3 4 5 6 
#
# 1 126.4870 42.2863 54.6553 0.0000 -10.1685 0.0000
# 2 42.2863 104.7129 45.5094 0.0000 -5.6826 0.0000
# 3 54.6553 45.5094 133.6392 0.0000 -2.4289 0.0000
# 4 0.0000 0.0000 0.0000 24.7036 0.0000 -2.3812
# 5 -10.1685 -5.6826 -2.4289 0.0000 25.1489 0.0000
# 6 0.0000 0.0000 0.0000 -2.3812 0.0000 23.3500
#
#
#
# Elastic Compliance Matrix: (Units=1/GPa)
#
#
# Indices 1 2 3 4 5 6 
#
# 1 0.010488 -0.002602 -0.003343 0.000000 0.003330 0.000000
# 2 -0.002602 0.011974 -0.002989 0.000000 0.001365 0.000000
# 3 -0.003343 -0.002989 0.009848 0.000000 -0.001076 0.000000
# 4 0.000000 0.000000 0.000000 0.040882 0.000000 0.004169
# 5 0.003330 0.001365 -0.001076 0.000000 0.041314 0.000000
# 6 0.000000 0.000000 0.000000 0.004169 0.000000 0.043252
#
#
# Mechanical properties :
#
#
# Convention : Reuss Voigt Hill
#
# Bulk Modulus (GPa) = 69.23651 72.19345 70.71498
# Shear Modulus (GPa) = 27.71038 29.46637 28.58838
#
# Velocity S-wave (km/s) = 3.74928 3.86625 3.80821
# Velocity P-wave (km/s) = 7.33932 7.52019 7.43030
#
# Compressibility (1/GPa) = 0.01444325
#
# Stress axis : x y z
#
# Youngs Moduli (GPa) = 95.34817 83.51737 101.54227
#
# Poissons Ratio (x) = 0.21730 0.33943
# Poissons Ratio (y) = 0.24808 0.30347
# Poissons Ratio (z) = 0.31873 0.24960
#
# Static dielectric constant tensor:
#      x y z
#    x 3.513050 0.000000 0.071110 
#    y 0.000000 3.641820 0.000000 
#    z 0.071110 0.000000 3.472860 
# 
# 
# High freq. dielectric constant tensor:
#      x y z
#    x 1.762810 0.000000 0.002700 
#    y 0.000000 1.777510 0.000000 
#    z 0.002700 0.000000 1.761280 
# 
# From -- ./inp_files/37168.got.cif
#   From: 2010.06.25/outbox.cif.g09.slc.cpg/sg10_19_cif.got.tgz:37168.got - 2010.06.27 22:07:45.
