data_PCOD8066836
_publ_section_title
;
Structure prediction by ZEFSAII (Michael W. Deem and Ramdas Pophale) SiO2 
 PCOD8066836
Probable space group: P 2/M
;
_chemical_formula_sum "Si O2"
_cell_formula_units_Z 24
_cell_length_a 9.582578
_cell_length_b 8.349716
_cell_length_c 19.955803
_cell_angle_alpha 90.000000
_cell_angle_beta 130.313195
_cell_angle_gamma 90.000000
_cell_volume 1217.514515
_symmetry_space_group_name_H-M "P 2/M"
_symmetry_group_IT_number 10
_symmetry_cell_setting 'monoclinic'
loop_
_space_group_symop_operation_xyz
x,y,z
-x,y,-z
-x,-y,-z
x,-y,z
loop_
_atom_site_type_symbol
_atom_site_label
_atom_site_fract_x
_atom_site_fract_y
_atom_site_fract_z
Si Si1 0.402818 0.814368 0.285309
Si Si2 0.364050 0.313929 0.756324
Si Si3 0.026368 0.813347 0.359719
Si Si4 0.643599 0.813168 0.100071
Si Si5 0.032995 0.687636 0.216444
Si Si6 0.377467 0.686399 0.523556
O O1 0.483833 0.784440 0.236947
O O2 0.195159 0.751883 0.220081
O O3 0.522366 0.716824 0.375704
O O4 0.407827 0.000000 0.305740
O O5 0.384395 0.500000 0.746192
O O6 0.163855 0.254668 0.671080
O O7 0.394962 0.285032 0.844504
O O8 0.082486 0.723032 0.308970
O O9 0.185096 0.781485 0.463175
O O10 0.002995 0.000000 0.337123
O O11 0.847327 0.776769 0.136843
O O12 0.621889 0.000000 0.108985
O O13 0.500000 0.754876 0.000000
O O14 0.007260 0.500000 0.197937
O O15 0.500000 0.749784 0.500000
O O16 0.335150 0.500000 0.502367
#
# Coordination Sequence:
#
# PCOD8066836 Si02
#       6
#     4   4   4   4   4   4
#     4  12  24  39  59  85 119 156 197 243 294 344
#     4  11  23  40  61  86 120 155 192 239 295 348
#     4  11  21  36  58  84 115 155 202 243 287 340
#     4  10  21  40  66  93 119 150 190 235 285 346
#     4  11  21  36  59  87 118 154 195 237 288 345
#     4  11  22  36  57  84 117 154 201 248 288 337
#
# _framework density 19.712291
#
# number of rings (size 3 to 8) (size 9 to 14) (size 15 to 20)
#    0.000    1.000    1.667    9.000    0.000    2.667 
#    0.000    4.167    0.000    5.000    0.000    0.000 
#    0.000    0.000    0.000    0.000    0.000    0.000 
#
# Total GULP energy -297774.683474 kJ/mol
# GULP energy per Si atom -12407.278478 kJ/mol
# Density = 1.966742 g / cm^3
# Si number density = 19.712291 Si / 1000 Ang^3
#
#
#
# Elastic Constant Matrix: (Units=GPa)
#
#
# Indices 1 2 3 4 5 6 
#
# 1 117.0407 8.4570 41.4640 0.0000 12.3626 0.0000
# 2 8.4570 81.7821 7.8058 0.0000 1.7024 0.0000
# 3 41.4640 7.8058 116.3606 0.0000 18.7976 0.0000
# 4 0.0000 0.0000 0.0000 28.3063 0.0000 2.2433
# 5 12.3626 1.7024 18.7976 0.0000 20.8158 0.0000
# 6 0.0000 0.0000 0.0000 2.2433 0.0000 32.0582
#
#
#
# Elastic Compliance Matrix: (Units=1/GPa)
#
#
# Indices 1 2 3 4 5 6 
#
# 1 0.009992 -0.000681 -0.003003 0.000000 -0.003166 0.000000
# 2 -0.000681 0.012354 -0.000572 0.000000 -0.000090 0.000000
# 3 -0.003003 -0.000572 0.011014 0.000000 -0.008115 0.000000
# 4 0.000000 0.000000 0.000000 0.035525 0.000000 -0.002486
# 5 -0.003166 -0.000090 -0.008115 0.000000 0.057257 0.000000
# 6 0.000000 0.000000 0.000000 -0.002486 0.000000 0.031367
#
#
# Mechanical properties :
#
#
# Convention : Reuss Voigt Hill
#
# Bulk Modulus (GPa) = 40.24414 47.84854 44.04634
# Shear Modulus (GPa) = 28.68579 33.39983 31.04281
#
# Velocity S-wave (km/s) = 3.81888 4.12073 3.97267
# Velocity P-wave (km/s) = 6.31705 6.85323 6.59060
#
# Compressibility (1/GPa) = 0.02484834
#
# Stress axis : x y z
#
# Youngs Moduli (GPa) = 100.08378 80.94255 90.79762
#
# Poissons Ratio (x) = 0.05509 0.27269
# Poissons Ratio (y) = 0.06812 0.05191
# Poissons Ratio (z) = 0.30058 0.04628
#
# Static dielectric constant tensor:
#      x y z
#    x 3.636910 0.000000 0.226370 
#    y 0.000000 3.613650 0.000000 
#    z 0.226370 0.000000 3.450580 
# 
# 
# High freq. dielectric constant tensor:
#      x y z
#    x 1.766310 0.000000 0.017490 
#    y 0.000000 1.786000 0.000000 
#    z 0.017490 0.000000 1.751400 
# 
# From -- ./inp_files/82042.got.cif
#   From: 2010.06.25/outbox.cif.g09.slc.cpg/sg10_42_cif.got.tgz:82042.got - 2010.06.27 22:07:45.
