data_PCOD8066913
_publ_section_title
;
Structure prediction by ZEFSAII (Michael W. Deem and Ramdas Pophale) SiO2 
 PCOD8066913
Probable space group: P 2/M
;
_chemical_formula_sum "Si O2"
_cell_formula_units_Z 26
_cell_length_a 10.598125
_cell_length_b 16.173264
_cell_length_c 7.946971
_cell_angle_alpha 90.000000
_cell_angle_beta 82.684167
_cell_angle_gamma 90.000000
_cell_volume 1351.071732
_symmetry_space_group_name_H-M "P 2/M"
_symmetry_group_IT_number 10
_symmetry_cell_setting 'monoclinic'
loop_
_space_group_symop_operation_xyz
x,y,z
-x,y,-z
-x,-y,-z
x,-y,z
loop_
_atom_site_type_symbol
_atom_site_label
_atom_site_fract_x
_atom_site_fract_y
_atom_site_fract_z
Si Si1 0.944336 0.592274 0.255296
Si Si2 0.634255 0.752030 0.666900
Si Si3 0.462503 0.000000 0.743256
Si Si4 0.632517 0.824453 0.322820
Si Si5 0.296164 0.000000 0.101127
Si Si6 0.225081 0.826050 0.049035
Si Si7 0.791066 0.407496 0.613609
Si Si8 0.000000 0.277572 0.000000
O O1 0.936650 0.500000 0.179025
O O2 0.840106 0.600747 0.416143
O O3 0.910382 0.662489 0.126234
O O4 0.088503 0.610497 0.288631
O O5 0.695467 0.798769 0.492189
O O6 0.481982 0.759321 0.687583
O O7 0.672894 0.791982 0.837195
O O8 0.677057 0.656399 0.663709
O O9 0.421928 0.082251 0.648867
O O10 0.615824 0.000000 0.745842
O O11 0.394431 0.000000 0.932439
O O12 0.730478 0.816599 0.152343
O O13 0.203876 0.078651 0.103075
O O14 0.091281 0.780107 0.096044
O O15 0.738075 0.500000 0.655278
#
# Coordination Sequence:
#
# PCOD8066913 Si02
#       8
#     4   4   2   4   2   4   4   2
#     4   9  18  33  55  80 106 139 186 231 263 312
#     4  11  20  35  57  83 110 139 182 229 275 321
#     4   9  16  34  57  81 105 141 188 231 266 306
#     4  10  22  35  57  83 109 143 186 229 271 318
#     4   9  18  34  56  76 112 149 175 224 278 314
#     4  11  22  37  54  82 114 145 181 227 272 325
#     4   9  18  35  55  77 109 145 178 222 275 325
#     4  12  21  33  56  84 110 144 182 223 279 326
#
# _framework density 19.243983
#
# number of rings (size 3 to 8) (size 9 to 14) (size 15 to 20)
#    0.000    2.000    3.077    2.538    0.000    2.154 
#    0.000    1.538    0.000    3.692    0.000    5.385 
#    0.000    0.000    0.000    0.000    0.000    0.000 
#
# Total GULP energy -322255.395137 kJ/mol
# GULP energy per Si atom -12394.438274 kJ/mol
# Density = 1.920018 g / cm^3
# Si number density = 19.243983 Si / 1000 Ang^3
#
#
#
# Elastic Constant Matrix: (Units=GPa)
#
#
# Indices 1 2 3 4 5 6 
#
# 1 36.8326 30.2524 -7.2097 0.0000 -0.3677 0.0000
# 2 30.2524 144.2643 14.8122 0.0000 -3.6673 0.0000
# 3 -7.2097 14.8122 69.9540 0.0000 4.8037 0.0000
# 4 0.0000 0.0000 0.0000 15.4826 0.0000 -1.4490
# 5 -0.3677 -3.6673 4.8037 0.0000 18.4654 0.0000
# 6 0.0000 0.0000 0.0000 -1.4490 0.0000 21.0934
#
#
#
# Elastic Compliance Matrix: (Units=1/GPa)
#
#
# Indices 1 2 3 4 5 6 
#
# 1 0.034655 -0.007879 0.005396 0.000000 -0.002279 0.000000
# 2 -0.007879 0.008938 -0.002867 0.000000 0.002364 0.000000
# 3 0.005396 -0.002867 0.015772 0.000000 -0.004565 0.000000
# 4 0.000000 0.000000 0.000000 0.065007 0.000000 0.004466
# 5 -0.002279 0.002364 -0.004565 0.000000 0.055767 0.000000
# 6 0.000000 0.000000 0.000000 0.004466 0.000000 0.047715
#
#
# Mechanical properties :
#
#
# Convention : Reuss Voigt Hill
#
# Bulk Modulus (GPa) = 20.54834 36.30674 28.42754
# Shear Modulus (GPa) = 19.62514 25.22135 22.42324
#
# Velocity S-wave (km/s) = 3.19691 3.62416 3.41722
# Velocity P-wave (km/s) = 4.93233 6.03492 5.51127
#
# Compressibility (1/GPa) = 0.04866573
#
# Stress axis : x y z
#
# Youngs Moduli (GPa) = 28.85592 111.87605 63.40418
#
# Poissons Ratio (x) = 0.88149 -0.34216
# Poissons Ratio (y) = 0.22736 0.18178
# Poissons Ratio (z) = -0.15572 0.32075
#
# Static dielectric constant tensor:
#      x y z
#    x 3.060340 0.000000 0.121250 
#    y 0.000000 3.770880 0.000000 
#    z 0.121250 0.000000 3.608390 
# 
# 
# High freq. dielectric constant tensor:
#      x y z
#    x 1.704750 0.000000 0.008710 
#    y 0.000000 1.761860 0.000000 
#    z 0.008710 0.000000 1.753770 
# 
# From -- ./inp_files/24658.got.cif
#   From: 2010.06.25/outbox.cif.g09.slc.cpg/sg10_13_cif.got.tgz:24658.got - 2010.06.27 22:07:45.
