data_PCOD8066464
_publ_section_title
;
Structure prediction by ZEFSAII (Michael W. Deem and Ramdas Pophale) SiO2 
 PCOD8066464
Probable space group: P 2/M
;
_chemical_formula_sum "Si O2"
_cell_formula_units_Z 28
_cell_length_a 11.535296
_cell_length_b 7.859405
_cell_length_c 14.965063
_cell_angle_alpha 90.000000
_cell_angle_beta 75.140091
_cell_angle_gamma 90.000000
_cell_volume 1311.365870
_symmetry_space_group_name_H-M "P 2/M"
_symmetry_group_IT_number 10
_symmetry_cell_setting 'monoclinic'
loop_
_space_group_symop_operation_xyz
x,y,z
-x,y,-z
-x,-y,-z
x,-y,z
loop_
_atom_site_type_symbol
_atom_site_label
_atom_site_fract_x
_atom_site_fract_y
_atom_site_fract_z
Si Si1 0.015589 0.312590 0.806833
Si Si2 0.749948 0.804914 0.170040
Si Si3 0.416327 0.307492 0.090543
Si Si4 0.195390 0.807438 0.040074
Si Si5 0.390010 0.806165 0.458705
Si Si6 0.796368 0.500000 0.516853
Si Si7 0.965984 0.500000 0.648978
Si Si8 0.506358 0.694030 0.738802
O O1 0.030184 0.500000 0.846617
O O2 0.144878 0.222291 0.778526
O O3 0.935511 0.203484 0.890833
O O4 0.964499 0.332375 0.714823
O O5 0.637264 0.695481 0.224250
O O6 0.710427 0.000000 0.175787
O O7 0.798037 0.742788 0.063292
O O8 0.462470 0.500000 0.092755
O O9 0.279347 0.305632 0.086911
O O10 0.435073 0.223739 0.183483
O O11 0.500000 0.214589 0.000000
O O12 0.240926 0.000000 0.035300
O O13 0.500000 0.748511 0.500000
O O14 0.281041 0.670672 0.486891
O O15 0.444319 0.811071 0.349144
O O16 0.346408 0.000000 0.490488
O O17 0.848976 0.500000 0.608321
O O18 0.909756 0.500000 0.429234
O O19 0.548162 0.500000 0.712118
#
# Coordination Sequence:
#
# PCOD8066464 Si02
#       8
#     4   4   4   4   4   2   2   4
#     4  10  23  40  62  87 117 155 221 264 310 376
#     4  11  23  38  57  88 132 174 215 264 321 382
#     4  10  21  38  59  88 125 168 219 262 310 383
#     4  11  23  37  57  87 129 173 213 262 319 374
#     4  11  26  44  71 108 138 172 217 271 342 411
#     4  11  23  52  76  93 138 171 210 285 336 411
#     4   9  26  46  71  97 119 165 225 270 340 396
#     4  11  23  39  64  95 129 173 216 266 329 394
#
# _framework density 21.351786000000001
#
# number of rings (size 3 to 8) (size 9 to 14) (size 15 to 20)
#    0.429    1.000    2.143    2.357    4.000    4.857 
#    0.000    2.857    0.000    0.000    0.000    0.000 
#    0.000    0.000    0.000    0.000    0.000    0.000 
#
# Total GULP energy -347100.687374 kJ/mol
# GULP energy per Si atom -12396.453121 kJ/mol
# Density = 2.130319 g / cm^3
# Si number density = 21.351786 Si / 1000 Ang^3
#
#
#
# Elastic Constant Matrix: (Units=GPa)
#
#
# Indices 1 2 3 4 5 6 
#
# 1 106.0172 28.1754 11.2927 0.0000 8.4452 0.0000
# 2 28.1754 76.4710 17.3901 0.0000 2.0179 0.0000
# 3 11.2927 17.3901 82.5437 0.0000 5.0322 0.0000
# 4 0.0000 0.0000 0.0000 19.6617 0.0000 -17.4243
# 5 8.4452 2.0179 5.0322 0.0000 34.8797 0.0000
# 6 0.0000 0.0000 0.0000 -17.4243 0.0000 -34.2485
#
#
#
# Elastic Compliance Matrix: (Units=1/GPa)
#
#
# Indices 1 2 3 4 5 6 
#
# 1 0.010668 -0.003750 -0.000530 0.000000 -0.002290 0.000000
# 2 -0.003750 0.015058 -0.002685 0.000000 0.000424 0.000000
# 3 -0.000530 -0.002685 0.012849 0.000000 -0.001570 0.000000
# 4 0.000000 0.000000 0.000000 0.035055 0.000000 -0.017835
# 5 -0.002290 0.000424 -0.001570 0.000000 0.029426 0.000000
# 6 0.000000 0.000000 0.000000 -0.017835 0.000000 -0.020125
#
#
# Mechanical properties :
#
#
# Convention : Reuss Voigt Hill
#
# Bulk Modulus (GPa) = 40.57637 42.08315 41.32976
# Shear Modulus (GPa) = 47.58494 17.93684 32.76089
#
# Velocity S-wave (km/s) = 4.72594 2.90153 3.92131
# Velocity P-wave (km/s) = 6.98744 5.56573 6.31671
#
# Compressibility (1/GPa) = 0.02464489
#
# Stress axis : x y z
#
# Youngs Moduli (GPa) = 93.74047 66.41076 77.82877
#
# Poissons Ratio (x) = 0.24901 0.04124
# Poissons Ratio (y) = 0.35149 0.20899
# Poissons Ratio (z) = 0.04967 0.17833
#
# Static dielectric constant tensor:
#      x y z
#    x 3.746780 0.000000 0.159640 
#    y 0.000000 3.612630 0.000000 
#    z 0.159640 0.000000 3.897130 
# 
# 
# High freq. dielectric constant tensor:
#      x y z
#    x 1.838800 0.000000 0.004320 
#    y 0.000000 1.823130 0.000000 
#    z 0.004320 0.000000 1.838880 
# 
# From -- ./inp_files/63414.got.cif
#   From: 2010.06.25/outbox.cif.g09.slc.cpg/sg10_32_cif.got.tgz:63414.got - 2010.06.27 22:07:45.
