data_PCOD8066436
_publ_section_title
;
Structure prediction by ZEFSAII (Michael W. Deem and Ramdas Pophale) SiO2 
 PCOD8066436
Probable space group: P 2/M
;
_chemical_formula_sum "Si O2"
_cell_formula_units_Z 32
_cell_length_a 9.772841
_cell_length_b 13.654156
_cell_length_c 28.161325
_cell_angle_alpha 90.000000
_cell_angle_beta 25.427100
_cell_angle_gamma 90.000000
_cell_volume 1613.476841
_symmetry_space_group_name_H-M "P 2/M"
_symmetry_group_IT_number 10
_symmetry_cell_setting 'monoclinic'
loop_
_space_group_symop_operation_xyz
x,y,z
-x,y,-z
-x,-y,-z
x,-y,z
loop_
_atom_site_type_symbol
_atom_site_label
_atom_site_fract_x
_atom_site_fract_y
_atom_site_fract_z
Si Si1 0.132850 0.611543 0.608582
Si Si2 0.678740 0.112171 0.624034
Si Si3 0.918277 0.725872 0.974031
Si Si4 0.207787 0.611105 0.479684
Si Si5 0.763466 0.227591 0.780718
Si Si6 0.461055 0.887273 0.795496
Si Si7 0.230145 0.749323 0.712900
Si Si8 0.131165 0.609405 0.103988
O O1 0.500000 0.647342 0.500000
O O2 0.107005 0.500000 0.635240
O O3 0.021816 0.618108 0.588064
O O4 0.878452 0.674281 0.717774
O O5 0.676836 0.127212 0.681092
O O6 0.370657 0.165109 0.700513
O O7 0.000000 0.156724 0.500000
O O8 0.648007 0.000000 0.618704
O O9 0.550878 0.756545 0.089343
O O10 0.962429 0.645859 0.919316
O O11 0.000000 0.679242 0.000000
O O12 0.145364 0.820089 0.894041
O O13 0.321238 0.500000 0.434595
O O14 0.508529 0.680069 0.392380
O O15 0.000000 0.647973 0.500000
O O16 0.698549 0.141059 0.763732
O O17 0.036705 0.196493 0.731821
O O18 0.350212 0.000000 0.835474
O O19 0.010589 0.681424 0.813262
O O20 0.987306 0.500000 0.153729
O O21 0.500000 0.606873 0.000000
#
# Coordination Sequence:
#
# PCOD8066436 Si02
#       8
#     4   4   4   4   4   4   4   4
#     4  10  21  38  58  87 129 169 210 251 305 370
#     4  10  23  42  66  93 122 159 200 252 320 378
#     4  10  22  42  63  92 126 163 209 259 308 368
#     4  10  22  37  57  87 121 163 210 254 301 362
#     4  11  24  36  62  94 123 162 213 257 307 367
#     4  10  23  45  69  91 123 162 204 259 323 380
#     4  12  22  38  63  89 128 160 206 258 301 367
#     4  11  23  39  62  92 129 169 207 248 307 366
#
# _framework density 19.832947999999998
#
# number of rings (size 3 to 8) (size 9 to 14) (size 15 to 20)
#    0.000    1.500    3.750    0.750    3.500    4.000 
#    0.000    3.125    0.000    4.875    0.000    0.000 
#    0.000    0.000    0.000    0.000    0.000    0.000 
#
# Total GULP energy -396758.118100 kJ/mol
# GULP energy per Si atom -12398.691191 kJ/mol
# Density = 1.978781 g / cm^3
# Si number density = 19.832948 Si / 1000 Ang^3
#
#
#
# Elastic Constant Matrix: (Units=GPa)
#
#
# Indices 1 2 3 4 5 6 
#
# 1 136.3129 51.1406 34.3710 0.0000 -2.3860 0.0000
# 2 51.1406 86.8246 43.8810 0.0000 -2.3244 0.0000
# 3 34.3710 43.8810 94.7768 0.0000 2.4920 0.0000
# 4 0.0000 0.0000 0.0000 31.5044 0.0000 0.4672
# 5 -2.3860 -2.3244 2.4920 0.0000 32.1040 0.0000
# 6 0.0000 0.0000 0.0000 0.4672 0.0000 47.6718
#
#
#
# Elastic Compliance Matrix: (Units=1/GPa)
#
#
# Indices 1 2 3 4 5 6 
#
# 1 0.009513 -0.005016 -0.001139 0.000000 0.000432 0.000000
# 2 -0.005016 0.017766 -0.006444 0.000000 0.001414 0.000000
# 3 -0.001139 -0.006444 0.013991 0.000000 -0.001637 0.000000
# 4 0.000000 0.000000 0.000000 0.031746 0.000000 -0.000311
# 5 0.000432 0.001414 -0.001637 0.000000 0.031410 0.000000
# 6 0.000000 0.000000 0.000000 -0.000311 0.000000 0.020980
#
#
# Mechanical properties :
#
#
# Convention : Reuss Voigt Hill
#
# Bulk Modulus (GPa) = 62.21809 64.07770 63.14790
# Shear Modulus (GPa) = 32.05937 34.82417 33.44177
#
# Velocity S-wave (km/s) = 4.02490 4.19486 4.11076
# Velocity P-wave (km/s) = 7.28278 7.47271 7.37836
#
# Compressibility (1/GPa) = 0.01607250
#
# Stress axis : x y z
#
# Youngs Moduli (GPa) = 105.12382 56.28581 71.47648
#
# Poissons Ratio (x) = 0.28232 0.08140
# Poissons Ratio (y) = 0.52729 0.46059
# Poissons Ratio (z) = 0.11972 0.36270
#
# Static dielectric constant tensor:
#      x y z
#    x 3.818760 0.000000 0.054900 
#    y 0.000000 3.541790 0.000000 
#    z 0.054900 0.000000 4.031650 
# 
# 
# High freq. dielectric constant tensor:
#      x y z
#    x 1.787170 0.000000 0.008810 
#    y 0.000000 1.763900 0.000000 
#    z 0.008810 0.000000 1.773270 
# 
# From -- ./inp_files/92361.got.cif
#   From: 2010.06.25/outbox.cif.g09.slc.cpg/sg10_47_cif.got.tgz:92361.got - 2010.06.27 22:07:45.
