data_PCOD8066123
_publ_section_title
;
Structure prediction by ZEFSAII (Michael W. Deem and Ramdas Pophale) SiO2 
 PCOD8066123
Probable space group: P 2/M
;
_chemical_formula_sum "Si O2"
_cell_formula_units_Z 28
_cell_length_a 14.562990
_cell_length_b 11.512793
_cell_length_c 9.658613
_cell_angle_alpha 90.000000
_cell_angle_beta 122.483575
_cell_angle_gamma 90.000000
_cell_volume 1366.011936
_symmetry_space_group_name_H-M "P 2/M"
_symmetry_group_IT_number 10
_symmetry_cell_setting 'monoclinic'
loop_
_space_group_symop_operation_xyz
x,y,z
-x,y,-z
-x,-y,-z
x,-y,z
loop_
_atom_site_type_symbol
_atom_site_label
_atom_site_fract_x
_atom_site_fract_y
_atom_site_fract_z
Si Si1 0.733824 0.239929 0.787923
Si Si2 0.527639 0.635496 0.674556
Si Si3 0.462493 0.000000 0.814174
Si Si4 0.803889 0.367575 0.308754
Si Si5 0.388199 0.000000 0.315072
Si Si6 0.407212 0.243993 0.810816
Si Si7 0.094458 0.366350 0.897492
Si Si8 0.849838 0.367473 0.653595
O O1 0.642542 0.306501 0.803821
O O2 0.693472 0.108497 0.730848
O O3 0.757075 0.291005 0.653489
O O4 0.842263 0.266039 0.966234
O O5 0.500000 0.684079 0.500000
O O6 0.543405 0.500000 0.687599
O O7 0.435265 0.668620 0.709097
O O8 0.391743 0.884034 0.730510
O O9 0.570690 0.000000 0.808603
O O10 0.500000 0.000000 0.000000
O O11 0.762538 0.500000 0.277475
O O12 0.701243 0.284416 0.201135
O O13 0.887815 0.347814 0.252328
O O14 0.859431 0.334099 0.499706
O O15 0.500000 0.000000 0.500000
O O16 0.500000 0.243402 0.000000
O O17 0.127772 0.500000 0.966790
O O18 0.966347 0.348012 0.821161
O O19 0.812085 0.500000 0.639899
#
# Coordination Sequence:
#
# PCOD8066123 Si02
#       8
#     4   4   2   4   2   4   4   4
#     4  12  23  39  61  87 117 159 206 249 302 367
#     4  11  22  35  54  84 121 154 190 243 299 361
#     4  10  24  42  62  83 116 160 204 249 298 348
#     4  10  21  36  59  91 126 163 198 243 307 367
#     4  12  28  46  63  89 123 166 208 255 303 362
#     4  11  22  37  57  85 120 156 206 248 298 362
#     4  10  21  39  64  93 124 158 201 254 309 366
#     4  10  21  39  63  92 125 160 202 252 307 365
#
# _framework density 20.497623999999998
#
# number of rings (size 3 to 8) (size 9 to 14) (size 15 to 20)
#    0.000    1.286    1.429    4.714    4.000    7.429 
#    0.000    1.429    0.000    0.000    0.000    3.000 
#    0.000    0.000    0.000    0.000    0.000    0.000 
#
# Total GULP energy -347107.977246 kJ/mol
# GULP energy per Si atom -12396.713473 kJ/mol
# Density = 2.045097 g / cm^3
# Si number density = 20.497624 Si / 1000 Ang^3
#
#
#
# Elastic Constant Matrix: (Units=GPa)
#
#
# Indices 1 2 3 4 5 6 
#
# 1 75.3890 41.4755 4.8056 0.0000 -4.4568 0.0000
# 2 41.4755 112.0436 37.3747 0.0000 7.4915 0.0000
# 3 4.8056 37.3747 78.4611 0.0000 -0.8515 0.0000
# 4 0.0000 0.0000 0.0000 17.3478 0.0000 -0.8593
# 5 -4.4568 7.4915 -0.8515 0.0000 38.0800 0.0000
# 6 0.0000 0.0000 0.0000 -0.8593 0.0000 15.1094
#
#
#
# Elastic Compliance Matrix: (Units=1/GPa)
#
#
# Indices 1 2 3 4 5 6 
#
# 1 0.017476 -0.007568 0.002574 0.000000 0.003592 0.000000
# 2 -0.007568 0.014076 -0.006283 0.000000 -0.003795 0.000000
# 3 0.002574 -0.006283 0.015601 0.000000 0.001886 0.000000
# 4 0.000000 0.000000 0.000000 0.057807 0.000000 0.003288
# 5 0.003592 -0.003795 0.001886 0.000000 0.027470 0.000000
# 6 0.000000 0.000000 0.000000 0.003288 0.000000 0.066371
#
#
# Mechanical properties :
#
#
# Convention : Reuss Voigt Hill
#
# Bulk Modulus (GPa) = 40.65216 48.13393 44.39304
# Shear Modulus (GPa) = 21.78131 26.25663 24.01897
#
# Velocity S-wave (km/s) = 3.26333 3.58293 3.42686
# Velocity P-wave (km/s) = 5.83736 6.37575 6.11249
#
# Compressibility (1/GPa) = 0.02459894
#
# Stress axis : x y z
#
# Youngs Moduli (GPa) = 57.22030 71.04272 64.09930
#
# Poissons Ratio (x) = 0.53764 -0.16496
# Poissons Ratio (y) = 0.43304 0.40272
# Poissons Ratio (z) = -0.14726 0.44634
#
# Static dielectric constant tensor:
#      x y z
#    x 3.784110 0.000000 -0.117230 
#    y 0.000000 3.961500 0.000000 
#    z -0.117230 0.000000 3.766920 
# 
# 
# High freq. dielectric constant tensor:
#      x y z
#    x 1.808310 0.000000 -0.016790 
#    y 0.000000 1.779360 0.000000 
#    z -0.016790 0.000000 1.807710 
# 
# From -- ./inp_files/28715.got.cif
#   From: 2010.06.25/outbox.cif.g09.slc.cpg/sg10_15_cif.got.tgz:28715.got - 2010.06.27 22:07:45.
