data_PCOD8066623
_publ_section_title
;
Structure prediction by ZEFSAII (Michael W. Deem and Ramdas Pophale) SiO2 
 PCOD8066623
Probable space group: P 2/M
;
_chemical_formula_sum "Si O2"
_cell_formula_units_Z 26
_cell_length_a 23.344486
_cell_length_b 9.715554
_cell_length_c 9.343222
_cell_angle_alpha 90.000000
_cell_angle_beta 142.372577
_cell_angle_gamma 90.000000
_cell_volume 1293.753415
_symmetry_space_group_name_H-M "P 2/M"
_symmetry_group_IT_number 10
_symmetry_cell_setting 'monoclinic'
loop_
_space_group_symop_operation_xyz
x,y,z
-x,y,-z
-x,-y,-z
x,-y,z
loop_
_atom_site_type_symbol
_atom_site_label
_atom_site_fract_x
_atom_site_fract_y
_atom_site_fract_z
Si Si1 0.986116 0.656762 0.637176
Si Si2 0.139424 0.836286 0.419908
Si Si3 0.145037 0.656743 0.172236
Si Si4 0.653298 0.158335 0.093405
Si Si5 0.500000 0.731883 0.000000
Si Si6 0.350151 0.652240 0.480971
Si Si7 0.609124 0.152175 0.701305
O O1 0.948968 0.500000 0.585453
O O2 0.000000 0.691528 0.500000
O O3 0.911944 0.768207 0.546983
O O4 0.086604 0.675790 0.911575
O O5 0.101351 0.761886 0.201667
O O6 0.249115 0.796430 0.643776
O O7 0.121054 0.000000 0.378350
O O8 0.136251 0.500000 0.212692
O O9 0.252689 0.697120 0.359327
O O10 0.655023 0.000000 0.058233
O O11 0.566890 0.179519 0.029832
O O12 0.643386 0.227947 0.916178
O O13 0.567647 0.644595 0.237149
O O14 0.340790 0.500000 0.396248
O O15 0.369078 0.756440 0.391892
O O16 0.500000 0.133234 0.500000
O O17 0.654504 0.000000 0.766735
#
# Coordination Sequence:
#
# PCOD8066623 Si02
#       7
#     4   4   4   4   2   4   4
#     4  10  23  43  66  89 119 161 205 245 299 367
#     4  11  23  40  63  94 124 154 200 254 305 353
#     4  10  22  42  63  87 121 159 201 245 297 363
#     4  10  22  38  60  90 122 160 204 247 297 359
#     4  12  20  40  62  86 125 166 199 246 293 362
#     4  11  24  39  59  91 122 155 200 252 300 348
#     4  10  21  39  59  82 116 162 205 244 296 361
#
# _framework density 20.096567
#
# number of rings (size 3 to 8) (size 9 to 14) (size 15 to 20)
#    0.000    1.538    3.077    1.385    2.154    4.308 
#    0.000    0.769    0.000    0.000    0.000    0.000 
#    0.000    0.000    0.000    0.000    0.000    0.000 
#
# Total GULP energy -322297.179698 kJ/mol
# GULP energy per Si atom -12396.045373 kJ/mol
# Density = 2.005083 g / cm^3
# Si number density = 20.096567 Si / 1000 Ang^3
#
#
#
# Elastic Constant Matrix: (Units=GPa)
#
#
# Indices 1 2 3 4 5 6 
#
# 1 130.0996 71.7887 57.8825 0.0000 -13.4204 0.0000
# 2 71.7887 100.8290 45.3549 0.0000 -13.1206 0.0000
# 3 57.8825 45.3549 105.6627 0.0000 -13.9803 0.0000
# 4 0.0000 0.0000 0.0000 23.9618 0.0000 -5.8668
# 5 -13.4204 -13.1206 -13.9803 0.0000 42.9481 0.0000
# 6 0.0000 0.0000 0.0000 -5.8668 0.0000 51.7707
#
#
#
# Elastic Compliance Matrix: (Units=1/GPa)
#
#
# Indices 1 2 3 4 5 6 
#
# 1 0.014037 -0.008049 -0.004159 0.000000 0.000574 0.000000
# 2 -0.008049 0.017095 -0.002686 0.000000 0.001833 0.000000
# 3 -0.004159 -0.002686 0.013183 0.000000 0.002171 0.000000
# 4 0.000000 0.000000 0.000000 0.042924 0.000000 0.004864
# 5 0.000574 0.001833 0.002171 0.000000 0.024730 0.000000
# 6 0.000000 0.000000 0.000000 0.004864 0.000000 0.019867
#
#
# Mechanical properties :
#
#
# Convention : Reuss Voigt Hill
#
# Bulk Modulus (GPa) = 68.83665 76.29374 72.56519
# Shear Modulus (GPa) = 30.03600 34.50714 32.27157
#
# Velocity S-wave (km/s) = 3.87018 4.14825 4.01162
# Velocity P-wave (km/s) = 7.36874 7.80960 7.59237
#
# Compressibility (1/GPa) = 0.01452714
#
# Stress axis : x y z
#
# Youngs Moduli (GPa) = 71.23875 58.49532 75.85749
#
# Poissons Ratio (x) = 0.47083 0.31548
# Poissons Ratio (y) = 0.57340 0.20377
# Poissons Ratio (z) = 0.29627 0.15713
#
# Static dielectric constant tensor:
#      x y z
#    x 3.390740 0.000000 0.036420 
#    y 0.000000 3.559290 0.000000 
#    z 0.036420 0.000000 3.928600 
# 
# 
# High freq. dielectric constant tensor:
#      x y z
#    x 1.785180 0.000000 -0.003520 
#    y 0.000000 1.772180 0.000000 
#    z -0.003520 0.000000 1.799810 
# 
# From -- ./inp_files/34281.got.cif
#   From: 2010.06.25/outbox.cif.g09.slc.cpg/sg10_18_cif.got.tgz:34281.got - 2010.06.27 22:07:45.
