data_PCOD8066209
_publ_section_title
;
Structure prediction by ZEFSAII (Michael W. Deem and Ramdas Pophale) SiO2 
 PCOD8066209
Probable space group: P 2/M
;
_chemical_formula_sum "Si O2"
_cell_formula_units_Z 32
_cell_length_a 25.400926
_cell_length_b 13.417982
_cell_length_c 10.215176
_cell_angle_alpha 90.000000
_cell_angle_beta 152.690537
_cell_angle_gamma 90.000000
_cell_volume 1597.358977
_symmetry_space_group_name_H-M "P 2/M"
_symmetry_group_IT_number 10
_symmetry_cell_setting 'monoclinic'
loop_
_space_group_symop_operation_xyz
x,y,z
-x,y,-z
-x,-y,-z
x,-y,z
loop_
_atom_site_type_symbol
_atom_site_label
_atom_site_fract_x
_atom_site_fract_y
_atom_site_fract_z
Si Si1 0.790366 0.775664 0.759858
Si Si2 0.235064 0.794911 0.783926
Si Si3 0.675361 0.385287 0.160938
Si Si4 0.886094 0.388220 0.825319
Si Si5 0.866635 0.888512 0.678958
Si Si6 0.135034 0.885413 0.815570
Si Si7 0.535219 0.744294 0.218633
Si Si8 0.532426 0.113160 0.712090
O O1 0.879735 0.684773 0.936231
O O2 0.791426 0.842858 0.630795
O O3 0.669642 0.717705 0.512444
O O4 0.828252 0.845107 0.962593
O O5 0.284048 0.682238 0.873103
O O6 0.140797 0.819747 0.466497
O O7 0.189587 0.811327 0.829389
O O8 0.332851 0.875708 0.968833
O O9 0.663151 0.500000 0.088329
O O10 0.770994 0.375319 0.484682
O O11 0.550046 0.347589 0.933952
O O12 0.898723 0.500000 0.905801
O O13 0.000000 0.356650 0.000000
O O14 0.820771 0.000000 0.552156
O O15 0.000000 0.890966 0.000000
O O16 0.000000 0.881887 0.500000
O O17 0.178305 0.000000 0.894942
O O18 0.534113 0.832037 0.320717
O O19 0.500000 0.787515 0.000000
O O20 0.500000 0.161053 0.500000
O O21 0.491334 0.000000 0.626455
#
# Coordination Sequence:
#
# PCOD8066209 Si02
#       8
#     4   4   4   4   4   4   4   4
#     4  12  22  38  61  91 131 162 206 254 319 365
#     4  11  21  39  61  86 116 157 207 253 297 359
#     4  10  22  41  65  91 121 161 209 260 314 373
#     4  10  21  38  64  94 121 157 209 261 316 373
#     4  11  22  36  59  88 121 162 209 255 304 366
#     4  11  25  41  61  91 130 172 208 249 308 375
#     4  11  22  37  57  92 123 158 200 254 311 372
#     4  10  21  37  57  79 112 161 206 243 291 356
#
# _framework density 20.033068
#
# number of rings (size 3 to 8) (size 9 to 14) (size 15 to 20)
#    0.000    1.250    2.500    4.125    1.750    5.000 
#    0.000    0.625    0.000   13.500    0.000    0.000 
#    0.000    0.000    0.000    0.000    0.000    0.000 
#
# Total GULP energy -396674.609323 kJ/mol
# GULP energy per Si atom -12396.081541 kJ/mol
# Density = 1.998747 g / cm^3
# Si number density = 20.033068 Si / 1000 Ang^3
#
#
#
# Elastic Constant Matrix: (Units=GPa)
#
#
# Indices 1 2 3 4 5 6 
#
# 1 123.8528 72.7284 28.2348 0.0000 -4.2795 0.0000
# 2 72.7284 137.3751 34.3154 0.0000 -1.3550 0.0000
# 3 28.2348 34.3154 73.2984 0.0000 6.2540 0.0000
# 4 0.0000 0.0000 0.0000 21.8986 0.0000 0.7643
# 5 -4.2795 -1.3550 6.2540 0.0000 42.7703 0.0000
# 6 0.0000 0.0000 0.0000 0.7643 0.0000 23.3088
#
#
#
# Elastic Compliance Matrix: (Units=1/GPa)
#
#
# Indices 1 2 3 4 5 6 
#
# 1 0.012007 -0.005844 -0.002001 0.000000 0.001309 0.000000
# 2 -0.005844 0.011117 -0.002971 0.000000 0.000202 0.000000
# 3 -0.002001 -0.002971 0.016030 0.000000 -0.002638 0.000000
# 4 0.000000 0.000000 0.000000 0.045717 0.000000 -0.001499
# 5 0.001309 0.000202 -0.002638 0.000000 0.023904 0.000000
# 6 0.000000 0.000000 0.000000 -0.001499 0.000000 0.042952
#
#
# Mechanical properties :
#
#
# Convention : Reuss Voigt Hill
#
# Bulk Modulus (GPa) = 57.06936 67.23151 62.15043
# Shear Modulus (GPa) = 27.90192 30.87870 29.39031
#
# Velocity S-wave (km/s) = 3.73606 3.93031 3.83442
# Velocity P-wave (km/s) = 6.86734 7.36407 7.12004
#
# Compressibility (1/GPa) = 0.01752254
#
# Stress axis : x y z
#
# Youngs Moduli (GPa) = 83.28330 89.94949 62.38489
#
# Poissons Ratio (x) = 0.52567 0.12483
# Poissons Ratio (y) = 0.48671 0.18533
# Poissons Ratio (z) = 0.16664 0.26722
#
# Static dielectric constant tensor:
#      x y z
#    x 3.813030 0.000000 0.088950 
#    y 0.000000 3.784180 0.000000 
#    z 0.088950 0.000000 3.692290 
# 
# 
# High freq. dielectric constant tensor:
#      x y z
#    x 1.783800 0.000000 0.014670 
#    y 0.000000 1.777210 0.000000 
#    z 0.014670 0.000000 1.783690 
# 
# From -- ./inp_files/36413.got.cif
#   From: 2010.06.25/outbox.cif.g09.slc.cpg/sg10_19_cif.got.tgz:36413.got - 2010.06.27 22:07:45.
