data_PCOD8066346
_publ_section_title
;
Structure prediction by ZEFSAII (Michael W. Deem and Ramdas Pophale) SiO2 
 PCOD8066346
Probable space group: P 2/M
;
_chemical_formula_sum "Si O2"
_cell_formula_units_Z 28
_cell_length_a 27.154959
_cell_length_b 8.864013
_cell_length_c 9.265477
_cell_angle_alpha 90.000000
_cell_angle_beta 141.303541
_cell_angle_gamma 90.000000
_cell_volume 1394.319860
_symmetry_space_group_name_H-M "P 2/M"
_symmetry_group_IT_number 10
_symmetry_cell_setting 'monoclinic'
loop_
_space_group_symop_operation_xyz
x,y,z
-x,y,-z
-x,-y,-z
x,-y,z
loop_
_atom_site_type_symbol
_atom_site_label
_atom_site_fract_x
_atom_site_fract_y
_atom_site_fract_z
Si Si1 0.346975 0.825579 0.799722
Si Si2 0.206274 0.820973 0.671194
Si Si3 0.636732 0.677733 0.469115
Si Si4 0.224406 0.822594 0.036073
Si Si5 0.500360 0.826502 0.335255
Si Si6 0.067799 0.671436 0.770740
Si Si7 0.969780 0.167866 0.771405
O O1 0.266660 0.760441 0.687703
O O2 0.368411 0.733870 0.706564
O O3 0.337816 0.000000 0.734366
O O4 0.413869 0.805195 0.072956
O O5 0.118303 0.761945 0.436372
O O6 0.208034 0.000000 0.670715
O O7 0.233689 0.765879 0.892338
O O8 0.641088 0.500000 0.476803
O O9 0.713837 0.739837 0.722190
O O10 0.559694 0.727076 0.378766
O O11 0.238261 0.000000 0.080916
O O12 0.137721 0.783802 0.892580
O O13 0.500000 0.770871 0.500000
O O14 0.528391 0.000000 0.391244
O O15 0.098858 0.500000 0.850585
O O16 0.000000 0.691215 0.500000
O O17 0.030763 0.719548 0.837179
O O18 0.969528 0.000000 0.698642
O O19 0.000000 0.152156 0.000000
#
# Coordination Sequence:
#
# PCOD8066346 Si02
#       7
#     4   4   4   4   4   4   4
#     4  10  21  39  64  92 123 160 203 250 299 355
#     4   9  19  37  61  90 118 151 203 259 303 349
#     4  12  26  41  59  91 130 163 199 244 306 369
#     4  11  22  40  66  89 116 157 210 260 303 355
#     4  10  21  41  69  96 122 157 206 253 297 352
#     4  11  23  39  59  88 126 163 200 248 309 366
#     4  10  21  37  60  90 120 157 208 256 302 356
#
# _framework density 20.081475999999999
#
# number of rings (size 3 to 8) (size 9 to 14) (size 15 to 20)
#    0.000    1.571    1.429    3.429    2.000    5.714 
#    0.000    3.571    0.000    0.000    0.000    0.000 
#    0.000    0.000    0.000    0.000    0.000    0.000 
#
# Total GULP energy -347279.841804 kJ/mol
# GULP energy per Si atom -12402.851493 kJ/mol
# Density = 2.003577 g / cm^3
# Si number density = 20.081476 Si / 1000 Ang^3
#
#
#
# Elastic Constant Matrix: (Units=GPa)
#
#
# Indices 1 2 3 4 5 6 
#
# 1 147.4975 45.6386 45.6159 0.0000 -2.8857 0.0000
# 2 45.6386 79.4313 38.5912 0.0000 -2.2716 0.0000
# 3 45.6159 38.5912 84.9795 0.0000 -11.2964 0.0000
# 4 0.0000 0.0000 0.0000 17.0529 0.0000 3.0929
# 5 -2.8857 -2.2716 -11.2964 0.0000 33.4922 0.0000
# 6 0.0000 0.0000 0.0000 3.0929 0.0000 18.0743
#
#
#
# Elastic Compliance Matrix: (Units=1/GPa)
#
#
# Indices 1 2 3 4 5 6 
#
# 1 0.008861 -0.003542 -0.003223 0.000000 -0.000564 0.000000
# 2 -0.003542 0.017636 -0.006270 0.000000 -0.001224 0.000000
# 3 -0.003223 -0.006270 0.017015 0.000000 0.005036 0.000000
# 4 0.000000 0.000000 0.000000 0.060519 0.000000 -0.010356
# 5 -0.000564 -0.001224 0.005036 0.000000 0.031425 0.000000
# 6 0.000000 0.000000 0.000000 -0.010356 0.000000 0.057099
#
#
# Mechanical properties :
#
#
# Convention : Reuss Voigt Hill
#
# Bulk Modulus (GPa) = 57.33531 63.51106 60.42318
# Shear Modulus (GPa) = 22.27764 25.86137 24.06951
#
# Velocity S-wave (km/s) = 3.33432 3.59252 3.46583
# Velocity P-wave (km/s) = 6.59067 6.99311 6.79487
#
# Compressibility (1/GPa) = 0.01744126
#
# Stress axis : x y z
#
# Youngs Moduli (GPa) = 112.84841 56.70268 58.77242
#
# Poissons Ratio (x) = 0.20082 0.18944
# Poissons Ratio (y) = 0.39966 0.36853
# Poissons Ratio (z) = 0.36375 0.35555
#
# Static dielectric constant tensor:
#      x y z
#    x 3.843680 0.000000 0.133190 
#    y 0.000000 3.528090 0.000000 
#    z 0.133190 0.000000 3.919210 
# 
# 
# High freq. dielectric constant tensor:
#      x y z
#    x 1.796660 0.000000 0.001560 
#    y 0.000000 1.761860 0.000000 
#    z 0.001560 0.000000 1.796950 
# 
# From -- ./inp_files/37357.got.cif
#   From: 2010.06.25/outbox.cif.g09.slc.cpg/sg10_19_cif.got.tgz:37357.got - 2010.06.27 22:07:45.
