data_PCOD8066034
_publ_section_title
;
Structure prediction by ZEFSAII (Michael W. Deem and Ramdas Pophale) SiO2 
 PCOD8066034
Probable space group: P 2/M
;
_chemical_formula_sum "Si O2"
_cell_formula_units_Z 32
_cell_length_a 27.783742
_cell_length_b 9.038084
_cell_length_c 21.481859
_cell_angle_alpha 90.000000
_cell_angle_beta 18.747392
_cell_angle_gamma 90.000000
_cell_volume 1733.723874
_symmetry_space_group_name_H-M "P 2/M"
_symmetry_group_IT_number 10
_symmetry_cell_setting 'monoclinic'
loop_
_space_group_symop_operation_xyz
x,y,z
-x,y,-z
-x,-y,-z
x,-y,z
loop_
_atom_site_type_symbol
_atom_site_label
_atom_site_fract_x
_atom_site_fract_y
_atom_site_fract_z
Si Si1 0.318436 0.826973 0.611174
Si Si2 0.298974 0.669356 0.000993
Si Si3 0.840700 0.326620 0.079861
Si Si4 0.153016 0.172136 0.686156
Si Si5 0.434510 0.672406 0.015355
Si Si6 0.367877 0.328662 0.780234
Si Si7 0.833619 0.174094 0.723423
Si Si8 0.387977 0.331667 0.323064
O O1 0.225821 0.746994 0.777741
O O2 0.239614 0.788439 0.643057
O O3 0.487544 0.772356 0.402607
O O4 0.317306 0.000000 0.626572
O O5 0.258669 0.500000 0.066323
O O6 0.193434 0.770749 0.172856
O O7 0.276192 0.705924 0.956034
O O8 0.472483 0.700364 0.802813
O O9 0.851357 0.500000 0.078596
O O10 0.737966 0.287915 0.147063
O O11 0.002698 0.264233 0.867171
O O12 0.254776 0.220771 0.503317
O O13 0.115217 0.000000 0.727109
O O14 0.393197 0.500000 0.070284
O O15 0.564087 0.700666 0.806272
O O16 0.500000 0.733332 0.000000
O O17 0.282743 0.755929 0.182816
O O18 0.418337 0.500000 0.717382
O O19 0.000000 0.221452 0.500000
O O20 0.811292 0.000000 0.749195
O O21 0.332040 0.500000 0.399671
#
# Coordination Sequence:
#
# PCOD8066034 Si02
#       8
#     4   4   4   4   4   4   4   4
#     4  11  23  38  59  84 111 146 187 227 276 337
#     4   9  18  35  60  84 108 143 189 233 271 323
#     4  11  24  39  57  82 113 147 184 232 284 327
#     4  11  23  38  56  81 113 148 186 228 276 332
#     4   9  19  37  60  86 113 145 188 234 276 324
#     4  10  21  39  60  84 111 142 186 233 278 330
#     4  10  21  36  55  83 119 151 184 226 274 331
#     4   9  17  33  59  84 108 142 185 230 273 324
#
# _framework density 18.457379
#
# number of rings (size 3 to 8) (size 9 to 14) (size 15 to 20)
#    0.000    2.000    1.250    3.000    0.000    9.250 
#    2.250    0.000    0.000    0.000    0.000    0.000 
#    0.000    0.000    0.000    0.000    0.000    0.000 
#
# Total GULP energy -396903.340993 kJ/mol
# GULP energy per Si atom -12403.229406 kJ/mol
# Density = 1.841537 g / cm^3
# Si number density = 18.457379 Si / 1000 Ang^3
#
#
#
# Elastic Constant Matrix: (Units=GPa)
#
#
# Indices 1 2 3 4 5 6 
#
# 1 95.2257 59.5927 79.6160 0.0000 5.6269 0.0000
# 2 59.5927 90.2857 82.7808 0.0000 -4.5719 0.0000
# 3 79.6160 82.7808 156.2034 0.0000 2.3827 0.0000
# 4 0.0000 0.0000 0.0000 30.3303 0.0000 -6.4189
# 5 5.6269 -4.5719 2.3827 0.0000 24.9756 0.0000
# 6 0.0000 0.0000 0.0000 -6.4189 0.0000 14.5853
#
#
#
# Elastic Compliance Matrix: (Units=1/GPa)
#
#
# Indices 1 2 3 4 5 6 
#
# 1 0.021587 -0.008832 -0.006232 0.000000 -0.005886 0.000000
# 2 -0.008832 0.025811 -0.009293 0.000000 0.007601 0.000000
# 3 -0.006232 -0.009293 0.014529 0.000000 -0.001683 0.000000
# 4 0.000000 0.000000 0.000000 0.036357 0.000000 0.016000
# 5 -0.005886 0.007601 -0.001683 0.000000 0.042917 0.000000
# 6 0.000000 0.000000 0.000000 0.016000 0.000000 0.075604
#
#
# Mechanical properties :
#
#
# Convention : Reuss Voigt Hill
#
# Bulk Modulus (GPa) = 75.68795 87.29933 81.49364
# Shear Modulus (GPa) = 18.52376 21.95992 20.24184
#
# Velocity S-wave (km/s) = 3.17140 3.45304 3.31521
# Velocity P-wave (km/s) = 7.38283 7.95603 7.67479
#
# Compressibility (1/GPa) = 0.01321214
#
# Stress axis : x y z
#
# Youngs Moduli (GPa) = 46.32386 38.74327 68.82795
#
# Poissons Ratio (x) = 0.34219 0.42896
# Poissons Ratio (y) = 0.40914 0.63961
# Poissons Ratio (z) = 0.28871 0.36004
#
# Static dielectric constant tensor:
#      x y z
#    x 3.532480 0.000000 0.101900 
#    y 0.000000 3.412130 0.000000 
#    z 0.101900 0.000000 3.391550 
# 
# 
# High freq. dielectric constant tensor:
#      x y z
#    x 1.719680 0.000000 0.010030 
#    y 0.000000 1.718790 0.000000 
#    z 0.010030 0.000000 1.716080 
# 
# From -- ./inp_files/86876.got.cif
#   From: 2010.06.25/outbox.cif.g09.slc.cpg/sg10_44_cif.got.tgz:86876.got - 2010.06.27 22:07:45.
