data_PCOD8066590
_publ_section_title
;
Structure prediction by ZEFSAII (Michael W. Deem and Ramdas Pophale) SiO2 
 PCOD8066590
Probable space group: P 2/M
;
_chemical_formula_sum "Si O2"
_cell_formula_units_Z 32
_cell_length_a 15.488948
_cell_length_b 23.253251
_cell_length_c 8.911227
_cell_angle_alpha 90.000000
_cell_angle_beta 29.649082
_cell_angle_gamma 90.000000
_cell_volume 1587.717364
_symmetry_space_group_name_H-M "P 2/M"
_symmetry_group_IT_number 10
_symmetry_cell_setting 'monoclinic'
loop_
_space_group_symop_operation_xyz
x,y,z
-x,y,-z
-x,-y,-z
x,-y,z
loop_
_atom_site_type_symbol
_atom_site_label
_atom_site_fract_x
_atom_site_fract_y
_atom_site_fract_z
Si Si1 0.674049 0.763730 0.651900
Si Si2 0.572539 0.935024 0.652468
Si Si3 0.774989 0.935023 0.652479
Si Si4 0.017888 0.433670 0.644153
Si Si5 0.337959 0.566330 0.644157
Si Si6 0.673766 0.372119 0.652467
Si Si7 0.659943 0.175587 0.356613
Si Si8 0.983440 0.175590 0.356621
O O1 0.689107 0.695812 0.621770
O O2 0.669740 0.787855 0.491897
O O3 0.838366 0.787848 0.491896
O O4 0.500000 0.784258 0.000000
O O5 0.694087 0.924079 0.611828
O O6 0.630184 0.891900 0.435089
O O7 0.596466 0.000000 0.556955
O O8 0.371791 0.923540 0.999994
O O9 0.934718 0.891897 0.435110
O O10 0.846573 0.000000 0.556972
O O11 0.076274 0.500000 0.565154
O O12 0.161042 0.395598 0.508647
O O13 0.000000 0.413392 0.500000
O O14 0.834974 0.423166 0.999998
O O15 0.500000 0.586615 0.500000
O O16 0.358588 0.500000 0.565147
O O17 0.330301 0.604396 0.508655
O O18 0.500000 0.392355 0.000000
O O19 0.500000 0.199586 0.500000
O O20 0.835774 0.184162 0.999997
O O21 0.000000 0.199589 0.500000
#
# Coordination Sequence:
#
# PCOD8066590 Si02
#       8
#     4   4   4   4   4   4   4   4
#     4  11  25  46  65  86 120 158 203 257 306 357
#     4   9  18  35  61  90 122 158 193 239 300 361
#     4   9  18  35  61  90 122 158 193 239 300 361
#     4  10  21  38  62  93 129 166 203 247 298 353
#     4  10  21  38  62  93 129 166 203 247 298 353
#     4  11  24  40  63  91 121 162 205 250 304 359
#     4  12  25  41  64  91 119 158 202 249 304 362
#     4  12  25  41  64  91 119 158 202 249 304 362
#
# _framework density 20.154720999999999
#
# number of rings (size 3 to 8) (size 9 to 14) (size 15 to 20)
#    0.000    1.500    1.250    4.875    0.000    7.000 
#    0.000    1.250    0.000    0.000    0.000    0.000 
#    0.000    0.000    0.000    0.000    0.000    0.000 
#
# Total GULP energy -396965.767642 kJ/mol
# GULP energy per Si atom -12405.180239 kJ/mol
# Density = 2.010885 g / cm^3
# Si number density = 20.154721 Si / 1000 Ang^3
#
#
#
# Elastic Constant Matrix: (Units=GPa)
#
#
# Indices 1 2 3 4 5 6 
#
# 1 161.3834 56.1714 82.6783 0.0000 -0.0479 0.0000
# 2 56.1714 74.3888 54.5540 0.0000 -0.0468 0.0000
# 3 82.6783 54.5540 157.0208 0.0000 -0.0858 0.0000
# 4 0.0000 0.0000 0.0000 33.3937 0.0000 1.1546
# 5 -0.0479 -0.0468 -0.0858 0.0000 38.5162 0.0000
# 6 0.0000 0.0000 0.0000 1.1546 0.0000 -1.0607
#
#
#
# Elastic Compliance Matrix: (Units=1/GPa)
#
#
# Indices 1 2 3 4 5 6 
#
# 1 0.009591 -0.004749 -0.003400 0.000000 -0.000001 0.000000
# 2 -0.004749 0.020390 -0.004584 0.000000 0.000009 0.000000
# 3 -0.003400 -0.004584 0.009752 0.000000 0.000012 0.000000
# 4 0.000000 0.000000 0.000000 0.028860 0.000000 0.031415
# 5 -0.000001 0.000009 0.000012 0.000000 0.025963 0.000000
# 6 0.000000 0.000000 0.000000 0.031415 0.000000 -0.908553
#
#
# Mechanical properties :
#
#
# Convention : Reuss Voigt Hill
#
# Bulk Modulus (GPa) = 70.09016 86.62227 78.35621
# Shear Modulus (GPa) = -6.37938 27.46246 10.54154
#
# Velocity S-wave (km/s) = -1.78103 3.69532 2.28947
# Velocity P-wave (km/s) = 5.53373 7.82810 6.77869
#
# Compressibility (1/GPa) = 0.01426734
#
# Stress axis : x y z
#
# Youngs Moduli (GPa) = 104.26083 49.04294 102.54729
#
# Poissons Ratio (x) = 0.23289 0.34870
# Poissons Ratio (y) = 0.49511 0.47006
# Poissons Ratio (z) = 0.35453 0.22480
#
# Static dielectric constant tensor:
#      x y z
#    x 3.740430 0.000000 -0.000160 
#    y 0.000000 3.673250 0.000000 
#    z -0.000160 0.000000 3.735560 
# 
# 
# High freq. dielectric constant tensor:
#      x y z
#    x 1.798970 0.000000 -0.000130 
#    y 0.000000 1.785060 0.000000 
#    z -0.000130 0.000000 1.795160 
# 
# From -- ./inp_files/30587.got.cif
#   From: 2010.06.25/outbox.cif.g09.slc.cpg/sg10_16_cif.got.tgz:30587.got - 2010.06.27 22:07:45.
