data_PCOD8066411
_publ_section_title
;
Structure prediction by ZEFSAII (Michael W. Deem and Ramdas Pophale) SiO2 
 PCOD8066411
Probable space group: P 2/M
;
_chemical_formula_sum "Si O2"
_cell_formula_units_Z 32
_cell_length_a 25.274315
_cell_length_b 8.558965
_cell_length_c 15.761718
_cell_angle_alpha 90.000000
_cell_angle_beta 150.026076
_cell_angle_gamma 90.000000
_cell_volume 1703.458969
_symmetry_space_group_name_H-M "P 2/M"
_symmetry_group_IT_number 10
_symmetry_cell_setting 'monoclinic'
loop_
_space_group_symop_operation_xyz
x,y,z
-x,y,-z
-x,-y,-z
x,-y,z
loop_
_atom_site_type_symbol
_atom_site_label
_atom_site_fract_x
_atom_site_fract_y
_atom_site_fract_z
Si Si1 0.182656 0.181607 0.575308
Si Si2 0.439980 0.314307 0.333241
Si Si3 0.723350 0.178910 0.470841
Si Si4 0.045470 0.182398 0.153123
Si Si5 0.971203 0.680911 0.221376
Si Si6 0.295020 0.683267 0.891744
Si Si7 0.516944 0.317619 0.262029
Si Si8 0.231877 0.181889 0.978345
O O1 0.259131 0.224468 0.602920
O O2 0.242177 0.217862 0.744275
O O3 0.076132 0.282217 0.421270
O O4 0.151106 0.000000 0.526312
O O5 0.500000 0.254488 0.500000
O O6 0.424069 0.500000 0.312532
O O7 0.508279 0.256087 0.346748
O O8 0.325234 0.234362 0.171319
O O9 0.829023 0.216616 0.671098
O O10 0.627780 0.278504 0.374248
O O11 0.690430 0.000000 0.434802
O O12 0.987191 0.280052 0.144721
O O13 0.023720 0.000000 0.139788
O O14 0.000000 0.237894 0.000000
O O15 0.942079 0.500000 0.190882
O O16 0.877853 0.786723 0.127463
O O17 0.286232 0.500000 0.858828
O O18 0.416749 0.743606 0.068044
O O19 0.235240 0.718392 0.896524
O O20 0.503694 0.500000 0.247638
O O21 0.241971 0.000000 0.970327
#
# Coordination Sequence:
#
# PCOD8066411 Si02
#       8
#     4   4   4   4   4   4   4   4
#     4  10  21  38  57  80 108 140 179 223 272 322
#     4   9  19  37  57  79 110 145 181 225 273 319
#     4   9  19  34  53  77 107 141 177 219 265 316
#     4   9  19  37  57  79 110 145 181 225 273 319
#     4  11  22  37  57  81 110 144 182 224 269 321
#     4  10  21  38  57  80 108 140 179 223 272 322
#     4   9  19  34  53  77 107 141 177 219 265 316
#     4  11  22  37  57  81 110 144 182 224 269 321
#
# _framework density 18.785307
#
# number of rings (size 3 to 8) (size 9 to 14) (size 15 to 20)
#    0.000    2.250    0.000    4.500    0.000    7.500 
#    0.000    7.500    0.000    0.000    0.000    0.000 
#    0.000    0.000    0.000    0.000    0.000    0.000 
#
# Total GULP energy -396848.961368 kJ/mol
# GULP energy per Si atom -12401.530043 kJ/mol
# Density = 1.874255 g / cm^3
# Si number density = 18.785307 Si / 1000 Ang^3
#
#
#
# Elastic Constant Matrix: (Units=GPa)
#
#
# Indices 1 2 3 4 5 6 
#
# 1 87.2411 8.1210 68.7458 0.0000 3.1348 0.0000
# 2 8.1210 39.1988 12.3068 0.0000 -2.2950 0.0000
# 3 68.7458 12.3068 118.8085 0.0000 -17.4659 0.0000
# 4 0.0000 0.0000 0.0000 26.4294 0.0000 0.1469
# 5 3.1348 -2.2950 -17.4659 0.0000 35.4036 0.0000
# 6 0.0000 0.0000 0.0000 0.1469 0.0000 29.5458
#
#
#
# Elastic Compliance Matrix: (Units=1/GPa)
#
#
# Indices 1 2 3 4 5 6 
#
# 1 0.023761 -0.000749 -0.015081 0.000000 -0.009593 0.000000
# 2 -0.000749 0.026397 -0.002199 0.000000 0.000693 0.000000
# 3 -0.015081 -0.002199 0.018919 0.000000 0.010526 0.000000
# 4 0.000000 0.000000 0.000000 0.037838 0.000000 -0.000188
# 5 -0.009593 0.000693 0.010526 0.000000 0.034333 0.000000
# 6 0.000000 0.000000 0.000000 -0.000188 0.000000 0.033847
#
#
# Mechanical properties :
#
#
# Convention : Reuss Voigt Hill
#
# Bulk Modulus (GPa) = 30.28700 47.06618 38.67659
# Shear Modulus (GPa) = 22.50639 28.68075 25.59357
#
# Velocity S-wave (km/s) = 3.46509 3.91162 3.69511
# Velocity P-wave (km/s) = 5.67158 6.74613 6.23206
#
# Compressibility (1/GPa) = 0.03301747
#
# Stress axis : x y z
#
# Youngs Moduli (GPa) = 42.08577 37.88286 52.85812
#
# Poissons Ratio (x) = 0.02839 0.79717
# Poissons Ratio (y) = 0.03154 0.11623
# Poissons Ratio (z) = 0.63471 0.08330
#
# Static dielectric constant tensor:
#      x y z
#    x 3.398240 0.000000 -0.087650 
#    y 0.000000 3.327580 0.000000 
#    z -0.087650 0.000000 3.516520 
# 
# 
# High freq. dielectric constant tensor:
#      x y z
#    x 1.728580 0.000000 -0.001790 
#    y 0.000000 1.727870 0.000000 
#    z -0.001790 0.000000 1.733940 
# 
# From -- ./inp_files/71661.got.cif
#   From: 2010.06.25/outbox.cif.g09.slc.cpg/sg10_36_cif.got.tgz:71661.got - 2010.06.27 22:07:45.
