data_PCOD8066952
_publ_section_title
;
Structure prediction by ZEFSAII (Michael W. Deem and Ramdas Pophale) SiO2 
 PCOD8066952
Probable space group: P 2/M
;
_chemical_formula_sum "Si O2"
_cell_formula_units_Z 22
_cell_length_a 11.834365
_cell_length_b 7.452045
_cell_length_c 13.442684
_cell_angle_alpha 90.000000
_cell_angle_beta 73.820915
_cell_angle_gamma 90.000000
_cell_volume 1138.561563
_symmetry_space_group_name_H-M "P 2/M"
_symmetry_group_IT_number 10
_symmetry_cell_setting 'monoclinic'
loop_
_space_group_symop_operation_xyz
x,y,z
-x,y,-z
-x,-y,-z
x,-y,z
loop_
_atom_site_type_symbol
_atom_site_label
_atom_site_fract_x
_atom_site_fract_y
_atom_site_fract_z
Si Si1 0.690936 0.000000 0.771912
Si Si2 0.709525 0.000000 0.992087
Si Si3 0.133276 0.296333 0.963607
Si Si4 0.856442 0.287796 0.642761
Si Si5 0.727060 0.705774 0.268938
Si Si6 0.120873 0.288945 0.587506
Si Si7 0.432461 0.000000 0.775763
O O1 0.763988 0.820414 0.731343
O O2 0.572759 0.000000 0.735668
O O3 0.653753 0.000000 0.896569
O O4 0.789182 0.176709 0.982459
O O5 0.607606 0.000000 0.099529
O O6 0.143597 0.500000 0.999725
O O7 0.175594 0.276620 0.840299
O O8 0.000000 0.227957 0.000000
O O9 0.838750 0.500000 0.665026
O O10 0.834718 0.235294 0.532784
O O11 0.987750 0.221645 0.639659
O O12 0.685288 0.500000 0.292608
O O13 0.787930 0.786380 0.353338
O O14 0.613401 0.823109 0.269861
O O15 0.115558 0.500000 0.599219
#
# Coordination Sequence:
#
# PCOD8066952 Si02
#       7
#     2   2   4   4   4   4   2
#     4  12  25  36  56  79 104 149 194 225 263 308
#     4  10  22  38  53  73 107 147 183 222 269 312
#     4   9  18  32  53  83 112 133 169 222 270 328
#     4   9  20  37  56  84 116 139 173 223 270 328
#     4   9  18  34  58  80 104 143 180 217 276 328
#     4   8  16  35  60  84 113 143 168 212 282 340
#     4  10  23  41  53  73 107 147 192 231 259 310
#
# _framework density 19.322628000000002
#
# number of rings (size 3 to 8) (size 9 to 14) (size 15 to 20)
#    0.000    2.727    0.000    1.636    2.545    4.364 
#    0.000    1.818    0.000    8.727    0.000    0.000 
#    0.000    0.000    0.000    0.000    0.000    0.000 
#
# Total GULP energy -272775.102906 kJ/mol
# GULP energy per Si atom -12398.868314 kJ/mol
# Density = 1.927865 g / cm^3
# Si number density = 19.322628 Si / 1000 Ang^3
#
#
#
# Elastic Constant Matrix: (Units=GPa)
#
#
# Indices 1 2 3 4 5 6 
#
# 1 98.3949 37.5327 42.1578 0.0000 14.6640 0.0000
# 2 37.5327 87.2428 27.4120 0.0000 4.2607 0.0000
# 3 42.1578 27.4120 71.2211 0.0000 21.2091 0.0000
# 4 0.0000 0.0000 0.0000 10.7664 0.0000 -2.4111
# 5 14.6640 4.2607 21.2091 0.0000 30.4066 0.0000
# 6 0.0000 0.0000 0.0000 -2.4111 0.0000 20.5258
#
#
#
# Elastic Compliance Matrix: (Units=1/GPa)
#
#
# Indices 1 2 3 4 5 6 
#
# 1 0.014904 -0.004242 -0.006596 0.000000 -0.001992 0.000000
# 2 -0.004242 0.014355 -0.003817 0.000000 0.002697 0.000000
# 3 -0.006596 -0.003817 0.023108 0.000000 -0.012402 0.000000
# 4 0.000000 0.000000 0.000000 0.095391 0.000000 0.011205
# 5 -0.001992 0.002697 -0.012402 0.000000 0.042121 0.000000
# 6 0.000000 0.000000 0.000000 0.011205 0.000000 0.050035
#
#
# Mechanical properties :
#
#
# Convention : Reuss Voigt Hill
#
# Bulk Modulus (GPa) = 43.37263 52.34042 47.85653
# Shear Modulus (GPa) = 18.05636 22.32353 20.18994
#
# Velocity S-wave (km/s) = 3.06022 3.40266 3.23598
# Velocity P-wave (km/s) = 5.91455 6.52564 6.22759
#
# Compressibility (1/GPa) = 0.02305601
#
# Stress axis : x y z
#
# Youngs Moduli (GPa) = 67.09410 69.66259 43.27575
#
# Poissons Ratio (x) = 0.29552 0.28546
# Poissons Ratio (y) = 0.28462 0.16519
# Poissons Ratio (z) = 0.44257 0.26591
#
# Static dielectric constant tensor:
#      x y z
#    x 3.491990 0.000000 0.331420 
#    y 0.000000 3.595400 0.000000 
#    z 0.331420 0.000000 3.601270 
# 
# 
# High freq. dielectric constant tensor:
#      x y z
#    x 1.735430 0.000000 0.013020 
#    y 0.000000 1.755790 0.000000 
#    z 0.013020 0.000000 1.743270 
# 
# From -- ./inp_files/45080.got.cif
#   From: 2010.06.25/outbox.cif.g09.slc.cpg/sg10_23_cif.got.tgz:45080.got - 2010.06.27 22:07:45.
