data_PCOD8066275
_publ_section_title
;
Structure prediction by ZEFSAII (Michael W. Deem and Ramdas Pophale) SiO2 
 PCOD8066275
Probable space group: P 2/M
;
_chemical_formula_sum "Si O2"
_cell_formula_units_Z 24
_cell_length_a 17.599214
_cell_length_b 9.140575
_cell_length_c 6.490125
_cell_angle_alpha 90.000000
_cell_angle_beta 84.412471
_cell_angle_gamma 90.000000
_cell_volume 1039.085854
_symmetry_space_group_name_H-M "P 2/M"
_symmetry_group_IT_number 10
_symmetry_cell_setting 'monoclinic'
loop_
_space_group_symop_operation_xyz
x,y,z
-x,y,-z
-x,-y,-z
x,-y,z
loop_
_atom_site_type_symbol
_atom_site_label
_atom_site_fract_x
_atom_site_fract_y
_atom_site_fract_z
Si Si1 0.680663 0.666426 0.324206
Si Si2 0.177920 0.165491 0.609109
Si Si3 0.640161 0.333241 0.814058
Si Si4 0.915143 0.672348 0.084052
Si Si5 0.784199 0.168010 0.873552
Si Si6 0.516793 0.327454 0.272134
O O1 0.708893 0.500000 0.280985
O O2 0.751697 0.776845 0.262517
O O3 0.654245 0.684828 0.566518
O O4 0.606861 0.703969 0.193680
O O5 0.103780 0.265155 0.681850
O O6 0.201459 0.182640 0.371554
O O7 0.159907 0.000000 0.676619
O O8 0.650463 0.500000 0.881690
O O9 0.701793 0.243940 0.935163
O O10 0.550907 0.278568 0.872103
O O11 0.904342 0.500000 0.078979
O O12 0.856048 0.750057 0.948950
O O13 0.000000 0.719231 0.000000
O O14 0.781346 0.000000 0.945420
O O15 0.500000 0.254577 0.500000
O O16 0.505202 0.500000 0.296903
#
# Coordination Sequence:
#
# PCOD8066275 Si02
#       6
#     4   4   4   4   4   4
#     4   8  13  24  45  73 106 145 188 229 267 312
#     4  10  21  37  58  85 117 151 184 221 273 335
#     4   8  13  24  45  73 106 145 188 229 267 312
#     4  11  25  43  63  86 109 138 181 231 280 331
#     4  10  21  37  58  85 117 151 184 221 273 335
#     4   7  10  18  37  68 103 140 184 229 267 306
#
# _framework density 23.097225000000002
#
# number of rings (size 3 to 8) (size 9 to 14) (size 15 to 20)
#    0.000    3.000    0.000    3.500    0.000    4.000 
#    0.000    4.167    0.000    6.000    0.000    7.000 
#    0.000    0.000    0.000    0.000    0.000    0.000 
#
# Total GULP energy -297437.852006 kJ/mol
# GULP energy per Si atom -12393.243834 kJ/mol
# Density = 2.304466 g / cm^3
# Si number density = 23.097225 Si / 1000 Ang^3
#
#
#
# Elastic Constant Matrix: (Units=GPa)
#
#
# Indices 1 2 3 4 5 6 
#
# 1 190.3482 89.0941 36.9781 0.0000 -11.5737 0.0000
# 2 89.0941 117.0143 13.5903 0.0000 -8.4050 0.0000
# 3 36.9781 13.5903 26.0336 0.0000 10.3519 0.0000
# 4 0.0000 0.0000 0.0000 20.0207 0.0000 -2.9116
# 5 -11.5737 -8.4050 10.3519 0.0000 37.0495 0.0000
# 6 0.0000 0.0000 0.0000 -2.9116 0.0000 13.3202
#
#
#
# Elastic Compliance Matrix: (Units=1/GPa)
#
#
# Indices 1 2 3 4 5 6 
#
# 1 0.011949 -0.006744 -0.016119 0.000000 0.006707 0.000000
# 2 -0.006744 0.013410 0.002483 0.000000 0.000241 0.000000
# 3 -0.016119 0.002483 0.069512 0.000000 -0.023894 0.000000
# 4 0.000000 0.000000 0.000000 0.051588 0.000000 0.011277
# 5 0.006707 0.000241 -0.023894 0.000000 0.035817 0.000000
# 6 0.000000 0.000000 0.000000 0.011277 0.000000 0.077539
#
#
# Mechanical properties :
#
#
# Convention : Reuss Voigt Hill
#
# Bulk Modulus (GPa) = 18.48042 68.08012 43.28027
# Shear Modulus (GPa) = 15.69304 26.99366 21.34335
#
# Velocity S-wave (km/s) = 2.60942 3.42233 3.04314
# Velocity P-wave (km/s) = 4.13489 6.71981 5.57912
#
# Compressibility (1/GPa) = 0.05411133
#
# Stress axis : x y z
#
# Youngs Moduli (GPa) = 83.68582 74.57086 14.38603
#
# Poissons Ratio (x) = 0.50294 0.23189
# Poissons Ratio (y) = 0.56441 -0.03573
# Poissons Ratio (z) = 1.34893 -0.18519
#
# Static dielectric constant tensor:
#      x y z
#    x 4.609750 0.000000 -0.184790 
#    y 0.000000 3.935700 0.000000 
#    z -0.184790 0.000000 4.692270 
# 
# 
# High freq. dielectric constant tensor:
#      x y z
#    x 1.926710 0.000000 -0.008330 
#    y 0.000000 1.864460 0.000000 
#    z -0.008330 0.000000 1.962370 
# 
# From -- ./inp_files/31226.got.cif
#   From: 2010.06.25/outbox.cif.g09.slc.cpg/sg10_16_cif.got.tgz:31226.got - 2010.06.27 22:07:45.
