data_PCOD8066617
_publ_section_title
;
Structure prediction by ZEFSAII (Michael W. Deem and Ramdas Pophale) SiO2 
 PCOD8066617
Probable space group: P 2/M
;
_chemical_formula_sum "Si O2"
_cell_formula_units_Z 28
_cell_length_a 12.275408
_cell_length_b 13.853866
_cell_length_c 8.963255
_cell_angle_alpha 90.000000
_cell_angle_beta 60.515911
_cell_angle_gamma 90.000000
_cell_volume 1326.898363
_symmetry_space_group_name_H-M "P 2/M"
_symmetry_group_IT_number 10
_symmetry_cell_setting 'monoclinic'
loop_
_space_group_symop_operation_xyz
x,y,z
-x,y,-z
-x,-y,-z
x,-y,z
loop_
_atom_site_type_symbol
_atom_site_label
_atom_site_fract_x
_atom_site_fract_y
_atom_site_fract_z
Si Si1 0.807177 0.760321 0.259888
Si Si2 0.404841 0.220006 0.366848
Si Si3 0.652915 0.889966 0.175747
Si Si4 0.740629 0.888908 0.793177
Si Si5 0.819370 0.614452 0.004432
Si Si6 0.462859 0.605311 0.856056
Si Si7 0.963294 0.251172 0.690134
O O1 0.675855 0.754798 0.434155
O O2 0.781471 0.842089 0.151761
O O3 0.916449 0.788017 0.300533
O O4 0.847508 0.661495 0.147642
O O5 0.527930 0.159146 0.324921
O O6 0.325216 0.162608 0.299569
O O7 0.440073 0.325225 0.286803
O O8 0.652926 0.000000 0.229132
O O9 0.651145 0.880901 0.997728
O O10 0.872707 0.839976 0.738855
O O11 0.765394 0.000000 0.734424
O O12 0.841992 0.500000 0.997913
O O13 0.904163 0.657875 0.815878
O O14 0.677859 0.644861 0.060712
O O15 0.471758 0.500000 0.772828
O O16 0.500000 0.596141 0.000000
O O17 0.000000 0.287821 0.500000
#
# Coordination Sequence:
#
# PCOD8066617 Si02
#       7
#     4   4   4   4   4   4   4
#     4  12  26  41  66  97 137 178 217 274 340 393
#     4  12  22  41  66 100 140 176 218 276 326 401
#     4  11  24  42  67  99 133 177 225 273 336 401
#     4  11  24  44  71 100 133 181 229 277 331 391
#     4  11  25  47  71  99 135 176 224 277 342 403
#     4  10  21  38  68 100 132 175 219 271 332 395
#     4  12  25  47  69  96 131 176 230 283 328 394
#
# _framework density 21.101842999999999
#
# number of rings (size 3 to 8) (size 9 to 14) (size 15 to 20)
#    0.000    0.714    4.286    3.429    0.000    5.714 
#    0.000    2.857    0.000    0.000    0.000    0.000 
#    0.000    0.000    0.000    0.000    0.000    0.000 
#
# Total GULP energy -347251.698624 kJ/mol
# GULP energy per Si atom -12401.846379 kJ/mol
# Density = 2.105381 g / cm^3
# Si number density = 21.101843 Si / 1000 Ang^3
#
#
#
# Elastic Constant Matrix: (Units=GPa)
#
#
# Indices 1 2 3 4 5 6 
#
# 1 124.1502 41.0585 28.7040 0.0000 8.6897 0.0000
# 2 41.0585 133.7730 59.0868 0.0000 -5.6940 0.0000
# 3 28.7040 59.0868 129.1590 0.0000 -0.4943 0.0000
# 4 0.0000 0.0000 0.0000 14.4726 0.0000 -4.5844
# 5 8.6897 -5.6940 -0.4943 0.0000 31.1707 0.0000
# 6 0.0000 0.0000 0.0000 -4.5844 0.0000 26.7380
#
#
#
# Elastic Compliance Matrix: (Units=1/GPa)
#
#
# Indices 1 2 3 4 5 6 
#
# 1 0.009339 -0.002602 -0.000897 0.000000 -0.003093 0.000000
# 2 -0.002602 0.010178 -0.004068 0.000000 0.002520 0.000000
# 3 -0.000897 -0.004068 0.009802 0.000000 -0.000338 0.000000
# 4 0.000000 0.000000 0.000000 0.073064 0.000000 0.012527
# 5 -0.003093 0.002520 -0.000338 0.000000 0.033399 0.000000
# 6 0.000000 0.000000 0.000000 0.012527 0.000000 0.039548
#
#
# Mechanical properties :
#
#
# Convention : Reuss Voigt Hill
#
# Bulk Modulus (GPa) = 70.50017 71.64231 71.07124
# Shear Modulus (GPa) = 25.61573 31.69177 28.65375
#
# Velocity S-wave (km/s) = 3.48790 3.87957 3.68894
# Velocity P-wave (km/s) = 7.05001 7.35476 7.20400
#
# Compressibility (1/GPa) = 0.01418436
#
# Stress axis : x y z
#
# Youngs Moduli (GPa) = 107.07629 98.24952 102.02384
#
# Poissons Ratio (x) = 0.25563 0.09152
# Poissons Ratio (y) = 0.27860 0.41507
# Poissons Ratio (z) = 0.09606 0.39971
#
# Static dielectric constant tensor:
#      x y z
#    x 3.996300 0.000000 0.033010 
#    y 0.000000 4.026230 0.000000 
#    z 0.033010 0.000000 3.893880 
# 
# 
# High freq. dielectric constant tensor:
#      x y z
#    x 1.841250 0.000000 0.004380 
#    y 0.000000 1.827680 0.000000 
#    z 0.004380 0.000000 1.830500 
# 
# From -- ./inp_files/25159.got.cif
#   From: 2010.06.25/outbox.cif.g09.slc.cpg/sg10_13_cif.got.tgz:25159.got - 2010.06.27 22:07:45.
