data_PCOD8066797
_publ_section_title
;
Structure prediction by ZEFSAII (Michael W. Deem and Ramdas Pophale) SiO2 
 PCOD8066797
Probable space group: P 2/M
;
_chemical_formula_sum "Si O2"
_cell_formula_units_Z 32
_cell_length_a 22.334522
_cell_length_b 15.605267
_cell_length_c 11.883740
_cell_angle_alpha 90.000000
_cell_angle_beta 23.707891
_cell_angle_gamma 90.000000
_cell_volume 1665.355171
_symmetry_space_group_name_H-M "P 2/M"
_symmetry_group_IT_number 10
_symmetry_cell_setting 'monoclinic'
loop_
_space_group_symop_operation_xyz
x,y,z
-x,y,-z
-x,-y,-z
x,-y,z
loop_
_atom_site_type_symbol
_atom_site_label
_atom_site_fract_x
_atom_site_fract_y
_atom_site_fract_z
Si Si1 0.348687 0.597119 0.032220
Si Si2 0.737409 0.101908 0.143810
Si Si3 0.581286 0.844775 0.964260
Si Si4 0.435464 0.904662 0.768228
Si Si5 0.201849 0.708762 0.472104
Si Si6 0.633812 0.693561 0.589732
Si Si7 0.853043 0.598067 0.824747
Si Si8 0.869624 0.733131 0.994874
O O1 0.323484 0.500000 0.112146
O O2 0.244074 0.651980 0.293117
O O3 0.293014 0.612889 0.000857
O O4 0.524285 0.617663 0.738603
O O5 0.692843 0.131977 0.093165
O O6 0.600579 0.131243 0.460775
O O7 0.783485 0.000000 0.076116
O O8 0.869131 0.167442 0.951996
O O9 0.734932 0.804907 0.654979
O O10 0.500000 0.894668 0.000000
O O11 0.612984 0.903403 0.017906
O O12 0.472575 0.770780 0.193174
O O13 0.448908 0.000000 0.700557
O O14 0.270421 0.665659 0.466183
O O15 0.025510 0.716044 0.787807
O O16 0.741352 0.719644 0.305473
O O17 0.856461 0.500000 0.864916
O O18 0.843100 0.664913 0.942510
O O19 0.000000 0.616935 0.500000
#
# Coordination Sequence:
#
# PCOD8066797 Si02
#       8
#     4   4   4   4   4   4   4   4
#     4  10  21  40  62  84 118 157 193 241 299 359
#     4   9  20  34  55  87 120 154 197 250 305 360
#     4   9  18  35  54  78 111 147 191 242 287 348
#     4   9  17  33  55  82 113 146 193 249 297 350
#     4  10  22  37  56  83 116 155 198 239 296 355
#     4  10  22  37  56  86 113 146 205 252 279 344
#     4  10  22  39  58  88 124 154 192 236 296 374
#     4  12  22  36  64  85 118 165 195 243 310 347
#
# _framework density 19.215119999999999
#
# number of rings (size 3 to 8) (size 9 to 14) (size 15 to 20)
#    0.000    2.125    2.500    2.250    3.500    2.250 
#    0.000    1.875    0.000    6.375    0.000    0.000 
#    0.000    0.000    0.000    0.000    0.000    0.000 
#
# Total GULP energy -396530.540483 kJ/mol
# GULP energy per Si atom -12391.579390 kJ/mol
# Density = 1.917139 g / cm^3
# Si number density = 19.215120 Si / 1000 Ang^3
#
#
#
# Elastic Constant Matrix: (Units=GPa)
#
#
# Indices 1 2 3 4 5 6 
#
# 1 103.9594 29.4667 32.6447 0.0000 -6.7216 0.0000
# 2 29.4667 66.2386 18.9009 0.0000 -6.9810 0.0000
# 3 32.6447 18.9009 58.8706 0.0000 -11.8220 0.0000
# 4 0.0000 0.0000 0.0000 17.7049 0.0000 -0.9602
# 5 -6.7216 -6.9810 -11.8220 0.0000 37.0292 0.0000
# 6 0.0000 0.0000 0.0000 -0.9602 0.0000 9.2512
#
#
#
# Elastic Compliance Matrix: (Units=1/GPa)
#
#
# Indices 1 2 3 4 5 6 
#
# 1 0.012524 -0.003968 -0.005732 0.000000 -0.000305 0.000000
# 2 -0.003968 0.017958 -0.003238 0.000000 0.001632 0.000000
# 3 -0.005732 -0.003238 0.022303 0.000000 0.005470 0.000000
# 4 0.000000 0.000000 0.000000 0.056801 0.000000 0.005895
# 5 -0.000305 0.001632 0.005470 0.000000 0.029004 0.000000
# 6 0.000000 0.000000 0.000000 0.005895 0.000000 0.108706
#
#
# Mechanical properties :
#
#
# Convention : Reuss Voigt Hill
#
# Bulk Modulus (GPa) = 37.16152 43.45479 40.30816
# Shear Modulus (GPa) = 17.72162 22.66748 20.19455
#
# Velocity S-wave (km/s) = 3.04019 3.43836 3.24539
# Velocity P-wave (km/s) = 5.63076 6.19896 5.92167
#
# Compressibility (1/GPa) = 0.02690955
#
# Stress axis : x y z
#
# Youngs Moduli (GPa) = 79.84625 55.68584 44.83757
#
# Poissons Ratio (x) = 0.22096 0.25701
# Poissons Ratio (y) = 0.31682 0.14517
# Poissons Ratio (z) = 0.45768 0.18029
#
# Static dielectric constant tensor:
#      x y z
#    x 3.992210 0.000000 0.053600 
#    y 0.000000 3.378360 0.000000 
#    z 0.053600 0.000000 3.489730 
# 
# 
# High freq. dielectric constant tensor:
#      x y z
#    x 1.761640 0.000000 0.000360 
#    y 0.000000 1.731990 0.000000 
#    z 0.000360 0.000000 1.731490 
# 
# From -- ./inp_files/57082.got.cif
#   From: 2010.06.25/outbox.cif.g09.slc.cpg/sg10_29_cif.got.tgz:57082.got - 2010.06.27 22:07:45.
