data_PCOD8066863
_publ_section_title
;
Structure prediction by ZEFSAII (Michael W. Deem and Ramdas Pophale) SiO2 
 PCOD8066863
Probable space group: P 2/M
;
_chemical_formula_sum "Si O2"
_cell_formula_units_Z 32
_cell_length_a 11.898169
_cell_length_b 8.463346
_cell_length_c 28.472819
_cell_angle_alpha 90.000000
_cell_angle_beta 32.661726
_cell_angle_gamma 90.000000
_cell_volume 1547.346095
_symmetry_space_group_name_H-M "P 2/M"
_symmetry_group_IT_number 10
_symmetry_cell_setting 'monoclinic'
loop_
_space_group_symop_operation_xyz
x,y,z
-x,y,-z
-x,-y,-z
x,-y,z
loop_
_atom_site_type_symbol
_atom_site_label
_atom_site_fract_x
_atom_site_fract_y
_atom_site_fract_z
Si Si1 0.177598 0.680966 0.663048
Si Si2 0.918737 0.182019 0.400368
Si Si3 0.629807 0.315597 0.748764
Si Si4 0.190933 0.817894 0.150981
Si Si5 0.420853 0.316031 0.419700
Si Si6 0.091975 0.315627 0.088217
Si Si7 0.378156 0.312711 0.746505
Si Si8 0.550426 0.816134 0.095401
O O1 0.115001 0.500000 0.695642
O O2 0.172007 0.711737 0.609649
O O3 0.407797 0.716277 0.600627
O O4 0.016688 0.794499 0.745759
O O5 0.788729 0.223230 0.492862
O O6 0.159633 0.216467 0.324328
O O7 0.892574 0.000000 0.396070
O O8 0.683863 0.500000 0.725881
O O9 0.498531 0.255937 0.750326
O O10 0.493298 0.284849 0.842841
O O11 0.190844 0.712614 0.104501
O O12 0.387317 0.764438 0.112795
O O13 0.209955 0.000000 0.129263
O O14 0.366134 0.500000 0.434568
O O15 0.502804 0.247505 0.341301
O O16 0.099125 0.500000 0.073796
O O17 0.857334 0.246883 0.169739
O O18 0.218738 0.222863 0.003702
O O19 0.365435 0.500000 0.747426
O O20 0.528025 0.000000 0.115472
#
# Coordination Sequence:
#
# PCOD8066863 Si02
#       8
#     4   4   4   4   4   4   4   4
#     4  11  21  37  65  93 121 159 205 248 296 362
#     4  12  25  40  59  91 130 161 197 249 307 367
#     4  11  23  42  67  88 114 160 212 256 302 358
#     4  11  22  37  60  90 129 164 195 245 308 363
#     4  10  21  41  65  91 122 158 202 252 301 359
#     4  11  22  40  65  93 123 159 206 253 299 362
#     4   9  21  42  65  90 118 154 207 264 304 345
#     4  11  24  41  60  90 129 163 198 249 308 364
#
# _framework density 20.680571
#
# number of rings (size 3 to 8) (size 9 to 14) (size 15 to 20)
#    0.000    1.250    2.500    3.750    0.000    6.500 
#    0.000    8.750    0.000    0.000    0.000    0.000 
#    0.000    0.000    0.000    0.000    0.000    0.000 
#
# Total GULP energy -397019.855718 kJ/mol
# GULP energy per Si atom -12406.870491 kJ/mol
# Density = 2.063350 g / cm^3
# Si number density = 20.680571 Si / 1000 Ang^3
#
#
#
# Elastic Constant Matrix: (Units=GPa)
#
#
# Indices 1 2 3 4 5 6 
#
# 1 131.4244 21.4977 50.0211 0.0000 5.9957 0.0000
# 2 21.4977 46.6068 14.0610 0.0000 -1.3818 0.0000
# 3 50.0211 14.0610 142.3227 0.0000 19.4434 0.0000
# 4 0.0000 0.0000 0.0000 29.2496 0.0000 2.3754
# 5 5.9957 -1.3818 19.4434 0.0000 7.8314 0.0000
# 6 0.0000 0.0000 0.0000 2.3754 0.0000 9.6662
#
#
#
# Elastic Compliance Matrix: (Units=1/GPa)
#
#
# Indices 1 2 3 4 5 6 
#
# 1 0.009280 -0.003449 -0.002826 0.000000 -0.000698 0.000000
# 2 -0.003449 0.024478 -0.003264 0.000000 0.015064 0.000000
# 3 -0.002826 -0.003264 0.012295 0.000000 -0.028939 0.000000
# 4 0.000000 0.000000 0.000000 0.034885 0.000000 -0.008573
# 5 -0.000698 0.015064 -0.028939 0.000000 0.202731 0.000000
# 6 0.000000 0.000000 0.000000 -0.008573 0.000000 0.105560
#
#
# Mechanical properties :
#
#
# Convention : Reuss Voigt Hill
#
# Bulk Modulus (GPa) = 37.06879 54.61261 45.84070
# Shear Modulus (GPa) = 11.98182 25.00106 18.49144
#
# Velocity S-wave (km/s) = 2.40963 3.48072 2.99347
# Velocity P-wave (km/s) = 5.07002 6.52831 5.84483
#
# Compressibility (1/GPa) = 0.02697687
#
# Stress axis : x y z
#
# Youngs Moduli (GPa) = 107.75419 40.85248 81.33178
#
# Poissons Ratio (x) = 0.14090 0.22981
# Poissons Ratio (y) = 0.37163 0.26548
# Poissons Ratio (z) = 0.30447 0.13335
#
# Static dielectric constant tensor:
#      x y z
#    x 3.771380 0.000000 0.016050 
#    y 0.000000 3.519350 0.000000 
#    z 0.016050 0.000000 3.835930 
# 
# 
# High freq. dielectric constant tensor:
#      x y z
#    x 1.804240 0.000000 0.003490 
#    y 0.000000 1.797120 0.000000 
#    z 0.003490 0.000000 1.823250 
# 
# From -- ./inp_files/63811.got.cif
#   From: 2010.06.25/outbox.cif.g09.slc.cpg/sg10_32_cif.got.tgz:63811.got - 2010.06.27 22:07:45.
