data_PCOD8066331
_publ_section_title
;
Structure prediction by ZEFSAII (Michael W. Deem and Ramdas Pophale) SiO2 
 PCOD8066331
Probable space group: P 2/M
;
_chemical_formula_sum "Si O2"
_cell_formula_units_Z 32
_cell_length_a 11.312839
_cell_length_b 14.378252
_cell_length_c 14.689546
_cell_angle_alpha 90.000000
_cell_angle_beta 137.561237
_cell_angle_gamma 90.000000
_cell_volume 1612.361139
_symmetry_space_group_name_H-M "P 2/M"
_symmetry_group_IT_number 10
_symmetry_cell_setting 'monoclinic'
loop_
_space_group_symop_operation_xyz
x,y,z
-x,y,-z
-x,-y,-z
x,-y,z
loop_
_atom_site_type_symbol
_atom_site_label
_atom_site_fract_x
_atom_site_fract_y
_atom_site_fract_z
Si Si1 0.471845 0.392074 0.883242
Si Si2 0.113401 0.751315 0.335474
Si Si3 0.770392 0.346332 0.921361
Si Si4 0.254046 0.144061 0.154754
Si Si5 0.927547 0.604382 0.359062
Si Si6 0.865917 0.601046 0.790560
Si Si7 0.589838 0.106736 0.454221
Si Si8 0.037922 0.099416 0.870003
O O1 0.524002 0.500000 0.910736
O O2 0.593021 0.341698 0.878044
O O3 0.274855 0.371595 0.744216
O O4 0.500000 0.350823 0.000000
O O5 0.209903 0.683332 0.316949
O O6 0.250796 0.819887 0.462795
O O7 0.964549 0.815339 0.202566
O O8 0.020269 0.683060 0.352892
O O9 0.805941 0.249111 0.892700
O O10 0.761418 0.411124 0.826584
O O11 0.928502 0.376569 0.076494
O O12 0.456602 0.128997 0.295905
O O13 0.138699 0.102271 0.170282
O O14 0.209694 0.097698 0.032087
O O15 0.951437 0.500000 0.330240
O O16 0.000000 0.607301 0.500000
O O17 0.851348 0.500000 0.733521
O O18 0.500000 0.122515 0.500000
O O19 0.656694 0.000000 0.483023
O O20 0.035166 0.000000 0.816137
#
# Coordination Sequence:
#
# PCOD8066331 Si02
#       8
#     4   4   4   4   4   4   4   4
#     4  10  21  37  60  87 113 156 215 258 294 351
#     4  12  22  38  61  91 120 159 208 251 310 372
#     4  11  19  34  58  92 126 160 198 251 304 371
#     4  11  20  35  57  90 128 160 200 244 306 373
#     4  10  24  45  64  84 117 164 213 260 304 357
#     4  11  20  34  57  91 134 165 189 241 317 376
#     4  11  22  37  58  90 129 164 200 252 314 377
#     4  11  20  36  61  91 125 160 200 248 308 381
#
# _framework density 19.846671000000001
#
# number of rings (size 3 to 8) (size 9 to 14) (size 15 to 20)
#    0.000    1.125    3.750    5.250    1.750    1.000 
#    0.000    0.000    0.000    3.000    0.000    0.875 
#    0.000    0.000    0.000    0.000    0.000    0.000 
#
# Total GULP energy -396596.616245 kJ/mol
# GULP energy per Si atom -12393.644258 kJ/mol
# Density = 1.980150 g / cm^3
# Si number density = 19.846671 Si / 1000 Ang^3
#
#
#
# Elastic Constant Matrix: (Units=GPa)
#
#
# Indices 1 2 3 4 5 6 
#
# 1 100.4258 33.0186 37.6557 0.0000 6.8237 0.0000
# 2 33.0186 145.9391 38.1134 0.0000 2.8863 0.0000
# 3 37.6557 38.1134 119.9661 0.0000 11.0069 0.0000
# 4 0.0000 0.0000 0.0000 -23.6182 0.0000 26.7108
# 5 6.8237 2.8863 11.0069 0.0000 15.4635 0.0000
# 6 0.0000 0.0000 0.0000 26.7108 0.0000 13.2496
#
#
#
# Elastic Compliance Matrix: (Units=1/GPa)
#
#
# Indices 1 2 3 4 5 6 
#
# 1 0.011840 -0.001876 -0.002860 0.000000 -0.002839 0.000000
# 2 -0.001876 0.007771 -0.001950 0.000000 0.000765 0.000000
# 3 -0.002860 -0.001950 0.010382 0.000000 -0.005764 0.000000
# 4 0.000000 0.000000 0.000000 -0.012909 0.000000 0.026024
# 5 -0.002839 0.000765 -0.005764 0.000000 0.069881 0.000000
# 6 0.000000 0.000000 0.000000 0.026024 0.000000 0.023011
#
#
# Mechanical properties :
#
#
# Convention : Reuss Voigt Hill
#
# Bulk Modulus (GPa) = 60.16697 64.87848 62.52273
# Shear Modulus (GPa) = 38.79377 18.18852 28.49115
#
# Velocity S-wave (km/s) = 4.42597 3.03058 3.79299
# Velocity P-wave (km/s) = 7.51669 6.70870 7.12416
#
# Compressibility (1/GPa) = 0.01662042
#
# Stress axis : x y z
#
# Youngs Moduli (GPa) = 84.46276 128.68803 96.32239
#
# Poissons Ratio (x) = 0.24137 0.27547
# Poissons Ratio (y) = 0.15842 0.18785
# Poissons Ratio (z) = 0.24156 0.25098
#
# Static dielectric constant tensor:
#      x y z
#    x 3.168070 0.000000 -0.107950 
#    y 0.000000 3.868270 0.000000 
#    z -0.107950 0.000000 3.738290 
# 
# 
# High freq. dielectric constant tensor:
#      x y z
#    x 1.724330 0.000000 -0.007200 
#    y 0.000000 1.790940 0.000000 
#    z -0.007200 0.000000 1.775180 
# 
# From -- ./inp_files/65107.got.cif
#   From: 2010.06.25/outbox.cif.g09.slc.cpg/sg10_33_cif.got.tgz:65107.got - 2010.06.27 22:07:45.
