data_PCOD8066680
_publ_section_title
;
Structure prediction by ZEFSAII (Michael W. Deem and Ramdas Pophale) SiO2 
 PCOD8066680
Probable space group: P 2/M
;
_chemical_formula_sum "Si O2"
_cell_formula_units_Z 24
_cell_length_a 15.835666
_cell_length_b 9.075232
_cell_length_c 9.049039
_cell_angle_alpha 90.000000
_cell_angle_beta 106.705706
_cell_angle_gamma 90.000000
_cell_volume 1245.571273
_symmetry_space_group_name_H-M "P 2/M"
_symmetry_group_IT_number 10
_symmetry_cell_setting 'monoclinic'
loop_
_space_group_symop_operation_xyz
x,y,z
-x,y,-z
-x,-y,-z
x,-y,z
loop_
_atom_site_type_symbol
_atom_site_label
_atom_site_fract_x
_atom_site_fract_y
_atom_site_fract_z
Si Si1 0.102695 0.828832 0.884012
Si Si2 0.584389 0.669796 0.644145
Si Si3 0.585764 0.826637 0.950711
Si Si4 0.743898 0.674245 0.197346
Si Si5 0.100058 0.170185 0.220752
Si Si6 0.749460 0.673505 0.535544
O O1 0.160481 0.726387 0.808156
O O2 0.001433 0.796091 0.793889
O O3 0.125095 0.000000 0.868185
O O4 0.121952 0.785982 0.063407
O O5 0.500000 0.689050 0.500000
O O6 0.595812 0.500000 0.699211
O O7 0.571150 0.772218 0.777904
O O8 0.669354 0.727536 0.597590
O O9 0.602296 0.000000 0.959256
O O10 0.500000 0.781765 0.000000
O O11 0.670339 0.748894 0.060756
O O12 0.736233 0.500000 0.175879
O O13 0.730858 0.726010 0.359384
O O14 0.158813 0.262114 0.362285
O O15 0.121225 0.000000 0.256556
O O16 0.758117 0.500000 0.544378
#
# Coordination Sequence:
#
# PCOD8066680 Si02
#       6
#     4   4   4   4   4   4
#     4   9  19  37  58  82 111 144 186 231 277 331
#     4  10  21  39  62  85 112 148 187 227 274 328
#     4  11  24  40  59  85 115 146 183 228 276 327
#     4  11  23  38  57  82 113 149 186 227 277 329
#     4   9  19  36  58  81 109 147 186 228 279 332
#     4  10  22  37  54  81 114 146 185 231 276 326
#
# _framework density 19.268267000000002
#
# number of rings (size 3 to 8) (size 9 to 14) (size 15 to 20)
#    0.000    2.000    0.000    4.000    0.000    9.667 
#    0.000    5.000    0.000    0.000    0.000    0.000 
#    0.000    0.000    0.000    0.000    0.000    0.000 
#
# Total GULP energy -297705.201607 kJ/mol
# GULP energy per Si atom -12404.383400 kJ/mol
# Density = 1.922441 g / cm^3
# Si number density = 19.268267 Si / 1000 Ang^3
#
#
#
# Elastic Constant Matrix: (Units=GPa)
#
#
# Indices 1 2 3 4 5 6 
#
# 1 112.8751 38.8343 49.8053 0.0000 -12.7381 0.0000
# 2 38.8343 43.3638 37.7684 0.0000 -10.4883 0.0000
# 3 49.8053 37.7684 102.5794 0.0000 -9.3558 0.0000
# 4 0.0000 0.0000 0.0000 -31.0507 0.0000 -2.4851
# 5 -12.7381 -10.4883 -9.3558 0.0000 36.9430 0.0000
# 6 0.0000 0.0000 0.0000 -2.4851 0.0000 33.1898
#
#
#
# Elastic Compliance Matrix: (Units=1/GPa)
#
#
# Indices 1 2 3 4 5 6 
#
# 1 0.013492 -0.009079 -0.003090 0.000000 0.001292 0.000000
# 2 -0.009079 0.041718 -0.010397 0.000000 0.006080 0.000000
# 3 -0.003090 -0.010397 0.015059 0.000000 -0.000204 0.000000
# 4 0.000000 0.000000 0.000000 -0.032014 0.000000 -0.002397
# 5 0.001292 0.006080 -0.000204 0.000000 0.029189 0.000000
# 6 0.000000 0.000000 0.000000 -0.002397 0.000000 0.029950
#
#
# Mechanical properties :
#
#
# Convention : Reuss Voigt Hill
#
# Bulk Modulus (GPa) = 39.78444 56.84824 48.31634
# Shear Modulus (GPa) = 33.13336 16.64378 24.88857
#
# Velocity S-wave (km/s) = 4.15128 2.94222 3.59790
# Velocity P-wave (km/s) = 6.60833 6.41170 6.51075
#
# Compressibility (1/GPa) = 0.02513546
#
# Stress axis : x y z
#
# Youngs Moduli (GPa) = 74.11628 23.97073 66.40758
#
# Poissons Ratio (x) = 0.21763 0.20522
# Poissons Ratio (y) = 0.67289 0.69045
# Poissons Ratio (z) = 0.22904 0.24923
#
# Static dielectric constant tensor:
#      x y z
#    x 3.671850 0.000000 -0.101930 
#    y 0.000000 3.432750 0.000000 
#    z -0.101930 0.000000 3.562570 
# 
# 
# High freq. dielectric constant tensor:
#      x y z
#    x 1.764720 0.000000 0.000510 
#    y 0.000000 1.744850 0.000000 
#    z 0.000510 0.000000 1.757060 
# 
# From -- ./inp_files/27067.got.cif
#   From: 2010.06.25/outbox.cif.g09.slc.cpg/sg10_14_cif.got.tgz:27067.got - 2010.06.27 22:07:45.
