data_PCOD8066910
_publ_section_title
;
Structure prediction by ZEFSAII (Michael W. Deem and Ramdas Pophale) SiO2 
 PCOD8066910
Probable space group: P 2/M
;
_chemical_formula_sum "Si O2"
_cell_formula_units_Z 14
_cell_length_a 5.172233
_cell_length_b 9.919841
_cell_length_c 13.509489
_cell_angle_alpha 90.000000
_cell_angle_beta 76.658039
_cell_angle_gamma 90.000000
_cell_volume 674.433411
_symmetry_space_group_name_H-M "P 2/M"
_symmetry_group_IT_number 10
_symmetry_cell_setting 'monoclinic'
loop_
_space_group_symop_operation_xyz
x,y,z
-x,y,-z
-x,-y,-z
x,-y,z
loop_
_atom_site_type_symbol
_atom_site_label
_atom_site_fract_x
_atom_site_fract_y
_atom_site_fract_z
Si Si1 0.298031 0.152659 0.434333
Si Si2 0.790515 0.500000 0.429493
Si Si3 0.163108 0.650758 0.283408
Si Si4 0.213868 0.660329 0.057427
O O1 0.500000 0.206966 0.500000
O O2 0.333434 0.247213 0.335233
O O3 0.000000 0.160209 0.500000
O O4 0.373807 0.000000 0.397637
O O5 0.500000 0.500000 0.500000
O O6 0.000000 0.500000 0.500000
O O7 0.863261 0.632067 0.355933
O O8 0.301246 0.500000 0.271518
O O9 0.145422 0.709836 0.174334
O O10 0.206214 0.500000 0.053790
O O11 0.500000 0.716268 0.000000
O O12 0.000000 0.721594 0.000000
#
# Coordination Sequence:
#
# PCOD8066910 Si02
#       4
#     4   2   4   4
#     4  10  22  39  57  80 114 154 190 227 279 344
#     4  10  22  34  48  80 118 144 180 230 277 328
#     4   9  21  37  56  87 110 155 186 239 282 334
#     4   9  18  33  52  77 109 142 186 234 279 334
#
# _framework density 20.758164000000001
#
# number of rings (size 3 to 8) (size 9 to 14) (size 15 to 20)
#    0.857    1.714    0.000    0.857    0.000    9.714 
#    0.000    0.000    0.000    1.714    0.000    0.000 
#    0.000    0.000    0.000    0.000    0.000    0.000 
#
# Total GULP energy -173442.491082 kJ/mol
# GULP energy per Si atom -12388.749363 kJ/mol
# Density = 2.071092 g / cm^3
# Si number density = 20.758164 Si / 1000 Ang^3
#
#
#
# Elastic Constant Matrix: (Units=GPa)
#
#
# Indices 1 2 3 4 5 6 
#
# 1 162.1015 16.7284 98.3414 0.0000 10.7819 0.0000
# 2 16.7284 64.7970 51.1302 0.0000 20.9691 0.0000
# 3 98.3414 51.1302 213.6628 0.0000 18.9931 0.0000
# 4 0.0000 0.0000 0.0000 16.8920 0.0000 11.0378
# 5 10.7819 20.9691 18.9931 0.0000 42.2068 0.0000
# 6 0.0000 0.0000 0.0000 11.0378 0.0000 14.2168
#
#
#
# Elastic Compliance Matrix: (Units=1/GPa)
#
#
# Indices 1 2 3 4 5 6 
#
# 1 0.008660 0.001440 -0.004240 0.000000 -0.001020 0.000000
# 2 0.001440 0.022024 -0.005133 0.000000 -0.009000 0.000000
# 3 -0.004240 -0.005133 0.007851 0.000000 0.000100 0.000000
# 4 0.000000 0.000000 0.000000 0.120159 0.000000 -0.093290
# 5 -0.001020 -0.009000 0.000100 0.000000 0.028380 0.000000
# 6 0.000000 0.000000 0.000000 -0.093290 0.000000 0.142769
#
#
# Mechanical properties :
#
#
# Convention : Reuss Voigt Hill
#
# Bulk Modulus (GPa) = 44.11270 85.88460 64.99865
# Shear Modulus (GPa) = 14.15363 32.95387 23.55375
#
# Velocity S-wave (km/s) = 2.61403 3.98868 3.37215
# Velocity P-wave (km/s) = 5.51432 7.91685 6.82218
#
# Compressibility (1/GPa) = 0.02266921
#
# Stress axis : x y z
#
# Youngs Moduli (GPa) = 115.46680 45.40500 127.36787
#
# Poissons Ratio (x) = -0.06538 0.54005
# Poissons Ratio (y) = -0.16626 0.65380
# Poissons Ratio (z) = 0.48958 0.23307
#
# Static dielectric constant tensor:
#      x y z
#    x 3.634620 0.000000 0.107050 
#    y 0.000000 3.627360 0.000000 
#    z 0.107050 0.000000 3.957930 
# 
# 
# High freq. dielectric constant tensor:
#      x y z
#    x 1.805490 0.000000 0.008980 
#    y 0.000000 1.765020 0.000000 
#    z 0.008980 0.000000 1.816170 
# 
# From -- ./inp_files/38591.got.cif
#   From: 2010.06.25/outbox.cif.g09.slc.cpg/sg10_20_cif.got.tgz:38591.got - 2010.06.27 22:07:45.
