data_PCOD8066908
_publ_section_title
;
Structure prediction by ZEFSAII (Michael W. Deem and Ramdas Pophale) SiO2 
 PCOD8066908
Probable space group: P 2/M
;
_chemical_formula_sum "Si O2"
_cell_formula_units_Z 32
_cell_length_a 13.037721
_cell_length_b 27.573038
_cell_length_c 5.234379
_cell_angle_alpha 90.000000
_cell_angle_beta 73.782510
_cell_angle_gamma 90.000000
_cell_volume 1806.828794
_symmetry_space_group_name_H-M "P 2/M"
_symmetry_group_IT_number 10
_symmetry_cell_setting 'monoclinic'
loop_
_space_group_symop_operation_xyz
x,y,z
-x,y,-z
-x,-y,-z
x,-y,z
loop_
_atom_site_type_symbol
_atom_site_label
_atom_site_fract_x
_atom_site_fract_y
_atom_site_fract_z
Si Si1 0.872703 0.945215 0.086780
Si Si2 0.126859 0.723830 0.915325
Si Si3 0.127521 0.109808 0.413359
Si Si4 0.126209 0.781369 0.414261
Si Si5 0.886591 0.446081 0.472964
Si Si6 0.755606 0.371307 0.280020
Si Si7 0.564067 0.376872 0.717060
Si Si8 0.317418 0.553548 0.054417
O O1 0.829029 0.918671 0.369817
O O2 0.828570 0.000000 0.111934
O O3 0.829083 0.916887 0.869586
O O4 0.000000 0.945400 0.000000
O O5 0.164469 0.751331 0.633638
O O6 0.190693 0.673714 0.899024
O O7 0.164291 0.755480 0.129699
O O8 0.000000 0.714051 0.000000
O O9 0.174040 0.164372 0.389455
O O10 0.000000 0.110362 0.500000
O O11 0.000000 0.785320 0.500000
O O12 0.893926 0.500000 0.342077
O O13 0.852616 0.406302 0.291250
O O14 0.802751 0.447258 0.760277
O O15 0.000000 0.429134 0.500000
O O16 0.680439 0.352595 0.568810
O O17 0.675828 0.403719 0.160335
O O18 0.500000 0.377122 0.500000
O O19 0.595689 0.431581 0.789017
O O20 0.500000 0.350941 0.000000
O O21 0.346285 0.500000 0.926604
#
# Coordination Sequence:
#
# PCOD8066908 Si02
#       8
#     4   4   4   4   4   4   4   4
#     4   9  15  21  32  53  76 105 146 194 247 292
#     4  10  22  33  51  72  97 123 159 201 244 293
#     4   9  15  24  38  50  77 112 147 193 241 288
#     4   9  18  32  44  64  87 121 161 196 242 293
#     4   9  20  35  52  75 106 138 164 190 231 293
#     4  11  23  36  57  77 105 126 164 199 248 288
#     4  11  23  43  60  80 102 128 157 193 242 295
#     4  10  22  38  57  81 105 129 161 194 235 300
#
# _framework density 17.710587
#
# number of rings (size 3 to 8) (size 9 to 14) (size 15 to 20)
#    0.000    2.250    1.250    1.500    5.250    6.000 
#    0.000    1.875    0.000    0.000    0.000    0.000 
#    0.000    0.000    0.000    0.000    0.000    0.000 
#
# Total GULP energy -396522.528920 kJ/mol
# GULP energy per Si atom -12391.329029 kJ/mol
# Density = 1.767028 g / cm^3
# Si number density = 17.710587 Si / 1000 Ang^3
#
#
#
# Elastic Constant Matrix: (Units=GPa)
#
#
# Indices 1 2 3 4 5 6 
#
# 1 30.2009 12.8550 23.9185 0.0000 10.5974 0.0000
# 2 12.8550 127.5798 56.1141 0.0000 16.4379 0.0000
# 3 23.9185 56.1141 113.7526 0.0000 26.0980 0.0000
# 4 0.0000 0.0000 0.0000 29.4093 0.0000 6.1025
# 5 10.5974 16.4379 26.0980 0.0000 26.8169 0.0000
# 6 0.0000 0.0000 0.0000 6.1025 0.0000 6.6538
#
#
#
# Elastic Compliance Matrix: (Units=1/GPa)
#
#
# Indices 1 2 3 4 5 6 
#
# 1 0.041810 -0.000077 -0.006403 0.000000 -0.010244 0.000000
# 2 -0.000077 0.010072 -0.004561 0.000000 -0.001704 0.000000
# 3 -0.006403 -0.004561 0.014375 0.000000 -0.008663 0.000000
# 4 0.000000 0.000000 0.000000 0.041995 0.000000 -0.038516
# 5 -0.010244 -0.001704 -0.008663 0.000000 0.050814 0.000000
# 6 0.000000 0.000000 0.000000 -0.038516 0.000000 0.185616
#
#
# Mechanical properties :
#
#
# Convention : Reuss Voigt Hill
#
# Bulk Modulus (GPa) = 22.63746 50.81205 36.72475
# Shear Modulus (GPa) = 13.10654 24.48569 18.79611
#
# Velocity S-wave (km/s) = 2.72332 3.72229 3.26128
# Velocity P-wave (km/s) = 4.76427 6.87215 5.91290
#
# Compressibility (1/GPa) = 0.04417457
#
# Stress axis : x y z
#
# Youngs Moduli (GPa) = 23.91771 99.28759 69.56461
#
# Poissons Ratio (x) = 0.00760 0.44545
# Poissons Ratio (y) = 0.00183 0.31730
# Poissons Ratio (z) = 0.15315 0.45288
#
# Static dielectric constant tensor:
#      x y z
#    x 2.962700 0.000000 0.087740 
#    y 0.000000 3.296470 0.000000 
#    z 0.087740 0.000000 3.563070 
# 
# 
# High freq. dielectric constant tensor:
#      x y z
#    x 1.636470 0.000000 0.020030 
#    y 0.000000 1.667640 0.000000 
#    z 0.020030 0.000000 1.695160 
# 
# From -- ./inp_files/8074.got.cif
#   From: 2010.06.25/outbox.cif.g09.slc.cpg/sg10_5_cif.got.tgz:8074.got - 2010.06.27 22:07:45.
