data_PCOD8066156
_publ_section_title
;
Structure prediction by ZEFSAII (Michael W. Deem and Ramdas Pophale) SiO2 
 PCOD8066156
Probable space group: P 2/M
;
_chemical_formula_sum "Si O2"
_cell_formula_units_Z 24
_cell_length_a 18.466420
_cell_length_b 9.062139
_cell_length_c 24.719860
_cell_angle_alpha 90.000000
_cell_angle_beta 162.032931
_cell_angle_gamma 90.000000
_cell_volume 1276.065063
_symmetry_space_group_name_H-M "P 2/M"
_symmetry_group_IT_number 10
_symmetry_cell_setting 'monoclinic'
loop_
_space_group_symop_operation_xyz
x,y,z
-x,y,-z
-x,-y,-z
x,-y,z
loop_
_atom_site_type_symbol
_atom_site_label
_atom_site_fract_x
_atom_site_fract_y
_atom_site_fract_z
Si Si1 0.384440 0.670954 0.860746
Si Si2 0.841637 0.326691 0.480857
Si Si3 0.127160 0.334825 0.971046
Si Si4 0.195587 0.165264 0.185317
Si Si5 0.488719 0.337094 0.662845
Si Si6 0.523683 0.824833 0.854562
O O1 0.414782 0.500000 0.865945
O O2 0.514326 0.773426 0.909831
O O3 0.112300 0.714898 0.670202
O O4 0.500000 0.705351 0.000000
O O5 0.794189 0.500000 0.436530
O O6 0.746817 0.283355 0.473522
O O7 0.707061 0.235895 0.339375
O O8 0.070429 0.500000 0.909970
O O9 0.307826 0.341273 0.148356
O O10 0.236899 0.239173 0.000655
O O11 0.887627 0.259767 0.822101
O O12 0.440096 0.229275 0.335448
O O13 0.244191 0.000000 0.239694
O O14 0.000000 0.168386 0.000000
O O15 0.452550 0.500000 0.612342
O O16 0.529022 0.000000 0.853974
#
# Coordination Sequence:
#
# PCOD8066156 Si02
#       6
#     4   4   4   4   4   4
#     4  10  21  37  55  73  95 127 166 205 246 293
#     4   9  18  33  52  73  98 129 166 205 242 286
#     4   9  16  27  43  63  91 127 163 197 235 282
#     4   9  15  22  35  60  94 126 155 191 235 282
#     4   8  14  24  39  61  90 124 158 192 233 280
#     4  11  21  32  49  74 102 130 162 202 247 293
#
# _framework density 18.807818999999999
#
# number of rings (size 3 to 8) (size 9 to 14) (size 15 to 20)
#    0.000    2.667    0.000    4.000    0.000    9.000 
#    0.000    0.000    0.000    0.000    0.000    1.167 
#    0.000    9.333    0.000    0.000    0.000    0.000 
#
# Total GULP energy -297557.345029 kJ/mol
# GULP energy per Si atom -12398.222710 kJ/mol
# Density = 1.876501 g / cm^3
# Si number density = 18.807819 Si / 1000 Ang^3
#
#
#
# Elastic Constant Matrix: (Units=GPa)
#
#
# Indices 1 2 3 4 5 6 
#
# 1 138.6085 76.1673 44.0105 0.0000 27.8069 0.0000
# 2 76.1673 134.6786 28.3064 0.0000 10.7082 0.0000
# 3 44.0105 28.3064 19.6669 0.0000 2.0709 0.0000
# 4 0.0000 0.0000 0.0000 9.6097 0.0000 4.0680
# 5 27.8069 10.7082 2.0709 0.0000 18.8945 0.0000
# 6 0.0000 0.0000 0.0000 4.0680 0.0000 28.8860
#
#
#
# Elastic Compliance Matrix: (Units=1/GPa)
#
#
# Indices 1 2 3 4 5 6 
#
# 1 0.088847 -0.003168 -0.182793 0.000000 -0.108926 0.000000
# 2 -0.003168 0.011133 -0.008864 0.000000 -0.000676 0.000000
# 3 -0.182793 -0.008864 0.448984 0.000000 0.224829 0.000000
# 4 0.000000 0.000000 0.000000 0.110659 0.000000 -0.015584
# 5 -0.108926 -0.000676 0.224829 0.000000 0.188973 0.000000
# 6 0.000000 0.000000 0.000000 -0.015584 0.000000 0.036813
#
#
# Mechanical properties :
#
#
# Convention : Reuss Voigt Hill
#
# Bulk Modulus (GPa) = 6.27686 65.54691 35.91189
# Shear Modulus (GPa) = 3.76459 21.10936 12.43697
#
# Velocity S-wave (km/s) = 1.41632 3.35382 2.57430
# Velocity P-wave (km/s) = 2.45341 7.06569 5.28882
#
# Compressibility (1/GPa) = 0.15931535
#
# Stress axis : x y z
#
# Youngs Moduli (GPa) = 11.25524 89.81946 2.22725
#
# Poissons Ratio (x) = 0.28454 0.40713
# Poissons Ratio (y) = 0.03566 0.01974
# Poissons Ratio (z) = 2.05738 0.79615
#
# Static dielectric constant tensor:
#      x y z
#    x 3.618220 0.000000 0.427140 
#    y 0.000000 3.515660 0.000000 
#    z 0.427140 0.000000 3.028850 
# 
# 
# High freq. dielectric constant tensor:
#      x y z
#    x 1.736590 0.000000 0.036470 
#    y 0.000000 1.729880 0.000000 
#    z 0.036470 0.000000 1.675780 
# 
# From -- ./inp_files/27221.got.cif
#   From: 2010.06.25/outbox.cif.g09.slc.cpg/sg10_14_cif.got.tgz:27221.got - 2010.06.27 22:07:45.
