data_PCOD8066298
_publ_section_title
;
Structure prediction by ZEFSAII (Michael W. Deem and Ramdas Pophale) SiO2 
 PCOD8066298
Probable space group: P 2/M
;
_chemical_formula_sum "Si O2"
_cell_formula_units_Z 28
_cell_length_a 28.464962
_cell_length_b 8.865000
_cell_length_c 8.895872
_cell_angle_alpha 90.000000
_cell_angle_beta 39.122693
_cell_angle_gamma 90.000000
_cell_volume 1416.431636
_symmetry_space_group_name_H-M "P 2/M"
_symmetry_group_IT_number 10
_symmetry_cell_setting 'monoclinic'
loop_
_space_group_symop_operation_xyz
x,y,z
-x,y,-z
-x,-y,-z
x,-y,z
loop_
_atom_site_type_symbol
_atom_site_label
_atom_site_fract_x
_atom_site_fract_y
_atom_site_fract_z
Si Si1 0.783362 0.822533 0.616219
Si Si2 0.923551 0.321902 0.111735
Si Si3 0.506290 0.672805 0.660279
Si Si4 0.645038 0.676106 0.798760
Si Si5 0.926044 0.321155 0.764054
Si Si6 0.213214 0.824141 0.048277
Si Si7 0.362003 0.175819 0.501524
O O1 0.858060 0.753483 0.366054
O O2 0.713548 0.765875 0.696228
O O3 0.774558 0.772815 0.810755
O O4 0.787721 0.000000 0.587762
O O5 0.912109 0.500000 0.145385
O O6 0.923509 0.261090 0.941087
O O7 0.000000 0.272792 0.000000
O O8 0.500000 0.697992 0.500000
O O9 0.527084 0.500000 0.648245
O O10 0.568884 0.785028 0.564383
O O11 0.428320 0.718853 0.927153
O O12 0.663145 0.500000 0.762651
O O13 0.632429 0.723107 0.659329
O O14 0.927244 0.500000 0.759392
O O15 0.854635 0.267121 0.851646
O O16 0.000000 0.256821 0.500000
O O17 0.194644 0.000000 0.083253
O O18 0.286904 0.781443 0.774546
O O19 0.364497 0.000000 0.452959
#
# Coordination Sequence:
#
# PCOD8066298 Si02
#       7
#     4   4   4   4   4   4   4
#     4  11  23  39  59  84 115 150 191 236 284 338
#     4  10  21  38  60  86 116 150 190 235 284 339
#     4  10  22  40  61  86 116 151 192 237 285 338
#     4  11  23  39  60  86 116 150 190 235 284 339
#     4  10  21  37  59  86 113 146 189 234 280 333
#     4  10  23  40  57  82 115 151 189 231 281 337
#     4  11  23  39  60  86 117 152 191 235 284 339
#
# _framework density 19.767984999999999
#
# number of rings (size 3 to 8) (size 9 to 14) (size 15 to 20)
#    0.000    1.571    0.000    4.286    0.000   10.000 
#    0.000    0.000    0.000    0.000    0.000    0.000 
#    0.000    0.000    0.000    0.000    0.000    0.000 
#
# Total GULP energy -347373.806426 kJ/mol
# GULP energy per Si atom -12406.207372 kJ/mol
# Density = 1.972299 g / cm^3
# Si number density = 19.767985 Si / 1000 Ang^3
#
#
#
# Elastic Constant Matrix: (Units=GPa)
#
#
# Indices 1 2 3 4 5 6 
#
# 1 108.1097 49.6369 53.2774 0.0000 -10.6049 0.0000
# 2 49.6369 93.4700 61.3468 0.0000 -8.9357 0.0000
# 3 53.2774 61.3468 165.6225 0.0000 -1.8341 0.0000
# 4 0.0000 0.0000 0.0000 6.2941 0.0000 34.3934
# 5 -10.6049 -8.9357 -1.8341 0.0000 41.2113 0.0000
# 6 0.0000 0.0000 0.0000 34.3934 0.0000 -15.6997
#
#
#
# Elastic Compliance Matrix: (Units=1/GPa)
#
#
# Indices 1 2 3 4 5 6 
#
# 1 0.012941 -0.005225 -0.002204 0.000000 0.002099 0.000000
# 2 -0.005225 0.016583 -0.004439 0.000000 0.002054 0.000000
# 3 -0.002204 -0.004439 0.008378 0.000000 -0.001157 0.000000
# 4 0.000000 0.000000 0.000000 0.012249 0.000000 0.026834
# 5 0.002099 0.002054 -0.001157 0.000000 0.025199 0.000000
# 6 0.000000 0.000000 0.000000 0.026834 0.000000 -0.004911
#
#
# Mechanical properties :
#
#
# Convention : Reuss Voigt Hill
#
# Bulk Modulus (GPa) = 70.59099 77.30269 73.94684
# Shear Modulus (GPa) = 50.55736 19.89055 35.22395
#
# Velocity S-wave (km/s) = 5.06270 3.17551 4.22580
# Velocity P-wave (km/s) = 8.36432 7.25500 7.82933
#
# Compressibility (1/GPa) = 0.01416611
#
# Stress axis : x y z
#
# Youngs Moduli (GPa) = 77.27394 60.30311 119.35650
#
# Poissons Ratio (x) = 0.31507 0.26310
# Poissons Ratio (y) = 0.40374 0.52981
# Poissons Ratio (z) = 0.17034 0.26768
#
# Static dielectric constant tensor:
#      x y z
#    x 3.703380 0.000000 0.138690 
#    y 0.000000 3.531870 0.000000 
#    z 0.138690 0.000000 3.808140 
# 
# 
# High freq. dielectric constant tensor:
#      x y z
#    x 1.787640 0.000000 0.002630 
#    y 0.000000 1.766740 0.000000 
#    z 0.002630 0.000000 1.792110 
# 
# From -- ./inp_files/36944.got.cif
#   From: 2010.06.25/outbox.cif.g09.slc.cpg/sg10_19_cif.got.tgz:36944.got - 2010.06.27 22:07:45.
