data_PCOD8066639
_publ_section_title
;
Structure prediction by ZEFSAII (Michael W. Deem and Ramdas Pophale) SiO2 
 PCOD8066639
Probable space group: P 2/M
;
_chemical_formula_sum "Si O2"
_cell_formula_units_Z 24
_cell_length_a 9.861841
_cell_length_b 8.812756
_cell_length_c 14.248490
_cell_angle_alpha 90.000000
_cell_angle_beta 99.660622
_cell_angle_gamma 90.000000
_cell_volume 1220.775441
_symmetry_space_group_name_H-M "P 2/M"
_symmetry_group_IT_number 10
_symmetry_cell_setting 'monoclinic'
loop_
_space_group_symop_operation_xyz
x,y,z
-x,y,-z
-x,-y,-z
x,-y,z
loop_
_atom_site_type_symbol
_atom_site_label
_atom_site_fract_x
_atom_site_fract_y
_atom_site_fract_z
Si Si1 0.746536 0.675964 0.761381
Si Si2 0.912872 0.820621 0.617960
Si Si3 0.844787 0.678200 0.977569
Si Si4 0.818274 0.677629 0.420751
Si Si5 0.374576 0.178133 0.923993
Si Si6 0.433637 0.674036 0.737519
O O1 0.784459 0.500000 0.749688
O O2 0.841091 0.778629 0.706844
O O3 0.775122 0.725550 0.871472
O O4 0.587298 0.708770 0.719538
O O5 0.820826 0.757294 0.522110
O O6 0.064469 0.747159 0.632871
O O7 0.927108 0.000000 0.610295
O O8 0.838994 0.500000 0.992201
O O9 0.766923 0.753225 0.055249
O O10 0.000000 0.738844 0.000000
O O11 0.847149 0.500000 0.436837
O O12 0.668884 0.708724 0.359853
O O13 0.393910 0.218910 0.818337
O O14 0.366882 0.000000 0.934256
O O15 0.500000 0.245713 0.000000
O O16 0.421694 0.500000 0.769993
#
# Coordination Sequence:
#
# PCOD8066639 Si02
#       6
#     4   4   4   4   4   4
#     4  10  21  39  60  85 118 153 195 244 286 335
#     4  11  23  39  60  87 121 155 187 232 294 353
#     4  10  22  39  61  87 115 154 202 243 281 335
#     4  10  21  40  64  88 113 148 197 243 286 342
#     4  11  23  38  58  86 122 158 190 234 292 349
#     4  10  22  39  63  88 112 152 200 243 287 338
#
# _framework density 19.659634
#
# number of rings (size 3 to 8) (size 9 to 14) (size 15 to 20)
#    0.000    1.667    1.667    3.500    2.333    4.333 
#    0.000    3.333    0.000    0.000    0.000    0.000 
#    0.000    0.000    0.000    0.000    0.000    0.000 
#
# Total GULP energy -297728.032125 kJ/mol
# GULP energy per Si atom -12405.334672 kJ/mol
# Density = 1.961489 g / cm^3
# Si number density = 19.659634 Si / 1000 Ang^3
#
#
#
# Elastic Constant Matrix: (Units=GPa)
#
#
# Indices 1 2 3 4 5 6 
#
# 1 93.2317 27.1221 16.5203 0.0000 9.5630 0.0000
# 2 27.1221 68.5687 16.7958 0.0000 -1.8553 0.0000
# 3 16.5203 16.7958 43.5658 0.0000 3.3739 0.0000
# 4 0.0000 0.0000 0.0000 19.4432 0.0000 3.0885
# 5 9.5630 -1.8553 3.3739 0.0000 42.5313 0.0000
# 6 0.0000 0.0000 0.0000 3.0885 0.0000 9.4555
#
#
#
# Elastic Compliance Matrix: (Units=1/GPa)
#
#
# Indices 1 2 3 4 5 6 
#
# 1 0.012827 -0.004432 -0.002935 0.000000 -0.002845 0.000000
# 2 -0.004432 0.017697 -0.005312 0.000000 0.002190 0.000000
# 3 -0.002935 -0.005312 0.026243 0.000000 -0.001653 0.000000
# 4 0.000000 0.000000 0.000000 0.054246 0.000000 -0.017719
# 5 -0.002845 0.002190 -0.001653 0.000000 0.024378 0.000000
# 6 0.000000 0.000000 0.000000 -0.017719 0.000000 0.111546
#
#
# Mechanical properties :
#
#
# Convention : Reuss Voigt Hill
#
# Bulk Modulus (GPa) = 31.83748 36.24918 34.04333
# Shear Modulus (GPa) = 17.68252 23.94786 20.81519
#
# Velocity S-wave (km/s) = 3.00231 3.49395 3.25742
# Velocity P-wave (km/s) = 5.31488 5.89536 5.61263
#
# Compressibility (1/GPa) = 0.03140953
#
# Stress axis : x y z
#
# Youngs Moduli (GPa) = 77.96007 56.50594 38.10576
#
# Poissons Ratio (x) = 0.25042 0.11185
# Poissons Ratio (y) = 0.34550 0.20241
# Poissons Ratio (z) = 0.22883 0.30015
#
# Static dielectric constant tensor:
#      x y z
#    x 3.707160 0.000000 0.164490 
#    y 0.000000 3.496560 0.000000 
#    z 0.164490 0.000000 3.516060 
# 
# 
# High freq. dielectric constant tensor:
#      x y z
#    x 1.776070 0.000000 0.004070 
#    y 0.000000 1.762570 0.000000 
#    z 0.004070 0.000000 1.765600 
# 
# From -- ./inp_files/60274.got.cif
#   From: 2010.06.25/outbox.cif.g09.slc.cpg/sg10_31_cif.got.tgz:60274.got - 2010.06.27 22:07:45.
