data_PCOD8066871
_publ_section_title
;
Structure prediction by ZEFSAII (Michael W. Deem and Ramdas Pophale) SiO2 
 PCOD8066871
Probable space group: P 2/M
;
_chemical_formula_sum "Si O2"
_cell_formula_units_Z 24
_cell_length_a 9.790784
_cell_length_b 17.513274
_cell_length_c 10.027303
_cell_angle_alpha 90.000000
_cell_angle_beta 136.577817
_cell_angle_gamma 90.000000
_cell_volume 1181.840159
_symmetry_space_group_name_H-M "P 2/M"
_symmetry_group_IT_number 10
_symmetry_cell_setting 'monoclinic'
loop_
_space_group_symop_operation_xyz
x,y,z
-x,y,-z
-x,-y,-z
x,-y,z
loop_
_atom_site_type_symbol
_atom_site_label
_atom_site_fract_x
_atom_site_fract_y
_atom_site_fract_z
Si Si1 0.071338 0.412735 0.908761
Si Si2 0.530188 0.648184 0.871903
Si Si3 0.988685 0.087607 0.145828
Si Si4 0.349110 0.830985 0.509809
Si Si5 0.133070 0.315250 0.464744
Si Si6 0.396263 0.825602 0.063022
O O1 0.002798 0.500000 0.842584
O O2 0.988788 0.364415 0.727019
O O3 0.309384 0.406937 0.081524
O O4 0.000000 0.379553 0.000000
O O5 0.325663 0.637441 0.647314
O O6 0.612821 0.734571 0.926961
O O7 0.500000 0.619998 0.000000
O O8 0.205980 0.100495 0.362995
O O9 0.926834 0.000000 0.122611
O O10 0.825200 0.141318 0.098670
O O11 0.000000 0.110244 0.000000
O O12 0.500000 0.805690 0.500000
O O13 0.205185 0.761657 0.446082
O O14 0.477043 0.860994 0.725672
O O15 0.000000 0.295269 0.500000
O O16 0.500000 0.849645 0.000000
#
# Coordination Sequence:
#
# PCOD8066871 Si02
#       6
#     4   4   4   4   4   4
#     4  11  26  43  62  92 132 169 206 255 309 373
#     4  10  21  41  66  93 121 165 207 260 309 365
#     4  11  24  41  63  91 129 172 208 253 312 378
#     4  11  24  40  66  98 121 164 212 262 311 365
#     4  11  24  42  67  96 125 161 211 262 313 369
#     4  10  23  41  65  93 126 160 209 264 312 365
#
# _framework density 20.307314999999999
#
# number of rings (size 3 to 8) (size 9 to 14) (size 15 to 20)
#    0.000    1.333    3.333    1.000    9.333    4.000 
#    0.000    2.500    0.000    0.000    0.000    0.000 
#    0.000    0.000    0.000    0.000    0.000    0.000 
#
# Total GULP energy -297688.952269 kJ/mol
# GULP energy per Si atom -12403.706345 kJ/mol
# Density = 2.026109 g / cm^3
# Si number density = 20.307315 Si / 1000 Ang^3
#
#
#
# Elastic Constant Matrix: (Units=GPa)
#
#
# Indices 1 2 3 4 5 6 
#
# 1 162.5580 41.2972 53.8547 0.0000 -5.9423 0.0000
# 2 41.2972 38.5226 16.8229 0.0000 -0.7074 0.0000
# 3 53.8547 16.8229 115.7179 0.0000 -2.2579 0.0000
# 4 0.0000 0.0000 0.0000 15.0327 0.0000 7.1340
# 5 -5.9423 -0.7074 -2.2579 0.0000 39.2849 0.0000
# 6 0.0000 0.0000 0.0000 7.1340 0.0000 -1.1392
#
#
#
# Elastic Compliance Matrix: (Units=1/GPa)
#
#
# Indices 1 2 3 4 5 6 
#
# 1 0.009441 -0.008747 -0.003101 0.000000 0.001092 0.000000
# 2 -0.008747 0.035825 -0.001152 0.000000 -0.000744 0.000000
# 3 -0.003101 -0.001152 0.010254 0.000000 0.000100 0.000000
# 4 0.000000 0.000000 0.000000 0.016748 0.000000 0.104883
# 5 0.001092 -0.000744 0.000100 0.000000 0.025613 0.000000
# 6 0.000000 0.000000 0.000000 0.104883 0.000000 -0.221009
#
#
# Mechanical properties :
#
#
# Convention : Reuss Voigt Hill
#
# Bulk Modulus (GPa) = 33.87432 60.08313 46.97872
# Shear Modulus (GPa) = -57.28112 24.29059 -16.49526
#
# Velocity S-wave (km/s) = -5.31680 3.46229 -2.85315
# Velocity P-wave (km/s) = 4.57975 6.75533 3.51144
#
# Compressibility (1/GPa) = 0.02952089
#
# Stress axis : x y z
#
# Youngs Moduli (GPa) = 105.92151 27.91356 97.52040
#
# Poissons Ratio (x) = 0.24415 0.30240
# Poissons Ratio (y) = 0.92647 0.11234
# Poissons Ratio (z) = 0.32845 0.03216
#
# Static dielectric constant tensor:
#      x y z
#    x 3.873930 0.000000 0.024610 
#    y 0.000000 3.347470 0.000000 
#    z 0.024610 0.000000 3.900700 
# 
# 
# High freq. dielectric constant tensor:
#      x y z
#    x 1.811210 0.000000 0.003290 
#    y 0.000000 1.768450 0.000000 
#    z 0.003290 0.000000 1.808170 
# 
# From -- ./inp_files/20257.got.cif
#   From: 2010.06.25/outbox.cif.g09.slc.cpg/sg10_11_cif.got.tgz:20257.got - 2010.06.27 22:07:45.
