data_PCOD8066182
_publ_section_title
;
Structure prediction by ZEFSAII (Michael W. Deem and Ramdas Pophale) SiO2 
 PCOD8066182
Probable space group: P 2/M
;
_chemical_formula_sum "Si O2"
_cell_formula_units_Z 32
_cell_length_a 9.012131
_cell_length_b 28.136670
_cell_length_c 15.265643
_cell_angle_alpha 90.000000
_cell_angle_beta 27.683089
_cell_angle_gamma 90.000000
_cell_volume 1798.359271
_symmetry_space_group_name_H-M "P 2/M"
_symmetry_group_IT_number 10
_symmetry_cell_setting 'monoclinic'
loop_
_space_group_symop_operation_xyz
x,y,z
-x,y,-z
-x,-y,-z
x,-y,z
loop_
_atom_site_type_symbol
_atom_site_label
_atom_site_fract_x
_atom_site_fract_y
_atom_site_fract_z
Si Si1 0.168391 0.802088 0.500000
Si Si2 0.676085 0.447158 0.500000
Si Si3 0.377068 0.881481 0.799130
Si Si4 0.274459 0.118519 0.200870
Si Si5 0.124913 0.628107 0.200339
Si Si6 0.774069 0.628107 0.200339
Si Si7 0.325085 0.703024 0.500000
Si Si8 0.671152 0.056132 0.500000
O O1 0.480683 0.832917 0.314444
O O2 0.270480 0.756472 0.500000
O O3 0.000000 0.784455 0.500000
O O4 0.924015 0.832917 0.685556
O O5 0.500000 0.450052 0.500000
O O6 0.746694 0.500000 0.500000
O O7 0.448683 0.418807 0.686207
O O8 0.007302 0.418807 0.313793
O O9 0.518719 0.892166 0.820854
O O10 0.470096 0.924932 0.687551
O O11 0.000000 0.875833 0.000000
O O12 0.032749 0.075068 0.312449
O O13 0.500000 0.124167 0.000000
O O14 0.987361 0.628314 0.175093
O O15 0.008281 0.674882 0.314023
O O16 0.500000 0.628106 0.000000
O O17 0.549651 0.674882 0.314023
O O18 0.000000 0.628106 0.000000
O O19 0.500000 0.703878 0.500000
O O20 0.500000 0.072716 0.500000
O O21 0.685197 0.000000 0.500000
#
# Coordination Sequence:
#
# PCOD8066182 Si02
#       8
#     4   4   4   4   4   4   4   4
#     4   9  20  36  53  76 103 131 168 213 255 297
#     4   8  15  30  50  69  94 129 163 196 240 296
#     4  10  21  37  56  79 107 138 173 213 257 305
#     4  10  21  37  56  79 107 138 173 213 257 305
#     4   9  18  32  49  71  97 126 163 202 243 293
#     4   9  18  32  49  71  97 126 163 202 243 293
#     4   9  19  34  50  69  97 133 166 198 244 303
#     4  10  21  37  57  81 108 139 175 214 257 304
#
# _framework density 17.793997999999998
#
# number of rings (size 3 to 8) (size 9 to 14) (size 15 to 20)
#    0.000    2.750    0.000    3.375    0.000    7.000 
#    0.000    6.875    0.000    0.750    0.000    0.000 
#    0.000    0.000    0.000    0.000    0.000    0.000 
#
# Total GULP energy -396749.336065 kJ/mol
# GULP energy per Si atom -12398.416752 kJ/mol
# Density = 1.775350 g / cm^3
# Si number density = 17.793998 Si / 1000 Ang^3
#
#
#
# Elastic Constant Matrix: (Units=GPa)
#
#
# Indices 1 2 3 4 5 6 
#
# 1 75.6651 46.6148 61.6650 0.0000 -2.1616 0.0000
# 2 46.6148 117.8131 63.5019 0.0000 -0.5909 0.0000
# 3 61.6650 63.5019 176.4009 0.0000 -1.3632 0.0000
# 4 0.0000 0.0000 0.0000 13.1787 0.0000 0.4070
# 5 -2.1616 -0.5909 -1.3632 0.0000 37.8604 0.0000
# 6 0.0000 0.0000 0.0000 0.4070 0.0000 24.8116
#
#
#
# Elastic Compliance Matrix: (Units=1/GPa)
#
#
# Indices 1 2 3 4 5 6 
#
# 1 0.020939 -0.005383 -0.005375 0.000000 0.000918 0.000000
# 2 -0.005383 0.011916 -0.002409 0.000000 -0.000208 0.000000
# 3 -0.005375 -0.002409 0.008415 0.000000 -0.000041 0.000000
# 4 0.000000 0.000000 0.000000 0.075918 0.000000 -0.001245
# 5 0.000918 -0.000208 -0.000041 0.000000 0.026460 0.000000
# 6 0.000000 0.000000 0.000000 -0.001245 0.000000 0.040324
#
#
# Mechanical properties :
#
#
# Convention : Reuss Voigt Hill
#
# Bulk Modulus (GPa) = 66.95720 79.27141 73.11431
# Shear Modulus (GPa) = 23.22502 28.37664 25.80083
#
# Velocity S-wave (km/s) = 3.61670 3.99774 3.81198
# Velocity P-wave (km/s) = 7.42640 8.12130 7.78161
#
# Compressibility (1/GPa) = 0.01493491
#
# Stress axis : x y z
#
# Youngs Moduli (GPa) = 47.75752 83.92401 118.83938
#
# Poissons Ratio (x) = 0.45179 0.63873
# Poissons Ratio (y) = 0.25709 0.28631
# Poissons Ratio (z) = 0.25668 0.20219
#
# Static dielectric constant tensor:
#      x y z
#    x 3.207670 0.000000 -0.010220 
#    y 0.000000 3.457480 0.000000 
#    z -0.010220 0.000000 3.499790 
# 
# 
# High freq. dielectric constant tensor:
#      x y z
#    x 1.680070 0.000000 -0.000530 
#    y 0.000000 1.691280 0.000000 
#    z -0.000530 0.000000 1.695230 
# 
# From -- ./inp_files/62739.got.cif
#   From: 2010.06.25/outbox.cif.g09.slc.cpg/sg10_32_cif.got.tgz:62739.got - 2010.06.27 22:07:45.
