data_PCOD8066047
_publ_section_title
;
Structure prediction by ZEFSAII (Michael W. Deem and Ramdas Pophale) SiO2 
 PCOD8066047
Probable space group: P 2/M
;
_chemical_formula_sum "Si O2"
_cell_formula_units_Z 24
_cell_length_a 21.823543
_cell_length_b 9.775201
_cell_length_c 11.025361
_cell_angle_alpha 90.000000
_cell_angle_beta 147.907482
_cell_angle_gamma 90.000000
_cell_volume 1249.607841
_symmetry_space_group_name_H-M "P 2/M"
_symmetry_group_IT_number 10
_symmetry_cell_setting 'monoclinic'
loop_
_space_group_symop_operation_xyz
x,y,z
-x,y,-z
-x,-y,-z
x,-y,z
loop_
_atom_site_type_symbol
_atom_site_label
_atom_site_fract_x
_atom_site_fract_y
_atom_site_fract_z
Si Si1 0.311494 0.156009 0.899839
Si Si2 0.869716 0.656473 0.786037
Si Si3 0.442298 0.841396 0.608656
Si Si4 0.694706 0.845552 0.384429
Si Si5 0.737374 0.656634 0.809355
Si Si6 0.134142 0.339945 0.728472
O O1 0.354834 0.171909 0.833782
O O2 0.203999 0.255042 0.744996
O O3 0.272518 0.000000 0.859320
O O4 0.421652 0.194033 0.168393
O O5 0.856922 0.500000 0.723712
O O6 0.803722 0.746828 0.577596
O O7 0.823454 0.681469 0.843025
O O8 0.000000 0.705923 0.000000
O O9 0.400146 0.805403 0.674153
O O10 0.375673 0.751254 0.396594
O O11 0.420624 0.000000 0.541114
O O12 0.737030 0.000000 0.477912
O O13 0.695127 0.500000 0.745217
O O14 0.810019 0.698295 0.048974
O O15 0.146594 0.500000 0.719408
O O16 0.000000 0.296428 0.500000
#
# Coordination Sequence:
#
# PCOD8066047 Si02
#       6
#     4   4   4   4   4   4
#     4  10  21  36  56  82 110 142 180 221 265 315
#     4   9  18  31  52  78 104 138 177 220 266 313
#     4   9  18  35  58  82 109 141 175 216 271 325
#     4   9  18  33  53  80 111 140 172 215 267 320
#     4   9  19  36  54  77 107 138 178 225 268 313
#     4  10  23  40  57  76 105 146 185 221 265 318
#
# _framework density 19.206026000000001
#
# number of rings (size 3 to 8) (size 9 to 14) (size 15 to 20)
#    0.000    2.667    0.000    0.500    2.333    5.333 
#    0.000    3.333    0.000    5.000    0.000    0.000 
#    0.000    0.000    0.000    0.000    0.000    0.000 
#
# Total GULP energy -297589.966545 kJ/mol
# GULP energy per Si atom -12399.581939 kJ/mol
# Density = 1.916231 g / cm^3
# Si number density = 19.206026 Si / 1000 Ang^3
#
#
#
# Elastic Constant Matrix: (Units=GPa)
#
#
# Indices 1 2 3 4 5 6 
#
# 1 49.5374 29.2724 35.5573 0.0000 3.9799 0.0000
# 2 29.2724 68.4633 58.4823 0.0000 9.0582 0.0000
# 3 35.5573 58.4823 122.5262 0.0000 8.5295 0.0000
# 4 0.0000 0.0000 0.0000 30.5739 0.0000 7.2052
# 5 3.9799 9.0582 8.5295 0.0000 32.3907 0.0000
# 6 0.0000 0.0000 0.0000 7.2052 0.0000 20.6414
#
#
#
# Elastic Compliance Matrix: (Units=1/GPa)
#
#
# Indices 1 2 3 4 5 6 
#
# 1 0.028179 -0.008549 -0.004098 0.000000 0.000007 0.000000
# 2 -0.008549 0.027740 -0.010485 0.000000 -0.003946 0.000000
# 3 -0.004098 -0.010485 0.014379 0.000000 -0.000351 0.000000
# 4 0.000000 0.000000 0.000000 0.035639 0.000000 -0.012441
# 5 0.000007 -0.003946 -0.000351 0.000000 0.032068 0.000000
# 6 0.000000 0.000000 0.000000 -0.012441 0.000000 0.052789
#
#
# Mechanical properties :
#
#
# Convention : Reuss Voigt Hill
#
# Bulk Modulus (GPa) = 41.60480 54.12789 47.86634
# Shear Modulus (GPa) = 20.40234 24.53553 22.46893
#
# Velocity S-wave (km/s) = 3.26281 3.57808 3.42408
# Velocity P-wave (km/s) = 5.99199 6.73158 6.37252
#
# Compressibility (1/GPa) = 0.02403569
#
# Stress axis : x y z
#
# Youngs Moduli (GPa) = 35.48715 36.04908 69.54346
#
# Poissons Ratio (x) = 0.30819 0.28496
# Poissons Ratio (y) = 0.30338 0.72914
# Poissons Ratio (z) = 0.14541 0.37796
#
# Static dielectric constant tensor:
#      x y z
#    x 3.368620 0.000000 -0.007470 
#    y 0.000000 3.479900 0.000000 
#    z -0.007470 0.000000 3.612690 
# 
# 
# High freq. dielectric constant tensor:
#      x y z
#    x 1.741640 0.000000 -0.001790 
#    y 0.000000 1.741080 0.000000 
#    z -0.001790 0.000000 1.748670 
# 
# From -- ./inp_files/45304.got.cif
#   From: 2010.06.25/outbox.cif.g09.slc.cpg/sg10_23_cif.got.tgz:45304.got - 2010.06.27 22:07:45.
