data_PCOD8066146
_publ_section_title
;
Structure prediction by ZEFSAII (Michael W. Deem and Ramdas Pophale) SiO2 
 PCOD8066146
Probable space group: P 2/M
;
_chemical_formula_sum "Si O2"
_cell_formula_units_Z 32
_cell_length_a 25.287803
_cell_length_b 8.884712
_cell_length_c 11.982320
_cell_angle_alpha 90.000000
_cell_angle_beta 44.765583
_cell_angle_gamma 90.000000
_cell_volume 1895.816201
_symmetry_space_group_name_H-M "P 2/M"
_symmetry_group_IT_number 10
_symmetry_cell_setting 'monoclinic'
loop_
_space_group_symop_operation_xyz
x,y,z
-x,y,-z
-x,-y,-z
x,-y,z
loop_
_atom_site_type_symbol
_atom_site_label
_atom_site_fract_x
_atom_site_fract_y
_atom_site_fract_z
Si Si1 0.534137 0.178309 0.674530
Si Si2 0.233399 0.670572 0.673057
Si Si3 0.303473 0.824433 0.184320
Si Si4 0.418406 0.671852 0.175277
Si Si5 0.359220 0.324040 0.650109
Si Si6 0.624618 0.676106 0.119530
Si Si7 0.810864 0.826279 0.465331
Si Si8 0.923779 0.328934 0.160994
O O1 0.581039 0.259260 0.701554
O O2 0.571319 0.228830 0.502004
O O3 0.448528 0.231010 0.804917
O O4 0.537636 0.000000 0.683818
O O5 0.255932 0.500000 0.612010
O O6 0.281882 0.727620 0.705446
O O7 0.250012 0.765268 0.535215
O O8 0.143003 0.682927 0.832476
O O9 0.366702 0.773440 0.175510
O O10 0.221644 0.793708 0.362644
O O11 0.314426 0.000000 0.142002
O O12 0.308549 0.729485 0.062456
O O13 0.388936 0.500000 0.225055
O O14 0.500000 0.677757 0.000000
O O15 0.376825 0.500000 0.606666
O O16 0.349676 0.285646 0.794092
O O17 0.608094 0.500000 0.127333
O O18 0.892440 0.748859 0.321923
O O19 0.821801 0.000000 0.426657
O O20 0.942426 0.500000 0.165043
O O21 0.000000 0.251287 0.000000
#
# Coordination Sequence:
#
# PCOD8066146 Si02
#       8
#     4   4   4   4   4   4   4   4
#     4  12  24  36  52  72  96 126 163 212 263 304
#     4   8  16  31  50  73 100 128 157 192 239 285
#     4  11  22  35  50  71  99 128 162 206 252 297
#     4  11  22  35  53  72  93 125 165 206 252 302
#     4  10  21  37  54  70  94 129 170 212 249 293
#     4  11  23  37  52  69  91 128 175 215 251 294
#     4   9  18  30  47  74 103 129 155 188 234 289
#     4   8  15  29  50  77 106 132 157 187 230 285
#
# _framework density 16.879273999999999
#
# number of rings (size 3 to 8) (size 9 to 14) (size 15 to 20)
#    0.750    1.250    1.250    3.375    0.000    7.750 
#    0.000    0.000    0.000    0.000    0.000    0.875 
#    0.000    7.000    0.000    0.000    0.000    0.000 
#
# Total GULP energy -396597.392083 kJ/mol
# GULP energy per Si atom -12393.668503 kJ/mol
# Density = 1.684086 g / cm^3
# Si number density = 16.879274 Si / 1000 Ang^3
#
#
#
# Elastic Constant Matrix: (Units=GPa)
#
#
# Indices 1 2 3 4 5 6 
#
# 1 35.2210 17.1482 35.7857 0.0000 11.4758 0.0000
# 2 17.1482 67.1646 42.5105 0.0000 6.1096 0.0000
# 3 35.7857 42.5105 120.0156 0.0000 8.7275 0.0000
# 4 0.0000 0.0000 0.0000 26.9894 0.0000 0.5081
# 5 11.4758 6.1096 8.7275 0.0000 26.3084 0.0000
# 6 0.0000 0.0000 0.0000 0.5081 0.0000 10.0879
#
#
#
# Elastic Compliance Matrix: (Units=1/GPa)
#
#
# Indices 1 2 3 4 5 6 
#
# 1 0.047044 -0.003117 -0.011768 0.000000 -0.015893 0.000000
# 2 -0.003117 0.019529 -0.005899 0.000000 -0.001218 0.000000
# 3 -0.011768 -0.005899 0.013790 0.000000 0.001928 0.000000
# 4 0.000000 0.000000 0.000000 0.037087 0.000000 -0.001868
# 5 -0.015893 -0.001218 0.001928 0.000000 0.044587 0.000000
# 6 0.000000 0.000000 0.000000 -0.001868 0.000000 0.099223
#
#
# Mechanical properties :
#
#
# Convention : Reuss Voigt Hill
#
# Bulk Modulus (GPa) = 25.77605 45.92112 35.84859
# Shear Modulus (GPa) = 15.83477 21.14093 18.48785
#
# Velocity S-wave (km/s) = 3.06620 3.54288 3.31312
# Velocity P-wave (km/s) = 5.27630 6.63330 5.99333
#
# Compressibility (1/GPa) = 0.03879570
#
# Stress axis : x y z
#
# Youngs Moduli (GPa) = 21.25648 51.20469 72.51417
#
# Poissons Ratio (x) = 0.15963 0.85331
# Poissons Ratio (y) = 0.06627 0.42779
# Poissons Ratio (z) = 0.25014 0.30207
#
# Static dielectric constant tensor:
#      x y z
#    x 2.997800 0.000000 0.034140 
#    y 0.000000 3.183730 0.000000 
#    z 0.034140 0.000000 3.309060 
# 
# 
# High freq. dielectric constant tensor:
#      x y z
#    x 1.611140 0.000000 0.004490 
#    y 0.000000 1.657730 0.000000 
#    z 0.004490 0.000000 1.650390 
# 
# From -- ./inp_files/56441.got.cif
#   From: 2010.06.25/outbox.cif.g09.slc.cpg/sg10_29_cif.got.tgz:56441.got - 2010.06.27 22:07:45.
